MODEL 1
REMARK VINA RESULT: -6.247028087      0.000      0.000
REMARK  3 active torsions:
REMARK  status: ('A' for Active; 'I' for Inactive)
REMARK       I    between atoms: C1_4  and  N2_5 
REMARK       I    between atoms: C1_4  and  N3_11 
REMARK    1  A    between atoms: C9_15  and  C10_16 
REMARK       I    between atoms: C10_16  and  N4_18 
REMARK    2  A    between atoms: N4_18  and  C11_20 
REMARK    3  A    between atoms: C11_20  and  C12_21 
ROOT
HETATM    1  N1  UNL     1      24.829  12.293  22.165  1.00  0.00    -0.235 N 
ATOM      2  H11 UNL     1      23.912  12.737  22.221  1.00  0.00     0.174 HD
ATOM      3  H12 UNL     1      25.243  11.926  23.022  1.00  0.00     0.174 HD
HETATM    4  C1  UNL     1      25.428  12.205  21.040  1.00  0.00     0.672 C 
HETATM    5  N2  UNL     1      26.694  11.593  20.962  1.00  0.00    -0.214 N 
HETATM    6  C2  UNL     1      27.051  10.796  19.777  1.00  0.00     0.167 C 
HETATM    7  C3  UNL     1      28.566  10.781  19.740  1.00  0.00     0.188 C 
HETATM    8  O1  UNL     1      29.100  10.064  20.804  1.00  0.00    -0.388 OA
HETATM    9  C4  UNL     1      28.486  10.358  22.007  1.00  0.00     0.188 C 
HETATM   10  C5  UNL     1      27.730  11.668  21.965  1.00  0.00     0.167 C 
HETATM   11  N3  UNL     1      24.854  12.714  19.850  1.00  0.00    -0.205 N 
HETATM   12  C6  UNL     1      25.147  14.078  19.380  1.00  0.00     0.142 C 
HETATM   13  C7  UNL     1      23.911  14.494  18.620  1.00  0.00     0.023 C 
HETATM   14  C8  UNL     1      22.956  13.321  18.716  1.00  0.00     0.037 C 
HETATM   15  C9  UNL     1      23.956  12.165  18.875  1.00  0.00     0.194 C 
ENDROOT
BRANCH  15  16
HETATM   16  C10 UNL     1      23.296  10.918  19.235  1.00  0.00     0.241 C 
HETATM   17  O2  UNL     1      23.743   9.806  18.893  1.00  0.00    -0.271 OA
HETATM   18  N4  UNL     1      22.101  10.933  20.001  1.00  0.00    -0.359 N 
ATOM     19  H4  UNL     1      21.735  11.844  20.278  1.00  0.00     0.162 HD
BRANCH  18  20
HETATM   20  C11 UNL     1      21.367   9.780  20.417  1.00  0.00     0.133 C 
BRANCH  20  21
HETATM   21  C12 UNL     1      20.525  10.004  21.637  1.00  0.00     0.104 C 
HETATM   22 BR1  UNL     1      20.974  11.776  22.332  1.00  0.00    -0.095 Br
ENDBRANCH  20  21
ENDBRANCH  18  20
ENDBRANCH  15  16
TORSDOF 3
ENDMDL
MODEL 2
REMARK VINA RESULT: -6.241076759      3.869      5.963
REMARK  3 active torsions:
REMARK  status: ('A' for Active; 'I' for Inactive)
REMARK       I    between atoms: C1_4  and  N2_5 
REMARK       I    between atoms: C1_4  and  N3_11 
REMARK    1  A    between atoms: C9_15  and  C10_16 
REMARK       I    between atoms: C10_16  and  N4_18 
REMARK    2  A    between atoms: N4_18  and  C11_20 
REMARK    3  A    between atoms: C11_20  and  C12_21 
ROOT
HETATM    1  N1  UNL     1      23.030   9.523  23.697  1.00  0.00    -0.235 N 
ATOM      2  H11 UNL     1      23.334   8.752  23.102  1.00  0.00     0.174 HD
ATOM      3  H12 UNL     1      23.108   9.413  24.709  1.00  0.00     0.174 HD
HETATM    4  C1  UNL     1      22.571  10.593  23.172  1.00  0.00     0.672 C 
HETATM    5  N2  UNL     1      22.151  11.657  23.994  1.00  0.00    -0.214 N 
HETATM    6  C2  UNL     1      22.365  13.047  23.559  1.00  0.00     0.167 C 
HETATM    7  C3  UNL     1      21.346  13.872  24.320  1.00  0.00     0.188 C 
HETATM    8  O1  UNL     1      21.619  13.897  25.683  1.00  0.00    -0.388 OA
HETATM    9  C4  UNL     1      21.947  12.651  26.185  1.00  0.00     0.188 C 
HETATM   10  C5  UNL     1      21.501  11.526  25.277  1.00  0.00     0.167 C 
HETATM   11  N3  UNL     1      22.463  10.746  21.769  1.00  0.00    -0.205 N 
HETATM   12  C6  UNL     1      21.222  10.407  21.053  1.00  0.00     0.142 C 
HETATM   13  C7  UNL     1      21.676   9.997  19.673  1.00  0.00     0.023 C 
HETATM   14  C8  UNL     1      23.187  10.114  19.687  1.00  0.00     0.037 C 
HETATM   15  C9  UNL     1      23.368  11.205  20.754  1.00  0.00     0.194 C 
ENDROOT
BRANCH  15  16
HETATM   16  C10 UNL     1      24.761  11.353  21.152  1.00  0.00     0.241 C 
HETATM   17  O2  UNL     1      25.200  12.404  21.657  1.00  0.00    -0.271 OA
HETATM   18  N4  UNL     1      25.677  10.283  20.972  1.00  0.00    -0.359 N 
ATOM     19  H4  UNL     1      25.317   9.424  20.557  1.00  0.00     0.162 HD
BRANCH  18  20
HETATM   20  C11 UNL     1      27.061  10.308  21.324  1.00  0.00     0.133 C 
BRANCH  20  21
HETATM   21  C12 UNL     1      27.980   9.932  20.201  1.00  0.00     0.104 C 
HETATM   22 BR1  UNL     1      28.730  11.591  19.489  1.00  0.00    -0.095 Br
ENDBRANCH  20  21
ENDBRANCH  18  20
ENDBRANCH  15  16
TORSDOF 3
ENDMDL
MODEL 3
REMARK VINA RESULT: -6.224621213      3.446      5.459
REMARK  3 active torsions:
REMARK  status: ('A' for Active; 'I' for Inactive)
REMARK       I    between atoms: C1_4  and  N2_5 
REMARK       I    between atoms: C1_4  and  N3_11 
REMARK    1  A    between atoms: C9_15  and  C10_16 
REMARK       I    between atoms: C10_16  and  N4_18 
REMARK    2  A    between atoms: N4_18  and  C11_20 
REMARK    3  A    between atoms: C11_20  and  C12_21 
ROOT
HETATM    1  N1  UNL     1      23.919   9.450  21.845  1.00  0.00    -0.235 N 
ATOM      2  H11 UNL     1      24.310   8.903  21.078  1.00  0.00     0.174 HD
ATOM      3  H12 UNL     1      23.662   8.964  22.704  1.00  0.00     0.174 HD
HETATM    4  C1  UNL     1      23.766  10.712  21.717  1.00  0.00     0.672 C 
HETATM    5  N2  UNL     1      23.225  11.467  22.776  1.00  0.00    -0.214 N 
HETATM    6  C2  UNL     1      23.712  12.834  23.025  1.00  0.00     0.167 C 
HETATM    7  C3  UNL     1      22.599  13.528  23.784  1.00  0.00     0.188 C 
HETATM    8  O1  UNL     1      22.431  12.992  25.055  1.00  0.00    -0.388 OA
HETATM    9  C4  UNL     1      22.449  11.610  25.058  1.00  0.00     0.188 C 
HETATM   10  C5  UNL     1      22.194  11.025  23.686  1.00  0.00     0.167 C 
HETATM   11  N3  UNL     1      24.121  11.387  20.524  1.00  0.00    -0.205 N 
HETATM   12  C6  UNL     1      23.139  11.621  19.453  1.00  0.00     0.142 C 
HETATM   13  C7  UNL     1      23.958  11.653  18.185  1.00  0.00     0.023 C 
HETATM   14  C8  UNL     1      25.391  11.415  18.615  1.00  0.00     0.037 C 
HETATM   15  C9  UNL     1      25.343  11.969  20.048  1.00  0.00     0.194 C 
ENDROOT
BRANCH  15  16
HETATM   16  C10 UNL     1      26.547  11.646  20.799  1.00  0.00     0.241 C 
HETATM   17  O2  UNL     1      26.882  12.273  21.823  1.00  0.00    -0.271 OA
HETATM   18  N4  UNL     1      27.393  10.585  20.379  1.00  0.00    -0.359 N 
ATOM     19  H4  UNL     1      27.120  10.074  19.539  1.00  0.00     0.162 HD
BRANCH  18  20
HETATM   20  C11 UNL     1      28.595  10.173  21.031  1.00  0.00     0.133 C 
BRANCH  20  21
HETATM   21  C12 UNL     1      28.402   9.053  22.008  1.00  0.00     0.104 C 
HETATM   22 BR1  UNL     1      29.647   9.354  23.486  1.00  0.00    -0.095 Br
ENDBRANCH  20  21
ENDBRANCH  18  20
ENDBRANCH  15  16
TORSDOF 3
ENDMDL
MODEL 4
REMARK VINA RESULT: -6.108088208      3.174      5.793
REMARK  3 active torsions:
REMARK  status: ('A' for Active; 'I' for Inactive)
REMARK       I    between atoms: C1_4  and  N2_5 
REMARK       I    between atoms: C1_4  and  N3_11 
REMARK    1  A    between atoms: C9_15  and  C10_16 
REMARK       I    between atoms: C10_16  and  N4_18 
REMARK    2  A    between atoms: N4_18  and  C11_20 
REMARK    3  A    between atoms: C11_20  and  C12_21 
ROOT
HETATM    1  N1  UNL     1      24.050   9.486  22.123  1.00  0.00    -0.235 N 
ATOM      2  H11 UNL     1      24.847   9.137  21.590  1.00  0.00     0.174 HD
ATOM      3  H12 UNL     1      23.775   8.982  22.966  1.00  0.00     0.174 HD
HETATM    4  C1  UNL     1      23.427  10.530  21.731  1.00  0.00     0.672 C 
HETATM    5  N2  UNL     1      22.327  11.010  22.468  1.00  0.00    -0.214 N 
HETATM    6  C2  UNL     1      22.092  12.460  22.574  1.00  0.00     0.167 C 
HETATM    7  C3  UNL     1      20.619  12.610  22.894  1.00  0.00     0.188 C 
HETATM    8  O1  UNL     1      20.316  12.124  24.161  1.00  0.00    -0.388 OA
HETATM    9  C4  UNL     1      20.912  10.904  24.421  1.00  0.00     0.188 C 
HETATM   10  C5  UNL     1      21.355  10.196  23.160  1.00  0.00     0.167 C 
HETATM   11  N3  UNL     1      23.809  11.229  20.561  1.00  0.00    -0.205 N 
HETATM   12  C6  UNL     1      23.195  10.933  19.256  1.00  0.00     0.142 C 
HETATM   13  C7  UNL     1      24.266  11.267  18.246  1.00  0.00     0.023 C 
HETATM   14  C8  UNL     1      25.461  11.732  19.053  1.00  0.00     0.037 C 
HETATM   15  C9  UNL     1      24.753  12.278  20.302  1.00  0.00     0.194 C 
ENDROOT
BRANCH  15  16
HETATM   16  C10 UNL     1      25.692  12.579  21.374  1.00  0.00     0.241 C 
HETATM   17  O2  UNL     1      25.497  13.501  22.189  1.00  0.00    -0.271 OA
HETATM   18  N4  UNL     1      26.879  11.816  21.524  1.00  0.00    -0.359 N 
ATOM     19  H4  UNL     1      27.039  11.062  20.855  1.00  0.00     0.162 HD
BRANCH  18  20
HETATM   20  C11 UNL     1      27.871  12.013  22.534  1.00  0.00     0.133 C 
BRANCH  20  21
HETATM   21  C12 UNL     1      28.828  10.868  22.677  1.00  0.00     0.104 C 
HETATM   22 BR1  UNL     1      28.256   9.478  21.425  1.00  0.00    -0.095 Br
ENDBRANCH  20  21
ENDBRANCH  18  20
ENDBRANCH  15  16
TORSDOF 3
ENDMDL
MODEL 5
REMARK VINA RESULT: -6.082128436      3.835      5.760
REMARK  3 active torsions:
REMARK  status: ('A' for Active; 'I' for Inactive)
REMARK       I    between atoms: C1_4  and  N2_5 
REMARK       I    between atoms: C1_4  and  N3_11 
REMARK    1  A    between atoms: C9_15  and  C10_16 
REMARK       I    between atoms: C10_16  and  N4_18 
REMARK    2  A    between atoms: N4_18  and  C11_20 
REMARK    3  A    between atoms: C11_20  and  C12_21 
ROOT
HETATM    1  N1  UNL     1      23.140  10.910  23.770  1.00  0.00    -0.235 N 
ATOM      2  H11 UNL     1      23.347   9.955  23.478  1.00  0.00     0.174 HD
ATOM      3  H12 UNL     1      23.214  11.140  24.761  1.00  0.00     0.174 HD
HETATM    4  C1  UNL     1      22.804  11.785  22.902  1.00  0.00     0.672 C 
HETATM    5  N2  UNL     1      22.518  13.103  23.305  1.00  0.00    -0.214 N 
HETATM    6  C2  UNL     1      22.887  14.232  22.435  1.00  0.00     0.167 C 
HETATM    7  C3  UNL     1      21.977  15.373  22.844  1.00  0.00     0.188 C 
HETATM    8  O1  UNL     1      22.264  15.826  24.126  1.00  0.00    -0.388 OA
HETATM    9  C4  UNL     1      22.450  14.795  25.027  1.00  0.00     0.188 C 
HETATM   10  C5  UNL     1      21.869  13.487  24.537  1.00  0.00     0.167 C 
HETATM   11  N3  UNL     1      22.701  11.466  21.527  1.00  0.00    -0.205 N 
HETATM   12  C6  UNL     1      21.422  11.047  20.929  1.00  0.00     0.142 C 
HETATM   13  C7  UNL     1      21.812  10.148  19.782  1.00  0.00     0.023 C 
HETATM   14  C8  UNL     1      23.327  10.092  19.801  1.00  0.00     0.037 C 
HETATM   15  C9  UNL     1      23.643  11.451  20.445  1.00  0.00     0.194 C 
ENDROOT
BRANCH  15  16
HETATM   16  C10 UNL     1      25.047  11.567  20.811  1.00  0.00     0.241 C 
HETATM   17  O2  UNL     1      25.606  12.671  20.963  1.00  0.00    -0.271 OA
HETATM   18  N4  UNL     1      25.837  10.404  21.010  1.00  0.00    -0.359 N 
ATOM     19  H4  UNL     1      25.379   9.501  20.883  1.00  0.00     0.162 HD
BRANCH  18  20
HETATM   20  C11 UNL     1      27.219  10.391  21.373  1.00  0.00     0.133 C 
BRANCH  20  21
HETATM   21  C12 UNL     1      28.133   9.959  20.266  1.00  0.00     0.104 C 
HETATM   22 BR1  UNL     1      28.826  11.583  19.424  1.00  0.00    -0.095 Br
ENDBRANCH  20  21
ENDBRANCH  18  20
ENDBRANCH  15  16
TORSDOF 3
ENDMDL
