MODEL 1
REMARK VINA RESULT: -8.008308112      0.000      0.000
REMARK  4 active torsions:
REMARK  status: ('A' for Active; 'I' for Inactive)
REMARK    1  A    between atoms: C1_2  and  C2_3 
REMARK       I    between atoms: C1_2  and  N1_13 
REMARK       I    between atoms: N2_16  and  C14_17 
REMARK    2  A    between atoms: C14_17  and  C15_19 
REMARK    3  A    between atoms: C15_19  and  C16_20 
REMARK    4  A    between atoms: C16_20  and  O3_21 
ROOT
HETATM    1  O1  UNL     1      22.883  14.098  21.691  1.00  0.00    -0.273 OA
HETATM    2  C1  UNL     1      22.418  12.945  21.357  1.00  0.00     0.224 C 
HETATM    3  N1  UNL     1      21.286  12.433  22.024  1.00  0.00    -0.343 N 
HETATM    4  C12 UNL     1      20.782  11.135  21.656  1.00  0.00     0.146 C 
HETATM    5  C13 UNL     1      20.164  10.409  22.830  1.00  0.00     0.151 C 
HETATM    6  N2  UNL     1      19.405  11.335  23.686  1.00  0.00    -0.286 N 
HETATM    7  C14 UNL     1      18.039  11.131  23.957  1.00  0.00     0.226 C 
HETATM    8  O2  UNL     1      17.425  11.937  24.687  1.00  0.00    -0.273 OA
HETATM    9  C17 UNL     1      20.172  12.446  24.212  1.00  0.00     0.342 C 
HETATM   10  F1  UNL     1      21.294  11.942  24.881  1.00  0.00    -0.180 F 
HETATM   11  F2  UNL     1      19.418  13.220  25.041  1.00  0.00    -0.180 F 
HETATM   12  C18 UNL     1      20.682  13.250  23.058  1.00  0.00     0.230 C 
ENDROOT
BRANCH   2  13
HETATM   13  C2  UNL     1      23.098  12.198  20.274  1.00  0.00     0.083 C 
HETATM   14  C3  UNL     1      23.338  12.973  19.027  1.00  0.00     0.019 C 
HETATM   15  C4  UNL     1      24.302  12.177  18.149  1.00  0.00    -0.013 C 
HETATM   16  C5  UNL     1      25.718  12.629  18.303  1.00  0.00     0.009 C 
HETATM   17  C9  UNL     1      24.203  10.716  18.431  1.00  0.00     0.010 C 
HETATM   18  C6  UNL     1      26.363  12.174  19.593  1.00  0.00    -0.013 C 
HETATM   19  C7  UNL     1      26.285  10.654  19.674  1.00  0.00     0.010 C 
HETATM   20  C11 UNL     1      25.535  12.567  20.798  1.00  0.00     0.010 C 
HETATM   21  C8  UNL     1      24.767  10.476  19.822  1.00  0.00    -0.009 C 
HETATM   22  C10 UNL     1      24.408  11.596  20.769  1.00  0.00     0.003 C 
ENDBRANCH   2  13
BRANCH   7  23
HETATM   23  C15 UNL     1      17.328   9.973  23.382  1.00  0.00     0.129 C 
BRANCH  23  24
HETATM   24  C16 UNL     1      16.239   9.457  24.290  1.00  0.00     0.173 C 
BRANCH  24  25
HETATM   25  O3  UNL     1      16.726   9.168  25.546  1.00  0.00    -0.400 OA
ATOM     26  H3  UNL     1      16.558   8.263  25.784  1.00  0.00     0.209 HD
ENDBRANCH  24  25
ENDBRANCH  23  24
ENDBRANCH   7  23
TORSDOF 4
ENDMDL
MODEL 2
REMARK VINA RESULT: -7.944054436      2.232      2.777
REMARK  4 active torsions:
REMARK  status: ('A' for Active; 'I' for Inactive)
REMARK    1  A    between atoms: C1_2  and  C2_3 
REMARK       I    between atoms: C1_2  and  N1_13 
REMARK       I    between atoms: N2_16  and  C14_17 
REMARK    2  A    between atoms: C14_17  and  C15_19 
REMARK    3  A    between atoms: C15_19  and  C16_20 
REMARK    4  A    between atoms: C16_20  and  O3_21 
ROOT
HETATM    1  O1  UNL     1      25.098  13.837  22.766  1.00  0.00    -0.273 OA
HETATM    2  C1  UNL     1      23.978  13.600  22.177  1.00  0.00     0.224 C 
HETATM    3  N1  UNL     1      22.798  13.498  22.943  1.00  0.00    -0.343 N 
HETATM    4  C12 UNL     1      21.553  13.217  22.278  1.00  0.00     0.146 C 
HETATM    5  C13 UNL     1      20.613  12.407  23.145  1.00  0.00     0.151 C 
HETATM    6  N2  UNL     1      20.676  12.846  24.548  1.00  0.00    -0.286 N 
HETATM    7  C14 UNL     1      19.527  13.290  25.230  1.00  0.00     0.226 C 
HETATM    8  O2  UNL     1      19.617  13.656  26.421  1.00  0.00    -0.273 OA
HETATM    9  C17 UNL     1      21.993  12.781  25.149  1.00  0.00     0.342 C 
HETATM   10  F1  UNL     1      22.491  11.481  25.002  1.00  0.00    -0.180 F 
HETATM   11  F2  UNL     1      21.958  13.143  26.461  1.00  0.00    -0.180 F 
HETATM   12  C18 UNL     1      22.904  13.683  24.377  1.00  0.00     0.230 C 
ENDROOT
BRANCH   2  13
HETATM   13  C2  UNL     1      23.975  13.447  20.704  1.00  0.00     0.083 C 
HETATM   14  C3  UNL     1      25.118  14.088  19.999  1.00  0.00     0.019 C 
HETATM   15  C4  UNL     1      25.135  13.582  18.558  1.00  0.00    -0.013 C 
HETATM   16  C5  UNL     1      26.087  12.447  18.364  1.00  0.00     0.009 C 
HETATM   17  C9  UNL     1      23.769  13.179  18.115  1.00  0.00     0.010 C 
HETATM   18  C6  UNL     1      25.588  11.133  18.923  1.00  0.00    -0.013 C 
HETATM   19  C7  UNL     1      24.244  10.806  18.284  1.00  0.00     0.010 C 
HETATM   20  C11 UNL     1      25.190  11.263  20.377  1.00  0.00     0.010 C 
HETATM   21  C8  UNL     1      23.385  11.927  18.887  1.00  0.00    -0.009 C 
HETATM   22  C10 UNL     1      23.885  11.977  20.312  1.00  0.00     0.003 C 
ENDBRANCH   2  13
BRANCH   7  23
HETATM   23  C15 UNL     1      18.220  13.327  24.547  1.00  0.00     0.129 C 
BRANCH  23  24
HETATM   24  C16 UNL     1      17.770  14.733  24.240  1.00  0.00     0.173 C 
BRANCH  24  25
HETATM   25  O3  UNL     1      18.805  15.633  24.372  1.00  0.00    -0.400 OA
ATOM     26  H3  UNL     1      19.196  15.838  23.531  1.00  0.00     0.209 HD
ENDBRANCH  24  25
ENDBRANCH  23  24
ENDBRANCH   7  23
TORSDOF 4
ENDMDL
MODEL 3
REMARK VINA RESULT: -7.872200571      2.476      3.613
REMARK  4 active torsions:
REMARK  status: ('A' for Active; 'I' for Inactive)
REMARK    1  A    between atoms: C1_2  and  C2_3 
REMARK       I    between atoms: C1_2  and  N1_13 
REMARK       I    between atoms: N2_16  and  C14_17 
REMARK    2  A    between atoms: C14_17  and  C15_19 
REMARK    3  A    between atoms: C15_19  and  C16_20 
REMARK    4  A    between atoms: C16_20  and  O3_21 
ROOT
HETATM    1  O1  UNL     1      20.970  10.346  21.029  1.00  0.00    -0.273 OA
HETATM    2  C1  UNL     1      21.952  10.945  21.608  1.00  0.00     0.224 C 
HETATM    3  N1  UNL     1      21.759  11.527  22.878  1.00  0.00    -0.343 N 
HETATM    4  C12 UNL     1      22.858  12.210  23.510  1.00  0.00     0.146 C 
HETATM    5  C13 UNL     1      22.393  13.364  24.371  1.00  0.00     0.151 C 
HETATM    6  N2  UNL     1      21.156  13.023  25.093  1.00  0.00    -0.286 N 
HETATM    7  C14 UNL     1      21.086  13.083  26.497  1.00  0.00     0.226 C 
HETATM    8  O2  UNL     1      20.021  12.786  27.077  1.00  0.00    -0.273 OA
HETATM    9  C17 UNL     1      20.046  12.630  24.248  1.00  0.00     0.342 C 
HETATM   10  F1  UNL     1      19.821  13.640  23.303  1.00  0.00    -0.180 F 
HETATM   11  F2  UNL     1      18.925  12.392  24.982  1.00  0.00    -0.180 F 
HETATM   12  C18 UNL     1      20.449  11.408  23.485  1.00  0.00     0.230 C 
ENDROOT
BRANCH   2  13
HETATM   13  C2  UNL     1      23.258  10.995  20.909  1.00  0.00     0.083 C 
HETATM   14  C3  UNL     1      23.425  10.005  19.811  1.00  0.00     0.019 C 
HETATM   15  C4  UNL     1      24.667  10.388  19.009  1.00  0.00    -0.013 C 
HETATM   16  C5  UNL     1      24.334  11.183  17.788  1.00  0.00     0.009 C 
HETATM   17  C9  UNL     1      25.641  11.139  19.853  1.00  0.00     0.010 C 
HETATM   18  C6  UNL     1      23.962  12.619  18.083  1.00  0.00    -0.013 C 
HETATM   19  C7  UNL     1      25.106  13.279  18.844  1.00  0.00     0.010 C 
HETATM   20  C11 UNL     1      22.850  12.707  19.106  1.00  0.00     0.010 C 
HETATM   21  C8  UNL     1      25.031  12.496  20.163  1.00  0.00    -0.009 C 
HETATM   22  C10 UNL     1      23.540  12.399  20.388  1.00  0.00     0.003 C 
ENDBRANCH   2  13
BRANCH   7  23
HETATM   23  C15 UNL     1      22.263  13.493  27.287  1.00  0.00     0.129 C 
BRANCH  23  24
HETATM   24  C16 UNL     1      22.188  13.021  28.718  1.00  0.00     0.173 C 
BRANCH  24  25
HETATM   25  O3  UNL     1      22.280  11.649  28.802  1.00  0.00    -0.400 OA
ATOM     26  H3  UNL     1      23.186  11.363  28.819  1.00  0.00     0.209 HD
ENDBRANCH  24  25
ENDBRANCH  23  24
ENDBRANCH   7  23
TORSDOF 4
ENDMDL
MODEL 4
REMARK VINA RESULT: -7.836091030      3.266      3.524
REMARK  4 active torsions:
REMARK  status: ('A' for Active; 'I' for Inactive)
REMARK    1  A    between atoms: C1_2  and  C2_3 
REMARK       I    between atoms: C1_2  and  N1_13 
REMARK       I    between atoms: N2_16  and  C14_17 
REMARK    2  A    between atoms: C14_17  and  C15_19 
REMARK    3  A    between atoms: C15_19  and  C16_20 
REMARK    4  A    between atoms: C16_20  and  O3_21 
ROOT
HETATM    1  O1  UNL     1      23.448  14.806  21.129  1.00  0.00    -0.273 OA
HETATM    2  C1  UNL     1      23.195  13.672  21.684  1.00  0.00     0.224 C 
HETATM    3  N1  UNL     1      22.741  13.637  23.018  1.00  0.00    -0.343 N 
HETATM    4  C12 UNL     1      22.477  12.363  23.635  1.00  0.00     0.146 C 
HETATM    5  C13 UNL     1      22.759  12.380  25.122  1.00  0.00     0.151 C 
HETATM    6  N2  UNL     1      22.335  13.652  25.728  1.00  0.00    -0.286 N 
HETATM    7  C14 UNL     1      21.408  13.688  26.785  1.00  0.00     0.226 C 
HETATM    8  O2  UNL     1      21.070  14.786  27.275  1.00  0.00    -0.273 OA
HETATM    9  C17 UNL     1      22.945  14.835  25.152  1.00  0.00     0.342 C 
HETATM   10  F1  UNL     1      24.337  14.690  25.197  1.00  0.00    -0.180 F 
HETATM   11  F2  UNL     1      22.551  15.963  25.804  1.00  0.00    -0.180 F 
HETATM   12  C18 UNL     1      22.564  14.900  23.706  1.00  0.00     0.230 C 
ENDROOT
BRANCH   2  13
HETATM   13  C2  UNL     1      23.392  12.439  20.886  1.00  0.00     0.083 C 
HETATM   14  C3  UNL     1      22.826  12.479  19.511  1.00  0.00     0.019 C 
HETATM   15  C4  UNL     1      23.374  11.283  18.735  1.00  0.00    -0.013 C 
HETATM   16  C5  UNL     1      24.558  11.642  17.896  1.00  0.00     0.009 C 
HETATM   17  C9  UNL     1      23.725  10.162  19.653  1.00  0.00     0.010 C 
HETATM   18  C6  UNL     1      25.830  11.833  18.692  1.00  0.00    -0.013 C 
HETATM   19  C7  UNL     1      26.112  10.560  19.482  1.00  0.00     0.010 C 
HETATM   20  C11 UNL     1      25.639  12.830  19.815  1.00  0.00     0.010 C 
HETATM   21  C8  UNL     1      24.934  10.595  20.466  1.00  0.00    -0.009 C 
HETATM   22  C10 UNL     1      24.867  12.060  20.828  1.00  0.00     0.003 C 
ENDBRANCH   2  13
BRANCH   7  23
HETATM   23  C15 UNL     1      20.831  12.438  27.317  1.00  0.00     0.129 C 
BRANCH  23  24
HETATM   24  C16 UNL     1      21.309  12.133  28.715  1.00  0.00     0.173 C 
BRANCH  24  25
HETATM   25  O3  UNL     1      22.683  12.054  28.772  1.00  0.00    -0.400 OA
ATOM     26  H3  UNL     1      23.002  12.181  29.657  1.00  0.00     0.209 HD
ENDBRANCH  24  25
ENDBRANCH  23  24
ENDBRANCH   7  23
TORSDOF 4
ENDMDL
MODEL 5
REMARK VINA RESULT: -7.723354619      1.361      1.721
REMARK  4 active torsions:
REMARK  status: ('A' for Active; 'I' for Inactive)
REMARK    1  A    between atoms: C1_2  and  C2_3 
REMARK       I    between atoms: C1_2  and  N1_13 
REMARK       I    between atoms: N2_16  and  C14_17 
REMARK    2  A    between atoms: C14_17  and  C15_19 
REMARK    3  A    between atoms: C15_19  and  C16_20 
REMARK    4  A    between atoms: C16_20  and  O3_21 
ROOT
HETATM    1  O1  UNL     1      24.124  12.718  23.394  1.00  0.00    -0.273 OA
HETATM    2  C1  UNL     1      23.116  12.439  22.643  1.00  0.00     0.224 C 
HETATM    3  N1  UNL     1      21.900  12.038  23.234  1.00  0.00    -0.343 N 
HETATM    4  C12 UNL     1      20.783  11.711  22.387  1.00  0.00     0.146 C 
HETATM    5  C13 UNL     1      19.905  10.636  22.989  1.00  0.00     0.151 C 
HETATM    6  N2  UNL     1      19.765  10.818  24.443  1.00  0.00    -0.286 N 
HETATM    7  C14 UNL     1      18.502  10.967  25.045  1.00  0.00     0.226 C 
HETATM    8  O2  UNL     1      18.420  11.121  26.282  1.00  0.00    -0.273 OA
HETATM    9  C17 UNL     1      21.013  10.829  25.179  1.00  0.00     0.342 C 
HETATM   10  F1  UNL     1      21.722   9.658  24.880  1.00  0.00    -0.180 F 
HETATM   11  F2  UNL     1      20.798  10.939  26.519  1.00  0.00    -0.180 F 
HETATM   12  C18 UNL     1      21.840  11.972  24.681  1.00  0.00     0.230 C 
ENDROOT
BRANCH   2  13
HETATM   13  C2  UNL     1      23.276  12.556  21.175  1.00  0.00     0.083 C 
HETATM   14  C3  UNL     1      24.321  13.517  20.728  1.00  0.00     0.019 C 
HETATM   15  C4  UNL     1      24.571  13.291  19.239  1.00  0.00    -0.013 C 
HETATM   16  C5  UNL     1      25.750  12.409  18.985  1.00  0.00     0.009 C 
HETATM   17  C9  UNL     1      23.362  12.726  18.572  1.00  0.00     0.010 C 
HETATM   18  C6  UNL     1      25.483  10.946  19.262  1.00  0.00    -0.013 C 
HETATM   19  C7  UNL     1      24.297  10.493  18.418  1.00  0.00     0.010 C 
HETATM   20  C11 UNL     1      24.938  10.734  20.658  1.00  0.00     0.010 C 
HETATM   21  C8  UNL     1      23.176  11.306  19.081  1.00  0.00    -0.009 C 
HETATM   22  C10 UNL     1      23.526  11.191  20.547  1.00  0.00     0.003 C 
ENDBRANCH   2  13
BRANCH   7  23
HETATM   23  C15 UNL     1      17.275  10.946  24.225  1.00  0.00     0.129 C 
BRANCH  23  24
HETATM   24  C16 UNL     1      16.557   9.621  24.297  1.00  0.00     0.173 C 
BRANCH  24  25
HETATM   25  O3  UNL     1      16.682   9.048  25.544  1.00  0.00    -0.400 OA
ATOM     26  H3  UNL     1      16.133   8.278  25.629  1.00  0.00     0.209 HD
ENDBRANCH  24  25
ENDBRANCH  23  24
ENDBRANCH   7  23
TORSDOF 4
ENDMDL
