MODEL 1
REMARK VINA RESULT: -7.100185371      0.000      0.000
REMARK  3 active torsions:
REMARK  status: ('A' for Active; 'I' for Inactive)
REMARK       I    between atoms: N1_2  and  C2_4 
REMARK    1  A    between atoms: C2_4  and  C3_6 
REMARK       I    between atoms: N3_14  and  C9_15 
REMARK    2  A    between atoms: C9_15  and  C10_17 
REMARK    3  A    between atoms: C13_20  and  C14_21 
REMARK       I    between atoms: C14_21  and  N4_23 
ROOT
HETATM    1  C3  UNL     1      22.679  11.917  21.570  1.00  0.00     0.095 C 
HETATM    2  C4  UNL     1      22.478  13.099  22.458  1.00  0.00     0.128 C 
HETATM    3  N2  UNL     1      22.075  12.780  23.807  1.00  0.00    -0.413 N 
ATOM      4  H2  UNL     1      22.453  13.272  24.616  1.00  0.00     0.153 HD
HETATM    5  C5  UNL     1      21.126  11.746  23.934  1.00  0.00     0.114 C 
HETATM    6  C6  UNL     1      20.525  11.487  22.558  1.00  0.00     0.029 C 
HETATM    7  C7  UNL     1      21.638  10.834  21.779  1.00  0.00     0.024 C 
HETATM    8  C8  UNL     1      19.420  10.531  22.968  1.00  0.00     0.133 C 
HETATM    9  N3  UNL     1      18.935  11.071  24.229  1.00  0.00    -0.336 N 
HETATM   10  C9  UNL     1      17.691  10.756  24.849  1.00  0.00     0.224 C 
HETATM   11  O2  UNL     1      17.368  11.303  25.953  1.00  0.00    -0.273 OA
HETATM   12  C13 UNL     1      19.913  11.994  24.767  1.00  0.00     0.202 C 
ENDROOT
BRANCH  12  13
HETATM   13  C14 UNL     1      20.290  11.644  26.163  1.00  0.00     0.244 C 
HETATM   14  O3  UNL     1      20.826  10.531  26.367  1.00  0.00    -0.271 OA
HETATM   15  N4  UNL     1      20.067  12.504  27.253  1.00  0.00    -0.350 N 
HETATM   16  C15 UNL     1      20.430  12.218  28.624  1.00  0.00     0.126 C 
HETATM   17  C18 UNL     1      19.443  13.809  27.282  1.00  0.00     0.126 C 
HETATM   18  C16 UNL     1      19.153  12.577  29.355  1.00  0.00     0.021 C 
HETATM   19  C17 UNL     1      18.692  13.782  28.600  1.00  0.00     0.021 C 
ENDBRANCH  12  13
BRANCH  10  20
HETATM   20  C10 UNL     1      16.710   9.805  24.282  1.00  0.00     0.070 C 
HETATM   21  C11 UNL     1      15.935   9.031  25.304  1.00  0.00     0.019 C 
HETATM   22  C12 UNL     1      15.722  10.541  23.363  1.00  0.00     0.019 C 
ENDBRANCH  10  20
BRANCH   1  23
HETATM   23  C2  UNL     1      22.561  12.368  20.160  1.00  0.00     0.223 C 
HETATM   24  N1  UNL     1      22.812  13.706  19.762  1.00  0.00    -0.365 N 
HETATM   25  C1  UNL     1      22.700  14.157  18.392  1.00  0.00     0.149 C 
ATOM     26  H1  UNL     1      23.083  14.383  20.475  1.00  0.00     0.161 HD
HETATM   27  O1  UNL     1      22.223  11.559  19.231  1.00  0.00    -0.273 OA
ENDBRANCH   1  23
TORSDOF 3
ENDMDL
MODEL 2
REMARK VINA RESULT: -7.091710347      2.733      5.559
REMARK  3 active torsions:
REMARK  status: ('A' for Active; 'I' for Inactive)
REMARK       I    between atoms: N1_2  and  C2_4 
REMARK    1  A    between atoms: C2_4  and  C3_6 
REMARK       I    between atoms: N3_14  and  C9_15 
REMARK    2  A    between atoms: C9_15  and  C10_17 
REMARK    3  A    between atoms: C13_20  and  C14_21 
REMARK       I    between atoms: C14_21  and  N4_23 
ROOT
HETATM    1  C3  UNL     1      15.450   9.433  23.724  1.00  0.00     0.095 C 
HETATM    2  C4  UNL     1      16.359   8.773  24.706  1.00  0.00     0.128 C 
HETATM    3  N2  UNL     1      16.895   9.652  25.718  1.00  0.00    -0.413 N 
ATOM      4  H2  UNL     1      16.981   9.366  26.693  1.00  0.00     0.153 HD
HETATM    5  C5  UNL     1      17.291  10.929  25.274  1.00  0.00     0.114 C 
HETATM    6  C6  UNL     1      17.362  10.897  23.752  1.00  0.00     0.029 C 
HETATM    7  C7  UNL     1      15.923  10.813  23.311  1.00  0.00     0.024 C 
HETATM    8  C8  UNL     1      17.996  12.256  23.524  1.00  0.00     0.133 C 
HETATM    9  N3  UNL     1      18.959  12.384  24.607  1.00  0.00    -0.336 N 
HETATM   10  C9  UNL     1      20.046  13.304  24.654  1.00  0.00     0.224 C 
HETATM   11  O2  UNL     1      20.834  13.315  25.654  1.00  0.00    -0.273 OA
HETATM   12  C13 UNL     1      18.651  11.420  25.644  1.00  0.00     0.202 C 
ENDROOT
BRANCH  12  13
HETATM   13  C14 UNL     1      18.509  12.070  26.974  1.00  0.00     0.244 C 
HETATM   14  O3  UNL     1      17.521  12.812  27.165  1.00  0.00    -0.271 OA
HETATM   15  N4  UNL     1      19.436  11.886  28.016  1.00  0.00    -0.350 N 
HETATM   16  C15 UNL     1      19.336  12.481  29.331  1.00  0.00     0.126 C 
HETATM   17  C18 UNL     1      20.660  11.115  28.032  1.00  0.00     0.126 C 
HETATM   18  C16 UNL     1      20.733  13.034  29.520  1.00  0.00     0.021 C 
HETATM   19  C17 UNL     1      21.574  11.973  28.888  1.00  0.00     0.021 C 
ENDBRANCH  12  13
BRANCH  10  20
HETATM   20  C10 UNL     1      20.337  14.283  23.585  1.00  0.00     0.070 C 
HETATM   21  C11 UNL     1      20.934  15.570  24.068  1.00  0.00     0.019 C 
HETATM   22  C12 UNL     1      21.276  13.666  22.536  1.00  0.00     0.019 C 
ENDBRANCH  10  20
BRANCH   1  23
HETATM   23  C2  UNL     1      15.408   8.600  22.496  1.00  0.00     0.223 C 
HETATM   24  N1  UNL     1      15.424   9.158  21.192  1.00  0.00    -0.365 N 
HETATM   25  C1  UNL     1      15.384   8.357  19.988  1.00  0.00     0.149 C 
ATOM     26  H1  UNL     1      15.465  10.173  21.099  1.00  0.00     0.161 HD
HETATM   27  O1  UNL     1      15.355   7.325  22.560  1.00  0.00    -0.273 OA
ENDBRANCH   1  23
TORSDOF 3
ENDMDL
MODEL 3
REMARK VINA RESULT: -6.789383772      3.667      7.430
REMARK  3 active torsions:
REMARK  status: ('A' for Active; 'I' for Inactive)
REMARK       I    between atoms: N1_2  and  C2_4 
REMARK    1  A    between atoms: C2_4  and  C3_6 
REMARK       I    between atoms: N3_14  and  C9_15 
REMARK    2  A    between atoms: C9_15  and  C10_17 
REMARK    3  A    between atoms: C13_20  and  C14_21 
REMARK       I    between atoms: C14_21  and  N4_23 
ROOT
HETATM    1  C3  UNL     1      22.455  16.554  24.362  1.00  0.00     0.095 C 
HETATM    2  C4  UNL     1      23.856  16.069  24.204  1.00  0.00     0.128 C 
HETATM    3  N2  UNL     1      24.158  15.502  22.912  1.00  0.00    -0.413 N 
ATOM      4  H2  UNL     1      25.039  15.683  22.432  1.00  0.00     0.153 HD
HETATM    5  C5  UNL     1      23.156  14.683  22.354  1.00  0.00     0.114 C 
HETATM    6  C6  UNL     1      22.158  14.344  23.454  1.00  0.00     0.029 C 
HETATM    7  C7  UNL     1      21.433  15.639  23.715  1.00  0.00     0.024 C 
HETATM    8  C8  UNL     1      21.331  13.317  22.704  1.00  0.00     0.133 C 
HETATM    9  N3  UNL     1      22.309  12.576  21.923  1.00  0.00    -0.336 N 
HETATM   10  C9  UNL     1      22.105  11.299  21.323  1.00  0.00     0.224 C 
HETATM   11  O2  UNL     1      23.044  10.740  20.670  1.00  0.00    -0.273 OA
HETATM   12  C13 UNL     1      23.542  13.332  21.850  1.00  0.00     0.202 C 
ENDROOT
BRANCH  12  13
HETATM   13  C14 UNL     1      23.985  13.526  20.443  1.00  0.00     0.244 C 
HETATM   14  O3  UNL     1      23.199  14.091  19.650  1.00  0.00    -0.271 OA
HETATM   15  N4  UNL     1      25.240  13.100  19.972  1.00  0.00    -0.350 N 
HETATM   16  C15 UNL     1      25.724  13.279  18.620  1.00  0.00     0.126 C 
HETATM   17  C18 UNL     1      26.297  12.403  20.673  1.00  0.00     0.126 C 
HETATM   18  C16 UNL     1      26.240  11.892  18.298  1.00  0.00     0.021 C 
HETATM   19  C17 UNL     1      26.840  11.474  19.602  1.00  0.00     0.021 C 
ENDBRANCH  12  13
BRANCH  10  20
HETATM   20  C10 UNL     1      20.834  10.548  21.407  1.00  0.00     0.070 C 
HETATM   21  C11 UNL     1      20.698   9.444  20.403  1.00  0.00     0.019 C 
HETATM   22  C12 UNL     1      20.653   9.960  22.816  1.00  0.00     0.019 C 
ENDBRANCH  10  20
BRANCH   1  23
HETATM   23  C2  UNL     1      22.139  16.604  25.812  1.00  0.00     0.223 C 
HETATM   24  N1  UNL     1      20.814  16.520  26.310  1.00  0.00    -0.365 N 
HETATM   25  C1  UNL     1      20.494  16.568  27.720  1.00  0.00     0.149 C 
ATOM     26  H1  UNL     1      20.049  16.422  25.642  1.00  0.00     0.161 HD
HETATM   27  O1  UNL     1      23.062  16.727  26.688  1.00  0.00    -0.273 OA
ENDBRANCH   1  23
TORSDOF 3
ENDMDL
MODEL 4
REMARK VINA RESULT: -6.714684472      4.439      8.022
REMARK  3 active torsions:
REMARK  status: ('A' for Active; 'I' for Inactive)
REMARK       I    between atoms: N1_2  and  C2_4 
REMARK    1  A    between atoms: C2_4  and  C3_6 
REMARK       I    between atoms: N3_14  and  C9_15 
REMARK    2  A    between atoms: C9_15  and  C10_17 
REMARK    3  A    between atoms: C13_20  and  C14_21 
REMARK       I    between atoms: C14_21  and  N4_23 
ROOT
HETATM    1  C3  UNL     1      21.484  11.915  21.331  1.00  0.00     0.095 C 
HETATM    2  C4  UNL     1      21.973  12.090  22.729  1.00  0.00     0.128 C 
HETATM    3  N2  UNL     1      23.077  13.008  22.873  1.00  0.00    -0.413 N 
ATOM      4  H2  UNL     1      23.134  13.672  23.645  1.00  0.00     0.153 HD
HETATM    5  C5  UNL     1      24.072  12.930  21.878  1.00  0.00     0.114 C 
HETATM    6  C6  UNL     1      23.865  11.633  21.106  1.00  0.00     0.029 C 
HETATM    7  C7  UNL     1      22.606  11.867  20.311  1.00  0.00     0.024 C 
HETATM    8  C8  UNL     1      25.132  11.660  20.271  1.00  0.00     0.133 C 
HETATM    9  N3  UNL     1      26.143  12.179  21.178  1.00  0.00    -0.336 N 
HETATM   10  C9  UNL     1      27.554  12.076  21.004  1.00  0.00     0.224 C 
HETATM   11  O2  UNL     1      28.345  12.561  21.877  1.00  0.00    -0.273 OA
HETATM   12  C13 UNL     1      25.497  12.820  22.306  1.00  0.00     0.202 C 
ENDROOT
BRANCH  12  13
HETATM   13  C14 UNL     1      25.982  14.212  22.498  1.00  0.00     0.244 C 
HETATM   14  O3  UNL     1      25.852  15.018  21.550  1.00  0.00    -0.271 OA
HETATM   15  N4  UNL     1      26.579  14.656  23.692  1.00  0.00    -0.350 N 
HETATM   16  C15 UNL     1      27.050  16.002  23.935  1.00  0.00     0.126 C 
HETATM   17  C18 UNL     1      26.869  13.919  24.903  1.00  0.00     0.126 C 
HETATM   18  C16 UNL     1      28.428  15.740  24.508  1.00  0.00     0.021 C 
HETATM   19  C17 UNL     1      28.189  14.524  25.344  1.00  0.00     0.021 C 
ENDBRANCH  12  13
BRANCH  10  20
HETATM   20  C10 UNL     1      28.190  11.421  19.841  1.00  0.00     0.070 C 
HETATM   21  C11 UNL     1      29.528  11.983  19.468  1.00  0.00     0.019 C 
HETATM   22  C12 UNL     1      28.341   9.912  20.093  1.00  0.00     0.019 C 
ENDBRANCH  10  20
BRANCH   1  23
HETATM   23  C2  UNL     1      20.763  10.620  21.247  1.00  0.00     0.223 C 
HETATM   24  N1  UNL     1      20.826   9.782  20.106  1.00  0.00    -0.365 N 
HETATM   25  C1  UNL     1      20.127   8.518  20.013  1.00  0.00     0.149 C 
ATOM     26  H1  UNL     1      21.390  10.084  19.311  1.00  0.00     0.161 HD
HETATM   27  O1  UNL     1      20.043  10.199  22.215  1.00  0.00    -0.273 OA
ENDBRANCH   1  23
TORSDOF 3
ENDMDL
MODEL 5
REMARK VINA RESULT: -6.712361178      3.129      5.498
REMARK  3 active torsions:
REMARK  status: ('A' for Active; 'I' for Inactive)
REMARK       I    between atoms: N1_2  and  C2_4 
REMARK    1  A    between atoms: C2_4  and  C3_6 
REMARK       I    between atoms: N3_14  and  C9_15 
REMARK    2  A    between atoms: C9_15  and  C10_17 
REMARK    3  A    between atoms: C13_20  and  C14_21 
REMARK       I    between atoms: C14_21  and  N4_23 
ROOT
HETATM    1  C3  UNL     1      21.595  12.676  20.981  1.00  0.00     0.095 C 
HETATM    2  C4  UNL     1      21.252  11.764  22.110  1.00  0.00     0.128 C 
HETATM    3  N2  UNL     1      21.103  12.416  23.389  1.00  0.00    -0.413 N 
ATOM      4  H2  UNL     1      20.363  12.163  24.044  1.00  0.00     0.153 HD
HETATM    5  C5  UNL     1      22.044  13.425  23.677  1.00  0.00     0.114 C 
HETATM    6  C6  UNL     1      23.187  13.300  22.677  1.00  0.00     0.029 C 
HETATM    7  C7  UNL     1      22.592  13.752  21.368  1.00  0.00     0.024 C 
HETATM    8  C8  UNL     1      24.142  14.304  23.296  1.00  0.00     0.133 C 
HETATM    9  N3  UNL     1      23.987  14.103  24.728  1.00  0.00    -0.336 N 
HETATM   10  C9  UNL     1      24.895  14.541  25.737  1.00  0.00     0.224 C 
HETATM   11  O2  UNL     1      24.658  14.295  26.963  1.00  0.00    -0.273 OA
HETATM   12  C13 UNL     1      22.760  13.376  24.984  1.00  0.00     0.202 C 
ENDROOT
BRANCH  12  13
HETATM   13  C14 UNL     1      21.893  14.089  25.960  1.00  0.00     0.244 C 
HETATM   14  O3  UNL     1      21.689  15.311  25.784  1.00  0.00    -0.271 OA
HETATM   15  N4  UNL     1      21.299  13.450  27.063  1.00  0.00    -0.350 N 
HETATM   16  C15 UNL     1      20.435  14.094  28.029  1.00  0.00     0.126 C 
HETATM   17  C18 UNL     1      21.406  12.074  27.496  1.00  0.00     0.126 C 
HETATM   18  C16 UNL     1      21.035  13.617  29.336  1.00  0.00     0.021 C 
HETATM   19  C17 UNL     1      21.410  12.208  29.008  1.00  0.00     0.021 C 
ENDBRANCH  12  13
BRANCH  10  20
HETATM   20  C10 UNL     1      26.139  15.287  25.450  1.00  0.00     0.070 C 
HETATM   21  C11 UNL     1      26.371  16.471  26.339  1.00  0.00     0.019 C 
HETATM   22  C12 UNL     1      27.356  14.352  25.544  1.00  0.00     0.019 C 
ENDBRANCH  10  20
BRANCH   1  23
HETATM   23  C2  UNL     1      22.222  11.868  19.904  1.00  0.00     0.223 C 
HETATM   24  N1  UNL     1      23.376  12.297  19.200  1.00  0.00    -0.365 N 
HETATM   25  C1  UNL     1      23.995  11.519  18.149  1.00  0.00     0.149 C 
ATOM     26  H1  UNL     1      23.789  13.197  19.446  1.00  0.00     0.161 HD
HETATM   27  O1  UNL     1      21.741  10.736  19.559  1.00  0.00    -0.273 OA
ENDBRANCH   1  23
TORSDOF 3
ENDMDL
