MODEL 1
REMARK VINA RESULT: -6.564962402      0.000      0.000
REMARK  6 active torsions:
REMARK  status: ('A' for Active; 'I' for Inactive)
REMARK       I    between atoms: N1_2  and  C3_4 
REMARK    1  A    between atoms: C3_4  and  C4_6 
REMARK    2  A    between atoms: N2_10  and  C8_11 
REMARK    3  A    between atoms: C8_11  and  O2_12 
REMARK    4  A    between atoms: C8_11  and  C9_14 
REMARK    5  A    between atoms: C9_14  and  C10_15 
REMARK       I    between atoms: C10_15  and  N3_17 
REMARK    6  A    between atoms: N3_17  and  C11_19 
ROOT
HETATM    1  C9  UNL     1      23.627  11.370  21.608  1.00  0.00     0.268 C 
HETATM    2  C15 UNL     1      22.668  12.118  20.679  1.00  0.00     0.059 C 
HETATM    3  C16 UNL     1      21.762  11.124  20.053  1.00  0.00     0.031 C 
HETATM    4  C17 UNL     1      21.955   9.875  20.827  1.00  0.00     0.234 C 
HETATM    5  N4  UNL     1      23.141   9.974  21.573  1.00  0.00    -0.050 N 
ATOM      6  H41 UNL     1      23.028   9.590  22.511  1.00  0.00     0.279 HD
ATOM      7  H42 UNL     1      23.857   9.334  21.229  1.00  0.00     0.279 HD
ENDROOT
BRANCH   1   8
HETATM    8  C8  UNL     1      23.252  11.849  22.975  1.00  0.00     0.161 C 
BRANCH   8   9
HETATM    9  N2  UNL     1      22.088  12.031  23.677  1.00  0.00    -0.345 N 
HETATM   10  C4  UNL     1      21.475  11.280  24.849  1.00  0.00     0.113 C 
HETATM   11  C5  UNL     1      21.779   9.801  24.794  1.00  0.00     0.049 C 
HETATM   12  C6  UNL     1      20.151  11.680  24.353  1.00  0.00     0.060 C 
HETATM   13  C7  UNL     1      20.977  12.912  23.849  1.00  0.00     0.129 C 
BRANCH  10  14
HETATM   14  C3  UNL     1      21.862  11.823  26.147  1.00  0.00     0.247 C 
HETATM   15  N1  UNL     1      21.112  11.800  27.344  1.00  0.00    -0.359 N 
HETATM   16  C1  UNL     1      19.795  11.235  27.492  1.00  0.00     0.152 C 
HETATM   17  C2  UNL     1      21.703  12.358  28.550  1.00  0.00     0.152 C 
HETATM   18  O1  UNL     1      23.009  12.391  26.198  1.00  0.00    -0.271 OA
ENDBRANCH  10  14
ENDBRANCH   8   9
BRANCH   8  19
HETATM   19  O2  UNL     1      24.333  12.178  23.619  1.00  0.00    -0.347 OA
ATOM     20  H2  UNL     1      24.989  12.622  23.094  1.00  0.00     0.219 HD
ENDBRANCH   8  19
ENDBRANCH   1   8
BRANCH   1  21
HETATM   21  C10 UNL     1      24.982  11.558  21.156  1.00  0.00     0.263 C 
HETATM   22  O3  UNL     1      25.344  12.605  20.540  1.00  0.00    -0.270 OA
HETATM   23  N3  UNL     1      26.029  10.618  21.357  1.00  0.00    -0.350 N 
ATOM     24  H3  UNL     1      25.861   9.792  21.930  1.00  0.00     0.163 HD
BRANCH  23  25
HETATM   25  C11 UNL     1      27.345  10.821  20.751  1.00  0.00     0.022 C 
HETATM   26  C12 UNL     1      28.065  12.025  21.253  1.00  0.00     0.037 C 
HETATM   27  C13 UNL     1      27.204  10.876  19.253  1.00  0.00     0.037 C 
HETATM   28  C14 UNL     1      28.216   9.602  21.090  1.00  0.00     0.037 C 
ENDBRANCH  23  25
ENDBRANCH   1  21
TORSDOF 6
ENDMDL
MODEL 2
REMARK VINA RESULT: -6.360829030      1.239      1.567
REMARK  6 active torsions:
REMARK  status: ('A' for Active; 'I' for Inactive)
REMARK       I    between atoms: N1_2  and  C3_4 
REMARK    1  A    between atoms: C3_4  and  C4_6 
REMARK    2  A    between atoms: N2_10  and  C8_11 
REMARK    3  A    between atoms: C8_11  and  O2_12 
REMARK    4  A    between atoms: C8_11  and  C9_14 
REMARK    5  A    between atoms: C9_14  and  C10_15 
REMARK       I    between atoms: C10_15  and  N3_17 
REMARK    6  A    between atoms: N3_17  and  C11_19 
ROOT
HETATM    1  C9  UNL     1      23.967  11.560  21.231  1.00  0.00     0.268 C 
HETATM    2  C15 UNL     1      23.324  12.871  20.772  1.00  0.00     0.059 C 
HETATM    3  C16 UNL     1      22.400  12.567  19.653  1.00  0.00     0.031 C 
HETATM    4  C17 UNL     1      22.248  11.093  19.660  1.00  0.00     0.234 C 
HETATM    5  N4  UNL     1      23.279  10.526  20.428  1.00  0.00    -0.050 N 
ATOM      6  H41 UNL     1      22.938   9.761  21.010  1.00  0.00     0.279 HD
ATOM      7  H42 UNL     1      23.934  10.001  19.849  1.00  0.00     0.279 HD
ENDROOT
BRANCH   1   8
HETATM    8  C8  UNL     1      23.431  11.360  22.613  1.00  0.00     0.161 C 
BRANCH   8   9
HETATM    9  N2  UNL     1      22.866  12.150  23.581  1.00  0.00    -0.345 N 
HETATM   10  C4  UNL     1      21.448  12.241  24.125  1.00  0.00     0.113 C 
HETATM   11  C5  UNL     1      20.414  11.972  23.058  1.00  0.00     0.049 C 
HETATM   12  C6  UNL     1      21.704  13.656  24.428  1.00  0.00     0.060 C 
HETATM   13  C7  UNL     1      23.161  13.108  24.598  1.00  0.00     0.129 C 
BRANCH  10  14
HETATM   14  C3  UNL     1      21.217  11.374  25.276  1.00  0.00     0.247 C 
HETATM   15  N1  UNL     1      20.528  11.695  26.467  1.00  0.00    -0.359 N 
HETATM   16  C1  UNL     1      19.930  12.972  26.766  1.00  0.00     0.152 C 
HETATM   17  C2  UNL     1      20.364  10.665  27.480  1.00  0.00     0.152 C 
HETATM   18  O1  UNL     1      21.703  10.192  25.195  1.00  0.00    -0.271 OA
ENDBRANCH  10  14
ENDBRANCH   8   9
BRANCH   8  19
HETATM   19  O2  UNL     1      23.569  10.110  22.944  1.00  0.00    -0.347 OA
ATOM     20  H2  UNL     1      23.213   9.492  22.316  1.00  0.00     0.219 HD
ENDBRANCH   8  19
ENDBRANCH   1   8
BRANCH   1  21
HETATM   21  C10 UNL     1      25.394  11.631  21.045  1.00  0.00     0.263 C 
HETATM   22  O3  UNL     1      25.963  12.680  20.617  1.00  0.00    -0.270 OA
HETATM   23  N3  UNL     1      26.289  10.564  21.323  1.00  0.00    -0.350 N 
ATOM     24  H3  UNL     1      25.939   9.715  21.766  1.00  0.00     0.163 HD
BRANCH  23  25
HETATM   25  C11 UNL     1      27.709  10.667  20.981  1.00  0.00     0.022 C 
HETATM   26  C12 UNL     1      28.415  11.790  21.658  1.00  0.00     0.037 C 
HETATM   27  C13 UNL     1      27.857  10.774  19.486  1.00  0.00     0.037 C 
HETATM   28  C14 UNL     1      28.399   9.368  21.423  1.00  0.00     0.037 C 
ENDBRANCH  23  25
ENDBRANCH   1  21
TORSDOF 6
ENDMDL
MODEL 3
REMARK VINA RESULT: -6.358658246      3.043      7.417
REMARK  6 active torsions:
REMARK  status: ('A' for Active; 'I' for Inactive)
REMARK       I    between atoms: N1_2  and  C3_4 
REMARK    1  A    between atoms: C3_4  and  C4_6 
REMARK    2  A    between atoms: N2_10  and  C8_11 
REMARK    3  A    between atoms: C8_11  and  O2_12 
REMARK    4  A    between atoms: C8_11  and  C9_14 
REMARK    5  A    between atoms: C9_14  and  C10_15 
REMARK       I    between atoms: C10_15  and  N3_17 
REMARK    6  A    between atoms: N3_17  and  C11_19 
ROOT
HETATM    1  C9  UNL     1      19.517  11.057  24.924  1.00  0.00     0.268 C 
HETATM    2  C15 UNL     1      19.661  12.561  25.166  1.00  0.00     0.059 C 
HETATM    3  C16 UNL     1      20.221  12.760  26.525  1.00  0.00     0.031 C 
HETATM    4  C17 UNL     1      20.700  11.424  26.951  1.00  0.00     0.234 C 
HETATM    5  N4  UNL     1      20.128  10.444  26.123  1.00  0.00    -0.050 N 
ATOM      6  H41 UNL     1      20.802   9.720  25.875  1.00  0.00     0.279 HD
ATOM      7  H42 UNL     1      19.459   9.865  26.632  1.00  0.00     0.279 HD
ENDROOT
BRANCH   1   8
HETATM    8  C8  UNL     1      20.497  10.771  23.832  1.00  0.00     0.161 C 
BRANCH   8   9
HETATM    9  N2  UNL     1      21.161  11.501  22.880  1.00  0.00    -0.345 N 
HETATM   10  C4  UNL     1      22.584  12.037  22.812  1.00  0.00     0.113 C 
HETATM   11  C5  UNL     1      23.105  12.432  24.173  1.00  0.00     0.049 C 
HETATM   12  C6  UNL     1      22.082  13.134  21.974  1.00  0.00     0.060 C 
HETATM   13  C7  UNL     1      21.056  12.027  21.556  1.00  0.00     0.129 C 
BRANCH  10  14
HETATM   14  C3  UNL     1      23.515  11.116  22.167  1.00  0.00     0.247 C 
HETATM   15  N1  UNL     1      24.592  11.444  21.314  1.00  0.00    -0.359 N 
HETATM   16  C1  UNL     1      24.958  12.777  20.908  1.00  0.00     0.152 C 
HETATM   17  C2  UNL     1      25.436  10.372  20.811  1.00  0.00     0.152 C 
HETATM   18  O1  UNL     1      23.324   9.871  22.399  1.00  0.00    -0.271 OA
ENDBRANCH  10  14
ENDBRANCH   8   9
BRANCH   8  19
HETATM   19  O2  UNL     1      20.743   9.494  23.807  1.00  0.00    -0.347 OA
ATOM     20  H2  UNL     1      20.756   9.110  22.938  1.00  0.00     0.219 HD
ENDBRANCH   8  19
ENDBRANCH   1   8
BRANCH   1  21
HETATM   21  C10 UNL     1      18.129  10.734  24.711  1.00  0.00     0.263 C 
HETATM   22  O3  UNL     1      17.253  10.908  25.611  1.00  0.00    -0.270 OA
HETATM   23  N3  UNL     1      17.608  10.208  23.498  1.00  0.00    -0.350 N 
ATOM     24  H3  UNL     1      18.215  10.128  22.682  1.00  0.00     0.163 HD
BRANCH  23  25
HETATM   25  C11 UNL     1      16.212   9.779  23.404  1.00  0.00     0.022 C 
HETATM   26  C12 UNL     1      15.229  10.895  23.487  1.00  0.00     0.037 C 
HETATM   27  C13 UNL     1      15.933   8.748  24.465  1.00  0.00     0.037 C 
HETATM   28  C14 UNL     1      16.015   9.105  22.038  1.00  0.00     0.037 C 
ENDBRANCH  23  25
ENDBRANCH   1  21
TORSDOF 6
ENDMDL
MODEL 4
REMARK VINA RESULT: -6.352069227      1.417      1.865
REMARK  6 active torsions:
REMARK  status: ('A' for Active; 'I' for Inactive)
REMARK       I    between atoms: N1_2  and  C3_4 
REMARK    1  A    between atoms: C3_4  and  C4_6 
REMARK    2  A    between atoms: N2_10  and  C8_11 
REMARK    3  A    between atoms: C8_11  and  O2_12 
REMARK    4  A    between atoms: C8_11  and  C9_14 
REMARK    5  A    between atoms: C9_14  and  C10_15 
REMARK       I    between atoms: C10_15  and  N3_17 
REMARK    6  A    between atoms: N3_17  and  C11_19 
ROOT
HETATM    1  C9  UNL     1      23.904  11.092  21.026  1.00  0.00     0.268 C 
HETATM    2  C15 UNL     1      23.405  12.492  20.657  1.00  0.00     0.059 C 
HETATM    3  C16 UNL     1      22.308  12.345  19.669  1.00  0.00     0.031 C 
HETATM    4  C17 UNL     1      21.945  10.909  19.696  1.00  0.00     0.234 C 
HETATM    5  N4  UNL     1      22.974  10.185  20.320  1.00  0.00    -0.050 N 
ATOM      6  H41 UNL     1      22.605   9.465  20.942  1.00  0.00     0.279 HD
ATOM      7  H42 UNL     1      23.465   9.582  19.660  1.00  0.00     0.279 HD
ENDROOT
BRANCH   1   8
HETATM    8  C8  UNL     1      23.531  10.945  22.466  1.00  0.00     0.161 C 
BRANCH   8   9
HETATM    9  N2  UNL     1      23.120  11.779  23.474  1.00  0.00    -0.345 N 
HETATM   10  C4  UNL     1      21.749  12.059  24.073  1.00  0.00     0.113 C 
HETATM   11  C5  UNL     1      20.653  11.976  23.038  1.00  0.00     0.049 C 
HETATM   12  C6  UNL     1      22.220  13.411  24.401  1.00  0.00     0.060 C 
HETATM   13  C7  UNL     1      23.586  12.652  24.504  1.00  0.00     0.129 C 
BRANCH  10  14
HETATM   14  C3  UNL     1      21.432  11.200  25.209  1.00  0.00     0.247 C 
HETATM   15  N1  UNL     1      20.763  11.565  26.399  1.00  0.00    -0.359 N 
HETATM   16  C1  UNL     1      20.280  12.885  26.713  1.00  0.00     0.152 C 
HETATM   17  C2  UNL     1      20.500  10.539  27.396  1.00  0.00     0.152 C 
HETATM   18  O1  UNL     1      21.811   9.981  25.115  1.00  0.00    -0.271 OA
ENDBRANCH  10  14
ENDBRANCH   8   9
BRANCH   8  19
HETATM   19  O2  UNL     1      23.654   9.697  22.810  1.00  0.00    -0.347 OA
ATOM     20  H2  UNL     1      22.948   9.132  22.517  1.00  0.00     0.219 HD
ENDBRANCH   8  19
ENDBRANCH   1   8
BRANCH   1  21
HETATM   21  C10 UNL     1      25.290  10.960  20.652  1.00  0.00     0.263 C 
HETATM   22  O3  UNL     1      25.639  10.541  19.508  1.00  0.00    -0.270 OA
HETATM   23  N3  UNL     1      26.380  11.286  21.502  1.00  0.00    -0.350 N 
ATOM     24  H3  UNL     1      26.202  11.726  22.405  1.00  0.00     0.163 HD
BRANCH  23  25
HETATM   25  C11 UNL     1      27.758  10.997  21.100  1.00  0.00     0.022 C 
HETATM   26  C12 UNL     1      28.118  11.522  19.753  1.00  0.00     0.037 C 
HETATM   27  C13 UNL     1      27.999   9.513  21.170  1.00  0.00     0.037 C 
HETATM   28  C14 UNL     1      28.698  11.668  22.112  1.00  0.00     0.037 C 
ENDBRANCH  23  25
ENDBRANCH   1  21
TORSDOF 6
ENDMDL
MODEL 5
REMARK VINA RESULT: -6.303454876      0.966      1.439
REMARK  6 active torsions:
REMARK  status: ('A' for Active; 'I' for Inactive)
REMARK       I    between atoms: N1_2  and  C3_4 
REMARK    1  A    between atoms: C3_4  and  C4_6 
REMARK    2  A    between atoms: N2_10  and  C8_11 
REMARK    3  A    between atoms: C8_11  and  O2_12 
REMARK    4  A    between atoms: C8_11  and  C9_14 
REMARK    5  A    between atoms: C9_14  and  C10_15 
REMARK       I    between atoms: C10_15  and  N3_17 
REMARK    6  A    between atoms: N3_17  and  C11_19 
ROOT
HETATM    1  C9  UNL     1      23.545  11.222  21.438  1.00  0.00     0.268 C 
HETATM    2  C15 UNL     1      22.605  12.015  20.527  1.00  0.00     0.059 C 
HETATM    3  C16 UNL     1      21.616  11.071  19.949  1.00  0.00     0.031 C 
HETATM    4  C17 UNL     1      21.756   9.825  20.739  1.00  0.00     0.234 C 
HETATM    5  N4  UNL     1      22.970   9.860  21.444  1.00  0.00    -0.050 N 
ATOM      6  H41 UNL     1      22.865   9.499  22.393  1.00  0.00     0.279 HD
ATOM      7  H42 UNL     1      23.632   9.170  21.089  1.00  0.00     0.279 HD
ENDROOT
BRANCH   1   8
HETATM    8  C8  UNL     1      23.247  11.747  22.807  1.00  0.00     0.161 C 
BRANCH   8   9
HETATM    9  N2  UNL     1      22.123  11.983  23.555  1.00  0.00    -0.345 N 
HETATM   10  C4  UNL     1      21.539  11.279  24.771  1.00  0.00     0.113 C 
HETATM   11  C5  UNL     1      21.793   9.791  24.739  1.00  0.00     0.049 C 
HETATM   12  C6  UNL     1      20.208  11.712  24.325  1.00  0.00     0.060 C 
HETATM   13  C7  UNL     1      21.049  12.904  23.755  1.00  0.00     0.129 C 
BRANCH  10  14
HETATM   14  C3  UNL     1      22.001  11.840  26.037  1.00  0.00     0.247 C 
HETATM   15  N1  UNL     1      21.324  11.831  27.277  1.00  0.00    -0.359 N 
HETATM   16  C1  UNL     1      20.018  11.267  27.510  1.00  0.00     0.152 C 
HETATM   17  C2  UNL     1      21.984  12.404  28.439  1.00  0.00     0.152 C 
HETATM   18  O1  UNL     1      23.148  12.408  26.014  1.00  0.00    -0.271 OA
ENDBRANCH  10  14
ENDBRANCH   8   9
BRANCH   8  19
HETATM   19  O2  UNL     1      24.365  12.056  23.394  1.00  0.00    -0.347 OA
ATOM     20  H2  UNL     1      25.063  11.420  23.281  1.00  0.00     0.219 HD
ENDBRANCH   8  19
ENDBRANCH   1   8
BRANCH   1  21
HETATM   21  C10 UNL     1      24.893  11.316  20.939  1.00  0.00     0.263 C 
HETATM   22  O3  UNL     1      25.673  10.316  20.921  1.00  0.00    -0.270 OA
HETATM   23  N3  UNL     1      25.471  12.505  20.419  1.00  0.00    -0.350 N 
ATOM     24  H3  UNL     1      24.892  13.335  20.297  1.00  0.00     0.163 HD
BRANCH  23  25
HETATM   25  C11 UNL     1      26.888  12.553  20.056  1.00  0.00     0.022 C 
HETATM   26  C12 UNL     1      27.272  11.594  18.982  1.00  0.00     0.037 C 
HETATM   27  C13 UNL     1      27.728  12.333  21.286  1.00  0.00     0.037 C 
HETATM   28  C14 UNL     1      27.195  13.964  19.532  1.00  0.00     0.037 C 
ENDBRANCH  23  25
ENDBRANCH   1  21
TORSDOF 6
ENDMDL
