MODEL 1
REMARK VINA RESULT: -7.154601350      0.000      0.000
REMARK  4 active torsions:
REMARK  status: ('A' for Active; 'I' for Inactive)
REMARK       I    between atoms: C2_2  and  N1_4 
REMARK    1  A    between atoms: N1_4  and  C3_6 
REMARK       I    between atoms: N2_10  and  C7_11 
REMARK       I    between atoms: C7_11  and  N3_13 
REMARK    2  A    between atoms: N4_16  and  C10_17 
REMARK    3  A    between atoms: C16_23  and  C17_24 
REMARK    4  A    between atoms: C17_24  and  O3_25 
ROOT
HETATM    1  C3  UNL     1      27.260  11.764  19.056  1.00  0.00     0.097 C 
HETATM    2  C4  UNL     1      26.914  10.468  19.787  1.00  0.00     0.023 C 
HETATM    3  C5  UNL     1      28.003  10.046  20.717  1.00  0.00     0.014 C 
HETATM    4  C6  UNL     1      25.621  10.608  20.568  1.00  0.00     0.134 C 
HETATM    5  N2  UNL     1      24.609  11.116  19.691  1.00  0.00    -0.333 N 
HETATM    6  C7  UNL     1      23.287  11.485  20.030  1.00  0.00     0.320 C 
HETATM    7  O2  UNL     1      22.523  11.901  19.067  1.00  0.00    -0.247 OA
HETATM    8  N3  UNL     1      22.682  11.460  21.292  1.00  0.00    -0.331 N 
HETATM    9  C8  UNL     1      21.266  11.892  21.368  1.00  0.00     0.158 C 
HETATM   10  C9  UNL     1      20.545  10.685  21.959  1.00  0.00     0.292 C 
HETATM   11  N4  UNL     1      20.974  10.405  23.297  1.00  0.00     0.095 N 
HETATM   12  C13 UNL     1      22.245  10.936  23.649  1.00  0.00     0.292 C 
HETATM   13  C14 UNL     1      23.243  11.081  22.533  1.00  0.00     0.158 C 
HETATM   14  C15 UNL     1      25.002  11.269  18.295  1.00  0.00     0.136 C 
HETATM   15  C16 UNL     1      26.170  12.224  18.175  1.00  0.00     0.050 C 
ENDROOT
BRANCH  15  16
HETATM   16  C17 UNL     1      25.672  13.609  18.324  1.00  0.00     0.172 C 
BRANCH  16  17
HETATM   17  O3  UNL     1      24.479  13.908  17.684  1.00  0.00    -0.400 OA
ATOM     18  H3  UNL     1      24.387  14.794  17.354  1.00  0.00     0.209 HD
ENDBRANCH  16  17
ENDBRANCH  15  16
BRANCH   1  19
HETATM   19  N1  UNL     1      27.830  12.743  19.939  1.00  0.00    -0.356 N 
HETATM   20  C2  UNL     1      29.162  13.159  20.000  1.00  0.00     0.213 C 
HETATM   21  C1  UNL     1      29.640  14.179  20.954  1.00  0.00     0.117 C 
HETATM   22  O1  UNL     1      30.021  12.676  19.235  1.00  0.00    -0.274 OA
ATOM     23  H1  UNL     1      27.189  13.185  20.596  1.00  0.00     0.162 HD
ENDBRANCH   1  19
BRANCH  11  24
HETATM   24  C10 UNL     1      19.993  10.756  24.298  1.00  0.00     0.215 C 
HETATM   25  C11 UNL     1      20.145  12.148  24.823  1.00  0.00     0.042 C 
HETATM   26  C12 UNL     1      18.629  10.695  23.600  1.00  0.00     0.042 C 
ENDBRANCH  11  24
TORSDOF 4
ENDMDL
MODEL 2
REMARK VINA RESULT: -6.865974924      2.592      3.445
REMARK  4 active torsions:
REMARK  status: ('A' for Active; 'I' for Inactive)
REMARK       I    between atoms: C2_2  and  N1_4 
REMARK    1  A    between atoms: N1_4  and  C3_6 
REMARK       I    between atoms: N2_10  and  C7_11 
REMARK       I    between atoms: C7_11  and  N3_13 
REMARK    2  A    between atoms: N4_16  and  C10_17 
REMARK    3  A    between atoms: C16_23  and  C17_24 
REMARK    4  A    between atoms: C17_24  and  O3_25 
ROOT
HETATM    1  C3  UNL     1      27.787  12.075  21.425  1.00  0.00     0.097 C 
HETATM    2  C4  UNL     1      26.641  11.709  20.485  1.00  0.00     0.023 C 
HETATM    3  C5  UNL     1      26.856  10.384  19.832  1.00  0.00     0.014 C 
HETATM    4  C6  UNL     1      25.313  11.689  21.220  1.00  0.00     0.134 C 
HETATM    5  N2  UNL     1      25.166  12.924  21.930  1.00  0.00    -0.333 N 
HETATM    6  C7  UNL     1      24.125  13.284  22.818  1.00  0.00     0.320 C 
HETATM    7  O2  UNL     1      24.174  14.472  23.338  1.00  0.00    -0.247 OA
HETATM    8  N3  UNL     1      23.028  12.511  23.217  1.00  0.00    -0.331 N 
HETATM    9  C8  UNL     1      22.070  13.140  24.158  1.00  0.00     0.158 C 
HETATM   10  C9  UNL     1      20.737  13.079  23.418  1.00  0.00     0.292 C 
HETATM   11  N4  UNL     1      20.300  11.732  23.207  1.00  0.00     0.095 N 
HETATM   12  C13 UNL     1      21.324  10.746  23.267  1.00  0.00     0.292 C 
HETATM   13  C14 UNL     1      22.701  11.185  22.852  1.00  0.00     0.158 C 
HETATM   14  C15 UNL     1      26.215  13.911  21.707  1.00  0.00     0.136 C 
HETATM   15  C16 UNL     1      27.561  13.356  22.120  1.00  0.00     0.050 C 
ENDROOT
BRANCH  15  16
HETATM   16  C17 UNL     1      27.659  13.391  23.596  1.00  0.00     0.172 C 
BRANCH  16  17
HETATM   17  O3  UNL     1      28.937  13.469  24.129  1.00  0.00    -0.400 OA
ATOM     18  H3  UNL     1      29.019  13.909  24.967  1.00  0.00     0.209 HD
ENDBRANCH  16  17
ENDBRANCH  15  16
BRANCH   1  19
HETATM   19  N1  UNL     1      28.189  10.962  22.240  1.00  0.00    -0.356 N 
HETATM   20  C2  UNL     1      29.472  10.429  22.378  1.00  0.00     0.213 C 
HETATM   21  C1  UNL     1      29.771   9.276  23.249  1.00  0.00     0.117 C 
HETATM   22  O1  UNL     1      30.439  10.915  21.757  1.00  0.00    -0.274 OA
ATOM     23  H1  UNL     1      27.452  10.511  22.780  1.00  0.00     0.162 HD
ENDBRANCH   1  19
BRANCH  11  24
HETATM   24  C10 UNL     1      19.191  11.350  24.051  1.00  0.00     0.215 C 
HETATM   25  C11 UNL     1      18.230  12.465  24.315  1.00  0.00     0.042 C 
HETATM   26  C12 UNL     1      18.417  10.274  23.280  1.00  0.00     0.042 C 
ENDBRANCH  11  24
TORSDOF 4
ENDMDL
MODEL 3
REMARK VINA RESULT: -6.712446385      3.882      8.913
REMARK  4 active torsions:
REMARK  status: ('A' for Active; 'I' for Inactive)
REMARK       I    between atoms: C2_2  and  N1_4 
REMARK    1  A    between atoms: N1_4  and  C3_6 
REMARK       I    between atoms: N2_10  and  C7_11 
REMARK       I    between atoms: C7_11  and  N3_13 
REMARK    2  A    between atoms: N4_16  and  C10_17 
REMARK    3  A    between atoms: C16_23  and  C17_24 
REMARK    4  A    between atoms: C17_24  and  O3_25 
ROOT
HETATM    1  C3  UNL     1      18.976  11.850  26.900  1.00  0.00     0.097 C 
HETATM    2  C4  UNL     1      18.543  11.187  25.594  1.00  0.00     0.023 C 
HETATM    3  C5  UNL     1      17.192  11.648  25.157  1.00  0.00     0.014 C 
HETATM    4  C6  UNL     1      19.542  11.455  24.484  1.00  0.00     0.134 C 
HETATM    5  N2  UNL     1      20.850  11.110  24.954  1.00  0.00    -0.333 N 
HETATM    6  C7  UNL     1      22.079  11.293  24.278  1.00  0.00     0.320 C 
HETATM    7  O2  UNL     1      23.153  10.882  24.880  1.00  0.00    -0.247 OA
HETATM    8  N3  UNL     1      22.294  11.871  23.021  1.00  0.00    -0.331 N 
HETATM    9  C8  UNL     1      23.694  11.929  22.538  1.00  0.00     0.158 C 
HETATM   10  C9  UNL     1      23.659  11.167  21.217  1.00  0.00     0.292 C 
HETATM   11  N4  UNL     1      22.847  11.827  20.239  1.00  0.00     0.095 N 
HETATM   12  C13 UNL     1      21.886  12.736  20.761  1.00  0.00     0.292 C 
HETATM   13  C14 UNL     1      21.347  12.427  22.131  1.00  0.00     0.158 C 
HETATM   14  C15 UNL     1      20.907  10.505  26.279  1.00  0.00     0.136 C 
HETATM   15  C16 UNL     1      20.333  11.447  27.316  1.00  0.00     0.050 C 
ENDROOT
BRANCH  15  16
HETATM   16  C17 UNL     1      21.329  12.500  27.608  1.00  0.00     0.172 C 
BRANCH  16  17
HETATM   17  O3  UNL     1      22.651  12.090  27.701  1.00  0.00    -0.400 OA
ATOM     18  H3  UNL     1      23.211  12.297  26.961  1.00  0.00     0.209 HD
ENDBRANCH  16  17
ENDBRANCH  15  16
BRANCH   1  19
HETATM   19  N1  UNL     1      18.693  13.258  26.907  1.00  0.00    -0.356 N 
HETATM   20  C2  UNL     1      17.866  13.955  27.790  1.00  0.00     0.213 C 
HETATM   21  C1  UNL     1      17.647  15.412  27.703  1.00  0.00     0.117 C 
HETATM   22  O1  UNL     1      17.266  13.363  28.709  1.00  0.00    -0.274 OA
ATOM     23  H1  UNL     1      19.150  13.813  26.183  1.00  0.00     0.162 HD
ENDBRANCH   1  19
BRANCH  11  24
HETATM   24  C10 UNL     1      23.613  12.459  19.190  1.00  0.00     0.215 C 
HETATM   25  C11 UNL     1      24.015  11.523  18.095  1.00  0.00     0.042 C 
HETATM   26  C12 UNL     1      22.688  13.506  18.557  1.00  0.00     0.042 C 
ENDBRANCH  11  24
TORSDOF 4
ENDMDL
MODEL 4
REMARK VINA RESULT: -6.679650660      2.197      7.755
REMARK  4 active torsions:
REMARK  status: ('A' for Active; 'I' for Inactive)
REMARK       I    between atoms: C2_2  and  N1_4 
REMARK    1  A    between atoms: N1_4  and  C3_6 
REMARK       I    between atoms: N2_10  and  C7_11 
REMARK       I    between atoms: C7_11  and  N3_13 
REMARK    2  A    between atoms: N4_16  and  C10_17 
REMARK    3  A    between atoms: C16_23  and  C17_24 
REMARK    4  A    between atoms: C17_24  and  O3_25 
ROOT
HETATM    1  C3  UNL     1      23.070  11.729  19.330  1.00  0.00     0.097 C 
HETATM    2  C4  UNL     1      23.595  12.725  18.297  1.00  0.00     0.023 C 
HETATM    3  C5  UNL     1      22.675  13.888  18.126  1.00  0.00     0.014 C 
HETATM    4  C6  UNL     1      24.973  13.234  18.677  1.00  0.00     0.134 C 
HETATM    5  N2  UNL     1      25.819  12.109  18.944  1.00  0.00    -0.333 N 
HETATM    6  C7  UNL     1      27.150  12.132  19.422  1.00  0.00     0.320 C 
HETATM    7  O2  UNL     1      27.745  10.988  19.571  1.00  0.00    -0.247 OA
HETATM    8  N3  UNL     1      27.924  13.247  19.763  1.00  0.00    -0.331 N 
HETATM    9  C8  UNL     1      29.307  12.988  20.231  1.00  0.00     0.158 C 
HETATM   10  C9  UNL     1      30.177  13.770  19.253  1.00  0.00     0.292 C 
HETATM   11  N4  UNL     1      29.957  15.182  19.347  1.00  0.00     0.095 N 
HETATM   12  C13 UNL     1      28.716  15.564  19.926  1.00  0.00     0.292 C 
HETATM   13  C14 UNL     1      27.566  14.614  19.733  1.00  0.00     0.158 C 
HETATM   14  C15 UNL     1      25.228  10.801  18.693  1.00  0.00     0.136 C 
HETATM   15  C16 UNL     1      23.996  10.603  19.550  1.00  0.00     0.050 C 
ENDROOT
BRANCH  15  16
HETATM   16  C17 UNL     1      24.422  10.293  20.933  1.00  0.00     0.172 C 
BRANCH  16  17
HETATM   17  O3  UNL     1      23.586   9.464  21.665  1.00  0.00    -0.400 OA
ATOM     18  H3  UNL     1      23.912   8.591  21.850  1.00  0.00     0.209 HD
ENDBRANCH  16  17
ENDBRANCH  15  16
BRANCH   1  19
HETATM   19  N1  UNL     1      22.567  12.388  20.503  1.00  0.00    -0.356 N 
HETATM   20  C2  UNL     1      21.490  11.997  21.301  1.00  0.00     0.213 C 
HETATM   21  C1  UNL     1      21.058  12.755  22.491  1.00  0.00     0.117 C 
HETATM   22  O1  UNL     1      20.835  10.969  21.036  1.00  0.00    -0.274 OA
ATOM     23  H1  UNL     1      23.052  13.239  20.785  1.00  0.00     0.162 HD
ENDBRANCH   1  19
BRANCH  11  24
HETATM   24  C10 UNL     1      31.043  15.890  19.984  1.00  0.00     0.215 C 
HETATM   25  C11 UNL     1      31.499  17.095  19.224  1.00  0.00     0.042 C 
HETATM   26  C12 UNL     1      30.496  16.397  21.324  1.00  0.00     0.042 C 
ENDBRANCH  11  24
TORSDOF 4
ENDMDL
MODEL 5
REMARK VINA RESULT: -6.625747077      3.752      8.270
REMARK  4 active torsions:
REMARK  status: ('A' for Active; 'I' for Inactive)
REMARK       I    between atoms: C2_2  and  N1_4 
REMARK    1  A    between atoms: N1_4  and  C3_6 
REMARK       I    between atoms: N2_10  and  C7_11 
REMARK       I    between atoms: C7_11  and  N3_13 
REMARK    2  A    between atoms: N4_16  and  C10_17 
REMARK    3  A    between atoms: C16_23  and  C17_24 
REMARK    4  A    between atoms: C17_24  and  O3_25 
ROOT
HETATM    1  C3  UNL     1      19.673  13.846  26.108  1.00  0.00     0.097 C 
HETATM    2  C4  UNL     1      18.929  13.819  24.775  1.00  0.00     0.023 C 
HETATM    3  C5  UNL     1      18.168  15.081  24.536  1.00  0.00     0.014 C 
HETATM    4  C6  UNL     1      19.883  13.589  23.617  1.00  0.00     0.134 C 
HETATM    5  N2  UNL     1      20.683  12.436  23.907  1.00  0.00    -0.333 N 
HETATM    6  C7  UNL     1      21.760  11.927  23.145  1.00  0.00     0.320 C 
HETATM    7  O2  UNL     1      22.335  10.848  23.580  1.00  0.00    -0.247 OA
HETATM    8  N3  UNL     1      22.298  12.444  21.960  1.00  0.00    -0.331 N 
HETATM    9  C8  UNL     1      23.429  11.701  21.355  1.00  0.00     0.158 C 
HETATM   10  C9  UNL     1      22.932  11.355  19.955  1.00  0.00     0.292 C 
HETATM   11  N4  UNL     1      22.719  12.524  19.156  1.00  0.00     0.095 N 
HETATM   12  C13 UNL     1      22.537  13.732  19.885  1.00  0.00     0.292 C 
HETATM   13  C14 UNL     1      21.914  13.603  21.248  1.00  0.00     0.158 C 
HETATM   14  C15 UNL     1      20.340  11.720  25.129  1.00  0.00     0.136 C 
HETATM   15  C16 UNL     1      20.475  12.629  26.332  1.00  0.00     0.050 C 
ENDROOT
BRANCH  15  16
HETATM   16  C17 UNL     1      21.910  12.773  26.662  1.00  0.00     0.172 C 
BRANCH  16  17
HETATM   17  O3  UNL     1      22.704  11.652  26.469  1.00  0.00    -0.400 OA
ATOM     18  H3  UNL     1      23.638  11.805  26.384  1.00  0.00     0.209 HD
ENDBRANCH  16  17
ENDBRANCH  15  16
BRANCH   1  19
HETATM   19  N1  UNL     1      20.336  15.102  26.327  1.00  0.00    -0.356 N 
HETATM   20  C2  UNL     1      20.216  15.944  27.435  1.00  0.00     0.213 C 
HETATM   21  C1  UNL     1      20.948  17.219  27.555  1.00  0.00     0.117 C 
HETATM   22  O1  UNL     1      19.470  15.646  28.390  1.00  0.00    -0.274 OA
ATOM     23  H1  UNL     1      20.965  15.414  25.589  1.00  0.00     0.162 HD
ENDBRANCH   1  19
BRANCH  11  24
HETATM   24  C10 UNL     1      23.719  12.708  18.130  1.00  0.00     0.215 C 
HETATM   25  C11 UNL     1      24.875  13.551  18.566  1.00  0.00     0.042 C 
HETATM   26  C12 UNL     1      24.281  11.314  17.826  1.00  0.00     0.042 C 
ENDBRANCH  11  24
TORSDOF 4
ENDMDL
