MODEL 1
REMARK VINA RESULT: -7.285619794      0.000      0.000
REMARK  4 active torsions:
REMARK  status: ('A' for Active; 'I' for Inactive)
REMARK    1  A    between atoms: C2_2  and  C3_3 
REMARK    2  A    between atoms: C3_3  and  N1_4 
REMARK       I    between atoms: N1_4  and  C4_6 
REMARK       I    between atoms: C4_6  and  N2_8 
REMARK    3  A    between atoms: N2_8  and  C5_10 
REMARK       I    between atoms: N3_17  and  C12_18 
REMARK    4  A    between atoms: C12_18  and  C13_20 
REMARK       I    between atoms: C13_20  and  N4_22 
ROOT
HETATM    1  C5  UNL     1      21.573  12.034  21.984  1.00  0.00     0.088 C 
HETATM    2  C6  UNL     1      21.530  11.064  20.842  1.00  0.00     0.028 C 
HETATM    3  C7  UNL     1      22.433  11.580  19.753  1.00  0.00     0.033 C 
HETATM    4  C8  UNL     1      22.908  12.963  20.174  1.00  0.00     0.037 C 
HETATM    5  C9  UNL     1      22.554  13.979  19.064  1.00  0.00     0.033 C 
HETATM    6  C10 UNL     1      23.541  13.469  18.008  1.00  0.00     0.022 C 
HETATM    7  C11 UNL     1      24.804  13.279  18.868  1.00  0.00     0.127 C 
HETATM    8  N3  UNL     1      24.323  13.048  20.204  1.00  0.00    -0.335 N 
HETATM    9  C12 UNL     1      25.203  12.923  21.313  1.00  0.00     0.312 C 
HETATM   10  O2  UNL     1      24.780  12.717  22.496  1.00  0.00    -0.262 OA
HETATM   11  C18 UNL     1      22.166  13.306  21.423  1.00  0.00     0.056 C 
ENDROOT
BRANCH   9  12
HETATM   12  C13 UNL     1      26.655  13.015  21.209  1.00  0.00     0.311 C 
HETATM   13  O3  UNL     1      27.172  14.151  21.370  1.00  0.00    -0.262 OA
HETATM   14  N4  UNL     1      27.437  11.872  20.938  1.00  0.00    -0.344 N 
HETATM   15  C14 UNL     1      27.036  10.512  20.737  1.00  0.00     0.126 C 
HETATM   16  C17 UNL     1      28.894  11.929  20.809  1.00  0.00     0.126 C 
HETATM   17  C15 UNL     1      28.302   9.691  20.568  1.00  0.00     0.021 C 
HETATM   18  C16 UNL     1      29.315  10.569  21.298  1.00  0.00     0.021 C 
ENDBRANCH   9  12
BRANCH   1  19
HETATM   19  N2  UNL     1      20.237  12.288  22.520  1.00  0.00    -0.338 N 
HETATM   20  C4  UNL     1      19.728  11.400  23.499  1.00  0.00     0.316 C 
HETATM   21  N1  UNL     1      18.433  11.633  24.028  1.00  0.00    -0.340 N 
HETATM   22  O1  UNL     1      20.399  10.403  23.914  1.00  0.00    -0.247 OA
ATOM     23  H1  UNL     1      17.877  12.427  23.709  1.00  0.00     0.164 HD
ATOM     24  H2  UNL     1      19.687  13.083  22.198  1.00  0.00     0.164 HD
BRANCH  21  25
HETATM   25  C3  UNL     1      17.917  10.727  25.025  1.00  0.00     0.150 C 
BRANCH  25  26
HETATM   26  C2  UNL     1      16.851   9.910  24.434  1.00  0.00    -0.018 C 
HETATM   27  C1  UNL     1      16.049   9.199  25.206  1.00  0.00     0.008 C 
ENDBRANCH  25  26
ENDBRANCH  21  25
ENDBRANCH   1  19
TORSDOF 4
ENDMDL
MODEL 2
REMARK VINA RESULT: -7.279065826      2.841      3.299
REMARK  4 active torsions:
REMARK  status: ('A' for Active; 'I' for Inactive)
REMARK    1  A    between atoms: C2_2  and  C3_3 
REMARK    2  A    between atoms: C3_3  and  N1_4 
REMARK       I    between atoms: N1_4  and  C4_6 
REMARK       I    between atoms: C4_6  and  N2_8 
REMARK    3  A    between atoms: N2_8  and  C5_10 
REMARK       I    between atoms: N3_17  and  C12_18 
REMARK    4  A    between atoms: C12_18  and  C13_20 
REMARK       I    between atoms: C13_20  and  N4_22 
ROOT
HETATM    1  C5  UNL     1      22.621  11.341  24.466  1.00  0.00     0.088 C 
HETATM    2  C6  UNL     1      22.571   9.974  23.853  1.00  0.00     0.028 C 
HETATM    3  C7  UNL     1      22.651  10.127  22.357  1.00  0.00     0.033 C 
HETATM    4  C8  UNL     1      22.590  11.615  22.048  1.00  0.00     0.037 C 
HETATM    5  C9  UNL     1      21.424  11.881  21.068  1.00  0.00     0.033 C 
HETATM    6  C10 UNL     1      22.038  11.195  19.842  1.00  0.00     0.022 C 
HETATM    7  C11 UNL     1      23.478  11.737  19.905  1.00  0.00     0.127 C 
HETATM    8  N3  UNL     1      23.709  12.043  21.291  1.00  0.00    -0.335 N 
HETATM    9  C12 UNL     1      24.907  12.664  21.738  1.00  0.00     0.312 C 
HETATM   10  O2  UNL     1      25.114  12.935  22.964  1.00  0.00    -0.262 OA
HETATM   11  C18 UNL     1      22.323  12.308  23.344  1.00  0.00     0.056 C 
ENDROOT
BRANCH   9  12
HETATM   12  C13 UNL     1      26.001  13.044  20.852  1.00  0.00     0.311 C 
HETATM   13  O3  UNL     1      26.066  14.253  20.505  1.00  0.00    -0.262 OA
HETATM   14  N4  UNL     1      26.941  12.090  20.408  1.00  0.00    -0.344 N 
HETATM   15  C14 UNL     1      27.036  10.691  20.699  1.00  0.00     0.126 C 
HETATM   16  C17 UNL     1      28.041  12.432  19.505  1.00  0.00     0.126 C 
HETATM   17  C15 UNL     1      28.292  10.176  20.020  1.00  0.00     0.021 C 
HETATM   18  C16 UNL     1      29.113  11.459  19.919  1.00  0.00     0.021 C 
ENDBRANCH   9  12
BRANCH   1  19
HETATM   19  N2  UNL     1      21.636  11.482  25.537  1.00  0.00    -0.338 N 
HETATM   20  C4  UNL     1      21.983  12.260  26.668  1.00  0.00     0.316 C 
HETATM   21  N1  UNL     1      21.038  12.407  27.715  1.00  0.00    -0.340 N 
HETATM   22  O1  UNL     1      23.117  12.828  26.769  1.00  0.00    -0.247 OA
ATOM     23  H1  UNL     1      20.123  11.960  27.655  1.00  0.00     0.164 HD
ATOM     24  H2  UNL     1      20.723  11.034  25.470  1.00  0.00     0.164 HD
BRANCH  21  25
HETATM   25  C3  UNL     1      21.395  13.201  28.867  1.00  0.00     0.150 C 
BRANCH  25  26
HETATM   26  C2  UNL     1      20.433  12.949  29.946  1.00  0.00    -0.018 C 
HETATM   27  C1  UNL     1      19.282  12.354  29.689  1.00  0.00     0.008 C 
ENDBRANCH  25  26
ENDBRANCH  21  25
ENDBRANCH   1  19
TORSDOF 4
ENDMDL
MODEL 3
REMARK VINA RESULT: -7.170998445      2.423      3.888
REMARK  4 active torsions:
REMARK  status: ('A' for Active; 'I' for Inactive)
REMARK    1  A    between atoms: C2_2  and  C3_3 
REMARK    2  A    between atoms: C3_3  and  N1_4 
REMARK       I    between atoms: N1_4  and  C4_6 
REMARK       I    between atoms: C4_6  and  N2_8 
REMARK    3  A    between atoms: N2_8  and  C5_10 
REMARK       I    between atoms: N3_17  and  C12_18 
REMARK    4  A    between atoms: C12_18  and  C13_20 
REMARK       I    between atoms: C13_20  and  N4_22 
ROOT
HETATM    1  C5  UNL     1      19.492  11.478  23.655  1.00  0.00     0.088 C 
HETATM    2  C6  UNL     1      19.336  12.892  24.128  1.00  0.00     0.028 C 
HETATM    3  C7  UNL     1      20.670  13.579  24.006  1.00  0.00     0.033 C 
HETATM    4  C8  UNL     1      21.690  12.524  23.603  1.00  0.00     0.037 C 
HETATM    5  C9  UNL     1      22.846  12.519  24.629  1.00  0.00     0.033 C 
HETATM    6  C10 UNL     1      23.443  13.882  24.261  1.00  0.00     0.022 C 
HETATM    7  C11 UNL     1      23.427  13.791  22.724  1.00  0.00     0.127 C 
HETATM    8  N3  UNL     1      22.365  12.874  22.407  1.00  0.00    -0.335 N 
HETATM    9  C12 UNL     1      22.102  12.453  21.075  1.00  0.00     0.312 C 
HETATM   10  O2  UNL     1      21.163  11.642  20.792  1.00  0.00    -0.262 OA
HETATM   11  C18 UNL     1      20.979  11.211  23.640  1.00  0.00     0.056 C 
ENDROOT
BRANCH   9  12
HETATM   12  C13 UNL     1      22.868  12.903  19.918  1.00  0.00     0.311 C 
HETATM   13  O3  UNL     1      22.481  13.955  19.346  1.00  0.00    -0.262 OA
HETATM   14  N4  UNL     1      23.993  12.180  19.466  1.00  0.00    -0.344 N 
HETATM   15  C14 UNL     1      24.582  10.982  19.985  1.00  0.00     0.126 C 
HETATM   16  C17 UNL     1      24.774  12.591  18.299  1.00  0.00     0.126 C 
HETATM   17  C15 UNL     1      25.824  10.699  19.159  1.00  0.00     0.021 C 
HETATM   18  C16 UNL     1      26.154  12.098  18.645  1.00  0.00     0.021 C 
ENDBRANCH   9  12
BRANCH   1  19
HETATM   19  N2  UNL     1      18.815  10.539  24.546  1.00  0.00    -0.338 N 
HETATM   20  C4  UNL     1      17.522  10.085  24.185  1.00  0.00     0.316 C 
HETATM   21  N1  UNL     1      16.853   9.174  25.039  1.00  0.00    -0.340 N 
HETATM   22  O1  UNL     1      16.950  10.474  23.118  1.00  0.00    -0.247 OA
ATOM     23  H1  UNL     1      17.293   8.850  25.901  1.00  0.00     0.164 HD
ATOM     24  H2  UNL     1      19.261  10.218  25.405  1.00  0.00     0.164 HD
BRANCH  21  25
HETATM   25  C3  UNL     1      15.536   8.713  24.668  1.00  0.00     0.150 C 
BRANCH  25  26
HETATM   26  C2  UNL     1      14.527   9.497  25.389  1.00  0.00    -0.018 C 
HETATM   27  C1  UNL     1      13.701  10.289  24.729  1.00  0.00     0.008 C 
ENDBRANCH  25  26
ENDBRANCH  21  25
ENDBRANCH   1  19
TORSDOF 4
ENDMDL
MODEL 4
REMARK VINA RESULT: -7.142217046      0.891      1.294
REMARK  4 active torsions:
REMARK  status: ('A' for Active; 'I' for Inactive)
REMARK    1  A    between atoms: C2_2  and  C3_3 
REMARK    2  A    between atoms: C3_3  and  N1_4 
REMARK       I    between atoms: N1_4  and  C4_6 
REMARK       I    between atoms: C4_6  and  N2_8 
REMARK    3  A    between atoms: N2_8  and  C5_10 
REMARK       I    between atoms: N3_17  and  C12_18 
REMARK    4  A    between atoms: C12_18  and  C13_20 
REMARK       I    between atoms: C13_20  and  N4_22 
ROOT
HETATM    1  C5  UNL     1      21.679  12.191  22.034  1.00  0.00     0.088 C 
HETATM    2  C6  UNL     1      21.551  11.212  20.906  1.00  0.00     0.028 C 
HETATM    3  C7  UNL     1      22.384  11.710  19.755  1.00  0.00     0.033 C 
HETATM    4  C8  UNL     1      22.898  13.092  20.130  1.00  0.00     0.037 C 
HETATM    5  C9  UNL     1      22.480  14.102  19.036  1.00  0.00     0.033 C 
HETATM    6  C10 UNL     1      23.390  13.573  17.921  1.00  0.00     0.022 C 
HETATM    7  C11 UNL     1      24.705  13.379  18.698  1.00  0.00     0.127 C 
HETATM    8  N3  UNL     1      24.312  13.164  20.065  1.00  0.00    -0.335 N 
HETATM    9  C12 UNL     1      25.264  13.040  21.113  1.00  0.00     0.312 C 
HETATM   10  O2  UNL     1      24.919  12.849  22.324  1.00  0.00    -0.262 OA
HETATM   11  C18 UNL     1      22.244  13.453  21.423  1.00  0.00     0.056 C 
ENDROOT
BRANCH   9  12
HETATM   12  C13 UNL     1      26.706  13.117  20.912  1.00  0.00     0.311 C 
HETATM   13  O3  UNL     1      27.226  14.264  20.910  1.00  0.00    -0.262 OA
HETATM   14  N4  UNL     1      27.477  11.950  20.726  1.00  0.00    -0.344 N 
HETATM   15  C14 UNL     1      27.071  10.576  20.705  1.00  0.00     0.126 C 
HETATM   16  C17 UNL     1      28.923  11.990  20.503  1.00  0.00     0.126 C 
HETATM   17  C15 UNL     1      28.329   9.740  20.554  1.00  0.00     0.021 C 
HETATM   18  C16 UNL     1      29.380  10.694  21.116  1.00  0.00     0.021 C 
ENDBRANCH   9  12
BRANCH   1  19
HETATM   19  N2  UNL     1      20.384  12.462  22.655  1.00  0.00    -0.338 N 
HETATM   20  C4  UNL     1      20.038  11.743  23.825  1.00  0.00     0.316 C 
HETATM   21  N1  UNL     1      18.786  11.995  24.439  1.00  0.00    -0.340 N 
HETATM   22  O1  UNL     1      20.820  10.880  24.337  1.00  0.00    -0.247 OA
ATOM     23  H1  UNL     1      18.143  12.682  24.045  1.00  0.00     0.164 HD
ATOM     24  H2  UNL     1      19.747  13.152  22.257  1.00  0.00     0.164 HD
BRANCH  21  25
HETATM   25  C3  UNL     1      18.436  11.260  25.631  1.00  0.00     0.150 C 
BRANCH  25  26
HETATM   26  C2  UNL     1      18.740  12.078  26.811  1.00  0.00    -0.018 C 
HETATM   27  C1  UNL     1      19.567  11.630  27.739  1.00  0.00     0.008 C 
ENDBRANCH  25  26
ENDBRANCH  21  25
ENDBRANCH   1  19
TORSDOF 4
ENDMDL
MODEL 5
REMARK VINA RESULT: -7.140729969      2.703      4.391
REMARK  4 active torsions:
REMARK  status: ('A' for Active; 'I' for Inactive)
REMARK    1  A    between atoms: C2_2  and  C3_3 
REMARK    2  A    between atoms: C3_3  and  N1_4 
REMARK       I    between atoms: N1_4  and  C4_6 
REMARK       I    between atoms: C4_6  and  N2_8 
REMARK    3  A    between atoms: N2_8  and  C5_10 
REMARK       I    between atoms: N3_17  and  C12_18 
REMARK    4  A    between atoms: C12_18  and  C13_20 
REMARK       I    between atoms: C13_20  and  N4_22 
ROOT
HETATM    1  C5  UNL     1      19.318  11.777  23.997  1.00  0.00     0.088 C 
HETATM    2  C6  UNL     1      19.579  13.237  23.780  1.00  0.00     0.028 C 
HETATM    3  C7  UNL     1      21.069  13.458  23.811  1.00  0.00     0.033 C 
HETATM    4  C8  UNL     1      21.716  12.140  24.211  1.00  0.00     0.037 C 
HETATM    5  C9  UNL     1      22.605  12.369  25.455  1.00  0.00     0.033 C 
HETATM    6  C10 UNL     1      23.689  13.210  24.769  1.00  0.00     0.022 C 
HETATM    7  C11 UNL     1      23.906  12.395  23.481  1.00  0.00     0.127 C 
HETATM    8  N3  UNL     1      22.664  11.706  23.252  1.00  0.00    -0.335 N 
HETATM    9  C12 UNL     1      22.505  10.766  22.197  1.00  0.00     0.312 C 
HETATM   10  O2  UNL     1      21.407  10.156  21.992  1.00  0.00    -0.262 OA
HETATM   11  C18 UNL     1      20.601  11.207  24.556  1.00  0.00     0.056 C 
ENDROOT
BRANCH   9  12
HETATM   12  C13 UNL     1      23.564  10.415  21.259  1.00  0.00     0.311 C 
HETATM   13  O3  UNL     1      24.289   9.428  21.552  1.00  0.00    -0.262 OA
HETATM   14  N4  UNL     1      23.762  11.158  20.075  1.00  0.00    -0.344 N 
HETATM   15  C14 UNL     1      23.045  12.291  19.572  1.00  0.00     0.126 C 
HETATM   16  C17 UNL     1      24.826  10.845  19.120  1.00  0.00     0.126 C 
HETATM   17  C15 UNL     1      23.635  12.628  18.215  1.00  0.00     0.021 C 
HETATM   18  C16 UNL     1      24.222  11.278  17.811  1.00  0.00     0.021 C 
ENDBRANCH   9  12
BRANCH   1  19
HETATM   19  N2  UNL     1      18.217  11.565  24.934  1.00  0.00    -0.338 N 
HETATM   20  C4  UNL     1      17.252  10.576  24.623  1.00  0.00     0.316 C 
HETATM   21  N1  UNL     1      16.178  10.360  25.522  1.00  0.00    -0.340 N 
HETATM   22  O1  UNL     1      17.326   9.880  23.561  1.00  0.00    -0.247 OA
ATOM     23  H1  UNL     1      16.099  10.907  26.379  1.00  0.00     0.164 HD
ATOM     24  H2  UNL     1      18.144  12.116  25.790  1.00  0.00     0.164 HD
BRANCH  21  25
HETATM   25  C3  UNL     1      15.197   9.350  25.201  1.00  0.00     0.150 C 
BRANCH  25  26
HETATM   26  C2  UNL     1      13.948  10.000  24.789  1.00  0.00    -0.018 C 
HETATM   27  C1  UNL     1      13.701  10.221  23.511  1.00  0.00     0.008 C 
ENDBRANCH  25  26
ENDBRANCH  21  25
ENDBRANCH   1  19
TORSDOF 4
ENDMDL
