MODEL 1
REMARK VINA RESULT: -7.383672915      0.000      0.000
REMARK  5 active torsions:
REMARK  status: ('A' for Active; 'I' for Inactive)
REMARK    1  A    between atoms: C2_2  and  C3_3 
REMARK    2  A    between atoms: C3_3  and  O1_4 
REMARK    3  A    between atoms: C3_3  and  N1_6 
REMARK       I    between atoms: N2_10  and  C7_11 
REMARK       I    between atoms: C7_11  and  N3_13 
REMARK    4  A    between atoms: N3_13  and  C8_15 
REMARK    5  A    between atoms: C8_15  and  C9_16 
ROOT
HETATM    1  N1  UNL     1      22.214  11.830  22.518  1.00  0.00    -0.363 N 
HETATM    2  C4  UNL     1      21.358  11.717  21.395  1.00  0.00     0.126 C 
HETATM    3  C5  UNL     1      20.686  10.368  21.220  1.00  0.00     0.040 C 
HETATM    4  C6  UNL     1      20.332   9.826  22.596  1.00  0.00     0.129 C 
HETATM    5  N2  UNL     1      19.610  10.824  23.342  1.00  0.00    -0.333 N 
HETATM    6  C7  UNL     1      18.217  10.650  23.460  1.00  0.00     0.319 C 
HETATM    7  O2  UNL     1      17.672  11.547  24.157  1.00  0.00    -0.247 OA
HETATM    8  N3  UNL     1      17.494   9.603  22.876  1.00  0.00    -0.325 N 
ATOM      9  H3  UNL     1      18.042   8.945  22.322  1.00  0.00     0.165 HD
HETATM   10  C15 UNL     1      20.204  12.005  23.967  1.00  0.00     0.147 C 
HETATM   11  C16 UNL     1      21.701  11.910  23.920  1.00  0.00     0.144 C 
ENDROOT
BRANCH   8  12
HETATM   12  C8  UNL     1      16.073   9.327  22.951  1.00  0.00     0.113 C 
HETATM   13  C10 UNL     1      15.204  10.475  22.659  1.00  0.00     0.041 C 
HETATM   14  C11 UNL     1      13.909  10.375  23.423  1.00  0.00     0.003 C 
HETATM   15  C12 UNL     1      14.278  10.567  24.879  1.00  0.00     0.000 C 
HETATM   16  C13 UNL     1      15.158   9.412  25.278  1.00  0.00     0.003 C 
HETATM   17  C14 UNL     1      15.661   8.576  24.184  1.00  0.00     0.041 C 
BRANCH  12  18
HETATM   18  C9  UNL     1      15.799   8.315  21.852  1.00  0.00     0.259 C 
HETATM   19  N4  UNL     1      16.034   8.686  20.530  1.00  0.00    -0.060 NA
HETATM   20  O3  UNL     1      15.379   7.196  22.147  1.00  0.00    -0.274 OA
ENDBRANCH  12  18
ENDBRANCH   8  12
BRANCH   1  21
HETATM   21  C3  UNL     1      23.603  11.895  22.504  1.00  0.00     0.122 C 
BRANCH  21  22
HETATM   22  C2  UNL     1      24.593  11.746  21.445  1.00  0.00     0.021 A 
HETATM   23  C1  UNL     1      24.750  10.314  20.863  1.00  0.00     0.024 C 
HETATM   24  C17 UNL     1      24.868  12.823  20.408  1.00  0.00     0.018 A 
HETATM   25  C18 UNL     1      25.850  12.572  21.459  1.00  0.00     0.018 A 
ENDBRANCH  21  22
BRANCH  21  26
HETATM   26  O1  UNL     1      24.143  12.144  23.682  1.00  0.00    -0.349 OA
ATOM     27  H1  UNL     1      23.788  11.600  24.374  1.00  0.00     0.219 HD
ENDBRANCH  21  26
ENDBRANCH   1  21
TORSDOF 5
ENDMDL
MODEL 2
REMARK VINA RESULT: -7.087005854      2.201      3.050
REMARK  5 active torsions:
REMARK  status: ('A' for Active; 'I' for Inactive)
REMARK    1  A    between atoms: C2_2  and  C3_3 
REMARK    2  A    between atoms: C3_3  and  O1_4 
REMARK    3  A    between atoms: C3_3  and  N1_6 
REMARK       I    between atoms: N2_10  and  C7_11 
REMARK       I    between atoms: C7_11  and  N3_13 
REMARK    4  A    between atoms: N3_13  and  C8_15 
REMARK    5  A    between atoms: C8_15  and  C9_16 
ROOT
HETATM    1  N1  UNL     1      22.766  11.350  20.928  1.00  0.00    -0.363 N 
HETATM    2  C4  UNL     1      21.545  10.905  20.366  1.00  0.00     0.126 C 
HETATM    3  C5  UNL     1      20.813   9.837  21.157  1.00  0.00     0.040 C 
HETATM    4  C6  UNL     1      20.991  10.129  22.638  1.00  0.00     0.129 C 
HETATM    5  N2  UNL     1      20.640  11.500  22.910  1.00  0.00    -0.333 N 
HETATM    6  C7  UNL     1      19.391  11.729  23.520  1.00  0.00     0.319 C 
HETATM    7  O2  UNL     1      19.181  12.950  23.754  1.00  0.00    -0.247 OA
HETATM    8  N3  UNL     1      18.466  10.728  23.842  1.00  0.00    -0.325 N 
ATOM      9  H3  UNL     1      18.741   9.778  23.592  1.00  0.00     0.165 HD
HETATM   10  C15 UNL     1      21.464  12.663  22.587  1.00  0.00     0.147 C 
HETATM   11  C16 UNL     1      22.827  12.216  22.145  1.00  0.00     0.144 C 
ENDROOT
BRANCH   8  12
HETATM   12  C8  UNL     1      17.172  10.858  24.482  1.00  0.00     0.113 C 
HETATM   13  C10 UNL     1      16.545   9.588  24.871  1.00  0.00     0.041 C 
HETATM   14  C11 UNL     1      15.042   9.694  24.819  1.00  0.00     0.003 C 
HETATM   15  C12 UNL     1      14.693   9.832  23.352  1.00  0.00     0.000 C 
HETATM   16  C13 UNL     1      15.280  11.130  22.868  1.00  0.00     0.003 C 
HETATM   17  C14 UNL     1      16.230  11.786  23.771  1.00  0.00     0.041 C 
BRANCH  12  18
HETATM   18  C9  UNL     1      17.436  11.601  25.780  1.00  0.00     0.259 C 
HETATM   19  N4  UNL     1      16.680  12.736  26.063  1.00  0.00    -0.060 NA
HETATM   20  O3  UNL     1      18.304  11.190  26.550  1.00  0.00    -0.274 OA
ENDBRANCH  12  18
ENDBRANCH   8  12
BRANCH   1  21
HETATM   21  C3  UNL     1      24.047  11.079  20.460  1.00  0.00     0.122 C 
BRANCH  21  22
HETATM   22  C2  UNL     1      24.762  11.458  19.248  1.00  0.00     0.021 A 
HETATM   23  C1  UNL     1      26.307  11.301  19.298  1.00  0.00     0.024 C 
HETATM   24  C17 UNL     1      24.205  11.234  17.851  1.00  0.00     0.018 A 
HETATM   25  C18 UNL     1      24.262  12.589  18.392  1.00  0.00     0.018 A 
ENDBRANCH  21  22
BRANCH  21  26
HETATM   26  O1  UNL     1      24.771  10.331  21.271  1.00  0.00    -0.349 OA
ATOM     27  H1  UNL     1      25.536  10.783  21.605  1.00  0.00     0.219 HD
ENDBRANCH  21  26
ENDBRANCH   1  21
TORSDOF 5
ENDMDL
MODEL 3
REMARK VINA RESULT: -6.938697233      1.692      2.196
REMARK  5 active torsions:
REMARK  status: ('A' for Active; 'I' for Inactive)
REMARK    1  A    between atoms: C2_2  and  C3_3 
REMARK    2  A    between atoms: C3_3  and  O1_4 
REMARK    3  A    between atoms: C3_3  and  N1_6 
REMARK       I    between atoms: N2_10  and  C7_11 
REMARK       I    between atoms: C7_11  and  N3_13 
REMARK    4  A    between atoms: N3_13  and  C8_15 
REMARK    5  A    between atoms: C8_15  and  C9_16 
ROOT
HETATM    1  N1  UNL     1      22.865  10.534  21.975  1.00  0.00    -0.363 N 
HETATM    2  C4  UNL     1      21.917  11.329  21.286  1.00  0.00     0.126 C 
HETATM    3  C5  UNL     1      20.677  10.598  20.807  1.00  0.00     0.040 C 
HETATM    4  C6  UNL     1      20.294   9.564  21.854  1.00  0.00     0.129 C 
HETATM    5  N2  UNL     1      20.226  10.187  23.152  1.00  0.00    -0.333 N 
HETATM    6  C7  UNL     1      18.941  10.456  23.663  1.00  0.00     0.319 C 
HETATM    7  O2  UNL     1      18.974  10.967  24.815  1.00  0.00    -0.247 OA
HETATM    8  N3  UNL     1      17.743  10.195  22.986  1.00  0.00    -0.325 N 
ATOM      9  H3  UNL     1      17.844   9.793  22.054  1.00  0.00     0.165 HD
HETATM   10  C15 UNL     1      21.377  10.575  23.964  1.00  0.00     0.147 C 
HETATM   11  C16 UNL     1      22.636  10.023  23.361  1.00  0.00     0.144 C 
ENDROOT
BRANCH   8  12
HETATM   12  C8  UNL     1      16.381  10.417  23.429  1.00  0.00     0.113 C 
HETATM   13  C10 UNL     1      15.378  10.434  22.356  1.00  0.00     0.041 C 
HETATM   14  C11 UNL     1      14.228  11.342  22.712  1.00  0.00     0.003 C 
HETATM   15  C12 UNL     1      14.795  12.746  22.694  1.00  0.00     0.000 C 
HETATM   16  C13 UNL     1      15.827  12.830  23.787  1.00  0.00     0.003 C 
HETATM   17  C14 UNL     1      16.232  11.559  24.393  1.00  0.00     0.041 C 
BRANCH  12  18
HETATM   18  C9  UNL     1      16.037   9.218  24.295  1.00  0.00     0.259 C 
HETATM   19  N4  UNL     1      16.019   9.379  25.679  1.00  0.00    -0.060 NA
HETATM   20  O3  UNL     1      15.785   8.137  23.764  1.00  0.00    -0.274 OA
ENDBRANCH  12  18
ENDBRANCH   8  12
BRANCH   1  21
HETATM   21  C3  UNL     1      24.108  10.125  21.505  1.00  0.00     0.122 C 
BRANCH  21  22
HETATM   22  C2  UNL     1      25.083  10.738  20.612  1.00  0.00     0.021 A 
HETATM   23  C1  UNL     1      24.673  10.812  19.114  1.00  0.00     0.024 C 
HETATM   24  C17 UNL     1      25.972  11.899  21.023  1.00  0.00     0.018 A 
HETATM   25  C18 UNL     1      26.556  10.571  20.864  1.00  0.00     0.018 A 
ENDBRANCH  21  22
BRANCH  21  26
HETATM   26  O1  UNL     1      24.495   8.947  21.958  1.00  0.00    -0.349 OA
ATOM     27  H1  UNL     1      25.316   8.658  21.579  1.00  0.00     0.219 HD
ENDBRANCH  21  26
ENDBRANCH   1  21
TORSDOF 5
ENDMDL
MODEL 4
REMARK VINA RESULT: -6.904590869      4.562      8.128
REMARK  5 active torsions:
REMARK  status: ('A' for Active; 'I' for Inactive)
REMARK    1  A    between atoms: C2_2  and  C3_3 
REMARK    2  A    between atoms: C3_3  and  O1_4 
REMARK    3  A    between atoms: C3_3  and  N1_6 
REMARK       I    between atoms: N2_10  and  C7_11 
REMARK       I    between atoms: C7_11  and  N3_13 
REMARK    4  A    between atoms: N3_13  and  C8_15 
REMARK    5  A    between atoms: C8_15  and  C9_16 
ROOT
HETATM    1  N1  UNL     1      21.102  11.253  25.673  1.00  0.00    -0.363 N 
HETATM    2  C4  UNL     1      20.930  12.403  24.864  1.00  0.00     0.126 C 
HETATM    3  C5  UNL     1      22.209  13.097  24.434  1.00  0.00     0.040 C 
HETATM    4  C6  UNL     1      23.262  12.035  24.160  1.00  0.00     0.129 C 
HETATM    5  N2  UNL     1      22.728  11.038  23.268  1.00  0.00    -0.333 N 
HETATM    6  C7  UNL     1      23.145  11.095  21.924  1.00  0.00     0.319 C 
HETATM    7  O2  UNL     1      22.659  10.166  21.224  1.00  0.00    -0.247 OA
HETATM    8  N3  UNL     1      24.006  12.066  21.398  1.00  0.00    -0.325 N 
ATOM      9  H3  UNL     1      24.324  12.776  22.057  1.00  0.00     0.165 HD
HETATM   10  C15 UNL     1      21.779   9.992  23.643  1.00  0.00     0.147 C 
HETATM   11  C16 UNL     1      21.618   9.958  25.135  1.00  0.00     0.144 C 
ENDROOT
BRANCH   8  12
HETATM   12  C8  UNL     1      24.505  12.201  20.043  1.00  0.00     0.113 C 
HETATM   13  C10 UNL     1      25.157  13.484  19.750  1.00  0.00     0.041 C 
HETATM   14  C11 UNL     1      24.980  13.856  18.299  1.00  0.00     0.003 C 
HETATM   15  C12 UNL     1      23.505  14.155  18.131  1.00  0.00     0.000 C 
HETATM   16  C13 UNL     1      22.752  12.879  18.393  1.00  0.00     0.003 C 
HETATM   17  C14 UNL     1      23.524  11.784  18.987  1.00  0.00     0.041 C 
BRANCH  12  18
HETATM   18  C9  UNL     1      25.591  11.148  19.907  1.00  0.00     0.259 C 
HETATM   19  N4  UNL     1      26.601  11.103  20.866  1.00  0.00    -0.060 NA
HETATM   20  O3  UNL     1      25.560  10.362  18.961  1.00  0.00    -0.274 OA
ENDBRANCH  12  18
ENDBRANCH   8  12
BRANCH   1  21
HETATM   21  C3  UNL     1      20.824  11.140  27.030  1.00  0.00     0.122 C 
BRANCH  21  22
HETATM   22  C2  UNL     1      20.625  12.121  28.089  1.00  0.00     0.021 A 
HETATM   23  C1  UNL     1      21.916  12.786  28.645  1.00  0.00     0.024 C 
HETATM   24  C17 UNL     1      19.427  13.055  28.141  1.00  0.00     0.018 A 
HETATM   25  C18 UNL     1      19.514  11.947  29.087  1.00  0.00     0.018 A 
ENDBRANCH  21  22
BRANCH  21  26
HETATM   26  O1  UNL     1      20.712   9.895  27.456  1.00  0.00    -0.349 OA
ATOM     27  H1  UNL     1      20.663   9.265  26.747  1.00  0.00     0.219 HD
ENDBRANCH  21  26
ENDBRANCH   1  21
TORSDOF 5
ENDMDL
MODEL 5
REMARK VINA RESULT: -6.901603763      4.469      5.945
REMARK  5 active torsions:
REMARK  status: ('A' for Active; 'I' for Inactive)
REMARK    1  A    between atoms: C2_2  and  C3_3 
REMARK    2  A    between atoms: C3_3  and  O1_4 
REMARK    3  A    between atoms: C3_3  and  N1_6 
REMARK       I    between atoms: N2_10  and  C7_11 
REMARK       I    between atoms: C7_11  and  N3_13 
REMARK    4  A    between atoms: N3_13  and  C8_15 
REMARK    5  A    between atoms: C8_15  and  C9_16 
ROOT
HETATM    1  N1  UNL     1      22.814  10.814  23.357  1.00  0.00    -0.363 N 
HETATM    2  C4  UNL     1      23.314  11.939  24.059  1.00  0.00     0.126 C 
HETATM    3  C5  UNL     1      22.369  13.122  24.153  1.00  0.00     0.040 C 
HETATM    4  C6  UNL     1      20.953  12.594  24.324  1.00  0.00     0.129 C 
HETATM    5  N2  UNL     1      20.916  11.641  25.403  1.00  0.00    -0.333 N 
HETATM    6  C7  UNL     1      20.370  12.081  26.625  1.00  0.00     0.319 C 
HETATM    7  O2  UNL     1      20.344  11.174  27.501  1.00  0.00    -0.247 OA
HETATM    8  N3  UNL     1      19.902  13.378  26.867  1.00  0.00    -0.325 N 
ATOM      9  H3  UNL     1      19.988  14.029  26.087  1.00  0.00     0.165 HD
HETATM   10  C15 UNL     1      21.413  10.268  25.335  1.00  0.00     0.147 C 
HETATM   11  C16 UNL     1      21.755   9.919  23.916  1.00  0.00     0.144 C 
ENDROOT
BRANCH   8  12
HETATM   12  C8  UNL     1      19.311  13.922  28.074  1.00  0.00     0.113 C 
HETATM   13  C10 UNL     1      18.299  13.066  28.706  1.00  0.00     0.041 C 
HETATM   14  C11 UNL     1      17.265  13.897  29.422  1.00  0.00     0.003 C 
HETATM   15  C12 UNL     1      16.496  14.617  28.333  1.00  0.00     0.000 C 
HETATM   16  C13 UNL     1      17.457  15.544  27.639  1.00  0.00     0.003 C 
HETATM   17  C14 UNL     1      18.877  15.353  27.949  1.00  0.00     0.041 C 
BRANCH  12  18
HETATM   18  C9  UNL     1      20.451  14.018  29.073  1.00  0.00     0.259 C 
HETATM   19  N4  UNL     1      20.400  13.230  30.221  1.00  0.00    -0.060 NA
HETATM   20  O3  UNL     1      21.390  14.783  28.852  1.00  0.00    -0.274 OA
ENDBRANCH  12  18
ENDBRANCH   8  12
BRANCH   1  21
HETATM   21  C3  UNL     1      23.212  10.372  22.101  1.00  0.00     0.122 C 
BRANCH  21  22
HETATM   22  C2  UNL     1      22.929  10.835  20.749  1.00  0.00     0.021 A 
HETATM   23  C1  UNL     1      24.130  10.811  19.761  1.00  0.00     0.024 C 
HETATM   24  C17 UNL     1      21.602  10.594  20.049  1.00  0.00     0.018 A 
HETATM   25  C18 UNL     1      21.932  11.937  20.516  1.00  0.00     0.018 A 
ENDBRANCH  21  22
BRANCH  21  26
HETATM   26  O1  UNL     1      24.012   9.322  22.128  1.00  0.00    -0.349 OA
ATOM     27  H1  UNL     1      24.087   8.937  22.992  1.00  0.00     0.219 HD
ENDBRANCH  21  26
ENDBRANCH   1  21
TORSDOF 5
ENDMDL
