MODEL 1
REMARK VINA RESULT: -7.995937924      0.000      0.000
REMARK  5 active torsions:
REMARK  status: ('A' for Active; 'I' for Inactive)
REMARK    1  A    between atoms: C3_3  and  N1_4 
REMARK       I    between atoms: N1_4  and  C4_6 
REMARK       I    between atoms: C4_6  and  N2_8 
REMARK    2  A    between atoms: N2_8  and  C5_9 
REMARK    3  A    between atoms: C11_15  and  C12_16 
REMARK    4  A    between atoms: C12_16  and  O2_17 
REMARK    5  A    between atoms: C12_16  and  N3_19 
ROOT
HETATM    1  C1  UNL     1      17.797  13.101  24.539  1.00  0.00     0.014 C 
HETATM    2  C2  UNL     1      18.619  12.211  24.479  1.00  0.00    -0.098 C 
HETATM    3  C3  UNL     1      19.602  11.112  24.393  1.00  0.00     0.219 C 
ENDROOT
BRANCH   3   4
HETATM    4  N1  UNL     1      20.457  11.387  23.304  1.00  0.00    -0.321 N 
HETATM    5  C4  UNL     1      20.399  10.640  22.008  1.00  0.00     0.389 C 
HETATM    6  O1  UNL     1      19.507   9.787  22.050  1.00  0.00    -0.231 OA
HETATM    7  N2  UNL     1      21.252  10.958  21.035  1.00  0.00    -0.391 NA
ATOM      8  H1  UNL     1      21.147  12.131  23.406  1.00  0.00     0.166 HD
BRANCH   7   9
HETATM    9  C5  UNL     1      22.158  11.295  20.002  1.00  0.00     0.169 C 
HETATM   10  C6  UNL     1      22.312  12.810  19.918  1.00  0.00     0.044 C 
HETATM   11  C7  UNL     1      23.605  13.193  19.324  1.00  0.00    -0.010 C 
HETATM   12  C8  UNL     1      23.703  12.504  17.975  1.00  0.00     0.010 C 
HETATM   13  C17 UNL     1      24.830  13.054  20.136  1.00  0.00     0.023 C 
HETATM   14  C9  UNL     1      24.519  11.252  18.133  1.00  0.00    -0.008 C 
HETATM   15  C10 UNL     1      25.956  11.803  18.314  1.00  0.00     0.023 C 
HETATM   16  C18 UNL     1      24.619  10.735  19.505  1.00  0.00     0.009 C 
HETATM   17  C11 UNL     1      25.652  11.790  19.782  1.00  0.00     0.029 C 
HETATM   18  C19 UNL     1      23.499  10.739  20.425  1.00  0.00     0.045 C 
BRANCH  17  19
HETATM   19  C12 UNL     1      26.704  11.545  20.746  1.00  0.00     0.122 C 
BRANCH  19  20
HETATM   20  O2  UNL     1      26.409  11.988  21.954  1.00  0.00    -0.349 OA
ATOM     21  H2  UNL     1      25.589  11.641  22.285  1.00  0.00     0.219 HD
ENDBRANCH  19  20
BRANCH  19  22
HETATM   22  N3  UNL     1      27.942  10.948  20.661  1.00  0.00    -0.361 N 
HETATM   23  C13 UNL     1      29.134  11.477  20.101  1.00  0.00     0.151 C 
HETATM   24  C14 UNL     1      30.087  11.643  21.322  1.00  0.00     0.187 C 
HETATM   25  O3  UNL     1      30.319  10.369  21.810  1.00  0.00    -0.388 OA
HETATM   26  C15 UNL     1      29.181   9.751  22.327  1.00  0.00     0.187 C 
HETATM   27  C16 UNL     1      28.116   9.580  21.226  1.00  0.00     0.151 C 
ENDBRANCH  19  22
ENDBRANCH  17  19
ENDBRANCH   7   9
ENDBRANCH   3   4
TORSDOF 5
ENDMDL
MODEL 2
REMARK VINA RESULT: -7.954014706      1.339      1.366
REMARK  5 active torsions:
REMARK  status: ('A' for Active; 'I' for Inactive)
REMARK    1  A    between atoms: C3_3  and  N1_4 
REMARK       I    between atoms: N1_4  and  C4_6 
REMARK       I    between atoms: C4_6  and  N2_8 
REMARK    2  A    between atoms: N2_8  and  C5_9 
REMARK    3  A    between atoms: C11_15  and  C12_16 
REMARK    4  A    between atoms: C12_16  and  O2_17 
REMARK    5  A    between atoms: C12_16  and  N3_19 
ROOT
HETATM    1  C1  UNL     1      15.757   9.484  22.745  1.00  0.00     0.014 C 
HETATM    2  C2  UNL     1      16.827   9.796  23.222  1.00  0.00    -0.098 C 
HETATM    3  C3  UNL     1      18.138  10.150  23.804  1.00  0.00     0.219 C 
ENDROOT
BRANCH   3   4
HETATM    4  N1  UNL     1      18.985  10.541  22.745  1.00  0.00    -0.321 N 
HETATM    5  C4  UNL     1      20.428  10.150  22.663  1.00  0.00     0.389 C 
HETATM    6  O1  UNL     1      20.733   9.449  23.633  1.00  0.00    -0.231 OA
HETATM    7  N2  UNL     1      21.159  10.572  21.633  1.00  0.00    -0.391 NA
ATOM      8  H1  UNL     1      18.595  11.117  22.000  1.00  0.00     0.166 HD
BRANCH   7   9
HETATM    9  C5  UNL     1      21.936  11.021  20.538  1.00  0.00     0.169 C 
HETATM   10  C6  UNL     1      21.967  12.547  20.513  1.00  0.00     0.044 C 
HETATM   11  C7  UNL     1      23.166  13.054  19.822  1.00  0.00    -0.010 C 
HETATM   12  C8  UNL     1      23.187  12.430  18.439  1.00  0.00     0.010 C 
HETATM   13  C17 UNL     1      24.469  12.979  20.512  1.00  0.00     0.023 C 
HETATM   14  C9  UNL     1      24.105  11.241  18.461  1.00  0.00    -0.008 C 
HETATM   15  C10 UNL     1      25.508  11.896  18.537  1.00  0.00     0.023 C 
HETATM   16  C18 UNL     1      24.373  10.679  19.793  1.00  0.00     0.009 C 
HETATM   17  C11 UNL     1      25.346  11.799  20.024  1.00  0.00     0.029 C 
HETATM   18  C19 UNL     1      23.348  10.556  20.810  1.00  0.00     0.045 C 
BRANCH  17  19
HETATM   19  C12 UNL     1      26.500  11.599  20.875  1.00  0.00     0.122 C 
BRANCH  19  20
HETATM   20  O2  UNL     1      26.324  12.063  22.098  1.00  0.00    -0.349 OA
ATOM     21  H2  UNL     1      26.671  12.939  22.215  1.00  0.00     0.219 HD
ENDBRANCH  19  20
BRANCH  19  22
HETATM   22  N3  UNL     1      27.736  11.027  20.671  1.00  0.00    -0.361 N 
HETATM   23  C13 UNL     1      28.869  11.595  20.031  1.00  0.00     0.151 C 
HETATM   24  C14 UNL     1      29.917  11.742  21.174  1.00  0.00     0.187 C 
HETATM   25  O3  UNL     1      30.208  10.459  21.602  1.00  0.00    -0.388 OA
HETATM   26  C15 UNL     1      29.127   9.806  22.192  1.00  0.00     0.187 C 
HETATM   27  C16 UNL     1      27.977   9.647  21.177  1.00  0.00     0.151 C 
ENDBRANCH  19  22
ENDBRANCH  17  19
ENDBRANCH   7   9
ENDBRANCH   3   4
TORSDOF 5
ENDMDL
MODEL 3
REMARK VINA RESULT: -7.827615173      0.855      1.117
REMARK  5 active torsions:
REMARK  status: ('A' for Active; 'I' for Inactive)
REMARK    1  A    between atoms: C3_3  and  N1_4 
REMARK       I    between atoms: N1_4  and  C4_6 
REMARK       I    between atoms: C4_6  and  N2_8 
REMARK    2  A    between atoms: N2_8  and  C5_9 
REMARK    3  A    between atoms: C11_15  and  C12_16 
REMARK    4  A    between atoms: C12_16  and  O2_17 
REMARK    5  A    between atoms: C12_16  and  N3_19 
ROOT
HETATM    1  C1  UNL     1      21.473  11.998  27.048  1.00  0.00     0.014 C 
HETATM    2  C2  UNL     1      20.839  11.602  26.093  1.00  0.00    -0.098 C 
HETATM    3  C3  UNL     1      20.053  11.143  24.930  1.00  0.00     0.219 C 
ENDROOT
BRANCH   3   4
HETATM    4  N1  UNL     1      20.836  11.354  23.775  1.00  0.00    -0.321 N 
HETATM    5  C4  UNL     1      20.521  10.737  22.448  1.00  0.00     0.389 C 
HETATM    6  O1  UNL     1      19.498  10.050  22.532  1.00  0.00    -0.231 OA
HETATM    7  N2  UNL     1      21.319  10.981  21.410  1.00  0.00    -0.391 NA
ATOM      8  H1  UNL     1      21.656  11.957  23.848  1.00  0.00     0.166 HD
BRANCH   7   9
HETATM    9  C5  UNL     1      22.168  11.240  20.308  1.00  0.00     0.169 C 
HETATM   10  C6  UNL     1      22.306  12.745  20.099  1.00  0.00     0.044 C 
HETATM   11  C7  UNL     1      23.564  13.085  19.411  1.00  0.00    -0.010 C 
HETATM   12  C8  UNL     1      23.597  12.294  18.116  1.00  0.00     0.010 C 
HETATM   13  C17 UNL     1      24.830  13.013  20.166  1.00  0.00     0.023 C 
HETATM   14  C9  UNL     1      24.429  11.060  18.327  1.00  0.00    -0.008 C 
HETATM   15  C10 UNL     1      25.870  11.628  18.390  1.00  0.00     0.023 C 
HETATM   16  C18 UNL     1      24.604  10.652  19.728  1.00  0.00     0.009 C 
HETATM   17  C11 UNL     1      25.642  11.728  19.868  1.00  0.00     0.029 C 
HETATM   18  C19 UNL     1      23.533  10.723  20.701  1.00  0.00     0.045 C 
BRANCH  17  19
HETATM   19  C12 UNL     1      26.745  11.562  20.792  1.00  0.00     0.122 C 
BRANCH  19  20
HETATM   20  O2  UNL     1      26.487  12.045  21.992  1.00  0.00    -0.349 OA
ATOM     21  H2  UNL     1      26.826  12.923  22.118  1.00  0.00     0.219 HD
ENDBRANCH  19  20
BRANCH  19  22
HETATM   22  N3  UNL     1      27.999  11.006  20.674  1.00  0.00    -0.361 N 
HETATM   23  C13 UNL     1      29.143  11.552  20.036  1.00  0.00     0.151 C 
HETATM   24  C14 UNL     1      30.144  11.806  21.203  1.00  0.00     0.187 C 
HETATM   25  O3  UNL     1      30.446  10.563  21.733  1.00  0.00    -0.388 OA
HETATM   26  C15 UNL     1      29.356   9.929  22.329  1.00  0.00     0.187 C 
HETATM   27  C16 UNL     1      28.249   9.672  21.287  1.00  0.00     0.151 C 
ENDBRANCH  19  22
ENDBRANCH  17  19
ENDBRANCH   7   9
ENDBRANCH   3   4
TORSDOF 5
ENDMDL
MODEL 4
REMARK VINA RESULT: -7.724916382      3.122      7.445
REMARK  5 active torsions:
REMARK  status: ('A' for Active; 'I' for Inactive)
REMARK    1  A    between atoms: C3_3  and  N1_4 
REMARK       I    between atoms: N1_4  and  C4_6 
REMARK       I    between atoms: C4_6  and  N2_8 
REMARK    2  A    between atoms: N2_8  and  C5_9 
REMARK    3  A    between atoms: C11_15  and  C12_16 
REMARK    4  A    between atoms: C12_16  and  O2_17 
REMARK    5  A    between atoms: C12_16  and  N3_19 
ROOT
HETATM    1  C1  UNL     1      29.927   9.068  23.519  1.00  0.00     0.014 C 
HETATM    2  C2  UNL     1      29.547   9.578  22.486  1.00  0.00    -0.098 C 
HETATM    3  C3  UNL     1      29.082  10.173  21.217  1.00  0.00     0.219 C 
ENDROOT
BRANCH   3   4
HETATM    4  N1  UNL     1      27.701  10.434  21.347  1.00  0.00    -0.321 N 
HETATM    5  C4  UNL     1      26.852  10.935  20.220  1.00  0.00     0.389 C 
HETATM    6  O1  UNL     1      27.536  11.065  19.200  1.00  0.00    -0.231 OA
HETATM    7  N2  UNL     1      25.557  11.166  20.434  1.00  0.00    -0.391 NA
ATOM      8  H1  UNL     1      27.260  10.273  22.253  1.00  0.00     0.166 HD
BRANCH   7   9
HETATM    9  C5  UNL     1      24.182  11.411  20.660  1.00  0.00     0.169 C 
HETATM   10  C6  UNL     1      23.419  10.091  20.707  1.00  0.00     0.044 C 
HETATM   11  C7  UNL     1      22.177  10.210  21.492  1.00  0.00    -0.010 C 
HETATM   12  C8  UNL     1      21.371  11.348  20.892  1.00  0.00     0.010 C 
HETATM   13  C17 UNL     1      22.269  10.278  22.963  1.00  0.00     0.023 C 
HETATM   14  C9  UNL     1      21.615  12.589  21.703  1.00  0.00    -0.008 C 
HETATM   15  C10 UNL     1      20.832  12.300  23.010  1.00  0.00     0.023 C 
HETATM   16  C18 UNL     1      22.839  12.579  22.517  1.00  0.00     0.009 C 
HETATM   17  C11 UNL     1      22.118  11.718  23.514  1.00  0.00     0.029 C 
HETATM   18  C19 UNL     1      24.089  12.023  22.039  1.00  0.00     0.045 C 
BRANCH  17  19
HETATM   19  C12 UNL     1      22.455  11.794  24.921  1.00  0.00     0.122 C 
BRANCH  19  20
HETATM   20  O2  UNL     1      23.316  10.866  25.294  1.00  0.00    -0.349 OA
ATOM     21  H2  UNL     1      24.215  11.172  25.289  1.00  0.00     0.219 HD
ENDBRANCH  19  20
BRANCH  19  22
HETATM   22  N3  UNL     1      22.062  12.630  25.941  1.00  0.00    -0.361 N 
HETATM   23  C13 UNL     1      21.250  12.322  27.064  1.00  0.00     0.151 C 
HETATM   24  C14 UNL     1      22.215  12.460  28.280  1.00  0.00     0.187 C 
HETATM   25  O3  UNL     1      22.598  13.789  28.323  1.00  0.00    -0.388 OA
HETATM   26  C15 UNL     1      23.352  14.191  27.222  1.00  0.00     0.187 C 
HETATM   27  C16 UNL     1      22.530  14.044  25.926  1.00  0.00     0.151 C 
ENDBRANCH  19  22
ENDBRANCH  17  19
ENDBRANCH   7   9
ENDBRANCH   3   4
TORSDOF 5
ENDMDL
MODEL 5
REMARK VINA RESULT: -7.690920748      3.432      7.721
REMARK  5 active torsions:
REMARK  status: ('A' for Active; 'I' for Inactive)
REMARK    1  A    between atoms: C3_3  and  N1_4 
REMARK       I    between atoms: N1_4  and  C4_6 
REMARK       I    between atoms: C4_6  and  N2_8 
REMARK    2  A    between atoms: N2_8  and  C5_9 
REMARK    3  A    between atoms: C11_15  and  C12_16 
REMARK    4  A    between atoms: C12_16  and  O2_17 
REMARK    5  A    between atoms: C12_16  and  N3_19 
ROOT
HETATM    1  C1  UNL     1      27.144  11.288  19.298  1.00  0.00     0.014 C 
HETATM    2  C2  UNL     1      26.038  11.280  18.802  1.00  0.00    -0.098 C 
HETATM    3  C3  UNL     1      24.694  11.244  18.191  1.00  0.00     0.219 C 
ENDROOT
BRANCH   3   4
HETATM    4  N1  UNL     1      23.753  11.119  19.236  1.00  0.00    -0.321 N 
HETATM    5  C4  UNL     1      22.630  12.087  19.447  1.00  0.00     0.389 C 
HETATM    6  O1  UNL     1      22.661  12.967  18.581  1.00  0.00    -0.231 OA
HETATM    7  N2  UNL     1      21.792  11.900  20.466  1.00  0.00    -0.391 NA
ATOM      8  H1  UNL     1      23.842  10.332  19.878  1.00  0.00     0.166 HD
BRANCH   7   9
HETATM    9  C5  UNL     1      20.903  11.702  21.549  1.00  0.00     0.169 C 
HETATM   10  C6  UNL     1      20.918  10.236  21.973  1.00  0.00     0.044 C 
HETATM   11  C7  UNL     1      20.516  10.075  23.382  1.00  0.00    -0.010 C 
HETATM   12  C8  UNL     1      19.157  10.732  23.541  1.00  0.00     0.010 C 
HETATM   13  C17 UNL     1      21.471  10.455  24.442  1.00  0.00     0.023 C 
HETATM   14  C9  UNL     1      19.353  12.114  24.097  1.00  0.00    -0.008 C 
HETATM   15  C10 UNL     1      19.746  11.835  25.571  1.00  0.00     0.023 C 
HETATM   16  C18 UNL     1      20.698  12.679  23.919  1.00  0.00     0.009 C 
HETATM   17  C11 UNL     1      21.160  11.835  25.072  1.00  0.00     0.029 C 
HETATM   18  C19 UNL     1      21.465  12.501  22.702  1.00  0.00     0.045 C 
BRANCH  17  19
HETATM   19  C12 UNL     1      22.237  12.292  25.925  1.00  0.00     0.122 C 
BRANCH  19  20
HETATM   20  O2  UNL     1      23.365  11.636  25.725  1.00  0.00    -0.349 OA
ATOM     21  H2  UNL     1      23.620  11.104  26.469  1.00  0.00     0.219 HD
ENDBRANCH  19  20
BRANCH  19  22
HETATM   22  N3  UNL     1      22.325  13.265  26.896  1.00  0.00    -0.361 N 
HETATM   23  C13 UNL     1      22.291  14.674  26.730  1.00  0.00     0.151 C 
HETATM   24  C14 UNL     1      20.964  15.106  27.424  1.00  0.00     0.187 C 
HETATM   25  O3  UNL     1      21.105  14.790  28.764  1.00  0.00    -0.388 OA
HETATM   26  C15 UNL     1      21.207  13.421  29.009  1.00  0.00     0.187 C 
HETATM   27  C16 UNL     1      22.458  12.844  28.318  1.00  0.00     0.151 C 
ENDBRANCH  19  22
ENDBRANCH  17  19
ENDBRANCH   7   9
ENDBRANCH   3   4
TORSDOF 5
ENDMDL
