MODEL 1
REMARK VINA RESULT: -7.253260625      0.000      0.000
REMARK  5 active torsions:
REMARK  status: ('A' for Active; 'I' for Inactive)
REMARK    1  A    between atoms: N3_4  and  C2_6 
REMARK    2  A    between atoms: C2_6  and  N4_8 
REMARK    3  A    between atoms: N5_11  and  C5_12 
REMARK    4  A    between atoms: N6_15  and  C8_16 
REMARK    5  A    between atoms: C8_16  and  C9_17 
ROOT
HETATM    1  N4  UNL     1      20.979  12.036  25.696  1.00  0.00    -0.349 N 
HETATM    2  C3  UNL     1      21.942  11.293  24.937  1.00  0.00     0.170 C 
HETATM    3  C4  UNL     1      21.314  10.797  23.657  1.00  0.00     0.083 C 
HETATM    4  N5  UNL     1      20.641  11.794  22.924  1.00  0.00    -0.366 N 
HETATM    5  C16 UNL     1      20.156  12.946  23.558  1.00  0.00     0.083 C 
HETATM    6  C17 UNL     1      19.948  12.771  25.027  1.00  0.00     0.170 C 
ENDROOT
BRANCH   4   7
HETATM    7  C5  UNL     1      21.129  11.969  21.589  1.00  0.00     0.094 C 
HETATM    8  C6  UNL     1      21.894  13.216  21.374  1.00  0.00     0.070 C 
HETATM    9  C7  UNL     1      22.556  13.350  20.066  1.00  0.00     0.065 C 
HETATM   10  N6  UNL     1      22.668  12.258  19.216  1.00  0.00    -0.373 N 
HETATM   11  C14 UNL     1      22.105  11.012  19.630  1.00  0.00     0.129 C 
HETATM   12  C15 UNL     1      22.003  10.823  21.119  1.00  0.00     0.046 C 
BRANCH  10  13
HETATM   13  C8  UNL     1      23.634  12.183  18.223  1.00  0.00     0.067 C 
BRANCH  13  14
HETATM   14  C9  UNL     1      24.762  11.261  18.236  1.00  0.00     0.024 C 
HETATM   15  C10 UNL     1      26.021  12.095  17.830  1.00  0.00     0.010 C 
HETATM   16  C11 UNL     1      26.303  12.823  19.124  1.00  0.00     0.001 C 
HETATM   17  C12 UNL     1      25.775  11.927  20.237  1.00  0.00     0.001 C 
HETATM   18  C13 UNL     1      25.255  10.694  19.522  1.00  0.00     0.010 C 
ENDBRANCH  13  14
ENDBRANCH  10  13
ENDBRANCH   4   7
BRANCH   1  19
HETATM   19  C2  UNL     1      21.064  11.982  27.122  1.00  0.00     0.176 C 
HETATM   20  S1  UNL     1      19.753  11.788  28.053  1.00  0.00    -0.041 SA
BRANCH  19  21
HETATM   21  N3  UNL     1      22.343  12.092  27.789  1.00  0.00    -0.310 N 
HETATM   22  C1  UNL     1      22.777  13.313  27.963  1.00  0.00     0.203 C 
HETATM   23  N1  UNL     1      21.997  14.386  27.502  1.00  0.00    -0.066 NA
HETATM   24  N2  UNL     1      23.998  13.536  28.623  1.00  0.00    -0.066 NA
ATOM     25  H3  UNL     1      22.869  11.275  28.101  1.00  0.00     0.170 HD
ENDBRANCH  19  21
ENDBRANCH   1  19
TORSDOF 5
ENDMDL
MODEL 2
REMARK VINA RESULT: -6.954083298      2.211      2.627
REMARK  5 active torsions:
REMARK  status: ('A' for Active; 'I' for Inactive)
REMARK    1  A    between atoms: N3_4  and  C2_6 
REMARK    2  A    between atoms: C2_6  and  N4_8 
REMARK    3  A    between atoms: N5_11  and  C5_12 
REMARK    4  A    between atoms: N6_15  and  C8_16 
REMARK    5  A    between atoms: C8_16  and  C9_17 
ROOT
HETATM    1  N4  UNL     1      19.665  12.100  26.922  1.00  0.00    -0.349 N 
HETATM    2  C3  UNL     1      20.951  12.028  26.292  1.00  0.00     0.170 C 
HETATM    3  C4  UNL     1      20.916  11.021  25.168  1.00  0.00     0.083 C 
HETATM    4  N5  UNL     1      19.841  11.195  24.275  1.00  0.00    -0.366 N 
HETATM    5  C16 UNL     1      18.674  11.856  24.679  1.00  0.00     0.083 C 
HETATM    6  C17 UNL     1      18.477  11.861  26.159  1.00  0.00     0.170 C 
ENDROOT
BRANCH   4   7
HETATM    7  C5  UNL     1      20.238  11.394  22.914  1.00  0.00     0.094 C 
HETATM    8  C6  UNL     1      20.988  12.644  22.670  1.00  0.00     0.070 C 
HETATM    9  C7  UNL     1      21.561  12.801  21.323  1.00  0.00     0.065 C 
HETATM   10  N6  UNL     1      21.614  11.725  20.448  1.00  0.00    -0.373 N 
HETATM   11  C14 UNL     1      21.079  10.472  20.876  1.00  0.00     0.129 C 
HETATM   12  C15 UNL     1      21.077  10.256  22.365  1.00  0.00     0.046 C 
BRANCH  10  13
HETATM   13  C8  UNL     1      22.511  11.667  19.390  1.00  0.00     0.067 C 
BRANCH  13  14
HETATM   14  C9  UNL     1      23.743  10.890  19.394  1.00  0.00     0.024 C 
HETATM   15  C10 UNL     1      24.522  11.288  18.097  1.00  0.00     0.010 C 
HETATM   16  C11 UNL     1      25.092  12.624  18.514  1.00  0.00     0.001 C 
HETATM   17  C12 UNL     1      25.249  12.565  20.028  1.00  0.00     0.001 C 
HETATM   18  C13 UNL     1      24.802  11.164  20.404  1.00  0.00     0.010 C 
ENDBRANCH  13  14
ENDBRANCH  10  13
ENDBRANCH   4   7
BRANCH   1  19
HETATM   19  C2  UNL     1      19.620  12.376  28.323  1.00  0.00     0.176 C 
HETATM   20  S1  UNL     1      20.964  12.503  29.217  1.00  0.00    -0.041 SA
BRANCH  19  21
HETATM   21  N3  UNL     1      18.353  12.564  28.997  1.00  0.00    -0.310 N 
HETATM   22  C1  UNL     1      17.958  13.806  29.103  1.00  0.00     0.203 C 
HETATM   23  N1  UNL     1      18.766  14.826  28.575  1.00  0.00    -0.066 NA
HETATM   24  N2  UNL     1      16.729  14.101  29.717  1.00  0.00    -0.066 NA
ATOM     25  H3  UNL     1      17.807  11.784  29.363  1.00  0.00     0.170 HD
ENDBRANCH  19  21
ENDBRANCH   1  19
TORSDOF 5
ENDMDL
MODEL 3
REMARK VINA RESULT: -6.947091414      2.747      3.820
REMARK  5 active torsions:
REMARK  status: ('A' for Active; 'I' for Inactive)
REMARK    1  A    between atoms: N3_4  and  C2_6 
REMARK    2  A    between atoms: C2_6  and  N4_8 
REMARK    3  A    between atoms: N5_11  and  C5_12 
REMARK    4  A    between atoms: N6_15  and  C8_16 
REMARK    5  A    between atoms: C8_16  and  C9_17 
ROOT
HETATM    1  N4  UNL     1      19.443  11.541  24.225  1.00  0.00    -0.349 N 
HETATM    2  C3  UNL     1      19.908  10.247  23.819  1.00  0.00     0.170 C 
HETATM    3  C4  UNL     1      20.065  10.207  22.317  1.00  0.00     0.083 C 
HETATM    4  N5  UNL     1      20.805  11.282  21.789  1.00  0.00    -0.366 N 
HETATM    5  C16 UNL     1      20.906  12.493  22.486  1.00  0.00     0.083 C 
HETATM    6  C17 UNL     1      19.806  12.704  23.472  1.00  0.00     0.170 C 
ENDROOT
BRANCH   4   7
HETATM    7  C5  UNL     1      21.962  10.886  21.043  1.00  0.00     0.094 C 
HETATM    8  C6  UNL     1      22.386  11.854  20.009  1.00  0.00     0.070 C 
HETATM    9  C7  UNL     1      23.666  11.565  19.342  1.00  0.00     0.065 C 
HETATM   10  N6  UNL     1      24.527  10.602  19.850  1.00  0.00    -0.373 N 
HETATM   11  C14 UNL     1      24.130   9.882  21.018  1.00  0.00     0.129 C 
HETATM   12  C15 UNL     1      23.169  10.611  21.919  1.00  0.00     0.046 C 
BRANCH  10  13
HETATM   13  C8  UNL     1      25.886  10.594  19.570  1.00  0.00     0.067 C 
BRANCH  13  14
HETATM   14  C9  UNL     1      26.937  10.534  20.577  1.00  0.00     0.024 C 
HETATM   15  C10 UNL     1      28.226  10.040  19.843  1.00  0.00     0.010 C 
HETATM   16  C11 UNL     1      28.652  11.310  19.143  1.00  0.00     0.001 C 
HETATM   17  C12 UNL     1      28.132  12.459  19.997  1.00  0.00     0.001 C 
HETATM   18  C13 UNL     1      27.469  11.785  21.184  1.00  0.00     0.010 C 
ENDBRANCH  13  14
ENDBRANCH  10  13
ENDBRANCH   4   7
BRANCH   1  19
HETATM   19  C2  UNL     1      18.588  11.617  25.367  1.00  0.00     0.176 C 
HETATM   20  S1  UNL     1      18.504  12.945  26.290  1.00  0.00    -0.041 SA
BRANCH  19  21
HETATM   21  N3  UNL     1      17.749  10.497  25.736  1.00  0.00    -0.310 N 
HETATM   22  C1  UNL     1      16.590  10.447  25.133  1.00  0.00     0.203 C 
HETATM   23  N1  UNL     1      16.259  11.451  24.208  1.00  0.00    -0.066 NA
HETATM   24  N2  UNL     1      15.707   9.386  25.398  1.00  0.00    -0.066 NA
ATOM     25  H3  UNL     1      18.041   9.796  26.418  1.00  0.00     0.170 HD
ENDBRANCH  19  21
ENDBRANCH   1  19
TORSDOF 5
ENDMDL
MODEL 4
REMARK VINA RESULT: -6.915822112      2.598      3.706
REMARK  5 active torsions:
REMARK  status: ('A' for Active; 'I' for Inactive)
REMARK    1  A    between atoms: N3_4  and  C2_6 
REMARK    2  A    between atoms: C2_6  and  N4_8 
REMARK    3  A    between atoms: N5_11  and  C5_12 
REMARK    4  A    between atoms: N6_15  and  C8_16 
REMARK    5  A    between atoms: C8_16  and  C9_17 
ROOT
HETATM    1  N4  UNL     1      19.582  11.506  24.274  1.00  0.00    -0.349 N 
HETATM    2  C3  UNL     1      19.987  10.234  23.751  1.00  0.00     0.170 C 
HETATM    3  C4  UNL     1      20.031  10.291  22.242  1.00  0.00     0.083 C 
HETATM    4  N5  UNL     1      20.754  11.386  21.731  1.00  0.00    -0.366 N 
HETATM    5  C16 UNL     1      20.933  12.546  22.495  1.00  0.00     0.083 C 
HETATM    6  C17 UNL     1      19.914  12.710  23.573  1.00  0.00     0.170 C 
ENDROOT
BRANCH   4   7
HETATM    7  C5  UNL     1      21.843  11.020  20.876  1.00  0.00     0.094 C 
HETATM    8  C6  UNL     1      22.247  12.069  19.915  1.00  0.00     0.070 C 
HETATM    9  C7  UNL     1      23.469  11.797  19.140  1.00  0.00     0.065 C 
HETATM   10  N6  UNL     1      24.314  10.754  19.495  1.00  0.00    -0.373 N 
HETATM   11  C14 UNL     1      23.956   9.937  20.610  1.00  0.00     0.129 C 
HETATM   12  C15 UNL     1      23.087  10.610  21.639  1.00  0.00     0.046 C 
BRANCH  10  13
HETATM   13  C8  UNL     1      25.652  10.719  19.126  1.00  0.00     0.067 C 
BRANCH  13  14
HETATM   14  C9  UNL     1      26.648  11.698  19.541  1.00  0.00     0.024 C 
HETATM   15  C10 UNL     1      26.846  11.502  21.080  1.00  0.00     0.010 C 
HETATM   16  C11 UNL     1      27.718  10.267  21.094  1.00  0.00     0.001 C 
HETATM   17  C12 UNL     1      28.495  10.283  19.784  1.00  0.00     0.001 C 
HETATM   18  C13 UNL     1      28.062  11.565  19.097  1.00  0.00     0.010 C 
ENDBRANCH  13  14
ENDBRANCH  10  13
ENDBRANCH   4   7
BRANCH   1  19
HETATM   19  C2  UNL     1      18.816  11.521  25.480  1.00  0.00     0.176 C 
HETATM   20  S1  UNL     1      18.973  12.697  26.582  1.00  0.00    -0.041 SA
BRANCH  19  21
HETATM   21  N3  UNL     1      17.854  10.475  25.756  1.00  0.00    -0.310 N 
HETATM   22  C1  UNL     1      16.684  10.635  25.196  1.00  0.00     0.203 C 
HETATM   23  N1  UNL     1      16.457  11.770  24.401  1.00  0.00    -0.066 NA
HETATM   24  N2  UNL     1      15.682   9.665  25.377  1.00  0.00    -0.066 NA
ATOM     25  H3  UNL     1      18.074   9.672  26.344  1.00  0.00     0.170 HD
ENDBRANCH  19  21
ENDBRANCH   1  19
TORSDOF 5
ENDMDL
MODEL 5
REMARK VINA RESULT: -6.901690882      2.332      2.968
REMARK  5 active torsions:
REMARK  status: ('A' for Active; 'I' for Inactive)
REMARK    1  A    between atoms: N3_4  and  C2_6 
REMARK    2  A    between atoms: C2_6  and  N4_8 
REMARK    3  A    between atoms: N5_11  and  C5_12 
REMARK    4  A    between atoms: N6_15  and  C8_16 
REMARK    5  A    between atoms: C8_16  and  C9_17 
ROOT
HETATM    1  N4  UNL     1      19.781  12.055  27.289  1.00  0.00    -0.349 N 
HETATM    2  C3  UNL     1      21.134  11.965  26.823  1.00  0.00     0.170 C 
HETATM    3  C4  UNL     1      21.246  10.883  25.776  1.00  0.00     0.083 C 
HETATM    4  N5  UNL     1      20.284  10.975  24.751  1.00  0.00    -0.366 N 
HETATM    5  C16 UNL     1      19.069  11.640  24.966  1.00  0.00     0.083 C 
HETATM    6  C17 UNL     1      18.696  11.742  26.408  1.00  0.00     0.170 C 
ENDROOT
BRANCH   4   7
HETATM    7  C5  UNL     1      20.839  11.089  23.436  1.00  0.00     0.094 C 
HETATM    8  C6  UNL     1      20.748  12.442  22.847  1.00  0.00     0.070 C 
HETATM    9  C7  UNL     1      21.459  12.639  21.573  1.00  0.00     0.065 C 
HETATM   10  N6  UNL     1      22.365  11.693  21.115  1.00  0.00    -0.373 N 
HETATM   11  C14 UNL     1      22.572  10.514  21.895  1.00  0.00     0.129 C 
HETATM   12  C15 UNL     1      22.295  10.668  23.366  1.00  0.00     0.046 C 
BRANCH  10  13
HETATM   13  C8  UNL     1      23.371  12.000  20.209  1.00  0.00     0.067 C 
BRANCH  13  14
HETATM   14  C9  UNL     1      23.255  11.854  18.764  1.00  0.00     0.024 C 
HETATM   15  C10 UNL     1      23.420  13.286  18.159  1.00  0.00     0.010 C 
HETATM   16  C11 UNL     1      24.918  13.458  18.253  1.00  0.00     0.001 C 
HETATM   17  C12 UNL     1      25.511  12.056  18.178  1.00  0.00     0.001 C 
HETATM   18  C13 UNL     1      24.312  11.144  17.993  1.00  0.00     0.010 C 
ENDBRANCH  13  14
ENDBRANCH  10  13
ENDBRANCH   4   7
BRANCH   1  19
HETATM   19  C2  UNL     1      19.564  12.425  28.652  1.00  0.00     0.176 C 
HETATM   20  S1  UNL     1      20.782  12.859  29.627  1.00  0.00    -0.041 SA
BRANCH  19  21
HETATM   21  N3  UNL     1      18.229  12.434  29.210  1.00  0.00    -0.310 N 
HETATM   22  C1  UNL     1      17.645  13.603  29.236  1.00  0.00     0.203 C 
HETATM   23  N1  UNL     1      18.335  14.721  28.740  1.00  0.00    -0.066 NA
HETATM   24  N2  UNL     1      16.336  13.722  29.735  1.00  0.00    -0.066 NA
ATOM     25  H3  UNL     1      17.777  11.589  29.559  1.00  0.00     0.170 HD
ENDBRANCH  19  21
ENDBRANCH   1  19
TORSDOF 5
ENDMDL
