MODEL 1
REMARK VINA RESULT: -9.341196867      0.000      0.000
REMARK  7 active torsions:
REMARK  status: ('A' for Active; 'I' for Inactive)
REMARK    1  A    between atoms: C2_2  and  C3_3 
REMARK    2  A    between atoms: C3_3  and  O1_4 
REMARK    3  A    between atoms: O1_4  and  C4_5 
REMARK    4  A    between atoms: C4_5  and  C5_7 
REMARK    5  A    between atoms: N1_11  and  C9_12 
REMARK    6  A    between atoms: C9_12  and  N2_14 
REMARK    7  A    between atoms: N2_14  and  C10_16 
ROOT
HETATM    1  C5  UNL     1      41.950  66.068  42.448  1.00  0.00     0.186 C 
HETATM    2  C6  UNL     1      43.185  66.246  43.247  1.00  0.00     0.037 C 
HETATM    3  C7  UNL     1      43.172  67.654  43.711  1.00  0.00     0.022 C 
HETATM    4  C8  UNL     1      42.237  68.352  42.747  1.00  0.00     0.126 C 
HETATM    5  N1  UNL     1      41.350  67.349  42.241  1.00  0.00    -0.344 N 
ENDROOT
BRANCH   5   6
HETATM    6  C9  UNL     1      40.084  67.513  41.626  1.00  0.00     0.175 C 
HETATM    7  S1  UNL     1      38.813  66.547  42.172  1.00  0.00    -0.041 SA
BRANCH   6   8
HETATM    8  N2  UNL     1      39.718  68.390  40.607  1.00  0.00    -0.328 N 
ATOM      9  H2  UNL     1      39.627  69.369  40.880  1.00  0.00     0.168 HD
BRANCH   8  10
HETATM   10  C10 UNL     1      39.455  68.110  39.251  1.00  0.00     0.118 A 
HETATM   11  C11 UNL     1      40.483  67.864  38.369  1.00  0.00     0.184 A 
HETATM   12  F1  UNL     1      41.790  67.933  38.793  1.00  0.00    -0.200 F 
HETATM   13  C12 UNL     1      40.267  67.540  37.048  1.00  0.00     0.160 A 
HETATM   14  F2  UNL     1      41.316  67.302  36.203  1.00  0.00    -0.203 F 
HETATM   15  C13 UNL     1      38.992  67.452  36.555  1.00  0.00     0.091 A 
HETATM   16  C14 UNL     1      37.950  67.688  37.393  1.00  0.00     0.160 A 
HETATM   17  F3  UNL     1      36.685  67.598  36.895  1.00  0.00    -0.203 F 
HETATM   18  C15 UNL     1      38.162  68.012  38.715  1.00  0.00     0.184 A 
HETATM   19  F4  UNL     1      37.147  68.252  39.574  1.00  0.00    -0.200 F 
ENDBRANCH   8  10
ENDBRANCH   6   8
ENDBRANCH   5   6
BRANCH   1  20
HETATM   20  C4  UNL     1      42.332  65.404  41.173  1.00  0.00     0.282 C 
HETATM   21  O2  UNL     1      43.420  65.642  40.630  1.00  0.00    -0.263 OA
BRANCH  20  22
HETATM   22  O1  UNL     1      41.456  64.528  40.620  1.00  0.00    -0.315 OA
BRANCH  22  23
HETATM   23  C3  UNL     1      40.720  64.528  39.476  1.00  0.00     0.218 C 
BRANCH  23  24
HETATM   24  C2  UNL     1      40.116  63.268  39.038  1.00  0.00     0.008 C 
HETATM   25  C1  UNL     1      39.819  62.134  39.917  1.00  0.00     0.051 C 
HETATM   26  C16 UNL     1      39.824  63.108  37.726  1.00  0.00     0.271 C 
HETATM   27  F5  UNL     1      39.286  61.958  37.268  1.00  0.00    -0.173 F 
HETATM   28  F6  UNL     1      40.058  64.092  36.827  1.00  0.00    -0.173 F 
ENDBRANCH  23  24
ENDBRANCH  22  23
ENDBRANCH  20  22
ENDBRANCH   1  20
TORSDOF 7
ENDMDL
MODEL 2
REMARK VINA RESULT: -9.329118527      0.113      2.027
REMARK  7 active torsions:
REMARK  status: ('A' for Active; 'I' for Inactive)
REMARK    1  A    between atoms: C2_2  and  C3_3 
REMARK    2  A    between atoms: C3_3  and  O1_4 
REMARK    3  A    between atoms: O1_4  and  C4_5 
REMARK    4  A    between atoms: C4_5  and  C5_7 
REMARK    5  A    between atoms: N1_11  and  C9_12 
REMARK    6  A    between atoms: C9_12  and  N2_14 
REMARK    7  A    between atoms: N2_14  and  C10_16 
ROOT
HETATM    1  C5  UNL     1      41.936  66.092  42.463  1.00  0.00     0.186 C 
HETATM    2  C6  UNL     1      43.155  66.278  43.285  1.00  0.00     0.037 C 
HETATM    3  C7  UNL     1      43.143  67.695  43.719  1.00  0.00     0.022 C 
HETATM    4  C8  UNL     1      42.235  68.380  42.720  1.00  0.00     0.126 C 
HETATM    5  N1  UNL     1      41.351  67.374  42.216  1.00  0.00    -0.344 N 
ENDROOT
BRANCH   5   6
HETATM    6  C9  UNL     1      40.100  67.534  41.571  1.00  0.00     0.175 C 
HETATM    7  S1  UNL     1      38.800  66.619  42.135  1.00  0.00    -0.041 SA
BRANCH   6   8
HETATM    8  N2  UNL     1      39.770  68.372  40.506  1.00  0.00    -0.328 N 
ATOM      9  H2  UNL     1      39.657  69.358  40.741  1.00  0.00     0.168 HD
BRANCH   8  10
HETATM   10  C10 UNL     1      39.572  68.042  39.151  1.00  0.00     0.118 A 
HETATM   11  C11 UNL     1      38.305  67.990  38.615  1.00  0.00     0.184 A 
HETATM   12  F1  UNL     1      37.207  68.214  39.411  1.00  0.00    -0.200 F 
HETATM   13  C12 UNL     1      38.072  67.719  37.284  1.00  0.00     0.160 A 
HETATM   14  F2  UNL     1      36.797  67.675  36.790  1.00  0.00    -0.203 F 
HETATM   15  C13 UNL     1      39.118  67.486  36.431  1.00  0.00     0.091 A 
HETATM   16  C14 UNL     1      40.383  67.528  36.920  1.00  0.00     0.160 A 
HETATM   17  F3  UNL     1      41.417  67.295  36.064  1.00  0.00    -0.203 F 
HETATM   18  C15 UNL     1      40.621  67.799  38.250  1.00  0.00     0.184 A 
HETATM   19  F4  UNL     1      41.868  67.849  38.768  1.00  0.00    -0.200 F 
ENDBRANCH   8  10
ENDBRANCH   6   8
ENDBRANCH   5   6
BRANCH   1  20
HETATM   20  C4  UNL     1      42.340  65.399  41.211  1.00  0.00     0.282 C 
HETATM   21  O2  UNL     1      43.450  65.600  40.698  1.00  0.00    -0.263 OA
BRANCH  20  22
HETATM   22  O1  UNL     1      41.459  64.537  40.644  1.00  0.00    -0.315 OA
BRANCH  22  23
HETATM   23  C3  UNL     1      40.757  64.538  39.479  1.00  0.00     0.218 C 
BRANCH  23  24
HETATM   24  C2  UNL     1      40.141  63.285  39.037  1.00  0.00     0.008 C 
HETATM   25  C1  UNL     1      39.846  62.145  39.910  1.00  0.00     0.051 C 
HETATM   26  C16 UNL     1      39.832  63.139  37.727  1.00  0.00     0.271 C 
HETATM   27  F5  UNL     1      39.282  61.996  37.265  1.00  0.00    -0.173 F 
HETATM   28  F6  UNL     1      40.062  64.130  36.834  1.00  0.00    -0.173 F 
ENDBRANCH  23  24
ENDBRANCH  22  23
ENDBRANCH  20  22
ENDBRANCH   1  20
TORSDOF 7
ENDMDL
MODEL 3
REMARK VINA RESULT: -9.174811649      1.962      2.820
REMARK  7 active torsions:
REMARK  status: ('A' for Active; 'I' for Inactive)
REMARK    1  A    between atoms: C2_2  and  C3_3 
REMARK    2  A    between atoms: C3_3  and  O1_4 
REMARK    3  A    between atoms: O1_4  and  C4_5 
REMARK    4  A    between atoms: C4_5  and  C5_7 
REMARK    5  A    between atoms: N1_11  and  C9_12 
REMARK    6  A    between atoms: C9_12  and  N2_14 
REMARK    7  A    between atoms: N2_14  and  C10_16 
ROOT
HETATM    1  C5  UNL     1      42.089  66.356  42.265  1.00  0.00     0.186 C 
HETATM    2  C6  UNL     1      43.148  66.360  43.301  1.00  0.00     0.037 C 
HETATM    3  C7  UNL     1      43.411  67.785  43.611  1.00  0.00     0.022 C 
HETATM    4  C8  UNL     1      42.896  68.529  42.398  1.00  0.00     0.126 C 
HETATM    5  N1  UNL     1      41.895  67.696  41.805  1.00  0.00    -0.344 N 
ENDROOT
BRANCH   5   6
HETATM    6  C9  UNL     1      40.859  68.055  40.907  1.00  0.00     0.175 C 
HETATM    7  S1  UNL     1      41.281  68.369  39.303  1.00  0.00    -0.041 SA
BRANCH   6   8
HETATM    8  N2  UNL     1      39.494  68.183  41.158  1.00  0.00    -0.328 N 
ATOM      9  H2  UNL     1      39.221  69.008  41.692  1.00  0.00     0.168 HD
BRANCH   8  10
HETATM   10  C10 UNL     1      38.440  67.330  40.776  1.00  0.00     0.118 A 
HETATM   11  C11 UNL     1      37.512  67.729  39.841  1.00  0.00     0.184 A 
HETATM   12  F1  UNL     1      37.573  68.992  39.299  1.00  0.00    -0.200 F 
HETATM   13  C12 UNL     1      36.495  66.907  39.406  1.00  0.00     0.160 A 
HETATM   14  F2  UNL     1      35.591  67.342  38.475  1.00  0.00    -0.203 F 
HETATM   15  C13 UNL     1      36.371  65.636  39.901  1.00  0.00     0.091 A 
HETATM   16  C14 UNL     1      37.267  65.203  40.824  1.00  0.00     0.160 A 
HETATM   17  F3  UNL     1      37.136  63.939  41.311  1.00  0.00    -0.203 F 
HETATM   18  C15 UNL     1      38.285  66.022  41.262  1.00  0.00     0.184 A 
HETATM   19  F4  UNL     1      39.192  65.622  42.180  1.00  0.00    -0.200 F 
ENDBRANCH   8  10
ENDBRANCH   6   8
ENDBRANCH   5   6
BRANCH   1  20
HETATM   20  C4  UNL     1      42.526  65.438  41.179  1.00  0.00     0.282 C 
HETATM   21  O2  UNL     1      43.697  65.437  40.775  1.00  0.00    -0.263 OA
BRANCH  20  22
HETATM   22  O1  UNL     1      41.606  64.598  40.643  1.00  0.00    -0.315 OA
BRANCH  22  23
HETATM   23  C3  UNL     1      40.901  64.593  39.479  1.00  0.00     0.218 C 
BRANCH  23  24
HETATM   24  C2  UNL     1      40.230  63.355  39.077  1.00  0.00     0.008 C 
HETATM   25  C1  UNL     1      39.915  62.244  39.981  1.00  0.00     0.051 C 
HETATM   26  C16 UNL     1      39.886  63.192  37.778  1.00  0.00     0.271 C 
HETATM   27  F5  UNL     1      39.284  62.061  37.354  1.00  0.00    -0.173 F 
HETATM   28  F6  UNL     1      40.131  64.155  36.859  1.00  0.00    -0.173 F 
ENDBRANCH  23  24
ENDBRANCH  22  23
ENDBRANCH  20  22
ENDBRANCH   1  20
TORSDOF 7
ENDMDL
MODEL 4
REMARK VINA RESULT: -9.146303043      1.980      2.622
REMARK  7 active torsions:
REMARK  status: ('A' for Active; 'I' for Inactive)
REMARK    1  A    between atoms: C2_2  and  C3_3 
REMARK    2  A    between atoms: C3_3  and  O1_4 
REMARK    3  A    between atoms: O1_4  and  C4_5 
REMARK    4  A    between atoms: C4_5  and  C5_7 
REMARK    5  A    between atoms: N1_11  and  C9_12 
REMARK    6  A    between atoms: C9_12  and  N2_14 
REMARK    7  A    between atoms: N2_14  and  C10_16 
ROOT
HETATM    1  C5  UNL     1      42.088  66.369  42.263  1.00  0.00     0.186 C 
HETATM    2  C6  UNL     1      43.152  66.386  43.294  1.00  0.00     0.037 C 
HETATM    3  C7  UNL     1      43.399  67.815  43.603  1.00  0.00     0.022 C 
HETATM    4  C8  UNL     1      42.868  68.552  42.392  1.00  0.00     0.126 C 
HETATM    5  N1  UNL     1      41.874  67.706  41.804  1.00  0.00    -0.344 N 
ENDROOT
BRANCH   5   6
HETATM    6  C9  UNL     1      40.829  68.052  40.912  1.00  0.00     0.175 C 
HETATM    7  S1  UNL     1      41.239  68.375  39.307  1.00  0.00    -0.041 SA
BRANCH   6   8
HETATM    8  N2  UNL     1      39.464  68.160  41.169  1.00  0.00    -0.328 N 
ATOM      9  H2  UNL     1      39.188  68.949  41.754  1.00  0.00     0.168 HD
BRANCH   8  10
HETATM   10  C10 UNL     1      38.413  67.330  40.733  1.00  0.00     0.118 A 
HETATM   11  C11 UNL     1      38.277  66.049  41.219  1.00  0.00     0.184 A 
HETATM   12  F1  UNL     1      39.197  65.544  42.108  1.00  0.00    -0.200 F 
HETATM   13  C12 UNL     1      37.237  65.222  40.853  1.00  0.00     0.160 A 
HETATM   14  F2  UNL     1      37.137  63.955  41.359  1.00  0.00    -0.203 F 
HETATM   15  C13 UNL     1      36.282  65.657  39.972  1.00  0.00     0.091 A 
HETATM   16  C14 UNL     1      36.380  66.914  39.469  1.00  0.00     0.160 A 
HETATM   17  F3  UNL     1      35.427  67.338  38.594  1.00  0.00    -0.203 F 
HETATM   18  C15 UNL     1      37.419  67.744  39.833  1.00  0.00     0.184 A 
HETATM   19  F4  UNL     1      37.545  69.000  39.351  1.00  0.00    -0.200 F 
ENDBRANCH   8  10
ENDBRANCH   6   8
ENDBRANCH   5   6
BRANCH   1  20
HETATM   20  C4  UNL     1      42.531  65.456  41.176  1.00  0.00     0.282 C 
HETATM   21  O2  UNL     1      43.704  65.459  40.777  1.00  0.00    -0.263 OA
BRANCH  20  22
HETATM   22  O1  UNL     1      41.614  64.618  40.631  1.00  0.00    -0.315 OA
BRANCH  22  23
HETATM   23  C3  UNL     1      40.952  64.591  39.443  1.00  0.00     0.218 C 
BRANCH  23  24
HETATM   24  C2  UNL     1      40.251  63.361  39.065  1.00  0.00     0.008 C 
HETATM   25  C1  UNL     1      39.915  62.274  39.989  1.00  0.00     0.051 C 
HETATM   26  C16 UNL     1      39.898  63.184  37.770  1.00  0.00     0.271 C 
HETATM   27  F5  UNL     1      39.269  62.060  37.368  1.00  0.00    -0.173 F 
HETATM   28  F6  UNL     1      40.160  64.126  36.834  1.00  0.00    -0.173 F 
ENDBRANCH  23  24
ENDBRANCH  22  23
ENDBRANCH  20  22
ENDBRANCH   1  20
TORSDOF 7
ENDMDL
MODEL 5
REMARK VINA RESULT: -9.094651196      2.723      5.663
REMARK  7 active torsions:
REMARK  status: ('A' for Active; 'I' for Inactive)
REMARK    1  A    between atoms: C2_2  and  C3_3 
REMARK    2  A    between atoms: C3_3  and  O1_4 
REMARK    3  A    between atoms: O1_4  and  C4_5 
REMARK    4  A    between atoms: C4_5  and  C5_7 
REMARK    5  A    between atoms: N1_11  and  C9_12 
REMARK    6  A    between atoms: C9_12  and  N2_14 
REMARK    7  A    between atoms: N2_14  and  C10_16 
ROOT
HETATM    1  C5  UNL     1      38.774  64.815  39.133  1.00  0.00     0.186 C 
HETATM    2  C6  UNL     1      39.261  63.507  38.637  1.00  0.00     0.037 C 
HETATM    3  C7  UNL     1      40.419  63.152  39.490  1.00  0.00     0.022 C 
HETATM    4  C8  UNL     1      40.870  64.475  40.071  1.00  0.00     0.126 C 
HETATM    5  N1  UNL     1      39.724  65.332  40.068  1.00  0.00    -0.344 N 
ENDROOT
BRANCH   5   6
HETATM    6  C9  UNL     1      39.493  66.507  40.826  1.00  0.00     0.175 C 
HETATM    7  S1  UNL     1      38.201  66.502  41.912  1.00  0.00    -0.041 SA
BRANCH   6   8
HETATM    8  N2  UNL     1      40.204  67.705  40.813  1.00  0.00    -0.328 N 
ATOM      9  H2  UNL     1      39.720  68.500  40.397  1.00  0.00     0.168 HD
BRANCH   8  10
HETATM   10  C10 UNL     1      41.501  67.968  41.297  1.00  0.00     0.118 A 
HETATM   11  C11 UNL     1      41.717  68.236  42.630  1.00  0.00     0.184 A 
HETATM   12  F1  UNL     1      40.657  68.295  43.505  1.00  0.00    -0.200 F 
HETATM   13  C12 UNL     1      42.974  68.451  43.151  1.00  0.00     0.160 A 
HETATM   14  F2  UNL     1      43.147  68.714  44.483  1.00  0.00    -0.203 F 
HETATM   15  C13 UNL     1      44.077  68.407  42.340  1.00  0.00     0.091 A 
HETATM   16  C14 UNL     1      43.908  68.146  41.019  1.00  0.00     0.160 A 
HETATM   17  F3  UNL     1      45.009  68.104  40.220  1.00  0.00    -0.203 F 
HETATM   18  C15 UNL     1      42.652  67.930  40.494  1.00  0.00     0.184 A 
HETATM   19  F4  UNL     1      42.449  67.668  39.184  1.00  0.00    -0.200 F 
ENDBRANCH   8  10
ENDBRANCH   6   8
ENDBRANCH   5   6
BRANCH   1  20
HETATM   20  C4  UNL     1      38.594  65.703  37.954  1.00  0.00     0.282 C 
HETATM   21  O2  UNL     1      37.469  65.918  37.481  1.00  0.00    -0.263 OA
BRANCH  20  22
HETATM   22  O1  UNL     1      39.696  66.275  37.408  1.00  0.00    -0.315 OA
BRANCH  22  23
HETATM   23  C3  UNL     1      40.017  67.547  37.047  1.00  0.00     0.218 C 
BRANCH  23  24
HETATM   24  C2  UNL     1      39.859  67.931  35.642  1.00  0.00     0.008 C 
HETATM   25  C1  UNL     1      38.638  68.500  35.064  1.00  0.00     0.051 C 
HETATM   26  C16 UNL     1      40.895  67.735  34.793  1.00  0.00     0.271 C 
HETATM   27  F5  UNL     1      40.793  68.053  33.486  1.00  0.00    -0.173 F 
HETATM   28  F6  UNL     1      42.068  67.216  35.223  1.00  0.00    -0.173 F 
ENDBRANCH  23  24
ENDBRANCH  22  23
ENDBRANCH  20  22
ENDBRANCH   1  20
TORSDOF 7
ENDMDL
