MODEL 1
REMARK VINA RESULT: -11.008781719      0.000      0.000
REMARK  5 active torsions:
REMARK  status: ('A' for Active; 'I' for Inactive)
REMARK    1  A    between atoms: O1_1  and  C1_3 
REMARK    2  A    between atoms: N1_13  and  C9_14 
REMARK    3  A    between atoms: C9_14  and  C10_15 
REMARK    4  A    between atoms: C10_15  and  N2_16 
REMARK    5  A    between atoms: C13_19  and  C14_21 
ROOT
HETATM    1  C10 UNL     1      37.825  66.366  39.053  1.00  0.00     0.302 C 
ENDROOT
BRANCH   1   2
HETATM    2  C9  UNL     1      38.503  67.331  38.144  1.00  0.00     0.303 C 
BRANCH   2   3
HETATM    3  N1  UNL     1      38.723  66.943  36.807  1.00  0.00     0.099 N 
HETATM    4  C3  UNL     1      37.872  66.054  36.138  1.00  0.00     0.226 C 
HETATM    5  C2  UNL     1      37.983  66.419  34.631  1.00  0.00     0.073 C 
HETATM    6  C4  UNL     1      38.475  64.675  36.235  1.00  0.00     0.038 C 
HETATM    7  C1  UNL     1      38.530  67.805  34.465  1.00  0.00     0.192 C 
HETATM    8  C8  UNL     1      40.004  67.942  34.570  1.00  0.00     0.271 C 
HETATM    9  C7  UNL     1      40.728  66.926  35.383  1.00  0.00     0.117 C 
HETATM   10  F1  UNL     1      40.588  67.890  33.287  1.00  0.00    -0.203 F 
HETATM   11  F2  UNL     1      40.348  69.237  35.014  1.00  0.00    -0.203 F 
HETATM   12  C6  UNL     1      40.057  66.417  36.599  1.00  0.00     0.229 C 
HETATM   13  C5  UNL     1      39.905  64.936  36.517  1.00  0.00     0.038 C 
BRANCH   7  14
HETATM   14  O1  UNL     1      37.830  68.748  35.257  1.00  0.00    -0.389 OA
ATOM     15  H1  UNL     1      38.383  69.478  35.510  1.00  0.00     0.210 HD
ENDBRANCH   7  14
ENDBRANCH   2   3
ENDBRANCH   1   2
BRANCH   1  16
HETATM   16  N2  UNL     1      38.841  65.796  39.954  1.00  0.00     0.093 N 
HETATM   17  C11 UNL     1      38.266  65.671  41.289  1.00  0.00     0.276 C 
HETATM   18  C12 UNL     1      38.679  66.841  42.092  1.00  0.00     0.080 C 
HETATM   19  C13 UNL     1      39.849  67.454  41.349  1.00  0.00     0.158 C 
HETATM   20  F3  UNL     1      39.561  68.748  40.946  1.00  0.00    -0.236 F 
HETATM   21  C20 UNL     1      40.000  66.622  40.118  1.00  0.00     0.321 C 
BRANCH  19  22
HETATM   22  C14 UNL     1      41.034  67.509  42.227  1.00  0.00    -0.011 A 
HETATM   23  C15 UNL     1      41.634  68.686  42.600  1.00  0.00     0.053 A 
HETATM   24  C16 UNL     1      42.761  68.737  43.406  1.00  0.00     0.119 A 
HETATM   25  F4  UNL     1      43.323  69.924  43.743  1.00  0.00    -0.206 F 
HETATM   26  C17 UNL     1      43.334  67.560  43.872  1.00  0.00     0.084 A 
HETATM   27  C18 UNL     1      42.743  66.378  43.506  1.00  0.00     0.119 A 
HETATM   28  F5  UNL     1      43.306  65.216  43.969  1.00  0.00    -0.206 F 
HETATM   29  C19 UNL     1      41.610  66.328  42.698  1.00  0.00     0.053 A 
ENDBRANCH  19  22
ENDBRANCH   1  16
TORSDOF 5
ENDMDL
MODEL 2
REMARK VINA RESULT: -10.974457670      0.163      1.541
REMARK  5 active torsions:
REMARK  status: ('A' for Active; 'I' for Inactive)
REMARK    1  A    between atoms: O1_1  and  C1_3 
REMARK    2  A    between atoms: N1_13  and  C9_14 
REMARK    3  A    between atoms: C9_14  and  C10_15 
REMARK    4  A    between atoms: C10_15  and  N2_16 
REMARK    5  A    between atoms: C13_19  and  C14_21 
ROOT
HETATM    1  C10 UNL     1      37.842  66.460  39.023  1.00  0.00     0.302 C 
ENDROOT
BRANCH   1   2
HETATM    2  C9  UNL     1      38.507  67.408  38.087  1.00  0.00     0.303 C 
BRANCH   2   3
HETATM    3  N1  UNL     1      38.711  66.995  36.755  1.00  0.00     0.099 N 
HETATM    4  C3  UNL     1      37.830  66.124  36.101  1.00  0.00     0.226 C 
HETATM    5  C2  UNL     1      37.946  66.465  34.589  1.00  0.00     0.073 C 
HETATM    6  C4  UNL     1      38.391  64.728  36.215  1.00  0.00     0.038 C 
HETATM    7  C1  UNL     1      38.535  67.831  34.401  1.00  0.00     0.192 C 
HETATM    8  C8  UNL     1      40.013  67.924  34.500  1.00  0.00     0.271 C 
HETATM    9  C7  UNL     1      40.709  66.896  35.324  1.00  0.00     0.117 C 
HETATM   10  F1  UNL     1      40.590  67.836  33.216  1.00  0.00    -0.203 F 
HETATM   11  F2  UNL     1      40.398  69.214  34.925  1.00  0.00    -0.203 F 
HETATM   12  C6  UNL     1      40.027  66.425  36.550  1.00  0.00     0.229 C 
HETATM   13  C5  UNL     1      39.829  64.949  36.488  1.00  0.00     0.038 C 
BRANCH   7  14
HETATM   14  O1  UNL     1      37.867  68.805  35.183  1.00  0.00    -0.389 OA
ATOM     15  H1  UNL     1      37.867  68.578  36.106  1.00  0.00     0.210 HD
ENDBRANCH   7  14
ENDBRANCH   2   3
ENDBRANCH   1   2
BRANCH   1  16
HETATM   16  N2  UNL     1      38.881  65.840  39.861  1.00  0.00     0.093 N 
HETATM   17  C11 UNL     1      38.338  65.626  41.199  1.00  0.00     0.276 C 
HETATM   18  C12 UNL     1      38.764  66.745  42.066  1.00  0.00     0.080 C 
HETATM   19  C13 UNL     1      39.914  67.412  41.337  1.00  0.00     0.158 C 
HETATM   20  F3  UNL     1      39.609  68.727  41.024  1.00  0.00    -0.236 F 
HETATM   21  C20 UNL     1      40.040  66.661  40.052  1.00  0.00     0.321 C 
BRANCH  19  22
HETATM   22  C14 UNL     1      41.119  67.418  42.188  1.00  0.00    -0.011 A 
HETATM   23  C15 UNL     1      41.589  66.298  42.827  1.00  0.00     0.053 A 
HETATM   24  C16 UNL     1      42.707  66.309  43.646  1.00  0.00     0.119 A 
HETATM   25  F4  UNL     1      43.131  65.177  44.262  1.00  0.00    -0.206 F 
HETATM   26  C17 UNL     1      43.405  67.493  43.851  1.00  0.00     0.084 A 
HETATM   27  C18 UNL     1      42.945  68.619  43.218  1.00  0.00     0.119 A 
HETATM   28  F5  UNL     1      43.635  69.787  43.417  1.00  0.00    -0.206 F 
HETATM   29  C19 UNL     1      41.822  68.606  42.394  1.00  0.00     0.053 A 
ENDBRANCH  19  22
ENDBRANCH   1  16
TORSDOF 5
ENDMDL
MODEL 3
REMARK VINA RESULT: -10.724531657      1.100      1.344
REMARK  5 active torsions:
REMARK  status: ('A' for Active; 'I' for Inactive)
REMARK    1  A    between atoms: O1_1  and  C1_3 
REMARK    2  A    between atoms: N1_13  and  C9_14 
REMARK    3  A    between atoms: C9_14  and  C10_15 
REMARK    4  A    between atoms: C10_15  and  N2_16 
REMARK    5  A    between atoms: C13_19  and  C14_21 
ROOT
HETATM    1  C10 UNL     1      37.953  66.724  38.985  1.00  0.00     0.302 C 
ENDROOT
BRANCH   1   2
HETATM    2  C9  UNL     1      38.137  67.678  37.857  1.00  0.00     0.303 C 
BRANCH   2   3
HETATM    3  N1  UNL     1      38.534  67.161  36.607  1.00  0.00     0.099 N 
HETATM    4  C3  UNL     1      37.759  66.230  35.904  1.00  0.00     0.226 C 
HETATM    5  C2  UNL     1      38.095  66.449  34.403  1.00  0.00     0.073 C 
HETATM    6  C4  UNL     1      38.297  64.855  36.213  1.00  0.00     0.038 C 
HETATM    7  C1  UNL     1      38.705  67.802  34.192  1.00  0.00     0.192 C 
HETATM    8  C8  UNL     1      40.153  67.921  34.498  1.00  0.00     0.271 C 
HETATM    9  C7  UNL     1      40.720  66.972  35.496  1.00  0.00     0.117 C 
HETATM   10  F1  UNL     1      40.912  67.736  33.323  1.00  0.00    -0.203 F 
HETATM   11  F2  UNL     1      40.471  69.245  34.868  1.00  0.00    -0.203 F 
HETATM   12  C6  UNL     1      39.866  66.593  36.643  1.00  0.00     0.229 C 
HETATM   13  C5  UNL     1      39.680  65.114  36.674  1.00  0.00     0.038 C 
BRANCH   7  14
HETATM   14  O1  UNL     1      37.930  68.828  34.786  1.00  0.00    -0.389 OA
ATOM     15  H1  UNL     1      38.236  69.692  34.537  1.00  0.00     0.210 HD
ENDBRANCH   7  14
ENDBRANCH   2   3
ENDBRANCH   1   2
BRANCH   1  16
HETATM   16  N2  UNL     1      38.490  67.350  40.205  1.00  0.00     0.093 N 
HETATM   17  C11 UNL     1      39.240  68.544  39.828  1.00  0.00     0.276 C 
HETATM   18  C12 UNL     1      40.675  68.199  39.764  1.00  0.00     0.080 C 
HETATM   19  C13 UNL     1      40.815  66.889  40.514  1.00  0.00     0.158 C 
HETATM   20  F3  UNL     1      41.282  65.885  39.681  1.00  0.00    -0.236 F 
HETATM   21  C20 UNL     1      39.423  66.528  40.917  1.00  0.00     0.321 C 
BRANCH  19  22
HETATM   22  C14 UNL     1      41.777  67.040  41.622  1.00  0.00    -0.011 A 
HETATM   23  C15 UNL     1      42.647  68.097  41.718  1.00  0.00     0.053 A 
HETATM   24  C16 UNL     1      43.567  68.227  42.746  1.00  0.00     0.119 A 
HETATM   25  F4  UNL     1      44.412  69.287  42.796  1.00  0.00    -0.206 F 
HETATM   26  C17 UNL     1      43.638  67.258  43.740  1.00  0.00     0.084 A 
HETATM   27  C18 UNL     1      42.775  66.197  43.655  1.00  0.00     0.119 A 
HETATM   28  F5  UNL     1      42.841  65.242  44.636  1.00  0.00    -0.206 F 
HETATM   29  C19 UNL     1      41.849  66.068  42.622  1.00  0.00     0.053 A 
ENDBRANCH  19  22
ENDBRANCH   1  16
TORSDOF 5
ENDMDL
MODEL 4
REMARK VINA RESULT: -10.288558463      1.008      1.157
REMARK  5 active torsions:
REMARK  status: ('A' for Active; 'I' for Inactive)
REMARK    1  A    between atoms: O1_1  and  C1_3 
REMARK    2  A    between atoms: N1_13  and  C9_14 
REMARK    3  A    between atoms: C9_14  and  C10_15 
REMARK    4  A    between atoms: C10_15  and  N2_16 
REMARK    5  A    between atoms: C13_19  and  C14_21 
ROOT
HETATM    1  C10 UNL     1      37.517  65.800  39.411  1.00  0.00     0.302 C 
ENDROOT
BRANCH   1   2
HETATM    2  C9  UNL     1      38.125  66.655  38.355  1.00  0.00     0.303 C 
BRANCH   2   3
HETATM    3  N1  UNL     1      38.270  66.114  37.061  1.00  0.00     0.099 N 
HETATM    4  C3  UNL     1      37.930  64.788  36.765  1.00  0.00     0.226 C 
HETATM    5  C2  UNL     1      37.545  64.778  35.260  1.00  0.00     0.073 C 
HETATM    6  C4  UNL     1      39.189  63.961  36.836  1.00  0.00     0.038 C 
HETATM    7  C1  UNL     1      37.212  66.164  34.793  1.00  0.00     0.192 C 
HETATM    8  C8  UNL     1      38.366  67.034  34.456  1.00  0.00     0.271 C 
HETATM    9  C7  UNL     1      39.660  66.744  35.133  1.00  0.00     0.117 C 
HETATM   10  F1  UNL     1      38.636  66.965  33.073  1.00  0.00    -0.203 F 
HETATM   11  F2  UNL     1      38.028  68.392  34.639  1.00  0.00    -0.203 F 
HETATM   12  C6  UNL     1      39.610  66.285  36.539  1.00  0.00     0.229 C 
HETATM   13  C5  UNL     1      40.272  64.956  36.666  1.00  0.00     0.038 C 
BRANCH   7  14
HETATM   14  O1  UNL     1      36.274  66.796  35.644  1.00  0.00    -0.389 OA
ATOM     15  H1  UNL     1      35.408  66.411  35.566  1.00  0.00     0.210 HD
ENDBRANCH   7  14
ENDBRANCH   2   3
ENDBRANCH   1   2
BRANCH   1  16
HETATM   16  N2  UNL     1      38.591  65.357  40.315  1.00  0.00     0.093 N 
HETATM   17  C11 UNL     1      38.095  65.402  41.687  1.00  0.00     0.276 C 
HETATM   18  C12 UNL     1      38.537  66.668  42.308  1.00  0.00     0.080 C 
HETATM   19  C13 UNL     1      39.655  67.188  41.425  1.00  0.00     0.158 C 
HETATM   20  F3  UNL     1      39.325  68.417  40.877  1.00  0.00    -0.236 F 
HETATM   21  C20 UNL     1      39.746  66.205  40.304  1.00  0.00     0.321 C 
BRANCH  19  22
HETATM   22  C14 UNL     1      40.887  67.363  42.217  1.00  0.00    -0.011 A 
HETATM   23  C15 UNL     1      41.409  68.594  42.525  1.00  0.00     0.053 A 
HETATM   24  C16 UNL     1      42.579  68.759  43.249  1.00  0.00     0.119 A 
HETATM   25  F4  UNL     1      43.060  69.997  43.525  1.00  0.00    -0.206 F 
HETATM   26  C17 UNL     1      43.280  67.645  43.697  1.00  0.00     0.084 A 
HETATM   27  C18 UNL     1      42.769  66.410  43.396  1.00  0.00     0.119 A 
HETATM   28  F5  UNL     1      43.458  65.311  43.840  1.00  0.00    -0.206 F 
HETATM   29  C19 UNL     1      41.592  66.246  42.669  1.00  0.00     0.053 A 
ENDBRANCH  19  22
ENDBRANCH   1  16
TORSDOF 5
ENDMDL
MODEL 5
REMARK VINA RESULT: -10.129990951      2.301      7.644
REMARK  5 active torsions:
REMARK  status: ('A' for Active; 'I' for Inactive)
REMARK    1  A    between atoms: O1_1  and  C1_3 
REMARK    2  A    between atoms: N1_13  and  C9_14 
REMARK    3  A    between atoms: C9_14  and  C10_15 
REMARK    4  A    between atoms: C10_15  and  N2_16 
REMARK    5  A    between atoms: C13_19  and  C14_21 
ROOT
HETATM    1  C10 UNL     1      40.331  65.021  40.664  1.00  0.00     0.302 C 
ENDROOT
BRANCH   1   2
HETATM    2  C9  UNL     1      41.815  65.136  40.690  1.00  0.00     0.303 C 
BRANCH   2   3
HETATM    3  N1  UNL     1      42.391  66.132  41.505  1.00  0.00     0.099 N 
HETATM    4  C3  UNL     1      43.774  66.225  41.704  1.00  0.00     0.226 C 
HETATM    5  C2  UNL     1      44.056  67.724  42.001  1.00  0.00     0.073 C 
HETATM    6  C4  UNL     1      44.105  65.518  42.994  1.00  0.00     0.038 C 
HETATM    7  C1  UNL     1      42.921  68.579  41.522  1.00  0.00     0.192 C 
HETATM    8  C8  UNL     1      41.741  68.659  42.419  1.00  0.00     0.271 C 
HETATM    9  C7  UNL     1      41.501  67.511  43.337  1.00  0.00     0.117 C 
HETATM   10  F1  UNL     1      41.840  69.796  43.248  1.00  0.00    -0.203 F 
HETATM   11  F2  UNL     1      40.573  68.921  41.672  1.00  0.00    -0.203 F 
HETATM   12  C6  UNL     1      41.816  66.155  42.835  1.00  0.00     0.229 C 
HETATM   13  C5  UNL     1      42.817  65.501  43.725  1.00  0.00     0.038 C 
BRANCH   7  14
HETATM   14  O1  UNL     1      42.576  68.292  40.179  1.00  0.00    -0.389 OA
ATOM     15  H1  UNL     1      42.567  69.075  39.641  1.00  0.00     0.210 HD
ENDBRANCH   7  14
ENDBRANCH   2   3
ENDBRANCH   1   2
BRANCH   1  16
HETATM   16  N2  UNL     1      39.800  66.127  39.850  1.00  0.00     0.093 N 
HETATM   17  C11 UNL     1      38.370  65.916  39.649  1.00  0.00     0.276 C 
HETATM   18  C12 UNL     1      38.167  65.279  38.331  1.00  0.00     0.080 C 
HETATM   19  C13 UNL     1      39.461  65.494  37.570  1.00  0.00     0.158 C 
HETATM   20  F3  UNL     1      40.058  64.284  37.251  1.00  0.00    -0.236 F 
HETATM   21  C20 UNL     1      40.359  66.198  38.533  1.00  0.00     0.321 C 
BRANCH  19  22
HETATM   22  C14 UNL     1      39.194  66.211  36.309  1.00  0.00    -0.011 A 
HETATM   23  C15 UNL     1      38.180  65.865  35.453  1.00  0.00     0.053 A 
HETATM   24  C16 UNL     1      37.943  66.525  34.256  1.00  0.00     0.119 A 
HETATM   25  F4  UNL     1      36.931  66.143  33.438  1.00  0.00    -0.206 F 
HETATM   26  C17 UNL     1      38.754  67.589  33.879  1.00  0.00     0.084 A 
HETATM   27  C18 UNL     1      39.771  67.944  34.727  1.00  0.00     0.119 A 
HETATM   28  F5  UNL     1      40.569  68.995  34.357  1.00  0.00    -0.206 F 
HETATM   29  C19 UNL     1      40.007  67.281  35.929  1.00  0.00     0.053 A 
ENDBRANCH  19  22
ENDBRANCH   1  16
TORSDOF 5
ENDMDL
