MODEL 1
REMARK VINA RESULT: -6.511334903      0.000      0.000
REMARK  2 active torsions:
REMARK  status: ('A' for Active; 'I' for Inactive)
REMARK       I    between atoms: C1_4  and  N3_6 
REMARK    1  A    between atoms: C3_8  and  C4_9 
REMARK    2  A    between atoms: C6_13  and  C7_14 
ROOT
HETATM    1  N1  UNL     1      27.451 -12.085  35.449  1.00  0.00    -0.374 N 
ATOM      2  H11 UNL     1      26.615 -12.102  36.032  1.00  0.00     0.158 HD
ATOM      3  H12 UNL     1      27.692 -11.285  34.863  1.00  0.00     0.158 HD
HETATM    4  C1  UNL     1      28.239 -13.122  35.455  1.00  0.00     0.184 C 
HETATM    5  N2  UNL     1      29.409 -13.098  34.640  1.00  0.00    -0.064 NA
HETATM    6  N3  UNL     1      27.904 -14.238  36.272  1.00  0.00    -0.350 N 
HETATM    7  C2  UNL     1      27.571 -15.545  35.806  1.00  0.00     0.141 C 
HETATM    8  C3  UNL     1      27.678 -16.476  36.987  1.00  0.00     0.111 C 
HETATM    9  C5  UNL     1      28.114 -15.662  38.169  1.00  0.00     0.032 C 
HETATM   10  C6  UNL     1      26.962 -15.509  39.161  1.00  0.00     0.019 C 
HETATM   11  C9  UNL     1      26.409 -14.484  38.247  1.00  0.00     0.035 C 
HETATM   12  C10 UNL     1      27.837 -14.261  37.722  1.00  0.00     0.093 C 
ENDROOT
BRANCH   8  13
HETATM   13  C4  UNL     1      28.620 -17.578  36.671  1.00  0.00     0.179 C 
HETATM   14  O1  UNL     1      29.548 -17.942  37.414  1.00  0.00    -0.648 OA
HETATM   15  O2  UNL     1      28.455 -18.245  35.467  1.00  0.00    -0.648 OA
ENDBRANCH   8  13
BRANCH  10  16
HETATM   16  C7  UNL     1      27.354 -15.258  40.530  1.00  0.00     0.005 C 
HETATM   17  C8  UNL     1      26.776 -14.827  41.597  1.00  0.00     0.054 C 
HETATM   18 BR1  UNL     1      27.785 -14.667  43.248  1.00  0.00    -0.043 Br
HETATM   19 BR2  UNL     1      24.958 -14.331  41.665  1.00  0.00    -0.043 Br
ENDBRANCH  10  16
TORSDOF 2
ENDMDL
MODEL 2
REMARK VINA RESULT: -5.470874211      2.764      3.687
REMARK  2 active torsions:
REMARK  status: ('A' for Active; 'I' for Inactive)
REMARK       I    between atoms: C1_4  and  N3_6 
REMARK    1  A    between atoms: C3_8  and  C4_9 
REMARK    2  A    between atoms: C6_13  and  C7_14 
ROOT
HETATM    1  N1  UNL     1      28.510 -18.806  35.040  1.00  0.00    -0.374 N 
ATOM      2  H11 UNL     1      28.704 -19.035  36.015  1.00  0.00     0.158 HD
ATOM      3  H12 UNL     1      28.350 -19.523  34.333  1.00  0.00     0.158 HD
HETATM    4  C1  UNL     1      28.464 -17.552  34.689  1.00  0.00     0.184 C 
HETATM    5  N2  UNL     1      28.192 -17.232  33.327  1.00  0.00    -0.064 NA
HETATM    6  N3  UNL     1      28.687 -16.551  35.677  1.00  0.00    -0.350 N 
HETATM    7  C2  UNL     1      29.779 -15.633  35.704  1.00  0.00     0.141 C 
HETATM    8  C3  UNL     1      29.408 -14.535  36.667  1.00  0.00     0.111 C 
HETATM    9  C5  UNL     1      28.034 -14.832  37.189  1.00  0.00     0.032 C 
HETATM   10  C6  UNL     1      28.107 -15.266  38.653  1.00  0.00     0.019 C 
HETATM   11  C9  UNL     1      28.561 -16.587  38.162  1.00  0.00     0.035 C 
HETATM   12  C10 UNL     1      27.854 -16.274  36.833  1.00  0.00     0.093 C 
ENDROOT
BRANCH   8  13
HETATM   13  C4  UNL     1      29.488 -13.221  35.981  1.00  0.00     0.179 C 
HETATM   14  O1  UNL     1      30.547 -12.610  35.758  1.00  0.00    -0.648 OA
HETATM   15  O2  UNL     1      28.303 -12.637  35.562  1.00  0.00    -0.648 OA
ENDBRANCH   8  13
BRANCH  10  16
HETATM   16  C7  UNL     1      26.902 -15.049  39.422  1.00  0.00     0.005 C 
HETATM   17  C8  UNL     1      26.605 -14.941  40.671  1.00  0.00     0.054 C 
HETATM   18 BR1  UNL     1      24.761 -14.644  41.205  1.00  0.00    -0.043 Br
HETATM   19 BR2  UNL     1      27.880 -15.051  42.055  1.00  0.00    -0.043 Br
ENDBRANCH  10  16
TORSDOF 2
ENDMDL
MODEL 3
REMARK VINA RESULT: -5.256026435      4.530      5.886
REMARK  2 active torsions:
REMARK  status: ('A' for Active; 'I' for Inactive)
REMARK       I    between atoms: C1_4  and  N3_6 
REMARK    1  A    between atoms: C3_8  and  C4_9 
REMARK    2  A    between atoms: C6_13  and  C7_14 
ROOT
HETATM    1  N1  UNL     1      25.870 -15.153  38.346  1.00  0.00    -0.374 N 
ATOM      2  H11 UNL     1      25.450 -15.176  37.417  1.00  0.00     0.158 HD
ATOM      3  H12 UNL     1      25.313 -15.054  39.195  1.00  0.00     0.158 HD
HETATM    4  C1  UNL     1      27.164 -15.257  38.450  1.00  0.00     0.184 C 
HETATM    5  N2  UNL     1      27.752 -15.226  39.748  1.00  0.00    -0.064 NA
HETATM    6  N3  UNL     1      27.942 -15.396  37.265  1.00  0.00    -0.350 N 
HETATM    7  C2  UNL     1      28.899 -14.456  36.779  1.00  0.00     0.141 C 
HETATM    8  C3  UNL     1      29.739 -15.171  35.753  1.00  0.00     0.111 C 
HETATM    9  C5  UNL     1      29.252 -16.587  35.673  1.00  0.00     0.032 C 
HETATM   10  C6  UNL     1      28.519 -16.822  34.353  1.00  0.00     0.019 C 
HETATM   11  C9  UNL     1      27.365 -16.114  34.953  1.00  0.00     0.035 C 
HETATM   12  C10 UNL     1      27.911 -16.510  36.335  1.00  0.00     0.093 C 
ENDROOT
BRANCH   8  13
HETATM   13  C4  UNL     1      31.172 -15.079  36.129  1.00  0.00     0.179 C 
HETATM   14  O1  UNL     1      31.703 -15.741  37.037  1.00  0.00    -0.648 OA
HETATM   15  O2  UNL     1      31.971 -14.196  35.419  1.00  0.00    -0.648 OA
ENDBRANCH   8  13
BRANCH  10  16
HETATM   16  C7  UNL     1      28.490 -18.194  33.898  1.00  0.00     0.005 C 
HETATM   17  C8  UNL     1      27.774 -18.885  33.080  1.00  0.00     0.054 C 
HETATM   18 BR1  UNL     1      28.159 -20.770  32.811  1.00  0.00    -0.043 Br
HETATM   19 BR2  UNL     1      26.337 -18.166  32.093  1.00  0.00    -0.043 Br
ENDBRANCH  10  16
TORSDOF 2
ENDMDL
MODEL 4
REMARK VINA RESULT: -5.176824679      4.391      5.928
REMARK  2 active torsions:
REMARK  status: ('A' for Active; 'I' for Inactive)
REMARK       I    between atoms: C1_4  and  N3_6 
REMARK    1  A    between atoms: C3_8  and  C4_9 
REMARK    2  A    between atoms: C6_13  and  C7_14 
ROOT
HETATM    1  N1  UNL     1      28.481 -15.513  38.893  1.00  0.00    -0.374 N 
ATOM      2  H11 UNL     1      29.445 -15.302  38.635  1.00  0.00     0.158 HD
ATOM      3  H12 UNL     1      28.218 -15.800  39.835  1.00  0.00     0.158 HD
HETATM    4  C1  UNL     1      27.554 -15.409  37.984  1.00  0.00     0.184 C 
HETATM    5  N2  UNL     1      26.206 -15.702  38.344  1.00  0.00    -0.064 NA
HETATM    6  N3  UNL     1      27.920 -15.009  36.667  1.00  0.00    -0.350 N 
HETATM    7  C2  UNL     1      27.809 -15.806  35.490  1.00  0.00     0.141 C 
HETATM    8  C3  UNL     1      27.930 -14.874  34.312  1.00  0.00     0.111 C 
HETATM    9  C5  UNL     1      28.091 -13.483  34.847  1.00  0.00     0.032 C 
HETATM   10  C6  UNL     1      29.519 -12.989  34.615  1.00  0.00     0.019 C 
HETATM   11  C9  UNL     1      29.918 -13.829  35.767  1.00  0.00     0.035 C 
HETATM   12  C10 UNL     1      28.471 -13.724  36.275  1.00  0.00     0.093 C 
ENDROOT
BRANCH   8  13
HETATM   13  C4  UNL     1      26.739 -15.017  33.438  1.00  0.00     0.179 C 
HETATM   14  O1  UNL     1      26.222 -14.085  32.798  1.00  0.00    -0.648 OA
HETATM   15  O2  UNL     1      26.163 -16.273  33.329  1.00  0.00    -0.648 OA
ENDBRANCH   8  13
BRANCH  10  16
HETATM   16  C7  UNL     1      29.673 -11.552  34.558  1.00  0.00     0.005 C 
HETATM   17  C8  UNL     1      29.205 -10.597  33.831  1.00  0.00     0.054 C 
HETATM   18 BR1  UNL     1      29.750  -8.764  34.175  1.00  0.00    -0.043 Br
HETATM   19 BR2  UNL     1      27.986 -10.867  32.418  1.00  0.00    -0.043 Br
ENDBRANCH  10  16
TORSDOF 2
ENDMDL
MODEL 5
REMARK VINA RESULT: -5.096590567      2.026      2.270
REMARK  2 active torsions:
REMARK  status: ('A' for Active; 'I' for Inactive)
REMARK       I    between atoms: C1_4  and  N3_6 
REMARK    1  A    between atoms: C3_8  and  C4_9 
REMARK    2  A    between atoms: C6_13  and  C7_14 
ROOT
HETATM    1  N1  UNL     1      27.369 -12.982  34.153  1.00  0.00    -0.374 N 
ATOM      2  H11 UNL     1      26.669 -13.623  34.527  1.00  0.00     0.158 HD
ATOM      3  H12 UNL     1      27.124 -12.203  33.542  1.00  0.00     0.158 HD
HETATM    4  C1  UNL     1      28.619 -13.167  34.470  1.00  0.00     0.184 C 
HETATM    5  N2  UNL     1      29.597 -12.272  33.948  1.00  0.00    -0.064 NA
HETATM    6  N3  UNL     1      28.960 -14.256  35.322  1.00  0.00    -0.350 N 
HETATM    7  C2  UNL     1      29.757 -15.382  34.961  1.00  0.00     0.141 C 
HETATM    8  C3  UNL     1      30.178 -16.055  36.242  1.00  0.00     0.111 C 
HETATM    9  C5  UNL     1      29.614 -15.258  37.380  1.00  0.00     0.032 C 
HETATM   10  C6  UNL     1      28.480 -16.029  38.055  1.00  0.00     0.019 C 
HETATM   11  C9  UNL     1      27.625 -15.622  36.917  1.00  0.00     0.035 C 
HETATM   12  C10 UNL     1      28.567 -14.425  36.710  1.00  0.00     0.093 C 
ENDROOT
BRANCH   8  13
HETATM   13  C4  UNL     1      31.658 -16.155  36.291  1.00  0.00     0.179 C 
HETATM   14  O1  UNL     1      32.412 -15.228  36.634  1.00  0.00    -0.648 OA
HETATM   15  O2  UNL     1      32.238 -17.361  35.931  1.00  0.00    -0.648 OA
ENDBRANCH   8  13
BRANCH  10  16
HETATM   16  C7  UNL     1      28.229 -15.678  39.435  1.00  0.00     0.005 C 
HETATM   17  C8  UNL     1      27.242 -15.186  40.103  1.00  0.00     0.054 C 
HETATM   18 BR1  UNL     1      27.419 -14.892  42.014  1.00  0.00    -0.043 Br
HETATM   19 BR2  UNL     1      25.588 -14.725  39.324  1.00  0.00    -0.043 Br
ENDBRANCH  10  16
TORSDOF 2
ENDMDL
