MODEL 1
REMARK VINA RESULT: -5.105351078      0.000      0.000
REMARK  2 active torsions:
REMARK  status: ('A' for Active; 'I' for Inactive)
REMARK    1  A    between atoms: C9_12  and  C10_13 
REMARK    2  A    between atoms: C10_13  and  O1_17 
ROOT
HETATM    1  C1  UNL     1      27.342 -16.214  37.489  1.00  0.00     0.036 C 
HETATM    2  C2  UNL     1      28.136 -14.900  37.506  1.00  0.00     0.101 A 
HETATM    3  C3  UNL     1      29.526 -15.205  37.238  1.00  0.00     0.011 A 
HETATM    4  C4  UNL     1      30.277 -14.596  36.281  1.00  0.00    -0.009 A 
HETATM    5  C5  UNL     1      31.574 -14.822  35.971  1.00  0.00    -0.013 A 
HETATM    6  C6  UNL     1      32.433 -15.854  36.691  1.00  0.00     0.127 A 
HETATM    7 BR1  UNL     1      34.192 -15.898  35.994  1.00  0.00    -0.086 Br
HETATM    8  C7  UNL     1      32.118 -14.081  34.962  1.00  0.00     0.059 A 
HETATM    9 BR2  UNL     1      33.921 -14.152  34.274  1.00  0.00    -0.048 Br
HETATM   10  S1  UNL     1      30.829 -13.089  34.463  1.00  0.00    -0.079 SA
HETATM   11  C8  UNL     1      29.635 -13.640  35.547  1.00  0.00     0.047 A 
HETATM   12  C9  UNL     1      28.350 -13.286  35.718  1.00  0.00     0.097 A 
HETATM   13  N2  UNL     1      27.526 -13.899  36.710  1.00  0.00    -0.378 N 
ATOM     14  H2  UNL     1      26.551 -13.630  36.840  1.00  0.00     0.160 HD
ENDROOT
BRANCH  12  15
HETATM   15  C10 UNL     1      27.804 -12.261  34.871  1.00  0.00     0.162 C 
HETATM   16  N1  UNL     1      27.114 -12.577  33.845  1.00  0.00    -0.378 N 
ATOM     17  H12 UNL     1      26.954 -13.562  33.632  1.00  0.00     0.158 HD
ATOM     18  H11 UNL     1      26.727 -11.849  33.243  1.00  0.00     0.158 HD
BRANCH  15  19
HETATM   19  O1  UNL     1      28.021 -10.926  35.160  1.00  0.00    -0.345 OA
ATOM     20  H1  UNL     1      27.656 -10.248  34.603  1.00  0.00     0.219 HD
ENDBRANCH  15  19
ENDBRANCH  12  15
TORSDOF 2
ENDMDL
MODEL 2
REMARK VINA RESULT: -4.927521873      3.376      4.538
REMARK  2 active torsions:
REMARK  status: ('A' for Active; 'I' for Inactive)
REMARK    1  A    between atoms: C9_12  and  C10_13 
REMARK    2  A    between atoms: C10_13  and  O1_17 
ROOT
HETATM    1  C1  UNL     1      27.906 -15.311  39.111  1.00  0.00     0.036 C 
HETATM    2  C2  UNL     1      28.472 -15.673  37.731  1.00  0.00     0.101 A 
HETATM    3  C3  UNL     1      28.187 -14.584  36.821  1.00  0.00     0.011 A 
HETATM    4  C4  UNL     1      29.117 -13.970  36.041  1.00  0.00    -0.009 A 
HETATM    5  C5  UNL     1      28.932 -12.951  35.170  1.00  0.00    -0.013 A 
HETATM    6  C6  UNL     1      27.574 -12.306  34.923  1.00  0.00     0.127 A 
HETATM    7 BR1  UNL     1      27.692 -10.916  33.643  1.00  0.00    -0.086 Br
HETATM    8  C7  UNL     1      30.027 -12.496  34.494  1.00  0.00     0.059 A 
HETATM    9 BR2  UNL     1      30.112 -11.072  33.192  1.00  0.00    -0.048 Br
HETATM   10  S1  UNL     1      31.286 -13.482  35.073  1.00  0.00    -0.079 SA
HETATM   11  C8  UNL     1      30.392 -14.446  36.158  1.00  0.00     0.047 A 
HETATM   12  C9  UNL     1      30.757 -15.450  36.972  1.00  0.00     0.097 A 
HETATM   13  N2  UNL     1      29.814 -16.122  37.808  1.00  0.00    -0.378 N 
ATOM     14  H2  UNL     1      30.091 -16.884  38.426  1.00  0.00     0.160 HD
ENDROOT
BRANCH  12  15
HETATM   15  C10 UNL     1      32.138 -15.847  36.992  1.00  0.00     0.162 C 
HETATM   16  N1  UNL     1      32.535 -16.826  36.275  1.00  0.00    -0.378 N 
ATOM     17  H12 UNL     1      31.864 -17.324  35.690  1.00  0.00     0.158 HD
ATOM     18  H11 UNL     1      33.515 -17.107  36.290  1.00  0.00     0.158 HD
BRANCH  15  19
HETATM   19  O1  UNL     1      33.048 -15.172  37.785  1.00  0.00    -0.345 OA
ATOM     20  H1  UNL     1      33.464 -15.609  38.519  1.00  0.00     0.219 HD
ENDBRANCH  15  19
ENDBRANCH  12  15
TORSDOF 2
ENDMDL
MODEL 3
REMARK VINA RESULT: -4.861337336      4.099      5.173
REMARK  2 active torsions:
REMARK  status: ('A' for Active; 'I' for Inactive)
REMARK    1  A    between atoms: C9_12  and  C10_13 
REMARK    2  A    between atoms: C10_13  and  O1_17 
ROOT
HETATM    1  C1  UNL     1      28.736 -11.949  34.458  1.00  0.00     0.036 C 
HETATM    2  C2  UNL     1      27.951 -13.070  35.152  1.00  0.00     0.101 A 
HETATM    3  C3  UNL     1      27.711 -14.122  34.187  1.00  0.00     0.011 A 
HETATM    4  C4  UNL     1      28.008 -15.435  34.391  1.00  0.00    -0.009 A 
HETATM    5  C5  UNL     1      27.815 -16.473  33.544  1.00  0.00    -0.013 A 
HETATM    6  C6  UNL     1      27.203 -16.312  32.159  1.00  0.00     0.127 A 
HETATM    7 BR1  UNL     1      27.087 -17.973  31.258  1.00  0.00    -0.086 Br
HETATM    8  C7  UNL     1      28.195 -17.712  33.973  1.00  0.00     0.059 A 
HETATM    9 BR2  UNL     1      28.063 -19.389  33.025  1.00  0.00    -0.048 Br
HETATM   10  S1  UNL     1      28.810 -17.419  35.532  1.00  0.00    -0.079 SA
HETATM   11  C8  UNL     1      28.568 -15.733  35.600  1.00  0.00     0.047 A 
HETATM   12  C9  UNL     1      28.830 -14.829  36.560  1.00  0.00     0.097 A 
HETATM   13  N2  UNL     1      28.536 -13.443  36.389  1.00  0.00    -0.378 N 
ATOM     14  H2  UNL     1      28.735 -12.757  37.117  1.00  0.00     0.160 HD
ENDROOT
BRANCH  12  15
HETATM   15  C10 UNL     1      29.423 -15.287  37.786  1.00  0.00     0.162 C 
HETATM   16  N1  UNL     1      28.688 -15.550  38.796  1.00  0.00    -0.378 N 
ATOM     17  H12 UNL     1      27.677 -15.432  38.724  1.00  0.00     0.158 HD
ATOM     18  H11 UNL     1      29.109 -15.875  39.666  1.00  0.00     0.158 HD
BRANCH  15  19
HETATM   19  O1  UNL     1      30.794 -15.448  37.882  1.00  0.00    -0.345 OA
ATOM     20  H1  UNL     1      31.185 -15.754  38.692  1.00  0.00     0.219 HD
ENDBRANCH  15  19
ENDBRANCH  12  15
TORSDOF 2
ENDMDL
MODEL 4
REMARK VINA RESULT: -4.825051719      3.261      3.510
REMARK  2 active torsions:
REMARK  status: ('A' for Active; 'I' for Inactive)
REMARK    1  A    between atoms: C9_12  and  C10_13 
REMARK    2  A    between atoms: C10_13  and  O1_17 
ROOT
HETATM    1  C1  UNL     1      26.329 -15.650  38.088  1.00  0.00     0.036 C 
HETATM    2  C2  UNL     1      27.665 -15.337  37.400  1.00  0.00     0.101 A 
HETATM    3  C3  UNL     1      27.894 -16.332  36.374  1.00  0.00     0.011 A 
HETATM    4  C4  UNL     1      28.193 -16.047  35.078  1.00  0.00    -0.009 A 
HETATM    5  C5  UNL     1      28.420 -16.915  34.065  1.00  0.00    -0.013 A 
HETATM    6  C6  UNL     1      28.370 -18.427  34.240  1.00  0.00     0.127 A 
HETATM    7 BR1  UNL     1      28.738 -19.324  32.614  1.00  0.00    -0.086 Br
HETATM    8  C7  UNL     1      28.704 -16.388  32.838  1.00  0.00     0.059 A 
HETATM    9 BR2  UNL     1      29.074 -17.335  31.196  1.00  0.00    -0.048 Br
HETATM   10  S1  UNL     1      28.652 -14.710  33.107  1.00  0.00    -0.079 SA
HETATM   11  C8  UNL     1      28.271 -14.719  34.769  1.00  0.00     0.047 A 
HETATM   12  C9  UNL     1      28.076 -13.721  35.648  1.00  0.00     0.097 A 
HETATM   13  N2  UNL     1      27.760 -13.975  37.017  1.00  0.00    -0.378 N 
ATOM     14  H2  UNL     1      27.612 -13.218  37.684  1.00  0.00     0.160 HD
ENDROOT
BRANCH  12  15
HETATM   15  C10 UNL     1      28.191 -12.367  35.181  1.00  0.00     0.162 C 
HETATM   16  N1  UNL     1      27.150 -11.722  34.820  1.00  0.00    -0.378 N 
ATOM     17  H12 UNL     1      26.238 -12.177  34.866  1.00  0.00     0.158 HD
ATOM     18  H11 UNL     1      27.231 -10.761  34.489  1.00  0.00     0.158 HD
BRANCH  15  19
HETATM   19  O1  UNL     1      29.427 -11.750  35.120  1.00  0.00    -0.345 OA
ATOM     20  H1  UNL     1      30.080 -11.916  35.791  1.00  0.00     0.219 HD
ENDBRANCH  15  19
ENDBRANCH  12  15
TORSDOF 2
ENDMDL
MODEL 5
REMARK VINA RESULT: -4.821501846      3.686      4.933
REMARK  2 active torsions:
REMARK  status: ('A' for Active; 'I' for Inactive)
REMARK    1  A    between atoms: C9_12  and  C10_13 
REMARK    2  A    between atoms: C10_13  and  O1_17 
ROOT
HETATM    1  C1  UNL     1      33.166 -16.133  35.031  1.00  0.00     0.036 C 
HETATM    2  C2  UNL     1      32.448 -15.265  36.074  1.00  0.00     0.101 A 
HETATM    3  C3  UNL     1      31.826 -14.151  35.389  1.00  0.00     0.011 A 
HETATM    4  C4  UNL     1      30.518 -13.801  35.521  1.00  0.00    -0.009 A 
HETATM    5  C5  UNL     1      29.865 -12.780  34.920  1.00  0.00    -0.013 A 
HETATM    6  C6  UNL     1      30.540 -11.818  33.950  1.00  0.00     0.127 A 
HETATM    7 BR1  UNL     1      29.323 -10.519  33.306  1.00  0.00    -0.086 Br
HETATM    8  C7  UNL     1      28.540 -12.624  35.210  1.00  0.00     0.059 A 
HETATM    9 BR2  UNL     1      27.325 -11.284  34.532  1.00  0.00    -0.048 Br
HETATM   10  S1  UNL     1      28.224 -13.887  36.304  1.00  0.00    -0.079 SA
HETATM   11  C8  UNL     1      29.781 -14.580  36.366  1.00  0.00     0.047 A 
HETATM   12  C9  UNL     1      30.265 -15.634  37.045  1.00  0.00     0.097 A 
HETATM   13  N2  UNL     1      31.630 -16.037  36.936  1.00  0.00    -0.378 N 
ATOM     14  H2  UNL     1      31.997 -16.836  37.452  1.00  0.00     0.160 HD
ENDROOT
BRANCH  12  15
HETATM   15  C10 UNL     1      29.371 -16.365  37.900  1.00  0.00     0.162 C 
HETATM   16  N1  UNL     1      28.972 -17.530  37.565  1.00  0.00    -0.378 N 
ATOM     17  H12 UNL     1      29.292 -17.936  36.685  1.00  0.00     0.158 HD
ATOM     18  H11 UNL     1      28.337 -18.049  38.171  1.00  0.00     0.158 HD
BRANCH  15  19
HETATM   19  O1  UNL     1      28.936 -15.815  39.093  1.00  0.00    -0.345 OA
ATOM     20  H1  UNL     1      29.071 -16.276  39.912  1.00  0.00     0.219 HD
ENDBRANCH  15  19
ENDBRANCH  12  15
TORSDOF 2
ENDMDL
