MODEL 1
REMARK VINA RESULT: -5.168385131      0.000      0.000
REMARK  5 active torsions:
REMARK  status: ('A' for Active; 'I' for Inactive)
REMARK    1  A    between atoms: C2_2  and  C3_4 
REMARK    2  A    between atoms: C3_4  and  C4_5 
REMARK    3  A    between atoms: C5_7  and  O1_8 
REMARK    4  A    between atoms: C6_10  and  O2_11 
REMARK    5  A    between atoms: C11_17  and  O3_18 
ROOT
HETATM    1  C3  UNL     1      28.215 -15.521  35.246  1.00  0.00     0.016 C 
HETATM    2  C5  UNL     1      27.153 -14.844  36.084  1.00  0.00     0.158 C 
HETATM    3  C6  UNL     1      26.634 -15.781  37.154  1.00  0.00     0.154 C 
HETATM    4  C7  UNL     1      27.700 -16.551  37.841  1.00  0.00     0.046 C 
HETATM    5  C8  UNL     1      28.817 -15.636  38.339  1.00  0.00     0.010 C 
HETATM    6  C9  UNL     1      29.812 -15.584  37.197  1.00  0.00     0.009 C 
HETATM    7  C10 UNL     1      29.173 -16.329  36.060  1.00  0.00     0.028 C 
HETATM    8  C11 UNL     1      28.466 -17.399  36.864  1.00  0.00     0.129 C 
ENDROOT
BRANCH   1   9
HETATM    9  C2  UNL     1      28.831 -14.672  34.214  1.00  0.00     0.066 C 
HETATM   10  C1  UNL     1      29.709 -13.555  34.563  1.00  0.00     0.023 C 
HETATM   11 BR1  UNL     1      29.844 -15.834  33.004  1.00  0.00    -0.091 Br
ENDBRANCH   1   9
BRANCH   1  12
HETATM   12  C4  UNL     1      27.405 -16.547  34.416  1.00  0.00     0.099 C 
HETATM   13 BR2  UNL     1      25.990 -15.584  33.457  1.00  0.00    -0.096 Br
ENDBRANCH   1  12
BRANCH   2  14
HETATM   14  O1  UNL     1      27.514 -13.636  36.614  1.00  0.00    -0.392 OA
ATOM     15  H1  UNL     1      26.988 -13.344  37.349  1.00  0.00     0.210 HD
ENDBRANCH   2  14
BRANCH   3  16
HETATM   16  O2  UNL     1      25.958 -14.974  38.085  1.00  0.00    -0.393 OA
ATOM     17  H2  UNL     1      25.833 -15.511  38.858  1.00  0.00     0.210 HD
ENDBRANCH   3  16
BRANCH   8  18
HETATM   18  O3  UNL     1      29.421 -18.092  37.650  1.00  0.00    -0.395 OA
ATOM     19  H3  UNL     1      30.094 -18.363  37.037  1.00  0.00     0.210 HD
ENDBRANCH   8  18
TORSDOF 5
ENDMDL
MODEL 2
REMARK VINA RESULT: -4.943398093      1.318      3.336
REMARK  5 active torsions:
REMARK  status: ('A' for Active; 'I' for Inactive)
REMARK    1  A    between atoms: C2_2  and  C3_4 
REMARK    2  A    between atoms: C3_4  and  C4_5 
REMARK    3  A    between atoms: C5_7  and  O1_8 
REMARK    4  A    between atoms: C6_10  and  O2_11 
REMARK    5  A    between atoms: C11_17  and  O3_18 
ROOT
HETATM    1  C3  UNL     1      28.300 -15.748  35.068  1.00  0.00     0.016 C 
HETATM    2  C5  UNL     1      29.716 -15.846  35.594  1.00  0.00     0.158 C 
HETATM    3  C6  UNL     1      29.941 -14.859  36.719  1.00  0.00     0.154 C 
HETATM    4  C7  UNL     1      28.822 -14.798  37.692  1.00  0.00     0.046 C 
HETATM    5  C8  UNL     1      28.436 -16.191  38.187  1.00  0.00     0.010 C 
HETATM    6  C9  UNL     1      27.362 -16.659  37.225  1.00  0.00     0.009 C 
HETATM    7  C10 UNL     1      27.284 -15.609  36.153  1.00  0.00     0.028 C 
HETATM    8  C11 UNL     1      27.542 -14.392  37.015  1.00  0.00     0.129 C 
ENDROOT
BRANCH   1   9
HETATM    9  C2  UNL     1      27.959 -16.713  34.010  1.00  0.00     0.066 C 
HETATM   10  C1  UNL     1      27.979 -18.155  34.251  1.00  0.00     0.023 C 
HETATM   11 BR1  UNL     1      26.168 -16.272  33.348  1.00  0.00    -0.091 Br
ENDBRANCH   1   9
BRANCH   1  12
HETATM   12  C4  UNL     1      28.299 -14.393  34.318  1.00  0.00     0.099 C 
HETATM   13 BR2  UNL     1      29.656 -14.469  32.903  1.00  0.00    -0.096 Br
ENDBRANCH   1  12
BRANCH   2  14
HETATM   14  O1  UNL     1      30.117 -17.105  35.948  1.00  0.00    -0.392 OA
ATOM     15  H1  UNL     1      30.568 -17.590  35.267  1.00  0.00     0.210 HD
ENDBRANCH   2  14
BRANCH   3  16
HETATM   16  O2  UNL     1      31.114 -15.274  37.373  1.00  0.00    -0.393 OA
ATOM     17  H2  UNL     1      31.392 -16.070  36.935  1.00  0.00     0.210 HD
ENDBRANCH   3  16
BRANCH   8  18
HETATM   18  O3  UNL     1      26.577 -14.347  38.052  1.00  0.00    -0.395 OA
ATOM     19  H3  UNL     1      25.794 -13.997  37.644  1.00  0.00     0.210 HD
ENDBRANCH   8  18
TORSDOF 5
ENDMDL
MODEL 3
REMARK VINA RESULT: -4.797993114      1.640      3.528
REMARK  5 active torsions:
REMARK  status: ('A' for Active; 'I' for Inactive)
REMARK    1  A    between atoms: C2_2  and  C3_4 
REMARK    2  A    between atoms: C3_4  and  C4_5 
REMARK    3  A    between atoms: C5_7  and  O1_8 
REMARK    4  A    between atoms: C6_10  and  O2_11 
REMARK    5  A    between atoms: C11_17  and  O3_18 
ROOT
HETATM    1  C3  UNL     1      29.258 -16.118  35.511  1.00  0.00     0.016 C 
HETATM    2  C5  UNL     1      29.313 -16.692  36.910  1.00  0.00     0.158 C 
HETATM    3  C6  UNL     1      29.137 -15.603  37.946  1.00  0.00     0.154 C 
HETATM    4  C7  UNL     1      28.064 -14.633  37.616  1.00  0.00     0.046 C 
HETATM    5  C8  UNL     1      26.757 -15.343  37.268  1.00  0.00     0.010 C 
HETATM    6  C9  UNL     1      26.815 -15.546  35.767  1.00  0.00     0.009 C 
HETATM    7  C10 UNL     1      28.183 -15.094  35.343  1.00  0.00     0.028 C 
HETATM    8  C11 UNL     1      28.346 -13.941  36.310  1.00  0.00     0.129 C 
ENDROOT
BRANCH   1   9
HETATM    9  C2  UNL     1      29.356 -17.107  34.425  1.00  0.00     0.066 C 
HETATM   10  C1  UNL     1      28.240 -17.990  34.089  1.00  0.00     0.023 C 
HETATM   11 BR1  UNL     1      29.840 -16.153  32.783  1.00  0.00    -0.091 Br
ENDBRANCH   1   9
BRANCH   1  12
HETATM   12  C4  UNL     1      30.593 -15.342  35.398  1.00  0.00     0.099 C 
HETATM   13 BR2  UNL     1      32.054 -16.554  35.897  1.00  0.00    -0.096 Br
ENDBRANCH   1  12
BRANCH   2  14
HETATM   14  O1  UNL     1      28.464 -17.740  37.140  1.00  0.00    -0.392 OA
ATOM     15  H1  UNL     1      28.785 -18.391  37.753  1.00  0.00     0.210 HD
ENDBRANCH   2  14
BRANCH   3  16
HETATM   16  O2  UNL     1      28.830 -16.257  39.151  1.00  0.00    -0.393 OA
ATOM     17  H2  UNL     1      27.996 -15.904  39.438  1.00  0.00     0.210 HD
ENDBRANCH   3  16
BRANCH   8  18
HETATM   18  O3  UNL     1      27.271 -13.036  36.136  1.00  0.00    -0.395 OA
ATOM     19  H3  UNL     1      26.551 -13.568  35.818  1.00  0.00     0.210 HD
ENDBRANCH   8  18
TORSDOF 5
ENDMDL
MODEL 4
REMARK VINA RESULT: -4.773660899      1.930      3.480
REMARK  5 active torsions:
REMARK  status: ('A' for Active; 'I' for Inactive)
REMARK    1  A    between atoms: C2_2  and  C3_4 
REMARK    2  A    between atoms: C3_4  and  C4_5 
REMARK    3  A    between atoms: C5_7  and  O1_8 
REMARK    4  A    between atoms: C6_10  and  O2_11 
REMARK    5  A    between atoms: C11_17  and  O3_18 
ROOT
HETATM    1  C3  UNL     1      28.725 -14.703  35.566  1.00  0.00     0.016 C 
HETATM    2  C5  UNL     1      29.650 -15.843  35.200  1.00  0.00     0.158 C 
HETATM    3  C6  UNL     1      30.425 -16.317  36.410  1.00  0.00     0.154 C 
HETATM    4  C7  UNL     1      29.600 -16.435  37.638  1.00  0.00     0.046 C 
HETATM    5  C8  UNL     1      28.333 -17.249  37.384  1.00  0.00     0.010 C 
HETATM    6  C9  UNL     1      27.292 -16.227  36.976  1.00  0.00     0.009 C 
HETATM    7  C10 UNL     1      28.021 -14.918  36.866  1.00  0.00     0.028 C 
HETATM    8  C11 UNL     1      28.994 -15.109  38.009  1.00  0.00     0.129 C 
ENDROOT
BRANCH   1   9
HETATM    9  C2  UNL     1      27.877 -14.209  34.469  1.00  0.00     0.066 C 
HETATM   10  C1  UNL     1      26.651 -14.904  34.075  1.00  0.00     0.023 C 
HETATM   11 BR1  UNL     1      27.374 -12.361  34.880  1.00  0.00    -0.091 Br
ENDBRANCH   1   9
BRANCH   1  12
HETATM   12  C4  UNL     1      29.700 -13.525  35.810  1.00  0.00     0.099 C 
HETATM   13 BR2  UNL     1      30.926 -13.414  34.282  1.00  0.00    -0.096 Br
ENDBRANCH   1  12
BRANCH   2  14
HETATM   14  O1  UNL     1      29.053 -16.888  34.550  1.00  0.00    -0.392 OA
ATOM     15  H1  UNL     1      28.588 -17.498  35.111  1.00  0.00     0.210 HD
ENDBRANCH   2  14
BRANCH   3  16
HETATM   16  O2  UNL     1      30.949 -17.575  36.070  1.00  0.00    -0.393 OA
ATOM     17  H2  UNL     1      31.883 -17.447  35.947  1.00  0.00     0.210 HD
ENDBRANCH   3  16
BRANCH   8  18
HETATM   18  O3  UNL     1      28.266 -15.359  39.199  1.00  0.00    -0.395 OA
ATOM     19  H3  UNL     1      27.754 -16.137  39.014  1.00  0.00     0.210 HD
ENDBRANCH   8  18
TORSDOF 5
ENDMDL
MODEL 5
REMARK VINA RESULT: -4.766199613      1.792      2.370
REMARK  5 active torsions:
REMARK  status: ('A' for Active; 'I' for Inactive)
REMARK    1  A    between atoms: C2_2  and  C3_4 
REMARK    2  A    between atoms: C3_4  and  C4_5 
REMARK    3  A    between atoms: C5_7  and  O1_8 
REMARK    4  A    between atoms: C6_10  and  O2_11 
REMARK    5  A    between atoms: C11_17  and  O3_18 
ROOT
HETATM    1  C3  UNL     1      29.881 -14.940  35.308  1.00  0.00     0.016 C 
HETATM    2  C5  UNL     1      29.229 -13.611  35.620  1.00  0.00     0.158 C 
HETATM    3  C6  UNL     1      27.759 -13.792  35.931  1.00  0.00     0.154 C 
HETATM    4  C7  UNL     1      27.475 -14.950  36.814  1.00  0.00     0.046 C 
HETATM    5  C8  UNL     1      28.351 -14.926  38.065  1.00  0.00     0.010 C 
HETATM    6  C9  UNL     1      29.585 -15.722  37.688  1.00  0.00     0.009 C 
HETATM    7  C10 UNL     1      29.442 -16.034  36.226  1.00  0.00     0.028 C 
HETATM    8  C11 UNL     1      27.942 -16.235  36.187  1.00  0.00     0.129 C 
ENDROOT
BRANCH   1   9
HETATM    9  C2  UNL     1      31.330 -14.881  35.053  1.00  0.00     0.066 C 
HETATM   10  C1  UNL     1      32.277 -14.489  36.096  1.00  0.00     0.023 C 
HETATM   11 BR1  UNL     1      31.899 -16.638  34.400  1.00  0.00    -0.091 Br
ENDBRANCH   1   9
BRANCH   1  12
HETATM   12  C4  UNL     1      29.297 -15.300  33.920  1.00  0.00     0.099 C 
HETATM   13 BR2  UNL     1      29.736 -13.851  32.673  1.00  0.00    -0.096 Br
ENDBRANCH   1  12
BRANCH   2  14
HETATM   14  O1  UNL     1      29.855 -12.870  36.586  1.00  0.00    -0.392 OA
ATOM     15  H1  UNL     1      30.798 -12.969  36.621  1.00  0.00     0.210 HD
ENDBRANCH   2  14
BRANCH   3  16
HETATM   16  O2  UNL     1      27.344 -12.605  36.558  1.00  0.00    -0.393 OA
ATOM     17  H2  UNL     1      27.764 -11.897  36.085  1.00  0.00     0.210 HD
ENDBRANCH   3  16
BRANCH   8  18
HETATM   18  O3  UNL     1      27.587 -17.246  37.113  1.00  0.00    -0.395 OA
ATOM     19  H3  UNL     1      27.468 -18.029  36.589  1.00  0.00     0.210 HD
ENDBRANCH   8  18
TORSDOF 5
ENDMDL
