MODEL 1
REMARK VINA RESULT: -4.526444015      0.000      0.000
REMARK  3 active torsions:
REMARK  status: ('A' for Active; 'I' for Inactive)
REMARK    1  A    between atoms: C2_2  and  C3_3 
REMARK    2  A    between atoms: C5_8  and  C6_9 
REMARK    3  A    between atoms: C6_9  and  N2_10 
ROOT
HETATM    1  C3  UNL     1      29.499  -8.799  34.593  1.00  0.00     0.186 C 
HETATM    2  N1  UNL     1      28.264  -8.955  35.273  1.00  0.00    -0.339 N 
ATOM      3  H1  UNL     1      28.209  -8.405  36.131  1.00  0.00     0.164 HD
HETATM    4  C4  UNL     1      27.089  -9.706  35.021  1.00  0.00     0.230 C 
HETATM    5  O1  UNL     1      26.001  -9.236  35.470  1.00  0.00    -0.273 OA
HETATM    6  C5  UNL     1      27.050 -10.992  34.275  1.00  0.00     0.146 C 
HETATM    7  C7  UNL     1      27.679 -10.891  32.961  1.00  0.00     0.037 C 
HETATM    8 BR1  UNL     1      26.729 -11.825  31.570  1.00  0.00    -0.052 Br
HETATM    9  C8  UNL     1      28.766 -10.274  32.607  1.00  0.00     0.093 C 
HETATM   10 BR2  UNL     1      29.183 -10.438  30.739  1.00  0.00    -0.030 Br
HETATM   11  N3  UNL     1      29.669  -9.515  33.387  1.00  0.00    -0.357 N 
HETATM   12  C9  UNL     1      31.018  -9.459  32.855  1.00  0.00     0.152 C 
ENDROOT
BRANCH   6  13
HETATM   13  C6  UNL     1      27.633 -12.093  35.131  1.00  0.00     0.249 C 
BRANCH  13  14
HETATM   14  N2  UNL     1      27.069 -12.158  36.446  1.00  0.00    -0.078 N 
ATOM     15  H23 UNL     1      26.073 -11.939  36.421  1.00  0.00     0.274 HD
ATOM     16  H22 UNL     1      27.024 -13.124  36.771  1.00  0.00     0.274 HD
ATOM     17  H21 UNL     1      27.550 -11.570  37.127  1.00  0.00     0.274 HD
ENDBRANCH  13  14
ENDBRANCH   6  13
BRANCH   1  18
HETATM   18  C2  UNL     1      29.712  -7.300  34.381  1.00  0.00     0.042 C 
HETATM   19  C1  UNL     1      28.616  -6.702  33.536  1.00  0.00     0.009 C 
ENDBRANCH   1  18
TORSDOF 3
ENDMDL
MODEL 2
REMARK VINA RESULT: -4.461713890      4.878      6.661
REMARK  3 active torsions:
REMARK  status: ('A' for Active; 'I' for Inactive)
REMARK    1  A    between atoms: C2_2  and  C3_3 
REMARK    2  A    between atoms: C5_8  and  C6_9 
REMARK    3  A    between atoms: C6_9  and  N2_10 
ROOT
HETATM    1  C3  UNL     1      27.372 -15.541  37.199  1.00  0.00     0.186 C 
HETATM    2  N1  UNL     1      27.045 -14.310  36.574  1.00  0.00    -0.339 N 
ATOM      3  H1  UNL     1      26.203 -13.880  36.958  1.00  0.00     0.164 HD
HETATM    4  C4  UNL     1      27.632 -13.547  35.534  1.00  0.00     0.230 C 
HETATM    5  O1  UNL     1      27.456 -12.293  35.575  1.00  0.00    -0.273 OA
HETATM    6  C5  UNL     1      28.428 -14.114  34.414  1.00  0.00     0.146 C 
HETATM    7  C7  UNL     1      29.527 -14.954  34.883  1.00  0.00     0.037 C 
HETATM    8 BR1  UNL     1      31.163 -14.716  33.895  1.00  0.00    -0.052 Br
HETATM    9  C8  UNL     1      29.554 -15.820  35.851  1.00  0.00     0.093 C 
HETATM   10 BR2  UNL     1      31.257 -16.681  36.079  1.00  0.00    -0.030 Br
HETATM   11  N3  UNL     1      28.528 -16.211  36.741  1.00  0.00    -0.357 N 
HETATM   12  C9  UNL     1      28.689 -17.546  37.288  1.00  0.00     0.152 C 
ENDROOT
BRANCH   6  13
HETATM   13  C6  UNL     1      27.509 -14.823  33.446  1.00  0.00     0.249 C 
BRANCH  13  14
HETATM   14  N2  UNL     1      26.339 -14.069  33.109  1.00  0.00    -0.078 N 
ATOM     15  H23 UNL     1      25.686 -14.047  33.892  1.00  0.00     0.274 HD
ATOM     16  H22 UNL     1      26.558 -13.074  33.041  1.00  0.00     0.274 HD
ATOM     17  H21 UNL     1      25.873 -14.393  32.261  1.00  0.00     0.274 HD
ENDBRANCH  13  14
ENDBRANCH   6  13
BRANCH   1  18
HETATM   18  C2  UNL     1      27.443 -15.279  38.703  1.00  0.00     0.042 C 
HETATM   19  C1  UNL     1      26.090 -14.925  39.266  1.00  0.00     0.009 C 
ENDBRANCH   1  18
TORSDOF 3
ENDMDL
MODEL 3
REMARK VINA RESULT: -4.452416877      3.095      5.298
REMARK  3 active torsions:
REMARK  status: ('A' for Active; 'I' for Inactive)
REMARK    1  A    between atoms: C2_2  and  C3_3 
REMARK    2  A    between atoms: C5_8  and  C6_9 
REMARK    3  A    between atoms: C6_9  and  N2_10 
ROOT
HETATM    1  C3  UNL     1      28.566 -13.929  36.613  1.00  0.00     0.186 C 
HETATM    2  N1  UNL     1      29.187 -12.790  36.038  1.00  0.00    -0.339 N 
ATOM      3  H1  UNL     1      29.935 -12.409  36.617  1.00  0.00     0.164 HD
HETATM    4  C4  UNL     1      28.995 -12.066  34.834  1.00  0.00     0.230 C 
HETATM    5  O1  UNL     1      30.008 -11.478  34.352  1.00  0.00    -0.273 OA
HETATM    6  C5  UNL     1      27.700 -11.953  34.112  1.00  0.00     0.146 C 
HETATM    7  C7  UNL     1      27.109 -13.257  33.824  1.00  0.00     0.037 C 
HETATM    8 BR1  UNL     1      26.318 -13.382  32.072  1.00  0.00    -0.052 Br
HETATM    9  C8  UNL     1      27.042 -14.320  34.567  1.00  0.00     0.093 C 
HETATM   10 BR2  UNL     1      26.153 -15.803  33.730  1.00  0.00    -0.030 Br
HETATM   11  N3  UNL     1      27.521 -14.535  35.880  1.00  0.00    -0.357 N 
HETATM   12  C9  UNL     1      26.811 -15.566  36.614  1.00  0.00     0.152 C 
ENDROOT
BRANCH   6  13
HETATM   13  C6  UNL     1      26.772 -11.034  34.874  1.00  0.00     0.249 C 
BRANCH  13  14
HETATM   14  N2  UNL     1      27.366  -9.778  35.219  1.00  0.00    -0.078 N 
ATOM     15  H23 UNL     1      28.325  -9.908  35.541  1.00  0.00     0.274 HD
ATOM     16  H22 UNL     1      27.541  -9.220  34.383  1.00  0.00     0.274 HD
ATOM     17  H21 UNL     1      26.826  -9.244  35.901  1.00  0.00     0.274 HD
ENDBRANCH  13  14
ENDBRANCH   6  13
BRANCH   1  18
HETATM   18  C2  UNL     1      29.673 -14.934  36.931  1.00  0.00     0.042 C 
HETATM   19  C1  UNL     1      30.455 -15.302  35.695  1.00  0.00     0.009 C 
ENDBRANCH   1  18
TORSDOF 3
ENDMDL
MODEL 4
REMARK VINA RESULT: -4.364577654      5.000      6.949
REMARK  3 active torsions:
REMARK  status: ('A' for Active; 'I' for Inactive)
REMARK    1  A    between atoms: C2_2  and  C3_3 
REMARK    2  A    between atoms: C5_8  and  C6_9 
REMARK    3  A    between atoms: C6_9  and  N2_10 
ROOT
HETATM    1  C3  UNL     1      27.931 -14.718  37.352  1.00  0.00     0.186 C 
HETATM    2  N1  UNL     1      28.231 -16.096  37.507  1.00  0.00    -0.339 N 
ATOM      3  H1  UNL     1      28.352 -16.370  38.482  1.00  0.00     0.164 HD
HETATM    4  C4  UNL     1      28.398 -17.175  36.604  1.00  0.00     0.230 C 
HETATM    5  O1  UNL     1      28.114 -18.332  37.035  1.00  0.00    -0.273 OA
HETATM    6  C5  UNL     1      28.879 -17.040  35.203  1.00  0.00     0.146 C 
HETATM    7  C7  UNL     1      28.098 -16.072  34.438  1.00  0.00     0.037 C 
HETATM    8 BR1  UNL     1      27.725 -16.628  32.632  1.00  0.00    -0.052 Br
HETATM    9  C8  UNL     1      27.630 -14.915  34.797  1.00  0.00     0.093 C 
HETATM   10 BR2  UNL     1      26.652 -14.006  33.415  1.00  0.00    -0.030 Br
HETATM   11  N3  UNL     1      27.737 -14.242  36.036  1.00  0.00    -0.357 N 
HETATM   12  C9  UNL     1      27.628 -12.798  35.944  1.00  0.00     0.152 C 
ENDROOT
BRANCH   6  13
HETATM   13  C6  UNL     1      30.361 -16.741  35.203  1.00  0.00     0.249 C 
BRANCH  13  14
HETATM   14  N2  UNL     1      31.101 -17.505  36.162  1.00  0.00    -0.078 N 
ATOM     15  H23 UNL     1      30.556 -17.636  37.015  1.00  0.00     0.274 HD
ATOM     16  H22 UNL     1      31.184 -18.477  35.862  1.00  0.00     0.274 HD
ATOM     17  H21 UNL     1      32.018 -17.114  36.376  1.00  0.00     0.274 HD
ENDBRANCH  13  14
ENDBRANCH   6  13
BRANCH   1  18
HETATM   18  C2  UNL     1      26.718 -14.418  38.233  1.00  0.00     0.042 C 
HETATM   19  C1  UNL     1      25.829 -15.627  38.377  1.00  0.00     0.009 C 
ENDBRANCH   1  18
TORSDOF 3
ENDMDL
MODEL 5
REMARK VINA RESULT: -4.277133888      6.040      7.816
REMARK  3 active torsions:
REMARK  status: ('A' for Active; 'I' for Inactive)
REMARK    1  A    between atoms: C2_2  and  C3_3 
REMARK    2  A    between atoms: C5_8  and  C6_9 
REMARK    3  A    between atoms: C6_9  and  N2_10 
ROOT
HETATM    1  C3  UNL     1      29.492 -16.645  37.099  1.00  0.00     0.186 C 
HETATM    2  N1  UNL     1      30.661 -17.208  36.527  1.00  0.00    -0.339 N 
ATOM      3  H1  UNL     1      30.836 -18.164  36.837  1.00  0.00     0.164 HD
HETATM    4  C4  UNL     1      31.639 -16.734  35.617  1.00  0.00     0.230 C 
HETATM    5  O1  UNL     1      32.215 -17.598  34.893  1.00  0.00    -0.273 OA
HETATM    6  C5  UNL     1      32.028 -15.307  35.461  1.00  0.00     0.146 C 
HETATM    7  C7  UNL     1      30.879 -14.442  35.209  1.00  0.00     0.037 C 
HETATM    8 BR1  UNL     1      31.206 -13.081  33.886  1.00  0.00    -0.052 Br
HETATM    9  C8  UNL     1      29.694 -14.461  35.740  1.00  0.00     0.093 C 
HETATM   10 BR2  UNL     1      28.515 -13.100  35.069  1.00  0.00    -0.030 Br
HETATM   11  N3  UNL     1      29.159 -15.324  36.725  1.00  0.00    -0.357 N 
HETATM   12  C9  UNL     1      28.069 -14.752  37.493  1.00  0.00     0.152 C 
ENDROOT
BRANCH   6  13
HETATM   13  C6  UNL     1      32.849 -14.872  36.654  1.00  0.00     0.249 C 
BRANCH  13  14
HETATM   14  N2  UNL     1      33.894 -15.789  36.996  1.00  0.00    -0.078 N 
ATOM     15  H23 UNL     1      33.755 -16.685  36.529  1.00  0.00     0.274 HD
ATOM     16  H22 UNL     1      34.776 -15.508  36.567  1.00  0.00     0.274 HD
ATOM     17  H21 UNL     1      34.009 -15.921  38.001  1.00  0.00     0.274 HD
ENDBRANCH  13  14
ENDBRANCH   6  13
BRANCH   1  18
HETATM   18  C2  UNL     1      28.339 -17.608  36.812  1.00  0.00     0.042 C 
HETATM   19  C1  UNL     1      28.067 -17.716  35.332  1.00  0.00     0.009 C 
ENDBRANCH   1  18
TORSDOF 3
ENDMDL
