MODEL 1
REMARK VINA RESULT: -6.510013532      0.000      0.000
REMARK  4 active torsions:
REMARK  status: ('A' for Active; 'I' for Inactive)
REMARK    1  A    between atoms: C2_2  and  C4_4 
REMARK       I    between atoms: N3_10  and  C6_12 
REMARK    2  A    between atoms: C6_12  and  C7_14 
REMARK    3  A    between atoms: C7_14  and  N4_15 
REMARK    4  A    between atoms: C7_14  and  C8_19 
ROOT
HETATM    1  C4  UNL     1      26.575 -14.828  42.523  1.00  0.00     0.071 A 
HETATM    2  N1  UNL     1      27.732 -15.167  41.900  1.00  0.00    -0.298 N 
ATOM      3  H1  UNL     1      28.611 -15.396  42.366  1.00  0.00     0.187 HD
HETATM    4  N2  UNL     1      27.536 -15.153  40.577  1.00  0.00    -0.284 N 
ATOM      5  H2  UNL     1      28.242 -15.366  39.872  1.00  0.00     0.188 HD
HETATM    6  C5  UNL     1      26.281 -14.819  40.330  1.00  0.00     0.142 A 
HETATM    7  N3  UNL     1      25.737 -14.640  39.141  1.00  0.00    -0.309 N 
ATOM      8  H3  UNL     1      24.756 -14.387  39.017  1.00  0.00     0.170 HD
HETATM    9  C6  UNL     1      26.630 -14.830  38.038  1.00  0.00     0.254 C 
HETATM   10  O1  UNL     1      27.472 -13.882  37.807  1.00  0.00    -0.271 OA
HETATM   11  C9  UNL     1      25.629 -14.601  41.525  1.00  0.00     0.084 A 
HETATM   12 BR2  UNL     1      23.810 -14.133  41.819  1.00  0.00    -0.044 Br
ENDROOT
BRANCH   9  13
HETATM   13  C7  UNL     1      26.673 -15.996  37.155  1.00  0.00     0.284 C 
BRANCH  13  14
HETATM   14  N4  UNL     1      27.901 -16.761  37.440  1.00  0.00    -0.066 N 
ATOM     15  H43 UNL     1      28.702 -16.158  37.625  1.00  0.00     0.275 HD
ATOM     16  H42 UNL     1      27.867 -17.231  38.345  1.00  0.00     0.275 HD
ATOM     17  H41 UNL     1      28.070 -17.409  36.670  1.00  0.00     0.275 HD
ENDBRANCH  13  14
BRANCH  13  18
HETATM   18  C8  UNL     1      26.845 -15.570  35.698  1.00  0.00     0.127 C 
HETATM   19 BR1  UNL     1      27.922 -16.816  34.721  1.00  0.00    -0.094 Br
ENDBRANCH  13  18
ENDBRANCH   9  13
BRANCH   1  20
HETATM   20  C2  UNL     1      26.453 -14.594  43.963  1.00  0.00    -0.058 C 
HETATM   21  C1  UNL     1      25.757 -15.637  44.744  1.00  0.00     0.045 C 
HETATM   22  C3  UNL     1      26.082 -13.194  44.311  1.00  0.00     0.045 C 
ENDBRANCH   1  20
TORSDOF 4
ENDMDL
MODEL 2
REMARK VINA RESULT: -6.161684654      2.043      2.461
REMARK  4 active torsions:
REMARK  status: ('A' for Active; 'I' for Inactive)
REMARK    1  A    between atoms: C2_2  and  C4_4 
REMARK       I    between atoms: N3_10  and  C6_12 
REMARK    2  A    between atoms: C6_12  and  C7_14 
REMARK    3  A    between atoms: C7_14  and  N4_15 
REMARK    4  A    between atoms: C7_14  and  C8_19 
ROOT
HETATM    1  C4  UNL     1      25.294 -14.181  42.779  1.00  0.00     0.071 A 
HETATM    2  N1  UNL     1      24.533 -13.879  41.696  1.00  0.00    -0.298 N 
ATOM      3  H1  UNL     1      23.615 -13.432  41.723  1.00  0.00     0.187 HD
HETATM    4  N2  UNL     1      25.178 -14.258  40.588  1.00  0.00    -0.284 N 
ATOM      5  H2  UNL     1      24.831 -14.153  39.635  1.00  0.00     0.188 HD
HETATM    6  C5  UNL     1      26.339 -14.794  40.927  1.00  0.00     0.142 A 
HETATM    7  N3  UNL     1      27.219 -15.340  40.108  1.00  0.00    -0.309 N 
ATOM      8  H3  UNL     1      28.102 -15.732  40.434  1.00  0.00     0.170 HD
HETATM    9  C6  UNL     1      26.837 -15.337  38.728  1.00  0.00     0.254 C 
HETATM   10  O1  UNL     1      25.953 -16.204  38.372  1.00  0.00    -0.271 OA
HETATM   11  C9  UNL     1      26.462 -14.771  42.300  1.00  0.00     0.084 A 
HETATM   12 BR2  UNL     1      27.916 -15.363  43.373  1.00  0.00    -0.044 Br
ENDROOT
BRANCH   9  13
HETATM   13  C7  UNL     1      27.357 -14.443  37.692  1.00  0.00     0.284 C 
BRANCH  13  14
HETATM   14  N4  UNL     1      26.779 -14.836  36.394  1.00  0.00    -0.066 N 
ATOM     15  H43 UNL     1      26.092 -14.163  36.053  1.00  0.00     0.275 HD
ATOM     16  H42 UNL     1      27.448 -14.755  35.628  1.00  0.00     0.275 HD
ATOM     17  H41 UNL     1      26.394 -15.777  36.478  1.00  0.00     0.275 HD
ENDBRANCH  13  14
BRANCH  13  18
HETATM   18  C8  UNL     1      28.857 -14.652  37.496  1.00  0.00     0.127 C 
HETATM   19 BR1  UNL     1      29.258 -16.453  36.985  1.00  0.00    -0.094 Br
ENDBRANCH  13  18
ENDBRANCH   9  13
BRANCH   1  20
HETATM   20  C2  UNL     1      24.844 -14.046  44.165  1.00  0.00    -0.058 C 
HETATM   21  C1  UNL     1      25.366 -12.886  44.918  1.00  0.00     0.045 C 
HETATM   22  C3  UNL     1      24.835 -15.332  44.917  1.00  0.00     0.045 C 
ENDBRANCH   1  20
TORSDOF 4
ENDMDL
MODEL 3
REMARK VINA RESULT: -5.489118493      2.099      6.473
REMARK  4 active torsions:
REMARK  status: ('A' for Active; 'I' for Inactive)
REMARK    1  A    between atoms: C2_2  and  C4_4 
REMARK       I    between atoms: N3_10  and  C6_12 
REMARK    2  A    between atoms: C6_12  and  C7_14 
REMARK    3  A    between atoms: C7_14  and  N4_15 
REMARK    4  A    between atoms: C7_14  and  C8_19 
ROOT
HETATM    1  C4  UNL     1      27.193 -14.755  37.465  1.00  0.00     0.071 A 
HETATM    2  N1  UNL     1      26.281 -13.988  38.116  1.00  0.00    -0.298 N 
ATOM      3  H1  UNL     1      25.646 -13.322  37.677  1.00  0.00     0.187 HD
HETATM    4  N2  UNL     1      26.350 -14.247  39.426  1.00  0.00    -0.284 N 
ATOM      5  H2  UNL     1      25.778 -13.807  40.147  1.00  0.00     0.188 HD
HETATM    6  C5  UNL     1      27.279 -15.164  39.638  1.00  0.00     0.142 A 
HETATM    7  N3  UNL     1      27.673 -15.624  40.810  1.00  0.00    -0.309 N 
ATOM      8  H3  UNL     1      28.395 -16.339  40.905  1.00  0.00     0.170 HD
HETATM    9  C6  UNL     1      27.011 -15.042  41.938  1.00  0.00     0.254 C 
HETATM   10  O1  UNL     1      27.375 -13.851  42.270  1.00  0.00    -0.271 OA
HETATM   11  C9  UNL     1      27.843 -15.519  38.431  1.00  0.00     0.084 A 
HETATM   12 BR2  UNL     1      29.198 -16.808  38.087  1.00  0.00    -0.044 Br
ENDROOT
BRANCH   9  13
HETATM   13  C7  UNL     1      25.962 -15.672  42.741  1.00  0.00     0.284 C 
BRANCH  13  14
HETATM   14  N4  UNL     1      24.678 -15.007  42.449  1.00  0.00    -0.066 N 
ATOM     15  H43 UNL     1      24.002 -15.637  42.018  1.00  0.00     0.275 HD
ATOM     16  H42 UNL     1      24.149 -14.792  43.295  1.00  0.00     0.275 HD
ATOM     17  H41 UNL     1      24.859 -14.180  41.881  1.00  0.00     0.275 HD
ENDBRANCH  13  14
BRANCH  13  18
HETATM   18  C8  UNL     1      26.178 -15.400  44.228  1.00  0.00     0.127 C 
HETATM   19 BR1  UNL     1      24.686 -14.482  45.002  1.00  0.00    -0.094 Br
ENDBRANCH  13  18
ENDBRANCH   9  13
BRANCH   1  20
HETATM   20  C2  UNL     1      27.505 -14.632  36.040  1.00  0.00    -0.058 C 
HETATM   21  C1  UNL     1      27.611 -13.258  35.504  1.00  0.00     0.045 C 
HETATM   22  C3  UNL     1      26.754 -15.587  35.179  1.00  0.00     0.045 C 
ENDBRANCH   1  20
TORSDOF 4
ENDMDL
MODEL 4
REMARK VINA RESULT: -5.403802303      4.928      6.841
REMARK  4 active torsions:
REMARK  status: ('A' for Active; 'I' for Inactive)
REMARK    1  A    between atoms: C2_2  and  C4_4 
REMARK       I    between atoms: N3_10  and  C6_12 
REMARK    2  A    between atoms: C6_12  and  C7_14 
REMARK    3  A    between atoms: C7_14  and  N4_15 
REMARK    4  A    between atoms: C7_14  and  C8_19 
ROOT
HETATM    1  C4  UNL     1      27.620 -14.274  36.891  1.00  0.00     0.071 A 
HETATM    2  N1  UNL     1      27.043 -13.070  37.139  1.00  0.00    -0.298 N 
ATOM      3  H1  UNL     1      26.425 -12.861  37.923  1.00  0.00     0.187 HD
HETATM    4  N2  UNL     1      27.417 -12.204  36.192  1.00  0.00    -0.284 N 
ATOM      5  H2  UNL     1      27.126 -11.228  36.135  1.00  0.00     0.188 HD
HETATM    6  C5  UNL     1      28.224 -12.815  35.341  1.00  0.00     0.142 A 
HETATM    7  N3  UNL     1      28.741 -12.298  34.242  1.00  0.00    -0.309 N 
ATOM      8  H3  UNL     1      29.364 -12.823  33.628  1.00  0.00     0.170 HD
HETATM    9  C6  UNL     1      28.361 -10.942  33.980  1.00  0.00     0.254 C 
HETATM   10  O1  UNL     1      27.172 -10.755  33.520  1.00  0.00    -0.271 OA
HETATM   11  C9  UNL     1      28.384 -14.126  35.735  1.00  0.00     0.084 A 
HETATM   12 BR2  UNL     1      29.449 -15.485  34.938  1.00  0.00    -0.044 Br
ENDROOT
BRANCH   9  13
HETATM   13  C7  UNL     1      29.196  -9.758  34.186  1.00  0.00     0.284 C 
BRANCH  13  14
HETATM   14  N4  UNL     1      28.574  -8.915  35.224  1.00  0.00    -0.066 N 
ATOM     15  H43 UNL     1      27.602  -9.169  35.402  1.00  0.00     0.275 HD
ATOM     16  H42 UNL     1      28.943  -9.108  36.155  1.00  0.00     0.275 HD
ATOM     17  H41 UNL     1      28.679  -7.936  34.957  1.00  0.00     0.275 HD
ENDBRANCH  13  14
BRANCH  13  18
HETATM   18  C8  UNL     1      29.190  -8.866  32.946  1.00  0.00     0.127 C 
HETATM   19 BR1  UNL     1      28.221  -7.242  33.251  1.00  0.00    -0.094 Br
ENDBRANCH  13  18
ENDBRANCH   9  13
BRANCH   1  20
HETATM   20  C2  UNL     1      27.319 -15.500  37.632  1.00  0.00    -0.058 C 
HETATM   21  C1  UNL     1      25.967 -15.601  38.221  1.00  0.00     0.045 C 
HETATM   22  C3  UNL     1      28.428 -15.947  38.521  1.00  0.00     0.045 C 
ENDBRANCH   1  20
TORSDOF 4
ENDMDL
MODEL 5
REMARK VINA RESULT: -5.379415262      4.923      6.750
REMARK  4 active torsions:
REMARK  status: ('A' for Active; 'I' for Inactive)
REMARK    1  A    between atoms: C2_2  and  C4_4 
REMARK       I    between atoms: N3_10  and  C6_12 
REMARK    2  A    between atoms: C6_12  and  C7_14 
REMARK    3  A    between atoms: C7_14  and  N4_15 
REMARK    4  A    between atoms: C7_14  and  C8_19 
ROOT
HETATM    1  C4  UNL     1      28.104 -14.302  37.177  1.00  0.00     0.071 A 
HETATM    2  N1  UNL     1      27.150 -13.358  36.967  1.00  0.00    -0.298 N 
ATOM      3  H1  UNL     1      26.239 -13.326  37.425  1.00  0.00     0.187 HD
HETATM    4  N2  UNL     1      27.597 -12.479  36.064  1.00  0.00    -0.284 N 
ATOM      5  H2  UNL     1      27.080 -11.670  35.720  1.00  0.00     0.188 HD
HETATM    6  C5  UNL     1      28.816 -12.827  35.689  1.00  0.00     0.142 A 
HETATM    7  N3  UNL     1      29.551 -12.235  34.766  1.00  0.00    -0.309 N 
ATOM      8  H3  UNL     1      30.492 -12.551  34.526  1.00  0.00     0.170 HD
HETATM    9  C6  UNL     1      28.927 -11.115  34.129  1.00  0.00     0.254 C 
HETATM   10  O1  UNL     1      28.022 -11.381  33.252  1.00  0.00    -0.271 OA
HETATM   11  C9  UNL     1      29.185 -13.973  36.361  1.00  0.00     0.084 A 
HETATM   12 BR2  UNL     1      30.827 -14.928  36.272  1.00  0.00    -0.044 Br
ENDROOT
BRANCH   9  13
HETATM   13  C7  UNL     1      29.223  -9.704  34.383  1.00  0.00     0.284 C 
BRANCH  13  14
HETATM   14  N4  UNL     1      28.153  -9.141  35.229  1.00  0.00    -0.066 N 
ATOM     15  H43 UNL     1      27.470  -9.843  35.513  1.00  0.00     0.275 HD
ATOM     16  H42 UNL     1      28.486  -8.885  36.159  1.00  0.00     0.275 HD
ATOM     17  H41 UNL     1      27.725  -8.357  34.737  1.00  0.00     0.275 HD
ENDBRANCH  13  14
BRANCH  13  18
HETATM   18  C8  UNL     1      29.130  -8.888  33.095  1.00  0.00     0.127 C 
HETATM   19 BR1  UNL     1      27.587  -7.754  33.089  1.00  0.00    -0.094 Br
ENDBRANCH  13  18
ENDBRANCH   9  13
BRANCH   1  20
HETATM   20  C2  UNL     1      27.908 -15.505  37.987  1.00  0.00    -0.058 C 
HETATM   21  C1  UNL     1      27.583 -16.747  37.255  1.00  0.00     0.045 C 
HETATM   22  C3  UNL     1      27.104 -15.271  39.219  1.00  0.00     0.045 C 
ENDBRANCH   1  20
TORSDOF 4
ENDMDL
