MODEL 1
REMARK VINA RESULT: -6.204518312      0.000      0.000
REMARK  5 active torsions:
REMARK  status: ('A' for Active; 'I' for Inactive)
REMARK    1  A    between atoms: C1_4  and  N2_5 
REMARK    2  A    between atoms: C1_4  and  O2_21 
REMARK       I    between atoms: C2_7  and  N4_9 
REMARK    3  A    between atoms: O2_21  and  C6_22 
REMARK    4  A    between atoms: C6_22  and  C7_23 
REMARK    5  A    between atoms: C6_22  and  C8_25 
ROOT
HETATM    1  N2  UNL     1      -3.052 -17.197  13.289  1.00  0.00    -0.296 N 
ATOM      2  H2  UNL     1      -3.253 -18.055  13.803  1.00  0.00     0.172 HD
HETATM    3  C2  UNL     1      -3.816 -16.172  13.412  1.00  0.00     0.209 C 
HETATM    4  N3  UNL     1      -3.533 -14.989  12.698  1.00  0.00    -0.062 NA
HETATM    5  N4  UNL     1      -4.927 -16.309  14.286  1.00  0.00    -0.163 N 
ATOM      6  H4  UNL     1      -5.812 -16.686  13.946  1.00  0.00     0.187 HD
HETATM    7  C3  UNL     1      -4.799 -15.954  15.503  1.00  0.00     0.685 C 
HETATM    8  N5  UNL     1      -3.577 -15.433  15.970  1.00  0.00    -0.210 N 
ATOM      9  H5  UNL     1      -2.874 -15.146  15.290  1.00  0.00     0.179 HD
HETATM   10  C4  UNL     1      -3.282 -15.292  17.381  1.00  0.00     0.266 C 
HETATM   11  N6  UNL     1      -4.505 -15.174  18.151  1.00  0.00    -0.326 N 
ATOM     12  H6  UNL     1      -4.466 -14.693  19.050  1.00  0.00     0.165 HD
HETATM   13  C5  UNL     1      -5.746 -15.689  17.724  1.00  0.00     0.335 C 
HETATM   14  O1  UNL     1      -6.751 -15.817  18.497  1.00  0.00    -0.246 OA
HETATM   15  N7  UNL     1      -5.902 -16.087  16.378  1.00  0.00    -0.141 N 
ATOM     16  H7  UNL     1      -6.791 -16.462  16.045  1.00  0.00     0.189 HD
ENDROOT
BRANCH   1  17
HETATM   17  C1  UNL     1      -1.922 -17.122  12.427  1.00  0.00     0.219 C 
HETATM   18  N1  UNL     1      -0.945 -16.353  12.718  1.00  0.00    -0.365 N 
ATOM     19  H12 UNL     1      -1.076 -15.840  13.591  1.00  0.00     0.159 HD
ATOM     20  H11 UNL     1      -0.135 -16.299  12.101  1.00  0.00     0.159 HD
BRANCH  17  21
HETATM   21  O2  UNL     1      -1.746 -17.807  11.262  1.00  0.00    -0.315 OA
BRANCH  21  22
HETATM   22  C6  UNL     1      -1.927 -17.284  10.000  1.00  0.00     0.151 C 
BRANCH  22  23
HETATM   23  C7  UNL     1      -3.303 -16.807   9.654  1.00  0.00     0.118 C 
HETATM   24 BR1  UNL     1      -3.470 -15.568   8.233  1.00  0.00    -0.094 Br
ENDBRANCH  22  23
BRANCH  22  25
HETATM   25  C8  UNL     1      -1.248 -18.023   8.881  1.00  0.00     0.118 C 
HETATM   26 BR2  UNL     1      -2.281 -19.626   8.447  1.00  0.00    -0.094 Br
ENDBRANCH  22  25
ENDBRANCH  21  22
ENDBRANCH  17  21
ENDBRANCH   1  17
TORSDOF 5
ENDMDL
MODEL 2
REMARK VINA RESULT: -5.920804378      2.919      3.537
REMARK  5 active torsions:
REMARK  status: ('A' for Active; 'I' for Inactive)
REMARK    1  A    between atoms: C1_4  and  N2_5 
REMARK    2  A    between atoms: C1_4  and  O2_21 
REMARK       I    between atoms: C2_7  and  N4_9 
REMARK    3  A    between atoms: O2_21  and  C6_22 
REMARK    4  A    between atoms: C6_22  and  C7_23 
REMARK    5  A    between atoms: C6_22  and  C8_25 
ROOT
HETATM    1  N2  UNL     1      -1.904 -15.328  11.749  1.00  0.00    -0.296 N 
ATOM      2  H2  UNL     1      -1.675 -14.475  12.260  1.00  0.00     0.172 HD
HETATM    3  C2  UNL     1      -2.261 -16.387  12.380  1.00  0.00     0.209 C 
HETATM    4  N3  UNL     1      -2.577 -17.563  11.668  1.00  0.00    -0.062 NA
HETATM    5  N4  UNL     1      -2.314 -16.295  13.797  1.00  0.00    -0.163 N 
ATOM      6  H4  UNL     1      -1.482 -16.474  14.359  1.00  0.00     0.187 HD
HETATM    7  C3  UNL     1      -3.418 -15.985  14.352  1.00  0.00     0.685 C 
HETATM    8  N5  UNL     1      -4.565 -15.739  13.573  1.00  0.00    -0.210 N 
ATOM      9  H5  UNL     1      -4.561 -16.017  12.592  1.00  0.00     0.179 HD
HETATM   10  C4  UNL     1      -5.749 -15.106  14.115  1.00  0.00     0.266 C 
HETATM   11  N6  UNL     1      -5.830 -15.309  15.548  1.00  0.00    -0.326 N 
ATOM     12  H6  UNL     1      -6.749 -15.277  15.989  1.00  0.00     0.165 HD
HETATM   13  C5  UNL     1      -4.706 -15.548  16.364  1.00  0.00     0.335 C 
HETATM   14  O1  UNL     1      -4.738 -15.470  17.636  1.00  0.00    -0.246 OA
HETATM   15  N7  UNL     1      -3.476 -15.893  15.763  1.00  0.00    -0.141 N 
ATOM     16  H7  UNL     1      -2.649 -16.071  16.332  1.00  0.00     0.189 HD
ENDROOT
BRANCH   1  17
HETATM   17  C1  UNL     1      -1.833 -15.356  10.328  1.00  0.00     0.219 C 
HETATM   18  N1  UNL     1      -2.838 -14.993   9.629  1.00  0.00    -0.365 N 
ATOM     19  H12 UNL     1      -3.639 -14.699  10.189  1.00  0.00     0.159 HD
ATOM     20  H11 UNL     1      -2.787 -15.014   8.610  1.00  0.00     0.159 HD
BRANCH  17  21
HETATM   21  O2  UNL     1      -0.764 -15.748   9.579  1.00  0.00    -0.315 OA
BRANCH  21  22
HETATM   22  C6  UNL     1       0.557 -15.614   9.952  1.00  0.00     0.151 C 
BRANCH  22  23
HETATM   23  C7  UNL     1       1.489 -15.025   8.939  1.00  0.00     0.118 C 
HETATM   24 BR1  UNL     1       2.625 -16.212   8.000  1.00  0.00    -0.094 Br
ENDBRANCH  22  23
BRANCH  22  25
HETATM   25  C8  UNL     1       1.144 -16.771  10.709  1.00  0.00     0.118 C 
HETATM   26 BR2  UNL     1       2.432 -16.098  12.019  1.00  0.00    -0.094 Br
ENDBRANCH  22  25
ENDBRANCH  21  22
ENDBRANCH  17  21
ENDBRANCH   1  17
TORSDOF 5
ENDMDL
MODEL 3
REMARK VINA RESULT: -5.885429452      2.255      2.606
REMARK  5 active torsions:
REMARK  status: ('A' for Active; 'I' for Inactive)
REMARK    1  A    between atoms: C1_4  and  N2_5 
REMARK    2  A    between atoms: C1_4  and  O2_21 
REMARK       I    between atoms: C2_7  and  N4_9 
REMARK    3  A    between atoms: O2_21  and  C6_22 
REMARK    4  A    between atoms: C6_22  and  C7_23 
REMARK    5  A    between atoms: C6_22  and  C8_25 
ROOT
HETATM    1  N2  UNL     1      -3.132 -17.458  12.994  1.00  0.00    -0.296 N 
ATOM      2  H2  UNL     1      -3.456 -18.284  13.498  1.00  0.00     0.172 HD
HETATM    3  C2  UNL     1      -3.760 -16.344  13.102  1.00  0.00     0.209 C 
HETATM    4  N3  UNL     1      -3.307 -15.206  12.403  1.00  0.00    -0.062 NA
HETATM    5  N4  UNL     1      -4.904 -16.338  13.945  1.00  0.00    -0.163 N 
ATOM      6  H4  UNL     1      -5.819 -16.597  13.578  1.00  0.00     0.187 HD
HETATM    7  C3  UNL     1      -4.765 -16.005  15.167  1.00  0.00     0.685 C 
HETATM    8  N5  UNL     1      -3.499 -15.648  15.670  1.00  0.00    -0.210 N 
ATOM      9  H5  UNL     1      -2.746 -15.452  15.011  1.00  0.00     0.179 HD
HETATM   10  C4  UNL     1      -3.229 -15.548  17.089  1.00  0.00     0.266 C 
HETATM   11  N6  UNL     1      -4.448 -15.275  17.826  1.00  0.00    -0.326 N 
ATOM     12  H6  UNL     1      -4.372 -14.806  18.728  1.00  0.00     0.165 HD
HETATM   13  C5  UNL     1      -5.732 -15.625  17.362  1.00  0.00     0.335 C 
HETATM   14  O1  UNL     1      -6.766 -15.625  18.106  1.00  0.00    -0.246 OA
HETATM   15  N7  UNL     1      -5.901 -15.997  16.010  1.00  0.00    -0.141 N 
ATOM     16  H7  UNL     1      -6.820 -16.254  15.651  1.00  0.00     0.189 HD
ENDROOT
BRANCH   1  17
HETATM   17  C1  UNL     1      -1.977 -17.528  12.164  1.00  0.00     0.219 C 
HETATM   18  N1  UNL     1      -1.975 -18.280  11.132  1.00  0.00    -0.365 N 
ATOM     19  H12 UNL     1      -2.851 -18.784  10.994  1.00  0.00     0.159 HD
ATOM     20  H11 UNL     1      -1.148 -18.330  10.538  1.00  0.00     0.159 HD
BRANCH  17  21
HETATM   21  O2  UNL     1      -0.807 -16.854  12.349  1.00  0.00    -0.315 OA
BRANCH  21  22
HETATM   22  C6  UNL     1       0.108 -16.569  11.359  1.00  0.00     0.151 C 
BRANCH  22  23
HETATM   23  C7  UNL     1       1.533 -16.945  11.624  1.00  0.00     0.118 C 
HETATM   24 BR1  UNL     1       2.813 -15.552  11.663  1.00  0.00    -0.094 Br
ENDBRANCH  22  23
BRANCH  22  25
HETATM   25  C8  UNL     1      -0.046 -15.232  10.689  1.00  0.00     0.118 C 
HETATM   26 BR2  UNL     1      -0.878 -15.480   8.937  1.00  0.00    -0.094 Br
ENDBRANCH  22  25
ENDBRANCH  21  22
ENDBRANCH  17  21
ENDBRANCH   1  17
TORSDOF 5
ENDMDL
MODEL 4
REMARK VINA RESULT: -5.868229294      2.631      3.342
REMARK  5 active torsions:
REMARK  status: ('A' for Active; 'I' for Inactive)
REMARK    1  A    between atoms: C1_4  and  N2_5 
REMARK    2  A    between atoms: C1_4  and  O2_21 
REMARK       I    between atoms: C2_7  and  N4_9 
REMARK    3  A    between atoms: O2_21  and  C6_22 
REMARK    4  A    between atoms: C6_22  and  C7_23 
REMARK    5  A    between atoms: C6_22  and  C8_25 
ROOT
HETATM    1  N2  UNL     1      -1.770 -15.084  11.646  1.00  0.00    -0.296 N 
ATOM      2  H2  UNL     1      -1.548 -14.279  12.231  1.00  0.00     0.172 HD
HETATM    3  C2  UNL     1      -2.135 -16.193  12.180  1.00  0.00     0.209 C 
HETATM    4  N3  UNL     1      -2.440 -17.304  11.366  1.00  0.00    -0.062 NA
HETATM    5  N4  UNL     1      -2.207 -16.222  13.598  1.00  0.00    -0.163 N 
ATOM      6  H4  UNL     1      -1.384 -16.449  14.155  1.00  0.00     0.187 HD
HETATM    7  C3  UNL     1      -3.319 -15.960  14.162  1.00  0.00     0.685 C 
HETATM    8  N5  UNL     1      -4.455 -15.647  13.391  1.00  0.00    -0.210 N 
ATOM      9  H5  UNL     1      -4.438 -15.841  12.390  1.00  0.00     0.179 HD
HETATM   10  C4  UNL     1      -5.648 -15.062  13.968  1.00  0.00     0.266 C 
HETATM   11  N6  UNL     1      -5.749 -15.386  15.378  1.00  0.00    -0.326 N 
ATOM     12  H6  UNL     1      -6.674 -15.391  15.807  1.00  0.00     0.165 HD
HETATM   13  C5  UNL     1      -4.636 -15.695  16.186  1.00  0.00     0.335 C 
HETATM   14  O1  UNL     1      -4.686 -15.725  17.459  1.00  0.00    -0.246 OA
HETATM   15  N7  UNL     1      -3.397 -15.988  15.575  1.00  0.00    -0.141 N 
ATOM     16  H7  UNL     1      -2.578 -16.214  16.138  1.00  0.00     0.189 HD
ENDROOT
BRANCH   1  17
HETATM   17  C1  UNL     1      -1.679 -14.992  10.228  1.00  0.00     0.219 C 
HETATM   18  N1  UNL     1      -2.740 -14.909   9.522  1.00  0.00    -0.365 N 
ATOM     19  H12 UNL     1      -3.598 -14.915  10.075  1.00  0.00     0.159 HD
ATOM     20  H11 UNL     1      -2.675 -14.843   8.507  1.00  0.00     0.159 HD
BRANCH  17  21
HETATM   21  O2  UNL     1      -0.533 -14.983   9.491  1.00  0.00    -0.315 OA
BRANCH  21  22
HETATM   22  C6  UNL     1       0.477 -15.916   9.584  1.00  0.00     0.151 C 
BRANCH  22  23
HETATM   23  C7  UNL     1       1.737 -15.485  10.269  1.00  0.00     0.118 C 
HETATM   24 BR1  UNL     1       2.094 -16.209  11.981  1.00  0.00    -0.094 Br
ENDBRANCH  22  23
BRANCH  22  25
HETATM   25  C8  UNL     1       0.716 -16.748   8.355  1.00  0.00     0.118 C 
HETATM   26 BR2  UNL     1      -0.682 -18.110   8.216  1.00  0.00    -0.094 Br
ENDBRANCH  22  25
ENDBRANCH  21  22
ENDBRANCH  17  21
ENDBRANCH   1  17
TORSDOF 5
ENDMDL
MODEL 5
REMARK VINA RESULT: -5.864507542      2.193      2.636
REMARK  5 active torsions:
REMARK  status: ('A' for Active; 'I' for Inactive)
REMARK    1  A    between atoms: C1_4  and  N2_5 
REMARK    2  A    between atoms: C1_4  and  O2_21 
REMARK       I    between atoms: C2_7  and  N4_9 
REMARK    3  A    between atoms: O2_21  and  C6_22 
REMARK    4  A    between atoms: C6_22  and  C7_23 
REMARK    5  A    between atoms: C6_22  and  C8_25 
ROOT
HETATM    1  N2  UNL     1      -3.767 -16.659  13.746  1.00  0.00    -0.296 N 
ATOM      2  H2  UNL     1      -3.475 -17.524  14.201  1.00  0.00     0.172 HD
HETATM    3  C2  UNL     1      -4.725 -15.959  14.235  1.00  0.00     0.209 C 
HETATM    4  N3  UNL     1      -5.125 -14.764  13.601  1.00  0.00    -0.062 NA
HETATM    5  N4  UNL     1      -5.334 -16.455  15.419  1.00  0.00    -0.163 N 
ATOM      6  H4  UNL     1      -6.106 -17.120  15.366  1.00  0.00     0.187 HD
HETATM    7  C3  UNL     1      -4.899 -16.055  16.548  1.00  0.00     0.685 C 
HETATM    8  N5  UNL     1      -3.834 -15.137  16.618  1.00  0.00    -0.210 N 
ATOM      9  H5  UNL     1      -3.561 -14.637  15.773  1.00  0.00     0.179 HD
HETATM   10  C4  UNL     1      -3.114 -14.876  17.847  1.00  0.00     0.266 C 
HETATM   11  N6  UNL     1      -3.942 -15.174  19.000  1.00  0.00    -0.326 N 
ATOM     12  H6  UNL     1      -3.741 -14.693  19.877  1.00  0.00     0.165 HD
HETATM   13  C5  UNL     1      -5.010 -16.093  18.974  1.00  0.00     0.335 C 
HETATM   14  O1  UNL     1      -5.566 -16.547  20.027  1.00  0.00    -0.246 OA
HETATM   15  N7  UNL     1      -5.502 -16.546  17.730  1.00  0.00    -0.141 N 
ATOM     16  H7  UNL     1      -6.275 -17.210  17.685  1.00  0.00     0.189 HD
ENDROOT
BRANCH   1  17
HETATM   17  C1  UNL     1      -3.116 -16.214  12.560  1.00  0.00     0.219 C 
HETATM   18  N1  UNL     1      -3.747 -16.202  11.449  1.00  0.00    -0.365 N 
ATOM     19  H12 UNL     1      -4.710 -16.530  11.525  1.00  0.00     0.159 HD
ATOM     20  H11 UNL     1      -3.280 -15.884  10.600  1.00  0.00     0.159 HD
BRANCH  17  21
HETATM   21  O2  UNL     1      -1.830 -15.777  12.460  1.00  0.00    -0.315 OA
BRANCH  21  22
HETATM   22  C6  UNL     1      -1.007 -15.975  11.372  1.00  0.00     0.151 C 
BRANCH  22  23
HETATM   23  C7  UNL     1       0.187 -16.854  11.576  1.00  0.00     0.118 C 
HETATM   24 BR1  UNL     1       1.891 -16.030  11.570  1.00  0.00    -0.094 Br
ENDBRANCH  22  23
BRANCH  22  25
HETATM   25  C8  UNL     1      -0.723 -14.759  10.536  1.00  0.00     0.118 C 
HETATM   26 BR2  UNL     1      -1.073 -15.172   8.656  1.00  0.00    -0.094 Br
ENDBRANCH  22  25
ENDBRANCH  21  22
ENDBRANCH  17  21
ENDBRANCH   1  17
TORSDOF 5
ENDMDL
