MODEL 1
REMARK VINA RESULT: -6.268510270      0.000      0.000
REMARK  5 active torsions:
REMARK  status: ('A' for Active; 'I' for Inactive)
REMARK    1  A    between atoms: N1_4  and  C4_5 
REMARK    2  A    between atoms: C4_5  and  N2_7 
REMARK    3  A    between atoms: N2_7  and  C5_9 
REMARK    4  A    between atoms: C5_9  and  C6_10 
REMARK    5  A    between atoms: C6_10  and  C7_11 
ROOT
HETATM    1  C1  UNL     1      -3.467 -18.073   8.177  1.00  0.00     0.012 C 
HETATM    2  C2  UNL     1      -3.588 -16.669   8.792  1.00  0.00     0.016 C 
HETATM    3  C3  UNL     1      -3.535 -15.656   7.739  1.00  0.00     0.131 C 
HETATM    4  N1  UNL     1      -2.446 -14.737   7.768  1.00  0.00    -0.349 N 
HETATM    5  C8  UNL     1      -1.778 -14.503   9.013  1.00  0.00     0.136 C 
HETATM    6  C9  UNL     1      -2.715 -13.903  10.054  1.00  0.00     0.260 C 
HETATM    7  N3  UNL     1      -2.713 -14.664  11.289  1.00  0.00    -0.067 N 
ATOM      8  H31 UNL     1      -3.218 -14.178  12.031  1.00  0.00     0.277 HD
ATOM      9  H32 UNL     1      -1.788 -14.683  11.718  1.00  0.00     0.277 HD
HETATM   10  C10 UNL     1      -3.230 -15.996  11.077  1.00  0.00     0.209 C 
HETATM   11  C11 UNL     1      -2.969 -16.955  12.172  1.00  0.00     0.058 C 
HETATM   12  C12 UNL     1      -2.376 -18.159  11.576  1.00  0.00    -0.021 C 
HETATM   13  C13 UNL     1      -2.148 -17.977  10.317  1.00  0.00    -0.016 C 
HETATM   14  C14 UNL     1      -2.562 -16.616   9.901  1.00  0.00     0.034 C 
HETATM   15  C15 UNL     1      -1.336 -15.915   9.433  1.00  0.00     0.140 C 
HETATM   16  N4  UNL     1      -0.242 -15.875  10.342  1.00  0.00    -0.215 N 
HETATM   17  C16 UNL     1       0.935 -15.352   9.649  1.00  0.00     0.169 C 
HETATM   18  C17 UNL     1       0.114 -16.156  11.684  1.00  0.00     0.669 C 
HETATM   19  N5  UNL     1       1.366 -16.121  11.946  1.00  0.00    -0.235 N 
ATOM     20  H51 UNL     1       1.622 -16.323  12.912  1.00  0.00     0.174 HD
ATOM     21  H52 UNL     1       1.917 -15.889  11.119  1.00  0.00     0.174 HD
HETATM   22  N6  UNL     1      -0.650 -16.477  12.829  1.00  0.00    -0.226 N 
ATOM     23  H6  UNL     1      -0.099 -16.910  13.570  1.00  0.00     0.177 HD
HETATM   24  C18 UNL     1      -2.041 -16.323  13.173  1.00  0.00     0.148 C 
ENDROOT
BRANCH   4  25
HETATM   25  C4  UNL     1      -2.038 -14.074   6.600  1.00  0.00     0.170 C 
HETATM   26  S1  UNL     1      -0.720 -14.686   5.776  1.00  0.00    -0.041 SA
BRANCH  25  27
HETATM   27  N2  UNL     1      -2.617 -12.928   6.041  1.00  0.00    -0.367 N 
ATOM     28  H2  UNL     1      -3.027 -13.001   5.110  1.00  0.00     0.161 HD
BRANCH  27  29
HETATM   29  C5  UNL     1      -2.666 -11.663   6.701  1.00  0.00     0.127 C 
BRANCH  29  30
HETATM   30  C6  UNL     1      -3.876 -11.415   7.544  1.00  0.00     0.090 C 
BRANCH  30  31
HETATM   31  C7  UNL     1      -3.577 -10.519   8.730  1.00  0.00     0.354 C 
HETATM   32  F1  UNL     1      -2.280 -10.649   9.154  1.00  0.00    -0.214 F 
HETATM   33  F2  UNL     1      -4.455 -10.852   9.737  1.00  0.00    -0.214 F 
ENDBRANCH  30  31
ENDBRANCH  29  30
ENDBRANCH  27  29
ENDBRANCH  25  27
ENDBRANCH   4  25
TORSDOF 5
ENDMDL
MODEL 2
REMARK VINA RESULT: -5.951063801      3.366      5.710
REMARK  5 active torsions:
REMARK  status: ('A' for Active; 'I' for Inactive)
REMARK    1  A    between atoms: N1_4  and  C4_5 
REMARK    2  A    between atoms: C4_5  and  N2_7 
REMARK    3  A    between atoms: N2_7  and  C5_9 
REMARK    4  A    between atoms: C5_9  and  C6_10 
REMARK    5  A    between atoms: C6_10  and  C7_11 
ROOT
HETATM    1  C1  UNL     1      -2.408 -13.152   8.669  1.00  0.00     0.012 C 
HETATM    2  C2  UNL     1      -2.120 -14.640   8.415  1.00  0.00     0.016 C 
HETATM    3  C3  UNL     1      -2.862 -15.463   9.368  1.00  0.00     0.131 C 
HETATM    4  N1  UNL     1      -2.106 -16.261  10.274  1.00  0.00    -0.349 N 
HETATM    5  C8  UNL     1      -0.766 -16.621   9.918  1.00  0.00     0.136 C 
HETATM    6  C9  UNL     1      -0.725 -17.470   8.653  1.00  0.00     0.260 C 
HETATM    7  N3  UNL     1       0.174 -16.918   7.657  1.00  0.00    -0.067 N 
ATOM      8  H31 UNL     1       0.316 -17.563   6.880  1.00  0.00     0.277 HD
ATOM      9  H32 UNL     1       1.133 -16.874   8.000  1.00  0.00     0.277 HD
HETATM   10  C10 UNL     1      -0.288 -15.628   7.201  1.00  0.00     0.209 C 
HETATM   11  C11 UNL     1       0.705 -14.832   6.447  1.00  0.00     0.058 C 
HETATM   12  C12 UNL     1       0.757 -13.496   7.052  1.00  0.00    -0.021 C 
HETATM   13  C13 UNL     1       0.028 -13.453   8.119  1.00  0.00    -0.016 C 
HETATM   14  C14 UNL     1      -0.613 -14.765   8.369  1.00  0.00     0.034 C 
HETATM   15  C15 UNL     1      -0.100 -15.256   9.675  1.00  0.00     0.140 C 
HETATM   16  N4  UNL     1       1.315 -15.330   9.813  1.00  0.00    -0.215 N 
HETATM   17  C16 UNL     1       1.644 -15.616  11.209  1.00  0.00     0.169 C 
HETATM   18  C17 UNL     1       2.522 -15.230   9.078  1.00  0.00     0.669 C 
HETATM   19  N5  UNL     1       3.594 -15.182   9.774  1.00  0.00    -0.235 N 
ATOM     20  H51 UNL     1       4.463 -15.110   9.244  1.00  0.00     0.174 HD
ATOM     21  H52 UNL     1       3.396 -15.222  10.774  1.00  0.00     0.174 HD
HETATM   22  N6  UNL     1       2.796 -15.174   7.693  1.00  0.00    -0.226 N 
ATOM     23  H6  UNL     1       3.726 -14.811   7.483  1.00  0.00     0.177 HD
HETATM   24  C18 UNL     1       2.042 -15.519   6.514  1.00  0.00     0.148 C 
ENDROOT
BRANCH   4  25
HETATM   25  C4  UNL     1      -2.663 -16.686  11.490  1.00  0.00     0.170 C 
HETATM   26  S1  UNL     1      -2.091 -18.109  12.155  1.00  0.00    -0.041 SA
BRANCH  25  27
HETATM   27  N2  UNL     1      -3.672 -16.045  12.219  1.00  0.00    -0.367 N 
ATOM     28  H2  UNL     1      -4.382 -15.527  11.702  1.00  0.00     0.161 HD
BRANCH  27  29
HETATM   29  C5  UNL     1      -3.764 -16.077  13.643  1.00  0.00     0.127 C 
BRANCH  29  30
HETATM   30  C6  UNL     1      -5.113 -15.783  14.216  1.00  0.00     0.090 C 
BRANCH  30  31
HETATM   31  C7  UNL     1      -5.078 -15.633  15.724  1.00  0.00     0.354 C 
HETATM   32  F1  UNL     1      -5.876 -14.605  16.154  1.00  0.00    -0.214 F 
HETATM   33  F2  UNL     1      -3.768 -15.420  16.091  1.00  0.00    -0.214 F 
ENDBRANCH  30  31
ENDBRANCH  29  30
ENDBRANCH  27  29
ENDBRANCH  25  27
ENDBRANCH   4  25
TORSDOF 5
ENDMDL
MODEL 3
REMARK VINA RESULT: -5.933195931      2.587      5.895
REMARK  5 active torsions:
REMARK  status: ('A' for Active; 'I' for Inactive)
REMARK    1  A    between atoms: N1_4  and  C4_5 
REMARK    2  A    between atoms: C4_5  and  N2_7 
REMARK    3  A    between atoms: N2_7  and  C5_9 
REMARK    4  A    between atoms: C5_9  and  C6_10 
REMARK    5  A    between atoms: C6_10  and  C7_11 
ROOT
HETATM    1  C1  UNL     1      -4.589 -17.073   8.389  1.00  0.00     0.012 C 
HETATM    2  C2  UNL     1      -3.253 -16.562   7.825  1.00  0.00     0.016 C 
HETATM    3  C3  UNL     1      -2.196 -16.720   8.822  1.00  0.00     0.131 C 
HETATM    4  N1  UNL     1      -1.566 -15.535   9.303  1.00  0.00    -0.349 N 
HETATM    5  C8  UNL     1      -1.603 -14.359   8.488  1.00  0.00     0.136 C 
HETATM    6  C9  UNL     1      -0.888 -14.569   7.158  1.00  0.00     0.260 C 
HETATM    7  N3  UNL     1      -1.729 -14.222   6.029  1.00  0.00    -0.067 N 
ATOM      8  H31 UNL     1      -1.203 -14.216   5.155  1.00  0.00     0.277 HD
ATOM      9  H32 UNL     1      -2.003 -13.240   6.051  1.00  0.00     0.277 HD
HETATM   10  C10 UNL     1      -2.879 -15.093   5.952  1.00  0.00     0.209 C 
HETATM   11  C11 UNL     1      -3.962 -14.632   5.057  1.00  0.00     0.058 C 
HETATM   12  C12 UNL     1      -5.217 -14.677   5.817  1.00  0.00    -0.021 C 
HETATM   13  C13 UNL     1      -4.988 -14.980   7.052  1.00  0.00    -0.016 C 
HETATM   14  C14 UNL     1      -3.538 -15.179   7.284  1.00  0.00     0.034 C 
HETATM   15  C15 UNL     1      -3.110 -14.146   8.264  1.00  0.00     0.140 C 
HETATM   16  N4  UNL     1      -3.406 -12.794   7.932  1.00  0.00    -0.215 N 
HETATM   17  C16 UNL     1      -3.120 -11.945   9.088  1.00  0.00     0.169 C 
HETATM   18  C17 UNL     1      -3.876 -11.974   6.877  1.00  0.00     0.669 C 
HETATM   19  N5  UNL     1      -4.159 -10.768   7.194  1.00  0.00    -0.235 N 
ATOM     20  H51 UNL     1      -4.498 -10.178   6.435  1.00  0.00     0.174 HD
ATOM     21  H52 UNL     1      -3.996 -10.591   8.186  1.00  0.00     0.174 HD
HETATM   22  N6  UNL     1      -4.103 -12.219   5.503  1.00  0.00    -0.226 N 
ATOM     23  H6  UNL     1      -4.714 -11.528   5.069  1.00  0.00     0.177 HD
HETATM   24  C18 UNL     1      -3.653 -13.236   4.586  1.00  0.00     0.148 C 
ENDROOT
BRANCH   4  25
HETATM   25  C4  UNL     1      -0.922 -15.523  10.551  1.00  0.00     0.170 C 
HETATM   26  S1  UNL     1       0.670 -16.028  10.611  1.00  0.00    -0.041 SA
BRANCH  25  27
HETATM   27  N2  UNL     1      -1.478 -15.139  11.777  1.00  0.00    -0.367 N 
ATOM     28  H2  UNL     1      -1.376 -14.167  12.067  1.00  0.00     0.161 HD
BRANCH  27  29
HETATM   29  C5  UNL     1      -2.179 -16.031  12.644  1.00  0.00     0.127 C 
BRANCH  29  30
HETATM   30  C6  UNL     1      -3.654 -16.132  12.420  1.00  0.00     0.090 C 
BRANCH  30  31
HETATM   31  C7  UNL     1      -4.439 -16.037  13.713  1.00  0.00     0.354 C 
HETATM   32  F1  UNL     1      -5.416 -15.078  13.649  1.00  0.00    -0.214 F 
HETATM   33  F2  UNL     1      -3.547 -15.758  14.724  1.00  0.00    -0.214 F 
ENDBRANCH  30  31
ENDBRANCH  29  30
ENDBRANCH  27  29
ENDBRANCH  25  27
ENDBRANCH   4  25
TORSDOF 5
ENDMDL
MODEL 4
REMARK VINA RESULT: -5.906496199      3.930      5.730
REMARK  5 active torsions:
REMARK  status: ('A' for Active; 'I' for Inactive)
REMARK    1  A    between atoms: N1_4  and  C4_5 
REMARK    2  A    between atoms: C4_5  and  N2_7 
REMARK    3  A    between atoms: N2_7  and  C5_9 
REMARK    4  A    between atoms: C5_9  and  C6_10 
REMARK    5  A    between atoms: C6_10  and  C7_11 
ROOT
HETATM    1  C1  UNL     1      -1.440 -14.258   7.054  1.00  0.00     0.012 C 
HETATM    2  C2  UNL     1      -1.455 -15.771   7.329  1.00  0.00     0.016 C 
HETATM    3  C3  UNL     1      -2.699 -16.358   6.835  1.00  0.00     0.131 C 
HETATM    4  N1  UNL     1      -3.570 -16.952   7.794  1.00  0.00    -0.349 N 
HETATM    5  C8  UNL     1      -3.019 -17.400   9.037  1.00  0.00     0.136 C 
HETATM    6  C9  UNL     1      -1.987 -18.502   8.835  1.00  0.00     0.260 C 
HETATM    7  N3  UNL     1      -0.726 -18.192   9.482  1.00  0.00    -0.067 N 
ATOM      8  H31 UNL     1      -0.093 -18.992   9.476  1.00  0.00     0.277 HD
ATOM      9  H32 UNL     1      -0.836 -18.089  10.490  1.00  0.00     0.277 HD
HETATM   10  C10 UNL     1      -0.115 -17.024   8.891  1.00  0.00     0.209 C 
HETATM   11  C11 UNL     1       0.988 -16.425   9.674  1.00  0.00     0.058 C 
HETATM   12  C12 UNL     1       0.708 -14.990   9.810  1.00  0.00    -0.021 C 
HETATM   13  C13 UNL     1      -0.455 -14.707   9.325  1.00  0.00    -0.016 C 
HETATM   14  C14 UNL     1      -1.113 -15.924   8.795  1.00  0.00     0.034 C 
HETATM   15  C15 UNL     1      -2.352 -16.129   9.592  1.00  0.00     0.140 C 
HETATM   16  N4  UNL     1      -2.194 -16.193  11.005  1.00  0.00    -0.215 N 
HETATM   17  C16 UNL     1      -3.514 -16.175  11.634  1.00  0.00     0.169 C 
HETATM   18  C17 UNL     1      -1.212 -16.272  12.023  1.00  0.00     0.669 C 
HETATM   19  N5  UNL     1      -1.633 -16.090  13.217  1.00  0.00    -0.235 N 
ATOM     20  H51 UNL     1      -0.927 -16.147  13.949  1.00  0.00     0.174 HD
ATOM     21  H52 UNL     1      -2.638 -15.910  13.238  1.00  0.00     0.174 HD
HETATM   22  N6  UNL     1       0.179 -16.519  11.993  1.00  0.00    -0.226 N 
ATOM     23  H6  UNL     1       0.657 -16.224  12.844  1.00  0.00     0.177 HD
HETATM   24  C18 UNL     1       1.065 -17.101  11.016  1.00  0.00     0.148 C 
ENDROOT
BRANCH   4  25
HETATM   25  C4  UNL     1      -4.940 -17.096   7.523  1.00  0.00     0.170 C 
HETATM   26  S1  UNL     1      -5.736 -15.805   6.822  1.00  0.00    -0.041 SA
BRANCH  25  27
HETATM   27  N2  UNL     1      -5.733 -18.219   7.790  1.00  0.00    -0.367 N 
ATOM     28  H2  UNL     1      -6.281 -18.226   8.650  1.00  0.00     0.161 HD
BRANCH  27  29
HETATM   29  C5  UNL     1      -5.818 -19.352   6.926  1.00  0.00     0.127 C 
BRANCH  29  30
HETATM   30  C6  UNL     1      -4.762 -20.394   7.113  1.00  0.00     0.090 C 
BRANCH  30  31
HETATM   31  C7  UNL     1      -5.288 -21.795   6.870  1.00  0.00     0.354 C 
HETATM   32  F1  UNL     1      -6.630 -21.796   6.594  1.00  0.00    -0.214 F 
HETATM   33  F2  UNL     1      -5.021 -22.542   7.996  1.00  0.00    -0.214 F 
ENDBRANCH  30  31
ENDBRANCH  29  30
ENDBRANCH  27  29
ENDBRANCH  25  27
ENDBRANCH   4  25
TORSDOF 5
ENDMDL
MODEL 5
REMARK VINA RESULT: -5.905744803      1.808      1.962
REMARK  5 active torsions:
REMARK  status: ('A' for Active; 'I' for Inactive)
REMARK    1  A    between atoms: N1_4  and  C4_5 
REMARK    2  A    between atoms: C4_5  and  N2_7 
REMARK    3  A    between atoms: N2_7  and  C5_9 
REMARK    4  A    between atoms: C5_9  and  C6_10 
REMARK    5  A    between atoms: C6_10  and  C7_11 
ROOT
HETATM    1  C1  UNL     1      -3.145 -18.650   8.180  1.00  0.00     0.012 C 
HETATM    2  C2  UNL     1      -3.328 -17.169   8.549  1.00  0.00     0.016 C 
HETATM    3  C3  UNL     1      -3.195 -16.335   7.356  1.00  0.00     0.131 C 
HETATM    4  N1  UNL     1      -2.119 -15.400   7.325  1.00  0.00    -0.349 N 
HETATM    5  C8  UNL     1      -1.560 -14.958   8.567  1.00  0.00     0.136 C 
HETATM    6  C9  UNL     1      -2.585 -14.219   9.419  1.00  0.00     0.260 C 
HETATM    7  N3  UNL     1      -2.681 -14.773  10.756  1.00  0.00    -0.067 N 
ATOM      8  H31 UNL     1      -3.250 -14.187  11.367  1.00  0.00     0.277 HD
ATOM      9  H32 UNL     1      -1.796 -14.705  11.256  1.00  0.00     0.277 HD
HETATM   10  C10 UNL     1      -3.168 -16.133  10.718  1.00  0.00     0.209 C 
HETATM   11  C11 UNL     1      -2.993 -16.900  11.971  1.00  0.00     0.058 C 
HETATM   12  C12 UNL     1      -2.343 -18.171  11.626  1.00  0.00    -0.021 C 
HETATM   13  C13 UNL     1      -2.011 -18.187  10.377  1.00  0.00    -0.016 C 
HETATM   14  C14 UNL     1      -2.399 -16.919   9.716  1.00  0.00     0.034 C 
HETATM   15  C15 UNL     1      -1.144 -16.275   9.243  1.00  0.00     0.140 C 
HETATM   16  N4  UNL     1      -0.130 -16.067  10.220  1.00  0.00    -0.215 N 
HETATM   17  C16 UNL     1       1.097 -15.637   9.551  1.00  0.00     0.169 C 
HETATM   18  C17 UNL     1       0.115 -16.125  11.614  1.00  0.00     0.669 C 
HETATM   19  N5  UNL     1       1.339 -16.021  11.969  1.00  0.00    -0.235 N 
ATOM     20  H51 UNL     1       1.515 -16.062  12.972  1.00  0.00     0.174 HD
ATOM     21  H52 UNL     1       1.956 -15.913  11.163  1.00  0.00     0.174 HD
HETATM   22  N6  UNL     1      -0.740 -16.275  12.730  1.00  0.00    -0.226 N 
ATOM     23  H6  UNL     1      -0.250 -16.572  13.573  1.00  0.00     0.177 HD
HETATM   24  C18 UNL     1      -2.156 -16.097  12.930  1.00  0.00     0.148 C 
ENDROOT
BRANCH   4  25
HETATM   25  C4  UNL     1      -1.620 -14.923   6.103  1.00  0.00     0.170 C 
HETATM   26  S1  UNL     1      -0.169 -15.548   5.556  1.00  0.00    -0.041 SA
BRANCH  25  27
HETATM   27  N2  UNL     1      -2.207 -13.956   5.279  1.00  0.00    -0.367 N 
ATOM     28  H2  UNL     1      -2.296 -14.162   4.284  1.00  0.00     0.161 HD
BRANCH  27  29
HETATM   29  C5  UNL     1      -2.687 -12.697   5.752  1.00  0.00     0.127 C 
BRANCH  29  30
HETATM   30  C6  UNL     1      -4.129 -12.656   6.145  1.00  0.00     0.090 C 
BRANCH  30  31
HETATM   31  C7  UNL     1      -4.988 -13.553   5.276  1.00  0.00     0.354 C 
HETATM   32  F1  UNL     1      -5.918 -12.840   4.567  1.00  0.00    -0.214 F 
HETATM   33  F2  UNL     1      -5.601 -14.469   6.101  1.00  0.00    -0.214 F 
ENDBRANCH  30  31
ENDBRANCH  29  30
ENDBRANCH  27  29
ENDBRANCH  25  27
ENDBRANCH   4  25
TORSDOF 5
ENDMDL
