MODEL 1
REMARK VINA RESULT: -5.702038830      0.000      0.000
REMARK  7 active torsions:
REMARK  status: ('A' for Active; 'I' for Inactive)
REMARK    1  A    between atoms: N2_4  and  C1_6 
REMARK    2  A    between atoms: C3_8  and  C4_9 
REMARK    3  A    between atoms: C6_13  and  N3_14 
REMARK    4  A    between atoms: C7_18  and  C8_19 
REMARK    5  A    between atoms: C8_19  and  O1_20 
REMARK    6  A    between atoms: C8_19  and  C9_22 
REMARK    7  A    between atoms: C9_22  and  O2_23 
ROOT
HETATM    1  C1  UNL     1      -1.643 -14.239  10.975  1.00  0.00     0.108 C 
HETATM    2  C2  UNL     1      -2.837 -14.684  11.787  1.00  0.00     0.034 C 
HETATM    3  C3  UNL     1      -3.186 -16.055  11.314  1.00  0.00     0.020 C 
HETATM    4  C5  UNL     1      -1.887 -16.612  10.851  1.00  0.00     0.063 C 
HETATM    5 BR2  UNL     1      -2.068 -18.146   9.721  1.00  0.00    -0.082 Br
HETATM    6  C6  UNL     1      -0.902 -16.840  11.980  1.00  0.00     0.235 C 
HETATM    7  C7  UNL     1       0.400 -16.443  11.385  1.00  0.00    -0.021 C 
HETATM    8  C10 UNL     1       0.196 -15.654  10.349  1.00  0.00    -0.011 C 
HETATM    9  C11 UNL     1      -1.245 -15.449  10.156  1.00  0.00     0.055 C 
ENDROOT
BRANCH   7  10
HETATM   10  C8  UNL     1       1.770 -16.834  11.830  1.00  0.00     0.172 C 
BRANCH  10  11
HETATM   11  O1  UNL     1       2.254 -17.935  11.134  1.00  0.00    -0.389 OA
ATOM     12  H1  UNL     1       3.169 -18.105  11.323  1.00  0.00     0.210 HD
ENDBRANCH  10  11
BRANCH  10  13
HETATM   13  C9  UNL     1       2.745 -15.711  11.741  1.00  0.00     0.200 C 
BRANCH  13  14
HETATM   14  O2  UNL     1       2.579 -14.884  12.845  1.00  0.00    -0.398 OA
ATOM     15  H2  UNL     1       2.530 -13.982  12.548  1.00  0.00     0.209 HD
ENDBRANCH  13  14
ENDBRANCH  10  13
ENDBRANCH   7  10
BRANCH   6  16
HETATM   16  N3  UNL     1      -0.861 -18.257  12.256  1.00  0.00    -0.070 N 
ATOM     17  H33 UNL     1      -1.787 -18.655  12.413  1.00  0.00     0.275 HD
ATOM     18  H32 UNL     1      -0.609 -18.811  11.438  1.00  0.00     0.275 HD
ATOM     19  H31 UNL     1      -0.229 -18.405  13.043  1.00  0.00     0.275 HD
ENDBRANCH   6  16
BRANCH   3  20
HETATM   20  C4  UNL     1      -3.810 -16.829  12.450  1.00  0.00     0.091 C 
HETATM   21 BR1  UNL     1      -4.690 -15.504  13.586  1.00  0.00    -0.096 Br
ENDBRANCH   3  20
BRANCH   1  22
HETATM   22  N2  UNL     1      -1.983 -13.182  10.088  1.00  0.00    -0.337 N 
HETATM   23  N1  UNL     1      -3.131 -12.735  10.102  1.00  0.00    -0.349 N 
ATOM     24  H12 UNL     1      -3.815 -13.129  10.747  1.00  0.00     0.176 HD
ATOM     25  H11 UNL     1      -3.375 -11.977   9.466  1.00  0.00     0.176 HD
ATOM     26  H2  UNL     1      -1.287 -12.798   9.449  1.00  0.00     0.180 HD
ENDBRANCH   1  22
TORSDOF 7
ENDMDL
MODEL 2
REMARK VINA RESULT: -5.633102497      0.942      1.001
REMARK  7 active torsions:
REMARK  status: ('A' for Active; 'I' for Inactive)
REMARK    1  A    between atoms: N2_4  and  C1_6 
REMARK    2  A    between atoms: C3_8  and  C4_9 
REMARK    3  A    between atoms: C6_13  and  N3_14 
REMARK    4  A    between atoms: C7_18  and  C8_19 
REMARK    5  A    between atoms: C8_19  and  O1_20 
REMARK    6  A    between atoms: C8_19  and  C9_22 
REMARK    7  A    between atoms: C9_22  and  O2_23 
ROOT
HETATM    1  C1  UNL     1      -1.827 -14.035  10.751  1.00  0.00     0.108 C 
HETATM    2  C2  UNL     1      -2.740 -14.657  11.781  1.00  0.00     0.034 C 
HETATM    3  C3  UNL     1      -2.954 -16.073  11.359  1.00  0.00     0.020 C 
HETATM    4  C5  UNL     1      -1.706 -16.417  10.627  1.00  0.00     0.063 C 
HETATM    5 BR2  UNL     1      -1.868 -17.972   9.523  1.00  0.00    -0.082 Br
HETATM    6  C6  UNL     1      -0.486 -16.469  11.523  1.00  0.00     0.235 C 
HETATM    7  C7  UNL     1       0.584 -15.874  10.683  1.00  0.00    -0.021 C 
HETATM    8  C10 UNL     1       0.046 -15.140   9.729  1.00  0.00    -0.011 C 
HETATM    9  C11 UNL     1      -1.417 -15.173   9.840  1.00  0.00     0.055 C 
ENDROOT
BRANCH   7  10
HETATM   10  C8  UNL     1       2.061 -16.033  10.828  1.00  0.00     0.172 C 
BRANCH  10  11
HETATM   11  O1  UNL     1       2.765 -15.038  10.162  1.00  0.00    -0.389 OA
ATOM     12  H1  UNL     1       3.687 -15.249  10.072  1.00  0.00     0.210 HD
ENDBRANCH  10  11
BRANCH  10  13
HETATM   13  C9  UNL     1       2.494 -16.090  12.253  1.00  0.00     0.200 C 
BRANCH  13  14
HETATM   14  O2  UNL     1       2.492 -14.800  12.773  1.00  0.00    -0.398 OA
ATOM     15  H2  UNL     1       2.094 -14.819  13.636  1.00  0.00     0.209 HD
ENDBRANCH  13  14
ENDBRANCH  10  13
ENDBRANCH   7  10
BRANCH   6  16
HETATM   16  N3  UNL     1      -0.161 -17.858  11.753  1.00  0.00    -0.070 N 
ATOM     17  H33 UNL     1      -0.234 -18.123  12.736  1.00  0.00     0.275 HD
ATOM     18  H32 UNL     1      -0.869 -18.494  11.387  1.00  0.00     0.275 HD
ATOM     19  H31 UNL     1       0.766 -18.033  11.365  1.00  0.00     0.275 HD
ENDBRANCH   6  16
BRANCH   3  20
HETATM   20  C4  UNL     1      -3.198 -16.924  12.581  1.00  0.00     0.091 C 
HETATM   21 BR1  UNL     1      -4.535 -15.974  13.643  1.00  0.00    -0.096 Br
ENDBRANCH   3  20
BRANCH   1  22
HETATM   22  N2  UNL     1      -2.508 -13.056   9.977  1.00  0.00    -0.337 N 
HETATM   23  N1  UNL     1      -3.141 -13.414   8.983  1.00  0.00    -0.349 N 
ATOM     24  H12 UNL     1      -3.166 -14.402   8.733  1.00  0.00     0.176 HD
ATOM     25  H11 UNL     1      -3.629 -12.712   8.428  1.00  0.00     0.176 HD
ATOM     26  H2  UNL     1      -2.473 -12.071  10.241  1.00  0.00     0.180 HD
ENDBRANCH   1  22
TORSDOF 7
ENDMDL
MODEL 3
REMARK VINA RESULT: -5.545398049      1.089      1.509
REMARK  7 active torsions:
REMARK  status: ('A' for Active; 'I' for Inactive)
REMARK    1  A    between atoms: N2_4  and  C1_6 
REMARK    2  A    between atoms: C3_8  and  C4_9 
REMARK    3  A    between atoms: C6_13  and  N3_14 
REMARK    4  A    between atoms: C7_18  and  C8_19 
REMARK    5  A    between atoms: C8_19  and  O1_20 
REMARK    6  A    between atoms: C8_19  and  C9_22 
REMARK    7  A    between atoms: C9_22  and  O2_23 
ROOT
HETATM    1  C1  UNL     1      -1.449 -14.002  10.539  1.00  0.00     0.108 C 
HETATM    2  C2  UNL     1      -2.483 -14.860  11.228  1.00  0.00     0.034 C 
HETATM    3  C3  UNL     1      -2.362 -16.226  10.639  1.00  0.00     0.020 C 
HETATM    4  C5  UNL     1      -0.932 -16.314  10.239  1.00  0.00     0.063 C 
HETATM    5 BR2  UNL     1      -0.568 -17.726   8.998  1.00  0.00    -0.082 Br
HETATM    6  C6  UNL     1       0.016 -16.325  11.420  1.00  0.00     0.235 C 
HETATM    7  C7  UNL     1       1.157 -15.497  10.952  1.00  0.00    -0.021 C 
HETATM    8  C10 UNL     1       0.769 -14.723   9.959  1.00  0.00    -0.011 C 
HETATM    9  C11 UNL     1      -0.652 -14.954   9.673  1.00  0.00     0.055 C 
ENDROOT
BRANCH   7  10
HETATM   10  C8  UNL     1       2.556 -15.486  11.472  1.00  0.00     0.172 C 
BRANCH  10  11
HETATM   11  O1  UNL     1       2.601 -15.472  12.861  1.00  0.00    -0.389 OA
ATOM     12  H1  UNL     1       2.763 -14.603  13.206  1.00  0.00     0.210 HD
ENDBRANCH  10  11
BRANCH  10  13
HETATM   13  C9  UNL     1       3.371 -16.620  10.952  1.00  0.00     0.200 C 
BRANCH  13  14
HETATM   14  O2  UNL     1       3.482 -17.585  11.948  1.00  0.00    -0.398 OA
ATOM     15  H2  UNL     1       3.454 -17.155  12.794  1.00  0.00     0.209 HD
ENDBRANCH  13  14
ENDBRANCH  10  13
ENDBRANCH   7  10
BRANCH   6  16
HETATM   16  N3  UNL     1       0.484 -17.679  11.604  1.00  0.00    -0.070 N 
ATOM     17  H33 UNL     1       0.509 -18.209  10.733  1.00  0.00     0.275 HD
ATOM     18  H32 UNL     1       1.479 -17.727  11.822  1.00  0.00     0.275 HD
ATOM     19  H31 UNL     1      -0.098 -18.119  12.317  1.00  0.00     0.275 HD
ENDBRANCH   6  16
BRANCH   3  20
HETATM   20  C4  UNL     1      -2.770 -17.249  11.671  1.00  0.00     0.091 C 
HETATM   21 BR1  UNL     1      -3.396 -16.235  13.220  1.00  0.00    -0.096 Br
ENDBRANCH   3  20
BRANCH   1  22
HETATM   22  N2  UNL     1      -2.057 -13.027   9.701  1.00  0.00    -0.337 N 
HETATM   23  N1  UNL     1      -3.167 -12.588  10.003  1.00  0.00    -0.349 N 
ATOM     24  H12 UNL     1      -3.630 -12.930  10.845  1.00  0.00     0.176 HD
ATOM     25  H11 UNL     1      -3.604 -11.890   9.403  1.00  0.00     0.176 HD
ATOM     26  H2  UNL     1      -1.581 -12.696   8.862  1.00  0.00     0.180 HD
ENDBRANCH   1  22
TORSDOF 7
ENDMDL
MODEL 4
REMARK VINA RESULT: -5.278783387      2.136      2.415
REMARK  7 active torsions:
REMARK  status: ('A' for Active; 'I' for Inactive)
REMARK    1  A    between atoms: N2_4  and  C1_6 
REMARK    2  A    between atoms: C3_8  and  C4_9 
REMARK    3  A    between atoms: C6_13  and  N3_14 
REMARK    4  A    between atoms: C7_18  and  C8_19 
REMARK    5  A    between atoms: C8_19  and  O1_20 
REMARK    6  A    between atoms: C8_19  and  C9_22 
REMARK    7  A    between atoms: C9_22  and  O2_23 
ROOT
HETATM    1  C1  UNL     1      -2.170 -15.088  10.869  1.00  0.00     0.108 C 
HETATM    2  C2  UNL     1      -3.102 -16.192  10.429  1.00  0.00     0.034 C 
HETATM    3  C3  UNL     1      -2.671 -16.590   9.057  1.00  0.00     0.020 C 
HETATM    4  C5  UNL     1      -1.213 -16.295   9.044  1.00  0.00     0.063 C 
HETATM    5 BR2  UNL     1      -0.463 -16.208   7.285  1.00  0.00    -0.082 Br
HETATM    6  C6  UNL     1      -0.416 -17.194   9.968  1.00  0.00     0.235 C 
HETATM    7  C7  UNL     1       0.600 -16.278  10.544  1.00  0.00    -0.021 C 
HETATM    8  C10 UNL     1       0.192 -15.030  10.432  1.00  0.00    -0.011 C 
HETATM    9  C11 UNL     1      -1.122 -14.992   9.780  1.00  0.00     0.055 C 
ENDROOT
BRANCH   7  10
HETATM   10  C8  UNL     1       1.908 -16.636  11.170  1.00  0.00     0.172 C 
BRANCH  10  11
HETATM   11  O1  UNL     1       2.688 -17.430  10.338  1.00  0.00    -0.389 OA
ATOM     12  H1  UNL     1       2.484 -18.353  10.428  1.00  0.00     0.210 HD
ENDBRANCH  10  11
BRANCH  10  13
HETATM   13  C9  UNL     1       2.686 -15.439  11.599  1.00  0.00     0.200 C 
BRANCH  13  14
HETATM   14  O2  UNL     1       2.505 -15.254  12.965  1.00  0.00    -0.398 OA
ATOM     15  H2  UNL     1       1.573 -15.247  13.152  1.00  0.00     0.209 HD
ENDBRANCH  13  14
ENDBRANCH  10  13
ENDBRANCH   7  10
BRANCH   6  16
HETATM   16  N3  UNL     1       0.265 -18.175   9.156  1.00  0.00    -0.070 N 
ATOM     17  H33 UNL     1       0.068 -18.069   8.160  1.00  0.00     0.275 HD
ATOM     18  H32 UNL     1       1.272 -18.021   9.113  1.00  0.00     0.275 HD
ATOM     19  H31 UNL     1       0.022 -19.100   9.510  1.00  0.00     0.275 HD
ENDBRANCH   6  16
BRANCH   3  20
HETATM   20  C4  UNL     1      -3.000 -18.047   8.836  1.00  0.00     0.091 C 
HETATM   21 BR1  UNL     1      -4.545 -18.077   7.641  1.00  0.00    -0.096 Br
ENDBRANCH   3  20
BRANCH   1  22
HETATM   22  N2  UNL     1      -2.847 -13.842  10.959  1.00  0.00    -0.337 N 
HETATM   23  N1  UNL     1      -2.801 -13.066  10.004  1.00  0.00    -0.349 N 
ATOM     24  H12 UNL     1      -2.280 -13.329   9.168  1.00  0.00     0.176 HD
ATOM     25  H11 UNL     1      -3.287 -12.172  10.069  1.00  0.00     0.176 HD
ATOM     26  H2  UNL     1      -3.364 -13.593  11.803  1.00  0.00     0.180 HD
ENDBRANCH   1  22
TORSDOF 7
ENDMDL
MODEL 5
REMARK VINA RESULT: -5.202517834      3.532      4.988
REMARK  7 active torsions:
REMARK  status: ('A' for Active; 'I' for Inactive)
REMARK    1  A    between atoms: N2_4  and  C1_6 
REMARK    2  A    between atoms: C3_8  and  C4_9 
REMARK    3  A    between atoms: C6_13  and  N3_14 
REMARK    4  A    between atoms: C7_18  and  C8_19 
REMARK    5  A    between atoms: C8_19  and  O1_20 
REMARK    6  A    between atoms: C8_19  and  C9_22 
REMARK    7  A    between atoms: C9_22  and  O2_23 
ROOT
HETATM    1  C1  UNL     1      -2.027 -14.637   9.884  1.00  0.00     0.108 C 
HETATM    2  C2  UNL     1      -0.561 -14.893  10.141  1.00  0.00     0.034 C 
HETATM    3  C3  UNL     1      -0.487 -16.092  11.026  1.00  0.00     0.020 C 
HETATM    4  C5  UNL     1      -1.706 -16.868  10.674  1.00  0.00     0.063 C 
HETATM    5 BR2  UNL     1      -2.178 -18.188  11.978  1.00  0.00    -0.082 Br
HETATM    6  C6  UNL     1      -1.667 -17.432   9.269  1.00  0.00     0.235 C 
HETATM    7  C7  UNL     1      -3.065 -17.269   8.795  1.00  0.00    -0.021 C 
HETATM    8  C10 UNL     1      -3.675 -16.345   9.510  1.00  0.00    -0.011 C 
HETATM    9  C11 UNL     1      -2.753 -15.805  10.516  1.00  0.00     0.055 C 
ENDROOT
BRANCH   7  10
HETATM   10  C8  UNL     1      -3.749 -18.002   7.689  1.00  0.00     0.172 C 
BRANCH  10  11
HETATM   11  O1  UNL     1      -3.682 -19.381   7.851  1.00  0.00    -0.389 OA
ATOM     12  H1  UNL     1      -3.110 -19.790   7.213  1.00  0.00     0.210 HD
ENDBRANCH  10  11
BRANCH  10  13
HETATM   13  C9  UNL     1      -5.169 -17.583   7.515  1.00  0.00     0.200 C 
BRANCH  13  14
HETATM   14  O2  UNL     1      -5.981 -18.710   7.590  1.00  0.00    -0.398 OA
ATOM     15  H2  UNL     1      -6.670 -18.549   8.224  1.00  0.00     0.209 HD
ENDBRANCH  13  14
ENDBRANCH  10  13
ENDBRANCH   7  10
BRANCH   6  16
HETATM   16  N3  UNL     1      -1.381 -18.844   9.364  1.00  0.00    -0.070 N 
ATOM     17  H33 UNL     1      -1.107 -19.129  10.304  1.00  0.00     0.275 HD
ATOM     18  H32 UNL     1      -2.217 -19.423   9.284  1.00  0.00     0.275 HD
ATOM     19  H31 UNL     1      -0.676 -19.070   8.662  1.00  0.00     0.275 HD
ENDBRANCH   6  16
BRANCH   3  20
HETATM   20  C4  UNL     1       0.803 -16.828  10.758  1.00  0.00     0.091 C 
HETATM   21 BR1  UNL     1       2.118 -16.084  11.998  1.00  0.00    -0.096 Br
ENDBRANCH   3  20
BRANCH   1  22
HETATM   22  N2  UNL     1      -2.463 -13.438  10.513  1.00  0.00    -0.337 N 
HETATM   23  N1  UNL     1      -3.142 -12.638   9.869  1.00  0.00    -0.349 N 
ATOM     24  H12 UNL     1      -3.380 -12.847   8.900  1.00  0.00     0.176 HD
ATOM     25  H11 UNL     1      -3.454 -11.779  10.320  1.00  0.00     0.176 HD
ATOM     26  H2  UNL     1      -2.216 -13.244  11.483  1.00  0.00     0.180 HD
ENDBRANCH   1  22
TORSDOF 7
ENDMDL
