MODEL 1
REMARK VINA RESULT: -6.085011542      0.000      0.000
REMARK  6 active torsions:
REMARK  status: ('A' for Active; 'I' for Inactive)
REMARK    1  A    between atoms: C3_3  and  C4_4 
REMARK    2  A    between atoms: C5_8  and  C6_9 
REMARK    3  A    between atoms: C6_9  and  C7_10 
REMARK    4  A    between atoms: C8_11  and  C9_12 
REMARK    5  A    between atoms: C9_12  and  N2_13 
REMARK    6  A    between atoms: N5_22  and  N6_23 
ROOT
HETATM    1  C6  UNL     1      28.079 -15.491  38.052  1.00  0.00    -0.059 C 
ENDROOT
BRANCH   1   2
HETATM    2  C5  UNL     1      27.285 -15.241  39.167  1.00  0.00     0.176 A 
HETATM    3  N1  UNL     1      27.881 -15.674  40.294  1.00  0.00    -0.335 N 
HETATM    4  C3  UNL     1      26.892 -15.313  41.293  1.00  0.00     0.045 A 
ATOM      5  H1  UNL     1      28.784 -16.133  40.413  1.00  0.00     0.168 HD
HETATM    6  C2  UNL     1      25.839 -14.762  40.636  1.00  0.00     0.055 A 
HETATM    7  C1  UNL     1      24.459 -14.492  41.122  1.00  0.00     0.072 C 
HETATM    8  N5  UNL     1      26.190 -14.779  39.285  1.00  0.00    -0.242 N 
BRANCH   4   9
HETATM    9  C4  UNL     1      26.958 -15.625  42.727  1.00  0.00     0.144 C 
HETATM   10 BR1  UNL     1      26.591 -14.139  43.919  1.00  0.00    -0.090 Br
ENDBRANCH   4   9
BRANCH   8  11
HETATM   11  N6  UNL     1      25.205 -14.366  38.521  1.00  0.00    -0.336 N 
ATOM     12  H62 UNL     1      24.720 -13.496  38.298  1.00  0.00     0.177 HD
ATOM     13  H61 UNL     1      24.854 -15.112  37.919  1.00  0.00     0.177 HD
ENDBRANCH   8  11
ENDBRANCH   1   2
BRANCH   1  14
HETATM   14  C7  UNL     1      28.847 -15.703  36.978  1.00  0.00     0.108 A 
HETATM   15  C8  UNL     1      29.378 -14.974  36.039  1.00  0.00     0.067 A 
HETATM   16  N3  UNL     1      29.920 -15.789  35.060  1.00  0.00    -0.299 N 
HETATM   17  N4  UNL     1      29.757 -17.059  35.361  1.00  0.00    -0.265 N 
ATOM     18  H3  UNL     1      30.384 -15.450  34.218  1.00  0.00     0.186 HD
HETATM   19  C10 UNL     1      29.116 -17.038  36.562  1.00  0.00     0.280 A 
ATOM     20  H4  UNL     1      30.044 -17.874  34.820  1.00  0.00     0.190 HD
HETATM   21  O1  UNL     1      28.842 -18.155  37.131  1.00  0.00    -0.265 OA
BRANCH  15  22
HETATM   22  C9  UNL     1      29.774 -13.494  35.842  1.00  0.00     0.187 C 
BRANCH  22  23
HETATM   23  N2  UNL     1      28.675 -12.756  35.659  1.00  0.00    -0.352 N 
HETATM   24 BR2  UNL     1      29.169 -11.465  34.189  1.00  0.00     0.042 Br
ATOM     25  H2  UNL     1      27.785 -12.830  36.152  1.00  0.00     0.167 HD
ENDBRANCH  22  23
ENDBRANCH  15  22
ENDBRANCH   1  14
TORSDOF 6
ENDMDL
MODEL 2
REMARK VINA RESULT: -5.927474264      2.626      6.623
REMARK  6 active torsions:
REMARK  status: ('A' for Active; 'I' for Inactive)
REMARK    1  A    between atoms: C3_3  and  C4_4 
REMARK    2  A    between atoms: C5_8  and  C6_9 
REMARK    3  A    between atoms: C6_9  and  C7_10 
REMARK    4  A    between atoms: C8_11  and  C9_12 
REMARK    5  A    between atoms: C9_12  and  N2_13 
REMARK    6  A    between atoms: N5_22  and  N6_23 
ROOT
HETATM    1  C6  UNL     1      27.946 -15.595  38.945  1.00  0.00    -0.059 C 
ENDROOT
BRANCH   1   2
HETATM    2  C5  UNL     1      28.790 -16.008  37.918  1.00  0.00     0.176 A 
HETATM    3  N1  UNL     1      29.799 -15.135  37.739  1.00  0.00    -0.335 N 
HETATM    4  C3  UNL     1      30.525 -15.762  36.650  1.00  0.00     0.045 A 
ATOM      5  H1  UNL     1      30.000 -14.267  38.236  1.00  0.00     0.168 HD
HETATM    6  C2  UNL     1      29.840 -16.881  36.302  1.00  0.00     0.055 A 
HETATM    7  C1  UNL     1      29.965 -17.724  35.083  1.00  0.00     0.072 C 
HETATM    8  N5  UNL     1      28.744 -16.933  37.165  1.00  0.00    -0.242 N 
BRANCH   4   9
HETATM    9  C4  UNL     1      31.695 -15.206  35.958  1.00  0.00     0.144 C 
HETATM   10 BR1  UNL     1      33.411 -15.611  36.768  1.00  0.00    -0.090 Br
ENDBRANCH   4   9
BRANCH   8  11
HETATM   11  N6  UNL     1      27.933 -17.922  36.864  1.00  0.00    -0.336 N 
ATOM     12  H62 UNL     1      26.966 -18.198  37.033  1.00  0.00     0.177 HD
ATOM     13  H61 UNL     1      28.366 -18.584  36.219  1.00  0.00     0.177 HD
ENDBRANCH   8  11
ENDBRANCH   1   2
BRANCH   1  14
HETATM   14  C7  UNL     1      27.124 -15.180  39.914  1.00  0.00     0.108 A 
HETATM   15  C8  UNL     1      27.136 -15.154  41.216  1.00  0.00     0.067 A 
HETATM   16  N3  UNL     1      25.891 -14.781  41.691  1.00  0.00    -0.299 N 
HETATM   17  N4  UNL     1      25.059 -14.549  40.700  1.00  0.00    -0.265 N 
ATOM     18  H3  UNL     1      25.651 -14.697  42.679  1.00  0.00     0.186 HD
HETATM   19  C10 UNL     1      25.803 -14.762  39.581  1.00  0.00     0.280 A 
ATOM     20  H4  UNL     1      24.079 -14.271  40.756  1.00  0.00     0.190 HD
HETATM   21  O1  UNL     1      25.255 -14.581  38.435  1.00  0.00    -0.265 OA
BRANCH  15  22
HETATM   22  C9  UNL     1      28.198 -15.186  42.338  1.00  0.00     0.187 C 
BRANCH  22  23
HETATM   23  N2  UNL     1      28.253 -16.412  42.867  1.00  0.00    -0.352 N 
HETATM   24 BR2  UNL     1      26.823 -16.415  44.291  1.00  0.00     0.042 Br
ATOM     25  H2  UNL     1      28.878 -17.176  42.609  1.00  0.00     0.167 HD
ENDBRANCH  22  23
ENDBRANCH  15  22
ENDBRANCH   1  14
TORSDOF 6
ENDMDL
MODEL 3
REMARK VINA RESULT: -5.880259359      1.413      1.417
REMARK  6 active torsions:
REMARK  status: ('A' for Active; 'I' for Inactive)
REMARK    1  A    between atoms: C3_3  and  C4_4 
REMARK    2  A    between atoms: C5_8  and  C6_9 
REMARK    3  A    between atoms: C6_9  and  C7_10 
REMARK    4  A    between atoms: C8_11  and  C9_12 
REMARK    5  A    between atoms: C9_12  and  N2_13 
REMARK    6  A    between atoms: N5_22  and  N6_23 
ROOT
HETATM    1  C6  UNL     1      27.831 -15.786  37.801  1.00  0.00    -0.059 C 
ENDROOT
BRANCH   1   2
HETATM    2  C5  UNL     1      27.266 -15.376  39.004  1.00  0.00     0.176 A 
HETATM    3  N1  UNL     1      28.123 -15.550  40.028  1.00  0.00    -0.335 N 
HETATM    4  C3  UNL     1      27.333 -15.064  41.144  1.00  0.00     0.045 A 
ATOM      5  H1  UNL     1      29.073 -15.923  40.020  1.00  0.00     0.168 HD
HETATM    6  C2  UNL     1      26.118 -14.712  40.653  1.00  0.00     0.055 A 
HETATM    7  C1  UNL     1      24.849 -14.436  41.380  1.00  0.00     0.072 C 
HETATM    8  N5  UNL     1      26.179 -14.965  39.282  1.00  0.00    -0.242 N 
BRANCH   4   9
HETATM    9  C4  UNL     1      27.728 -15.092  42.559  1.00  0.00     0.144 C 
HETATM   10 BR1  UNL     1      26.774 -16.370  43.664  1.00  0.00    -0.090 Br
ENDBRANCH   4   9
BRANCH   8  11
HETATM   11  N6  UNL     1      25.020 -14.764  38.697  1.00  0.00    -0.336 N 
ATOM     12  H62 UNL     1      24.061 -14.533  38.956  1.00  0.00     0.177 HD
ATOM     13  H61 UNL     1      25.102 -14.778  37.680  1.00  0.00     0.177 HD
ENDBRANCH   8  11
ENDBRANCH   1   2
BRANCH   1  14
HETATM   14  C7  UNL     1      28.351 -16.193  36.638  1.00  0.00     0.108 A 
HETATM   15  C8  UNL     1      28.769 -15.628  35.542  1.00  0.00     0.067 A 
HETATM   16  N3  UNL     1      29.019 -16.592  34.581  1.00  0.00    -0.299 N 
HETATM   17  N4  UNL     1      28.778 -17.797  35.049  1.00  0.00    -0.265 N 
ATOM     18  H3  UNL     1      29.348 -16.394  33.636  1.00  0.00     0.186 HD
HETATM   19  C10 UNL     1      28.386 -17.584  36.335  1.00  0.00     0.280 A 
ATOM     20  H4  UNL     1      28.864 -18.688  34.561  1.00  0.00     0.190 HD
HETATM   21  O1  UNL     1      28.105 -18.600  37.068  1.00  0.00    -0.265 OA
BRANCH  15  22
HETATM   22  C9  UNL     1      29.281 -14.235  35.111  1.00  0.00     0.187 C 
BRANCH  22  23
HETATM   23  N2  UNL     1      30.146 -13.775  36.019  1.00  0.00    -0.352 N 
HETATM   24 BR2  UNL     1      31.887 -14.691  35.572  1.00  0.00     0.042 Br
ATOM     25  H2  UNL     1      29.966 -13.108  36.770  1.00  0.00     0.167 HD
ENDBRANCH  22  23
ENDBRANCH  15  22
ENDBRANCH   1  14
TORSDOF 6
ENDMDL
MODEL 4
REMARK VINA RESULT: -5.643318626      2.074      2.737
REMARK  6 active torsions:
REMARK  status: ('A' for Active; 'I' for Inactive)
REMARK    1  A    between atoms: C3_3  and  C4_4 
REMARK    2  A    between atoms: C5_8  and  C6_9 
REMARK    3  A    between atoms: C6_9  and  C7_10 
REMARK    4  A    between atoms: C8_11  and  C9_12 
REMARK    5  A    between atoms: C9_12  and  N2_13 
REMARK    6  A    between atoms: N5_22  and  N6_23 
ROOT
HETATM    1  C6  UNL     1      28.149 -15.413  38.042  1.00  0.00    -0.059 C 
ENDROOT
BRANCH   1   2
HETATM    2  C5  UNL     1      27.325 -15.201  39.143  1.00  0.00     0.176 A 
HETATM    3  N1  UNL     1      27.906 -15.642  40.275  1.00  0.00    -0.335 N 
HETATM    4  C3  UNL     1      26.887 -15.321  41.258  1.00  0.00     0.045 A 
ATOM      5  H1  UNL     1      28.816 -16.083  40.406  1.00  0.00     0.168 HD
HETATM    6  C2  UNL     1      25.838 -14.782  40.588  1.00  0.00     0.055 A 
HETATM    7  C1  UNL     1      24.441 -14.551  41.048  1.00  0.00     0.072 C 
HETATM    8  N5  UNL     1      26.218 -14.766  39.245  1.00  0.00    -0.242 N 
BRANCH   4   9
HETATM    9  C4  UNL     1      26.929 -15.658  42.687  1.00  0.00     0.144 C 
HETATM   10 BR1  UNL     1      26.553 -14.191  43.899  1.00  0.00    -0.090 Br
ENDBRANCH   4   9
BRANCH   8  11
HETATM   11  N6  UNL     1      25.241 -14.360  38.467  1.00  0.00    -0.336 N 
ATOM     12  H62 UNL     1      24.235 -14.495  38.366  1.00  0.00     0.177 HD
ATOM     13  H61 UNL     1      25.555 -13.653  37.802  1.00  0.00     0.177 HD
ENDBRANCH   8  11
ENDBRANCH   1   2
BRANCH   1  14
HETATM   14  C7  UNL     1      28.958 -15.595  36.992  1.00  0.00     0.108 A 
HETATM   15  C8  UNL     1      29.652 -16.578  36.495  1.00  0.00     0.067 A 
HETATM   16  N3  UNL     1      30.472 -16.110  35.484  1.00  0.00    -0.299 N 
HETATM   17  N4  UNL     1      30.310 -14.817  35.305  1.00  0.00    -0.265 N 
ATOM     18  H3  UNL     1      31.117 -16.690  34.948  1.00  0.00     0.186 HD
HETATM   19  C10 UNL     1      29.354 -14.472  36.211  1.00  0.00     0.280 A 
ATOM     20  H4  UNL     1      30.790 -14.211  34.640  1.00  0.00     0.190 HD
HETATM   21  O1  UNL     1      28.960 -13.252  36.252  1.00  0.00    -0.265 OA
BRANCH  15  22
HETATM   22  C9  UNL     1      29.633 -18.122  36.557  1.00  0.00     0.187 C 
BRANCH  22  23
HETATM   23  N2  UNL     1      28.411 -18.567  36.252  1.00  0.00    -0.352 N 
HETATM   24 BR2  UNL     1      28.195 -18.154  34.288  1.00  0.00     0.042 Br
ATOM     25  H2  UNL     1      27.738 -19.017  36.873  1.00  0.00     0.167 HD
ENDBRANCH  22  23
ENDBRANCH  15  22
ENDBRANCH   1  14
TORSDOF 6
ENDMDL
MODEL 5
REMARK VINA RESULT: -5.490478212      3.408      7.076
REMARK  6 active torsions:
REMARK  status: ('A' for Active; 'I' for Inactive)
REMARK    1  A    between atoms: C3_3  and  C4_4 
REMARK    2  A    between atoms: C5_8  and  C6_9 
REMARK    3  A    between atoms: C6_9  and  C7_10 
REMARK    4  A    between atoms: C8_11  and  C9_12 
REMARK    5  A    between atoms: C9_12  and  N2_13 
REMARK    6  A    between atoms: N5_22  and  N6_23 
ROOT
HETATM    1  C6  UNL     1      29.162 -13.270  35.072  1.00  0.00    -0.059 C 
ENDROOT
BRANCH   1   2
HETATM    2  C5  UNL     1      28.632 -12.319  34.205  1.00  0.00     0.176 A 
HETATM    3  N1  UNL     1      28.003 -12.904  33.169  1.00  0.00    -0.335 N 
HETATM    4  C3  UNL     1      27.545 -11.745  32.425  1.00  0.00     0.045 A 
ATOM      5  H1  UNL     1      27.881 -13.896  32.962  1.00  0.00     0.168 HD
HETATM    6  C2  UNL     1      27.990 -10.644  33.083  1.00  0.00     0.055 A 
HETATM    7  C1  UNL     1      28.064  -9.232  32.619  1.00  0.00     0.072 C 
HETATM    8  N5  UNL     1      28.683 -11.126  34.194  1.00  0.00    -0.242 N 
BRANCH   4   9
HETATM    9  C4  UNL     1      26.858 -11.767  31.127  1.00  0.00     0.144 C 
HETATM   10 BR1  UNL     1      26.025 -13.454  30.654  1.00  0.00    -0.090 Br
ENDBRANCH   4   9
BRANCH   8  11
HETATM   11  N6  UNL     1      29.262 -10.156  34.866  1.00  0.00    -0.336 N 
ATOM     12  H62 UNL     1      30.201  -9.800  35.041  1.00  0.00     0.177 HD
ATOM     13  H61 UNL     1      28.578  -9.529  35.290  1.00  0.00     0.177 HD
ENDBRANCH   8  11
ENDBRANCH   1   2
BRANCH   1  14
HETATM   14  C7  UNL     1      29.656 -14.203  35.892  1.00  0.00     0.108 A 
HETATM   15  C8  UNL     1      29.255 -14.825  36.964  1.00  0.00     0.067 A 
HETATM   16  N3  UNL     1      30.299 -15.558  37.501  1.00  0.00    -0.299 N 
HETATM   17  N4  UNL     1      31.388 -15.429  36.774  1.00  0.00    -0.265 N 
ATOM     18  H3  UNL     1      30.233 -16.123  38.347  1.00  0.00     0.186 HD
HETATM   19  C10 UNL     1      31.012 -14.614  35.751  1.00  0.00     0.280 A 
ATOM     20  H4  UNL     1      32.304 -15.846  36.938  1.00  0.00     0.190 HD
HETATM   21  O1  UNL     1      31.876 -14.327  34.846  1.00  0.00    -0.265 OA
BRANCH  15  22
HETATM   22  C9  UNL     1      27.908 -15.154  37.645  1.00  0.00     0.187 C 
BRANCH  22  23
HETATM   23  N2  UNL     1      28.128 -15.594  38.886  1.00  0.00    -0.352 N 
HETATM   24 BR2  UNL     1      26.384 -15.285  39.852  1.00  0.00     0.042 Br
ATOM     25  H2  UNL     1      28.987 -15.997  39.262  1.00  0.00     0.167 HD
ENDBRANCH  22  23
ENDBRANCH  15  22
ENDBRANCH   1  14
TORSDOF 6
ENDMDL
