MODEL 1
REMARK VINA RESULT: -6.770446259      0.000      0.000
REMARK  6 active torsions:
REMARK  status: ('A' for Active; 'I' for Inactive)
REMARK    1  A    between atoms: C4_6  and  C5_7 
REMARK    2  A    between atoms: C5_7  and  C6_8 
REMARK    3  A    between atoms: C6_8  and  N2_9 
REMARK    4  A    between atoms: C7_11  and  O1_12 
REMARK    5  A    between atoms: C7_11  and  N3_14 
REMARK    6  A    between atoms: N3_14  and  N4_16 
ROOT
HETATM    1  C5  UNL     1      26.944 -15.724  38.654  1.00  0.00     0.049 C 
ENDROOT
BRANCH   1   2
HETATM    2  C4  UNL     1      27.441 -14.679  37.816  1.00  0.00     0.006 C 
HETATM    3  C3  UNL     1      28.319 -14.640  36.863  1.00  0.00     0.050 A 
HETATM    4  N1  UNL     1      28.564 -13.343  36.215  1.00  0.00    -0.342 N 
HETATM    5  C8  UNL     1      29.116 -15.726  36.350  1.00  0.00     0.071 A 
HETATM    6  C2  UNL     1      29.511 -13.217  35.178  1.00  0.00     0.096 A 
ATOM      7  H1  UNL     1      28.040 -12.523  36.520  1.00  0.00     0.167 HD
HETATM    8  C1  UNL     1      29.758 -12.068  34.573  1.00  0.00     0.063 C 
HETATM    9  N6  UNL     1      30.270 -14.343  34.716  1.00  0.00    -0.336 N 
HETATM   10  C9  UNL     1      30.021 -15.580  35.352  1.00  0.00     0.101 A 
ATOM     11  H6  UNL     1      30.955 -14.255  33.967  1.00  0.00     0.168 HD
HETATM   12 BR2  UNL     1      30.993 -17.154  34.801  1.00  0.00    -0.030 Br
HETATM   13 BR1  UNL     1      28.958 -17.476  37.083  1.00  0.00    -0.046 Br
ENDBRANCH   1   2
BRANCH   1  14
HETATM   14  C6  UNL     1      27.157 -15.418  40.159  1.00  0.00     0.127 C 
BRANCH  14  15
HETATM   15  N2  UNL     1      25.827 -15.393  40.732  1.00  0.00    -0.355 N 
HETATM   16  C7  UNL     1      25.620 -14.797  41.841  1.00  0.00     0.233 C 
ATOM     17  H2  UNL     1      25.055 -15.852  40.248  1.00  0.00     0.163 HD
BRANCH  16  18
HETATM   18  O1  UNL     1      26.666 -14.181  42.487  1.00  0.00    -0.332 OA
ATOM     19  H1  UNL     1      27.439 -14.684  42.714  1.00  0.00     0.221 HD
ENDBRANCH  16  18
BRANCH  16  20
HETATM   20  N3  UNL     1      24.315 -14.784  42.383  1.00  0.00    -0.251 N 
ATOM     21  H3  UNL     1      23.523 -14.732  41.742  1.00  0.00     0.192 HD
BRANCH  20  22
HETATM   22  N4  UNL     1      24.057 -14.839  43.757  1.00  0.00    -0.246 N 
HETATM   23  N5  UNL     1      24.948 -15.363  44.493  1.00  0.00    -0.331 N 
ATOM     24  H52 UNL     1      25.811 -15.724  44.086  1.00  0.00     0.178 HD
ATOM     25  H51 UNL     1      24.760 -15.403  45.495  1.00  0.00     0.178 HD
ATOM     26  H4  UNL     1      23.189 -14.474  44.151  1.00  0.00     0.208 HD
ENDBRANCH  20  22
ENDBRANCH  16  20
ENDBRANCH  14  15
ENDBRANCH   1  14
TORSDOF 6
ENDMDL
MODEL 2
REMARK VINA RESULT: -6.596997795      2.316      2.651
REMARK  6 active torsions:
REMARK  status: ('A' for Active; 'I' for Inactive)
REMARK    1  A    between atoms: C4_6  and  C5_7 
REMARK    2  A    between atoms: C5_7  and  C6_8 
REMARK    3  A    between atoms: C6_8  and  N2_9 
REMARK    4  A    between atoms: C7_11  and  O1_12 
REMARK    5  A    between atoms: C7_11  and  N3_14 
REMARK    6  A    between atoms: N3_14  and  N4_16 
ROOT
HETATM    1  C5  UNL     1      27.348 -15.953  37.707  1.00  0.00     0.049 C 
ENDROOT
BRANCH   1   2
HETATM    2  C4  UNL     1      28.759 -15.727  37.709  1.00  0.00     0.006 C 
HETATM    3  C3  UNL     1      29.673 -15.783  36.791  1.00  0.00     0.050 A 
HETATM    4  N1  UNL     1      31.055 -15.471  37.186  1.00  0.00    -0.342 N 
HETATM    5  C8  UNL     1      29.511 -16.130  35.401  1.00  0.00     0.071 A 
HETATM    6  C2  UNL     1      32.106 -15.520  36.248  1.00  0.00     0.096 A 
ATOM      7  H1  UNL     1      31.255 -15.216  38.153  1.00  0.00     0.167 HD
HETATM    8  C1  UNL     1      33.360 -15.247  36.567  1.00  0.00     0.063 C 
HETATM    9  N6  UNL     1      31.872 -15.874  34.878  1.00  0.00    -0.336 N 
HETATM   10  C9  UNL     1      30.538 -16.170  34.518  1.00  0.00     0.101 A 
ATOM     11  H6  UNL     1      32.630 -15.909  34.197  1.00  0.00     0.168 HD
HETATM   12 BR2  UNL     1      30.122 -16.657  32.698  1.00  0.00    -0.030 Br
HETATM   13 BR1  UNL     1      27.798 -16.591  34.710  1.00  0.00    -0.046 Br
ENDBRANCH   1   2
BRANCH   1  14
HETATM   14  C6  UNL     1      26.640 -15.244  38.890  1.00  0.00     0.127 C 
BRANCH  14  15
HETATM   15  N2  UNL     1      27.538 -15.397  40.016  1.00  0.00    -0.355 N 
HETATM   16  C7  UNL     1      27.102 -15.249  41.206  1.00  0.00     0.233 C 
ATOM     17  H2  UNL     1      28.519 -15.623  39.857  1.00  0.00     0.163 HD
BRANCH  16  18
HETATM   18  O1  UNL     1      25.777 -14.944  41.411  1.00  0.00    -0.332 OA
ATOM     19  H1  UNL     1      25.542 -14.103  41.786  1.00  0.00     0.221 HD
ENDBRANCH  16  18
BRANCH  16  20
HETATM   20  N3  UNL     1      27.994 -15.403  42.291  1.00  0.00    -0.251 N 
ATOM     21  H3  UNL     1      28.796 -14.775  42.354  1.00  0.00     0.192 HD
BRANCH  20  22
HETATM   22  N4  UNL     1      27.831 -16.375  43.284  1.00  0.00    -0.246 N 
HETATM   23  N5  UNL     1      26.642 -16.673  43.613  1.00  0.00    -0.331 N 
ATOM     24  H52 UNL     1      25.849 -16.214  43.163  1.00  0.00     0.178 HD
ATOM     25  H51 UNL     1      26.523 -17.382  44.337  1.00  0.00     0.178 HD
ATOM     26  H4  UNL     1      28.633 -16.826  43.725  1.00  0.00     0.208 HD
ENDBRANCH  20  22
ENDBRANCH  16  20
ENDBRANCH  14  15
ENDBRANCH   1  14
TORSDOF 6
ENDMDL
MODEL 3
REMARK VINA RESULT: -6.398586101      1.310      1.424
REMARK  6 active torsions:
REMARK  status: ('A' for Active; 'I' for Inactive)
REMARK    1  A    between atoms: C4_6  and  C5_7 
REMARK    2  A    between atoms: C5_7  and  C6_8 
REMARK    3  A    between atoms: C6_8  and  N2_9 
REMARK    4  A    between atoms: C7_11  and  O1_12 
REMARK    5  A    between atoms: C7_11  and  N3_14 
REMARK    6  A    between atoms: N3_14  and  N4_16 
ROOT
HETATM    1  C5  UNL     1      26.980 -15.756  38.598  1.00  0.00     0.049 C 
ENDROOT
BRANCH   1   2
HETATM    2  C4  UNL     1      27.490 -14.706  37.774  1.00  0.00     0.006 C 
HETATM    3  C3  UNL     1      28.369 -14.664  36.823  1.00  0.00     0.050 A 
HETATM    4  N1  UNL     1      28.629 -13.362  36.192  1.00  0.00    -0.342 N 
HETATM    5  C8  UNL     1      29.155 -15.752  36.297  1.00  0.00     0.071 A 
HETATM    6  C2  UNL     1      29.580 -13.233  35.158  1.00  0.00     0.096 A 
ATOM      7  H1  UNL     1      28.115 -12.540  36.508  1.00  0.00     0.167 HD
HETATM    8  C1  UNL     1      29.840 -12.078  34.570  1.00  0.00     0.063 C 
HETATM    9  N6  UNL     1      30.327 -14.361  34.683  1.00  0.00    -0.336 N 
HETATM   10  C9  UNL     1      30.063 -15.603  35.302  1.00  0.00     0.101 A 
ATOM     11  H6  UNL     1      31.014 -14.271  33.935  1.00  0.00     0.168 HD
HETATM   12 BR2  UNL     1      31.019 -17.180  34.731  1.00  0.00    -0.030 Br
HETATM   13 BR1  UNL     1      28.977 -17.510  37.007  1.00  0.00    -0.046 Br
ENDBRANCH   1   2
BRANCH   1  14
HETATM   14  C6  UNL     1      26.165 -15.215  39.800  1.00  0.00     0.127 C 
BRANCH  14  15
HETATM   15  N2  UNL     1      27.053 -15.319  40.939  1.00  0.00    -0.355 N 
HETATM   16  C7  UNL     1      26.579 -15.299  42.123  1.00  0.00     0.233 C 
ATOM     17  H2  UNL     1      28.058 -15.409  40.794  1.00  0.00     0.163 HD
BRANCH  16  18
HETATM   18  O1  UNL     1      25.222 -15.178  42.311  1.00  0.00    -0.332 OA
ATOM     19  H1  UNL     1      24.893 -14.756  43.095  1.00  0.00     0.221 HD
ENDBRANCH  16  18
BRANCH  16  20
HETATM   20  N3  UNL     1      27.463 -15.403  43.221  1.00  0.00    -0.251 N 
ATOM     21  H3  UNL     1      28.150 -14.663  43.363  1.00  0.00     0.192 HD
BRANCH  20  22
HETATM   22  N4  UNL     1      27.439 -16.472  44.124  1.00  0.00    -0.246 N 
HETATM   23  N5  UNL     1      26.301 -16.879  44.510  1.00  0.00    -0.331 N 
ATOM     24  H52 UNL     1      25.448 -16.436  44.167  1.00  0.00     0.178 HD
ATOM     25  H51 UNL     1      26.284 -17.659  45.168  1.00  0.00     0.178 HD
ATOM     26  H4  UNL     1      28.300 -16.905  44.459  1.00  0.00     0.208 HD
ENDBRANCH  20  22
ENDBRANCH  16  20
ENDBRANCH  14  15
ENDBRANCH   1  14
TORSDOF 6
ENDMDL
MODEL 4
REMARK VINA RESULT: -6.348909430      2.028      2.331
REMARK  6 active torsions:
REMARK  status: ('A' for Active; 'I' for Inactive)
REMARK    1  A    between atoms: C4_6  and  C5_7 
REMARK    2  A    between atoms: C5_7  and  C6_8 
REMARK    3  A    between atoms: C6_8  and  N2_9 
REMARK    4  A    between atoms: C7_11  and  O1_12 
REMARK    5  A    between atoms: C7_11  and  N3_14 
REMARK    6  A    between atoms: N3_14  and  N4_16 
ROOT
HETATM    1  C5  UNL     1      27.258 -15.902  37.845  1.00  0.00     0.049 C 
ENDROOT
BRANCH   1   2
HETATM    2  C4  UNL     1      28.677 -15.727  37.866  1.00  0.00     0.006 C 
HETATM    3  C3  UNL     1      29.600 -15.812  36.961  1.00  0.00     0.050 A 
HETATM    4  N1  UNL     1      30.987 -15.552  37.376  1.00  0.00    -0.342 N 
HETATM    5  C8  UNL     1      29.445 -16.148  35.567  1.00  0.00     0.071 A 
HETATM    6  C2  UNL     1      32.049 -15.636  36.451  1.00  0.00     0.096 A 
ATOM      7  H1  UNL     1      31.183 -15.308  38.346  1.00  0.00     0.167 HD
HETATM    8  C1  UNL     1      33.306 -15.409  36.789  1.00  0.00     0.063 C 
HETATM    9  N6  UNL     1      31.820 -15.975  35.077  1.00  0.00    -0.336 N 
HETATM   10  C9  UNL     1      30.482 -16.222  34.698  1.00  0.00     0.101 A 
ATOM     11  H6  UNL     1      32.586 -16.036  34.406  1.00  0.00     0.168 HD
HETATM   12 BR2  UNL     1      30.073 -16.687  32.870  1.00  0.00    -0.030 Br
HETATM   13 BR1  UNL     1      27.726 -16.544  34.851  1.00  0.00    -0.046 Br
ENDBRANCH   1   2
BRANCH   1  14
HETATM   14  C6  UNL     1      26.534 -14.928  38.808  1.00  0.00     0.127 C 
BRANCH  14  15
HETATM   15  N2  UNL     1      26.609 -15.556  40.110  1.00  0.00    -0.355 N 
HETATM   16  C7  UNL     1      25.870 -15.141  41.064  1.00  0.00     0.233 C 
ATOM     17  H2  UNL     1      27.254 -16.330  40.265  1.00  0.00     0.163 HD
BRANCH  16  18
HETATM   18  O1  UNL     1      25.004 -14.095  40.847  1.00  0.00    -0.332 OA
ATOM     19  H1  UNL     1      24.315 -13.918  41.478  1.00  0.00     0.221 HD
ENDBRANCH  16  18
BRANCH  16  20
HETATM   20  N3  UNL     1      25.959 -15.768  42.328  1.00  0.00    -0.251 N 
ATOM     21  H3  UNL     1      26.502 -16.628  42.406  1.00  0.00     0.192 HD
BRANCH  20  22
HETATM   22  N4  UNL     1      25.338 -15.265  43.476  1.00  0.00    -0.246 N 
HETATM   23  N5  UNL     1      24.105 -14.977  43.389  1.00  0.00    -0.331 N 
ATOM     24  H52 UNL     1      23.602 -15.111  42.512  1.00  0.00     0.178 HD
ATOM     25  H51 UNL     1      23.652 -14.610  44.227  1.00  0.00     0.178 HD
ATOM     26  H4  UNL     1      25.854 -15.135  44.347  1.00  0.00     0.208 HD
ENDBRANCH  20  22
ENDBRANCH  16  20
ENDBRANCH  14  15
ENDBRANCH   1  14
TORSDOF 6
ENDMDL
MODEL 5
REMARK VINA RESULT: -6.028084130      2.611      3.250
REMARK  6 active torsions:
REMARK  status: ('A' for Active; 'I' for Inactive)
REMARK    1  A    between atoms: C4_6  and  C5_7 
REMARK    2  A    between atoms: C5_7  and  C6_8 
REMARK    3  A    between atoms: C6_8  and  N2_9 
REMARK    4  A    between atoms: C7_11  and  O1_12 
REMARK    5  A    between atoms: C7_11  and  N3_14 
REMARK    6  A    between atoms: N3_14  and  N4_16 
ROOT
HETATM    1  C5  UNL     1      27.629 -15.096  37.856  1.00  0.00     0.049 C 
ENDROOT
BRANCH   1   2
HETATM    2  C4  UNL     1      27.623 -16.107  36.845  1.00  0.00     0.006 C 
HETATM    3  C3  UNL     1      28.174 -16.204  35.676  1.00  0.00     0.050 A 
HETATM    4  N1  UNL     1      27.933 -17.435  34.910  1.00  0.00    -0.342 N 
HETATM    5  C8  UNL     1      29.003 -15.233  35.006  1.00  0.00     0.071 A 
HETATM    6  C2  UNL     1      28.488 -17.610  33.625  1.00  0.00     0.096 A 
ATOM      7  H1  UNL     1      27.356 -18.173  35.313  1.00  0.00     0.167 HD
HETATM    8  C1  UNL     1      28.293 -18.703  32.907  1.00  0.00     0.063 C 
HETATM    9  N6  UNL     1      29.306 -16.600  33.019  1.00  0.00    -0.336 N 
HETATM   10  C9  UNL     1      29.526 -15.425  33.771  1.00  0.00     0.101 A 
ATOM     11  H6  UNL     1      29.710 -16.725  32.090  1.00  0.00     0.168 HD
HETATM   12 BR2  UNL     1      30.612 -14.007  33.039  1.00  0.00    -0.030 Br
HETATM   13 BR1  UNL     1      29.403 -13.565  35.831  1.00  0.00    -0.046 Br
ENDBRANCH   1   2
BRANCH   1  14
HETATM   14  C6  UNL     1      26.719 -15.463  39.056  1.00  0.00     0.127 C 
BRANCH  14  15
HETATM   15  N2  UNL     1      27.581 -15.397  40.218  1.00  0.00    -0.355 N 
HETATM   16  C7  UNL     1      27.076 -15.425  41.390  1.00  0.00     0.233 C 
ATOM     17  H2  UNL     1      28.591 -15.329  40.100  1.00  0.00     0.163 HD
BRANCH  16  18
HETATM   18  O1  UNL     1      25.713 -15.517  41.541  1.00  0.00    -0.332 OA
ATOM     19  H1  UNL     1      25.326 -15.391  42.400  1.00  0.00     0.221 HD
ENDBRANCH  16  18
BRANCH  16  20
HETATM   20  N3  UNL     1      27.934 -15.360  42.511  1.00  0.00    -0.251 N 
ATOM     21  H3  UNL     1      28.576 -14.571  42.587  1.00  0.00     0.192 HD
BRANCH  20  22
HETATM   22  N4  UNL     1      27.945 -16.327  43.523  1.00  0.00    -0.246 N 
HETATM   23  N5  UNL     1      26.831 -16.621  44.055  1.00  0.00    -0.331 N 
ATOM     24  H52 UNL     1      25.972 -16.163  43.747  1.00  0.00     0.178 HD
ATOM     25  H51 UNL     1      26.838 -17.326  44.793  1.00  0.00     0.178 HD
ATOM     26  H4  UNL     1      28.811 -16.776  43.821  1.00  0.00     0.208 HD
ENDBRANCH  20  22
ENDBRANCH  16  20
ENDBRANCH  14  15
ENDBRANCH   1  14
TORSDOF 6
ENDMDL
