MODEL 1
REMARK VINA RESULT: -5.438097028      0.000      0.000
REMARK  4 active torsions:
REMARK  status: ('A' for Active; 'I' for Inactive)
REMARK    1  A    between atoms: C4_4  and  S1_5 
REMARK    2  A    between atoms: S1_5  and  C5_7 
REMARK    3  A    between atoms: C6_8  and  C7_9 
REMARK    4  A    between atoms: C7_9  and  N1_10 
REMARK       I    between atoms: N1_10  and  C8_12 
ROOT
HETATM    1  C1  UNL     1      26.354 -15.481  39.964  1.00  0.00     0.017 C 
HETATM    2  C2  UNL     1      27.019 -15.297  38.992  1.00  0.00    -0.089 C 
HETATM    3  C3  UNL     1      27.821 -15.091  37.794  1.00  0.00     0.073 C 
HETATM    4  C4  UNL     1      29.081 -15.468  37.752  1.00  0.00     0.094 C 
ENDROOT
BRANCH   4   5
HETATM    5  S1  UNL     1      30.007 -15.207  36.310  1.00  0.00     0.094 S 
HETATM    6  O1  UNL     1      31.069 -16.520  36.152  1.00  0.00    -0.247 OA
BRANCH   5   7
HETATM    7  C5  UNL     1      28.996 -15.072  34.903  1.00  0.00     0.143 A 
HETATM    8  C6  UNL     1      28.789 -13.921  34.178  1.00  0.00     0.066 A 
HETATM    9  N4  UNL     1      27.942 -14.187  33.147  1.00  0.00    -0.335 N 
HETATM   10  C9  UNL     1      27.638 -15.502  33.251  1.00  0.00     0.167 A 
ATOM     11  H4  UNL     1      27.606 -13.531  32.442  1.00  0.00     0.168 HD
HETATM   12 BR1  UNL     1      26.486 -16.451  32.076  1.00  0.00    -0.009 Br
HETATM   13  N5  UNL     1      28.273 -16.032  34.308  1.00  0.00    -0.246 N 
HETATM   14 BR2  UNL     1      28.158 -17.840  34.857  1.00  0.00     0.058 Br
BRANCH   8  15
HETATM   15  C7  UNL     1      29.415 -12.622  34.523  1.00  0.00     0.182 C 
BRANCH  15  16
HETATM   16  N1  UNL     1      28.443 -11.668  34.989  1.00  0.00    -0.359 N 
HETATM   17  C8  UNL     1      27.926 -10.610  34.191  1.00  0.00     0.182 C 
HETATM   18  N2  UNL     1      26.808 -10.027  34.457  1.00  0.00    -0.374 N 
HETATM   19  N3  UNL     1      28.637 -10.146  33.048  1.00  0.00    -0.064 NA
ATOM     20  H22 UNL     1      26.298 -10.359  35.276  1.00  0.00     0.158 HD
ATOM     21  H21 UNL     1      26.436  -9.269  33.885  1.00  0.00     0.158 HD
ATOM     22  H1  UNL     1      28.105 -11.756  35.947  1.00  0.00     0.162 HD
ENDBRANCH  15  16
ENDBRANCH   8  15
ENDBRANCH   5   7
ENDBRANCH   4   5
TORSDOF 4
ENDMDL
MODEL 2
REMARK VINA RESULT: -5.390593755      2.819      3.994
REMARK  4 active torsions:
REMARK  status: ('A' for Active; 'I' for Inactive)
REMARK    1  A    between atoms: C4_4  and  S1_5 
REMARK    2  A    between atoms: S1_5  and  C5_7 
REMARK    3  A    between atoms: C6_8  and  C7_9 
REMARK    4  A    between atoms: C7_9  and  N1_10 
REMARK       I    between atoms: N1_10  and  C8_12 
ROOT
HETATM    1  C1  UNL     1      34.711 -16.750  36.623  1.00  0.00     0.017 C 
HETATM    2  C2  UNL     1      33.648 -16.384  36.229  1.00  0.00    -0.089 C 
HETATM    3  C3  UNL     1      32.338 -15.951  35.762  1.00  0.00     0.073 C 
HETATM    4  C4  UNL     1      31.832 -16.418  34.641  1.00  0.00     0.094 C 
ENDROOT
BRANCH   4   5
HETATM    5  S1  UNL     1      30.270 -15.880  34.115  1.00  0.00     0.094 S 
HETATM    6  O1  UNL     1      29.477 -17.223  33.448  1.00  0.00    -0.247 OA
BRANCH   5   7
HETATM    7  C5  UNL     1      29.338 -15.212  35.420  1.00  0.00     0.143 A 
HETATM    8  C6  UNL     1      29.015 -13.883  35.569  1.00  0.00     0.066 A 
HETATM    9  N4  UNL     1      28.279 -13.724  36.703  1.00  0.00    -0.335 N 
HETATM   10  C9  UNL     1      28.159 -14.962  37.238  1.00  0.00     0.167 A 
ATOM     11  H4  UNL     1      27.898 -12.854  37.072  1.00  0.00     0.168 HD
HETATM   12 BR1  UNL     1      27.227 -15.370  38.842  1.00  0.00    -0.009 Br
HETATM   13  N5  UNL     1      28.797 -15.855  36.464  1.00  0.00    -0.246 N 
HETATM   14 BR2  UNL     1      28.906 -17.714  36.805  1.00  0.00     0.058 Br
BRANCH   8  15
HETATM   15  C7  UNL     1      29.440 -12.833  34.612  1.00  0.00     0.182 C 
BRANCH  15  16
HETATM   16  N1  UNL     1      29.004 -11.525  35.025  1.00  0.00    -0.359 N 
HETATM   17  C8  UNL     1      27.868 -10.861  34.484  1.00  0.00     0.182 C 
HETATM   18  N2  UNL     1      27.263  -9.909  35.107  1.00  0.00    -0.374 N 
HETATM   19  N3  UNL     1      27.348 -11.230  33.211  1.00  0.00    -0.064 NA
ATOM     20  H22 UNL     1      27.635  -9.645  36.019  1.00  0.00     0.158 HD
ATOM     21  H21 UNL     1      26.448  -9.433  34.720  1.00  0.00     0.158 HD
ATOM     22  H1  UNL     1      29.540 -11.047  35.749  1.00  0.00     0.162 HD
ENDBRANCH  15  16
ENDBRANCH   8  15
ENDBRANCH   5   7
ENDBRANCH   4   5
TORSDOF 4
ENDMDL
MODEL 3
REMARK VINA RESULT: -5.233754428     11.543     13.547
REMARK  4 active torsions:
REMARK  status: ('A' for Active; 'I' for Inactive)
REMARK    1  A    between atoms: C4_4  and  S1_5 
REMARK    2  A    between atoms: S1_5  and  C5_7 
REMARK    3  A    between atoms: C6_8  and  C7_9 
REMARK    4  A    between atoms: C7_9  and  N1_10 
REMARK       I    between atoms: N1_10  and  C8_12 
ROOT
HETATM    1  C1  UNL     1      20.924 -19.906  26.758  1.00  0.00     0.017 C 
HETATM    2  C2  UNL     1      21.165 -20.586  27.707  1.00  0.00    -0.089 C 
HETATM    3  C3  UNL     1      21.437 -21.425  28.866  1.00  0.00     0.073 C 
HETATM    4  C4  UNL     1      21.444 -20.918  30.080  1.00  0.00     0.094 C 
ENDROOT
BRANCH   4   5
HETATM    5  S1  UNL     1      21.772 -21.945  31.437  1.00  0.00     0.094 S 
HETATM    6  O1  UNL     1      20.290 -22.256  32.200  1.00  0.00    -0.247 OA
BRANCH   5   7
HETATM    7  C5  UNL     1      22.531 -23.434  30.957  1.00  0.00     0.143 A 
HETATM    8  C6  UNL     1      21.893 -24.646  30.829  1.00  0.00     0.066 A 
HETATM    9  N4  UNL     1      22.796 -25.587  30.438  1.00  0.00    -0.335 N 
HETATM   10  C9  UNL     1      23.980 -24.939  30.331  1.00  0.00     0.167 A 
ATOM     11  H4  UNL     1      22.617 -26.576  30.263  1.00  0.00     0.168 HD
HETATM   12 BR1  UNL     1      25.621 -25.744  29.816  1.00  0.00    -0.009 Br
HETATM   13  N5  UNL     1      23.817 -23.643  30.645  1.00  0.00    -0.246 N 
HETATM   14 BR2  UNL     1      25.189 -22.339  30.640  1.00  0.00     0.058 Br
BRANCH   8  15
HETATM   15  C7  UNL     1      20.447 -24.835  31.097  1.00  0.00     0.182 C 
BRANCH  15  16
HETATM   16  N1  UNL     1      19.631 -24.131  30.144  1.00  0.00    -0.359 N 
HETATM   17  C8  UNL     1      19.005 -24.749  29.026  1.00  0.00     0.182 C 
HETATM   18  N2  UNL     1      17.989 -24.229  28.428  1.00  0.00    -0.374 N 
HETATM   19  N3  UNL     1      19.486 -25.988  28.516  1.00  0.00    -0.064 NA
ATOM     20  H22 UNL     1      17.644 -23.341  28.793  1.00  0.00     0.158 HD
ATOM     21  H21 UNL     1      17.540 -24.672  27.626  1.00  0.00     0.158 HD
ATOM     22  H1  UNL     1      19.492 -23.130  30.279  1.00  0.00     0.162 HD
ENDBRANCH  15  16
ENDBRANCH   8  15
ENDBRANCH   5   7
ENDBRANCH   4   5
TORSDOF 4
ENDMDL
MODEL 4
REMARK VINA RESULT: -5.141105389     10.426     12.546
REMARK  4 active torsions:
REMARK  status: ('A' for Active; 'I' for Inactive)
REMARK    1  A    between atoms: C4_4  and  S1_5 
REMARK    2  A    between atoms: S1_5  and  C5_7 
REMARK    3  A    between atoms: C6_8  and  C7_9 
REMARK    4  A    between atoms: C7_9  and  N1_10 
REMARK       I    between atoms: N1_10  and  C8_12 
ROOT
HETATM    1  C1  UNL     1      26.527 -22.217  32.278  1.00  0.00     0.017 C 
HETATM    2  C2  UNL     1      25.469 -22.197  31.728  1.00  0.00    -0.089 C 
HETATM    3  C3  UNL     1      24.175 -22.151  31.062  1.00  0.00     0.073 C 
HETATM    4  C4  UNL     1      23.106 -22.669  31.628  1.00  0.00     0.094 C 
ENDROOT
BRANCH   4   5
HETATM    5  S1  UNL     1      21.581 -22.597  30.807  1.00  0.00     0.094 S 
HETATM    6  O1  UNL     1      20.398 -22.258  31.975  1.00  0.00    -0.247 OA
BRANCH   5   7
HETATM    7  C5  UNL     1      21.568 -21.383  29.563  1.00  0.00     0.143 A 
HETATM    8  C6  UNL     1      21.326 -21.615  28.228  1.00  0.00     0.066 A 
HETATM    9  N4  UNL     1      21.396 -20.437  27.549  1.00  0.00    -0.335 N 
HETATM   10  C9  UNL     1      21.682 -19.494  28.479  1.00  0.00     0.167 A 
ATOM     11  H4  UNL     1      21.262 -20.295  26.549  1.00  0.00     0.168 HD
HETATM   12 BR1  UNL     1      21.903 -17.642  28.120  1.00  0.00    -0.009 Br
HETATM   13  N5  UNL     1      21.785 -20.067  29.689  1.00  0.00    -0.246 N 
HETATM   14 BR2  UNL     1      22.172 -19.152  31.300  1.00  0.00     0.058 Br
BRANCH   8  15
HETATM   15  C7  UNL     1      21.046 -22.962  27.676  1.00  0.00     0.182 C 
BRANCH  15  16
HETATM   16  N1  UNL     1      19.633 -23.214  27.573  1.00  0.00    -0.359 N 
HETATM   17  C8  UNL     1      18.961 -24.257  28.269  1.00  0.00     0.182 C 
HETATM   18  N2  UNL     1      17.692 -24.236  28.489  1.00  0.00    -0.374 N 
HETATM   19  N3  UNL     1      19.680 -25.385  28.759  1.00  0.00    -0.064 NA
ATOM     20  H22 UNL     1      17.177 -23.429  28.138  1.00  0.00     0.158 HD
ATOM     21  H21 UNL     1      17.211 -24.984  28.988  1.00  0.00     0.158 HD
ATOM     22  H1  UNL     1      19.080 -22.609  26.966  1.00  0.00     0.162 HD
ENDBRANCH  15  16
ENDBRANCH   8  15
ENDBRANCH   5   7
ENDBRANCH   4   5
TORSDOF 4
ENDMDL
MODEL 5
REMARK VINA RESULT: -5.102510842      2.746      3.093
REMARK  4 active torsions:
REMARK  status: ('A' for Active; 'I' for Inactive)
REMARK    1  A    between atoms: C4_4  and  S1_5 
REMARK    2  A    between atoms: S1_5  and  C5_7 
REMARK    3  A    between atoms: C6_8  and  C7_9 
REMARK    4  A    between atoms: C7_9  and  N1_10 
REMARK       I    between atoms: N1_10  and  C8_12 
ROOT
HETATM    1  C1  UNL     1      26.290 -15.093  39.886  1.00  0.00     0.017 C 
HETATM    2  C2  UNL     1      26.703 -15.506  38.846  1.00  0.00    -0.089 C 
HETATM    3  C3  UNL     1      27.215 -16.027  37.587  1.00  0.00     0.073 C 
HETATM    4  C4  UNL     1      28.311 -15.537  37.049  1.00  0.00     0.094 C 
ENDROOT
BRANCH   4   5
HETATM    5  S1  UNL     1      28.893 -16.181  35.549  1.00  0.00     0.094 S 
HETATM    6  O1  UNL     1      27.635 -16.039  34.420  1.00  0.00    -0.247 OA
BRANCH   5   7
HETATM    7  C5  UNL     1      30.308 -15.344  34.986  1.00  0.00     0.143 A 
HETATM    8  C6  UNL     1      30.338 -14.044  34.537  1.00  0.00     0.066 A 
HETATM    9  N4  UNL     1      31.611 -13.722  34.178  1.00  0.00    -0.335 N 
HETATM   10  C9  UNL     1      32.350 -14.833  34.412  1.00  0.00     0.167 A 
ATOM     11  H4  UNL     1      31.940 -12.830  33.809  1.00  0.00     0.168 HD
HETATM   12 BR1  UNL     1      34.217 -14.987  34.098  1.00  0.00    -0.009 Br
HETATM   13  N5  UNL     1      31.563 -15.807  34.898  1.00  0.00    -0.246 N 
HETATM   14 BR2  UNL     1      32.145 -17.543  35.375  1.00  0.00     0.058 Br
BRANCH   8  15
HETATM   15  C7  UNL     1      29.134 -13.180  34.471  1.00  0.00     0.182 C 
BRANCH  15  16
HETATM   16  N1  UNL     1      29.360 -11.901  35.090  1.00  0.00    -0.359 N 
HETATM   17  C8  UNL     1      29.688 -10.719  34.370  1.00  0.00     0.182 C 
HETATM   18  N2  UNL     1      29.499  -9.540  34.854  1.00  0.00    -0.374 N 
HETATM   19  N3  UNL     1      30.246 -10.795  33.062  1.00  0.00    -0.064 NA
ATOM     20  H22 UNL     1      29.099  -9.485  35.791  1.00  0.00     0.158 HD
ATOM     21  H21 UNL     1      29.734  -8.692  34.338  1.00  0.00     0.158 HD
ATOM     22  H1  UNL     1      29.280 -11.837  36.105  1.00  0.00     0.162 HD
ENDBRANCH  15  16
ENDBRANCH   8  15
ENDBRANCH   5   7
ENDBRANCH   4   5
TORSDOF 4
ENDMDL
