MODEL 1
REMARK VINA RESULT: -6.534612010      0.000      0.000
REMARK  3 active torsions:
REMARK  status: ('A' for Active; 'I' for Inactive)
REMARK    1  A    between atoms: C4_10  and  C5_11 
REMARK    2  A    between atoms: N3_13  and  C7_14 
REMARK    3  A    between atoms: C8_16  and  C9_17 
ROOT
HETATM    1  N1  UNL     1      23.824 -14.434  43.808  1.00  0.00    -0.234 N 
ATOM      2  H11 UNL     1      22.955 -13.989  43.513  1.00  0.00     0.174 HD
ATOM      3  H12 UNL     1      23.940 -14.640  44.800  1.00  0.00     0.174 HD
HETATM    4  C1  UNL     1      24.767 -14.740  42.955  1.00  0.00     0.681 A 
HETATM    5  N2  UNL     1      25.972 -15.358  43.366  1.00  0.00    -0.155 N 
ATOM      6  H2  UNL     1      26.113 -15.575  44.352  1.00  0.00     0.187 HD
HETATM    7  C2  UNL     1      26.986 -15.680  42.430  1.00  0.00     0.275 A 
HETATM    8  O1  UNL     1      28.065 -16.237  42.822  1.00  0.00    -0.267 OA
HETATM    9  C3  UNL     1      26.865 -15.401  40.979  1.00  0.00     0.103 A 
HETATM   10  C4  UNL     1      27.841 -15.767  40.200  1.00  0.00     0.053 C 
HETATM   11  C10 UNL     1      25.623 -14.772  40.592  1.00  0.00     0.275 A 
HETATM   12  O2  UNL     1      25.417 -14.497  39.389  1.00  0.00    -0.267 OA
HETATM   13  N5  UNL     1      24.606 -14.455  41.579  1.00  0.00    -0.155 N 
ATOM     14  H5  UNL     1      23.742 -14.010  41.269  1.00  0.00     0.187 HD
ENDROOT
BRANCH  10  15
HETATM   15  C5  UNL     1      28.006 -15.622  38.769  1.00  0.00     0.050 A 
HETATM   16  C6  UNL     1      27.430 -16.311  37.728  1.00  0.00     0.122 A 
HETATM   17  N3  UNL     1      27.889 -15.850  36.553  1.00  0.00    -0.334 N 
HETATM   18  C8  UNL     1      28.761 -14.866  36.807  1.00  0.00     0.094 A 
HETATM   19  N4  UNL     1      28.836 -14.725  38.139  1.00  0.00    -0.344 N 
ATOM     20  H4  UNL     1      29.427 -14.045  38.619  1.00  0.00     0.167 HD
BRANCH  17  21
HETATM   21  C7  UNL     1      27.505 -16.334  35.248  1.00  0.00     0.214 C 
HETATM   22 BR1  UNL     1      28.698 -17.780  34.692  1.00  0.00    -0.074 Br
ENDBRANCH  17  21
BRANCH  18  23
HETATM   23  C9  UNL     1      29.528 -14.050  35.798  1.00  0.00     0.161 C 
HETATM   24 BR2  UNL     1      31.262 -14.849  35.524  1.00  0.00    -0.088 Br
ENDBRANCH  18  23
ENDBRANCH  10  15
TORSDOF 3
ENDMDL
MODEL 2
REMARK VINA RESULT: -6.313479002      0.710      1.873
REMARK  3 active torsions:
REMARK  status: ('A' for Active; 'I' for Inactive)
REMARK    1  A    between atoms: C4_10  and  C5_11 
REMARK    2  A    between atoms: N3_13  and  C7_14 
REMARK    3  A    between atoms: C8_16  and  C9_17 
ROOT
HETATM    1  N1  UNL     1      23.811 -14.541  43.423  1.00  0.00    -0.234 N 
ATOM      2  H11 UNL     1      22.916 -14.155  43.119  1.00  0.00     0.174 HD
ATOM      3  H12 UNL     1      23.937 -14.727  44.417  1.00  0.00     0.174 HD
HETATM    4  C1  UNL     1      24.775 -14.796  42.576  1.00  0.00     0.681 A 
HETATM    5  N2  UNL     1      26.015 -15.331  42.997  1.00  0.00    -0.155 N 
ATOM      6  H2  UNL     1      26.166 -15.528  43.986  1.00  0.00     0.187 HD
HETATM    7  C2  UNL     1      27.050 -15.599  42.068  1.00  0.00     0.275 A 
HETATM    8  O1  UNL     1      28.162 -16.082  42.469  1.00  0.00    -0.267 OA
HETATM    9  C3  UNL     1      26.917 -15.345  40.613  1.00  0.00     0.103 A 
HETATM   10  C4  UNL     1      27.918 -15.656  39.841  1.00  0.00     0.053 C 
HETATM   11  C10 UNL     1      25.639 -14.800  40.216  1.00  0.00     0.275 A 
HETATM   12  O2  UNL     1      25.421 -14.552  39.009  1.00  0.00    -0.267 OA
HETATM   13  N5  UNL     1      24.601 -14.537  41.196  1.00  0.00    -0.155 N 
ATOM     14  H5  UNL     1      23.712 -14.151  40.879  1.00  0.00     0.187 HD
ENDROOT
BRANCH  10  15
HETATM   15  C5  UNL     1      28.078 -15.518  38.409  1.00  0.00     0.050 A 
HETATM   16  C6  UNL     1      28.736 -14.563  37.670  1.00  0.00     0.122 A 
HETATM   17  N3  UNL     1      28.612 -14.820  36.359  1.00  0.00    -0.334 N 
HETATM   18  C8  UNL     1      27.881 -15.933  36.223  1.00  0.00     0.094 A 
HETATM   19  N4  UNL     1      27.556 -16.358  37.454  1.00  0.00    -0.344 N 
ATOM     20  H4  UNL     1      26.999 -17.189  37.654  1.00  0.00     0.167 HD
BRANCH  17  21
HETATM   21  C7  UNL     1      29.172 -14.031  35.286  1.00  0.00     0.214 C 
HETATM   22 BR1  UNL     1      31.085 -14.398  35.114  1.00  0.00    -0.074 Br
ENDBRANCH  17  21
BRANCH  18  23
HETATM   23  C9  UNL     1      27.483 -16.607  34.934  1.00  0.00     0.161 C 
HETATM   24 BR2  UNL     1      28.960 -17.669  34.292  1.00  0.00    -0.088 Br
ENDBRANCH  18  23
ENDBRANCH  10  15
TORSDOF 3
ENDMDL
MODEL 3
REMARK VINA RESULT: -6.153051701      1.374      2.231
REMARK  3 active torsions:
REMARK  status: ('A' for Active; 'I' for Inactive)
REMARK    1  A    between atoms: C4_10  and  C5_11 
REMARK    2  A    between atoms: N3_13  and  C7_14 
REMARK    3  A    between atoms: C8_16  and  C9_17 
ROOT
HETATM    1  N1  UNL     1      25.336 -15.253  45.407  1.00  0.00    -0.234 N 
ATOM      2  H11 UNL     1      26.021 -15.741  45.984  1.00  0.00     0.174 HD
ATOM      3  H12 UNL     1      24.547 -14.810  45.876  1.00  0.00     0.174 HD
HETATM    4  C1  UNL     1      25.454 -15.186  44.106  1.00  0.00     0.681 A 
HETATM    5  N2  UNL     1      24.504 -14.508  43.305  1.00  0.00    -0.155 N 
ATOM      6  H2  UNL     1      23.706 -14.056  43.749  1.00  0.00     0.187 HD
HETATM    7  C2  UNL     1      24.644 -14.448  41.897  1.00  0.00     0.275 A 
HETATM    8  O1  UNL     1      23.776 -13.831  41.193  1.00  0.00    -0.267 OA
HETATM    9  C3  UNL     1      25.773 -15.075  41.168  1.00  0.00     0.103 A 
HETATM   10  C4  UNL     1      25.824 -14.933  39.875  1.00  0.00     0.053 C 
HETATM   11  C10 UNL     1      26.725 -15.758  42.014  1.00  0.00     0.275 A 
HETATM   12  O2  UNL     1      27.718 -16.318  41.500  1.00  0.00    -0.267 OA
HETATM   13  N5  UNL     1      26.549 -15.800  43.455  1.00  0.00    -0.155 N 
ATOM     14  H5  UNL     1      27.242 -16.292  44.020  1.00  0.00     0.187 HD
ENDROOT
BRANCH  10  15
HETATM   15  C5  UNL     1      26.784 -15.431  38.913  1.00  0.00     0.050 A 
HETATM   16  C6  UNL     1      26.667 -16.416  37.960  1.00  0.00     0.122 A 
HETATM   17  N3  UNL     1      27.824 -16.560  37.294  1.00  0.00    -0.334 N 
HETATM   18  C8  UNL     1      28.702 -15.682  37.795  1.00  0.00     0.094 A 
HETATM   19  N4  UNL     1      28.082 -15.000  38.771  1.00  0.00    -0.344 N 
ATOM     20  H4  UNL     1      28.513 -14.263  39.329  1.00  0.00     0.167 HD
BRANCH  17  21
HETATM   21  C7  UNL     1      28.072 -17.498  36.224  1.00  0.00     0.214 C 
HETATM   22 BR1  UNL     1      27.612 -16.689  34.504  1.00  0.00    -0.074 Br
ENDBRANCH  17  21
BRANCH  18  23
HETATM   23  C9  UNL     1      30.131 -15.477  37.359  1.00  0.00     0.161 C 
HETATM   24 BR2  UNL     1      30.167 -14.278  35.849  1.00  0.00    -0.088 Br
ENDBRANCH  18  23
ENDBRANCH  10  15
TORSDOF 3
ENDMDL
MODEL 4
REMARK VINA RESULT: -5.729462043      1.424      2.846
REMARK  3 active torsions:
REMARK  status: ('A' for Active; 'I' for Inactive)
REMARK    1  A    between atoms: C4_10  and  C5_11 
REMARK    2  A    between atoms: N3_13  and  C7_14 
REMARK    3  A    between atoms: C8_16  and  C9_17 
ROOT
HETATM    1  N1  UNL     1      25.297 -15.222  45.111  1.00  0.00    -0.234 N 
ATOM      2  H11 UNL     1      25.992 -15.662  45.715  1.00  0.00     0.174 HD
ATOM      3  H12 UNL     1      24.462 -14.835  45.548  1.00  0.00     0.174 HD
HETATM    4  C1  UNL     1      25.460 -15.146  43.815  1.00  0.00     0.681 A 
HETATM    5  N2  UNL     1      24.497 -14.535  42.977  1.00  0.00    -0.155 N 
ATOM      6  H2  UNL     1      23.652 -14.140  43.390  1.00  0.00     0.187 HD
HETATM    7  C2  UNL     1      24.685 -14.464  41.575  1.00  0.00     0.275 A 
HETATM    8  O1  UNL     1      23.804 -13.909  40.838  1.00  0.00    -0.267 OA
HETATM    9  C3  UNL     1      25.882 -15.011  40.891  1.00  0.00     0.103 A 
HETATM   10  C4  UNL     1      25.973 -14.864  39.601  1.00  0.00     0.053 C 
HETATM   11  C10 UNL     1      26.846 -15.627  41.774  1.00  0.00     0.275 A 
HETATM   12  O2  UNL     1      27.895 -16.116  41.300  1.00  0.00    -0.267 OA
HETATM   13  N5  UNL     1      26.619 -15.682  43.208  1.00  0.00    -0.155 N 
ATOM     14  H5  UNL     1      27.322 -16.125  43.799  1.00  0.00     0.187 HD
ENDROOT
BRANCH  10  15
HETATM   15  C5  UNL     1      27.001 -15.294  38.677  1.00  0.00     0.050 A 
HETATM   16  C6  UNL     1      28.010 -14.585  38.068  1.00  0.00     0.122 A 
HETATM   17  N3  UNL     1      28.727 -15.389  37.267  1.00  0.00    -0.334 N 
HETATM   18  C8  UNL     1      28.204 -16.620  37.341  1.00  0.00     0.094 A 
HETATM   19  N4  UNL     1      27.164 -16.569  38.187  1.00  0.00    -0.344 N 
ATOM     20  H4  UNL     1      26.576 -17.365  38.434  1.00  0.00     0.167 HD
BRANCH  17  21
HETATM   21  C7  UNL     1      29.863 -14.992  36.469  1.00  0.00     0.214 C 
HETATM   22 BR1  UNL     1      29.477 -13.314  35.543  1.00  0.00    -0.074 Br
ENDBRANCH  17  21
BRANCH  18  23
HETATM   23  C9  UNL     1      28.679 -17.854  36.616  1.00  0.00     0.161 C 
HETATM   24 BR2  UNL     1      28.211 -17.713  34.751  1.00  0.00    -0.088 Br
ENDBRANCH  18  23
ENDBRANCH  10  15
TORSDOF 3
ENDMDL
MODEL 5
REMARK VINA RESULT: -5.402650554     10.922     13.604
REMARK  3 active torsions:
REMARK  status: ('A' for Active; 'I' for Inactive)
REMARK    1  A    between atoms: C4_10  and  C5_11 
REMARK    2  A    between atoms: N3_13  and  C7_14 
REMARK    3  A    between atoms: C8_16  and  C9_17 
ROOT
HETATM    1  N1  UNL     1      18.045 -23.798  27.690  1.00  0.00    -0.234 N 
ATOM      2  H11 UNL     1      17.893 -23.000  27.072  1.00  0.00     0.174 HD
ATOM      3  H12 UNL     1      17.319 -24.512  27.733  1.00  0.00     0.174 HD
HETATM    4  C1  UNL     1      19.133 -23.916  28.407  1.00  0.00     0.681 A 
HETATM    5  N2  UNL     1      19.344 -25.023  29.264  1.00  0.00    -0.155 N 
ATOM      6  H2  UNL     1      18.634 -25.752  29.325  1.00  0.00     0.187 HD
HETATM    7  C2  UNL     1      20.525 -25.135  30.037  1.00  0.00     0.275 A 
HETATM    8  O1  UNL     1      20.696 -26.141  30.804  1.00  0.00    -0.267 OA
HETATM    9  C3  UNL     1      21.609 -24.123  30.010  1.00  0.00     0.103 A 
HETATM   10  C4  UNL     1      22.668 -24.338  30.734  1.00  0.00     0.053 C 
HETATM   11  C10 UNL     1      21.363 -23.007  29.124  1.00  0.00     0.275 A 
HETATM   12  O2  UNL     1      22.217 -22.099  29.023  1.00  0.00    -0.267 OA
HETATM   13  N5  UNL     1      20.140 -22.925  28.347  1.00  0.00    -0.155 N 
ATOM     14  H5  UNL     1      20.001 -22.122  27.733  1.00  0.00     0.187 HD
ENDROOT
BRANCH  10  15
HETATM   15  C5  UNL     1      23.862 -23.539  30.913  1.00  0.00     0.050 A 
HETATM   16  C6  UNL     1      25.186 -23.850  30.707  1.00  0.00     0.122 A 
HETATM   17  N3  UNL     1      25.965 -22.803  31.020  1.00  0.00    -0.334 N 
HETATM   18  C8  UNL     1      25.172 -21.805  31.430  1.00  0.00     0.094 A 
HETATM   19  N4  UNL     1      23.905 -22.242  31.369  1.00  0.00    -0.344 N 
ATOM     20  H4  UNL     1      23.087 -21.690  31.624  1.00  0.00     0.167 HD
BRANCH  17  21
HETATM   21  C7  UNL     1      27.406 -22.764  30.927  1.00  0.00     0.214 C 
HETATM   22 BR1  UNL     1      27.947 -21.977  29.221  1.00  0.00    -0.074 Br
ENDBRANCH  17  21
BRANCH  18  23
HETATM   23  C9  UNL     1      25.600 -20.432  31.882  1.00  0.00     0.161 C 
HETATM   24 BR2  UNL     1      24.161 -19.186  31.575  1.00  0.00    -0.088 Br
ENDBRANCH  18  23
ENDBRANCH  10  15
TORSDOF 3
ENDMDL
