MODEL 1
REMARK VINA RESULT: -5.172813676      0.000      0.000
REMARK  6 active torsions:
REMARK  status: ('A' for Active; 'I' for Inactive)
REMARK    1  A    between atoms: N1_2  and  C3_4 
REMARK    2  A    between atoms: C4_5  and  N2_6 
REMARK    3  A    between atoms: N2_6  and  C5_8 
REMARK    4  A    between atoms: C5_8  and  C6_10 
REMARK    5  A    between atoms: C5_8  and  C7_13 
REMARK    6  A    between atoms: C6_10  and  O1_11 
ROOT
HETATM    1  C3  UNL     1      22.130 -23.286  30.148  1.00  0.00     0.107 A 
HETATM    2  C4  UNL     1      20.761 -23.379  29.962  1.00  0.00     0.146 A 
HETATM    3  N3  UNL     1      20.028 -23.763  31.019  1.00  0.00    -0.282 N 
ATOM      4  H3  UNL     1      19.019 -23.831  30.884  1.00  0.00     0.188 HD
HETATM    5  N4  UNL     1      20.492 -24.059  32.208  1.00  0.00    -0.281 N 
ATOM      6  H4  UNL     1      19.851 -24.343  32.948  1.00  0.00     0.188 HD
HETATM    7  C8  UNL     1      21.807 -23.989  32.453  1.00  0.00     0.166 A 
HETATM    8  N5  UNL     1      22.867 -24.116  33.284  1.00  0.00    -0.282 N 
ATOM      9  H5  UNL     1      23.002 -24.385  34.259  1.00  0.00     0.188 HD
HETATM   10  N6  UNL     1      23.642 -23.749  32.304  1.00  0.00    -0.293 N 
ATOM     11  H6  UNL     1      24.651 -23.618  32.225  1.00  0.00     0.187 HD
HETATM   12  C9  UNL     1      22.628 -23.605  31.432  1.00  0.00     0.125 A 
ENDROOT
BRANCH   2  13
HETATM   13  N2  UNL     1      20.270 -23.098  28.829  1.00  0.00    -0.352 N 
ATOM     14  H2  UNL     1      20.160 -22.099  28.654  1.00  0.00     0.163 HD
BRANCH  13  15
HETATM   15  C5  UNL     1      19.850 -23.927  27.765  1.00  0.00     0.120 C 
HETATM   16 BR1  UNL     1      20.178 -25.828  28.093  1.00  0.00    -0.059 Br
BRANCH  15  17
HETATM   17  C6  UNL     1      18.312 -23.839  27.690  1.00  0.00     0.208 C 
BRANCH  17  18
HETATM   18  O1  UNL     1      17.697 -24.245  28.845  1.00  0.00    -0.398 OA
ATOM     19  H1  UNL     1      17.658 -23.560  29.502  1.00  0.00     0.209 HD
ENDBRANCH  17  18
ENDBRANCH  15  17
BRANCH  15  20
HETATM   20  C7  UNL     1      20.310 -23.517  26.392  1.00  0.00     0.130 C 
HETATM   21 BR2  UNL     1      20.706 -21.611  26.447  1.00  0.00    -0.093 Br
ENDBRANCH  15  20
ENDBRANCH  13  15
ENDBRANCH   2  13
BRANCH   1  22
HETATM   22  N1  UNL     1      22.992 -22.949  29.276  1.00  0.00    -0.385 N 
HETATM   23  C1  UNL     1      23.406 -21.564  29.180  1.00  0.00     0.149 C 
HETATM   24  C2  UNL     1      23.599 -23.863  28.360  1.00  0.00     0.149 C 
ENDBRANCH   1  22
TORSDOF 6
ENDMDL
MODEL 2
REMARK VINA RESULT: -4.910196120     13.258     14.366
REMARK  6 active torsions:
REMARK  status: ('A' for Active; 'I' for Inactive)
REMARK    1  A    between atoms: N1_2  and  C3_4 
REMARK    2  A    between atoms: C4_5  and  N2_6 
REMARK    3  A    between atoms: N2_6  and  C5_8 
REMARK    4  A    between atoms: C5_8  and  C6_10 
REMARK    5  A    between atoms: C5_8  and  C7_13 
REMARK    6  A    between atoms: C6_10  and  O1_11 
ROOT
HETATM    1  C3  UNL     1      30.519 -13.825  34.718  1.00  0.00     0.107 A 
HETATM    2  C4  UNL     1      29.697 -14.015  35.816  1.00  0.00     0.146 A 
HETATM    3  N3  UNL     1      28.747 -13.091  36.033  1.00  0.00    -0.282 N 
ATOM      4  H3  UNL     1      28.140 -13.230  36.841  1.00  0.00     0.188 HD
HETATM    5  N4  UNL     1      28.531 -12.027  35.300  1.00  0.00    -0.281 N 
ATOM      6  H4  UNL     1      27.782 -11.381  35.549  1.00  0.00     0.188 HD
HETATM    7  C8  UNL     1      29.291 -11.785  34.224  1.00  0.00     0.166 A 
HETATM    8  N5  UNL     1      29.625 -11.028  33.153  1.00  0.00    -0.282 N 
ATOM      9  H5  UNL     1      29.285 -10.161  32.738  1.00  0.00     0.188 HD
HETATM   10  N6  UNL     1      30.568 -11.884  32.880  1.00  0.00    -0.293 N 
ATOM     11  H6  UNL     1      31.269 -11.936  32.140  1.00  0.00     0.187 HD
HETATM   12  C9  UNL     1      30.282 -12.676  33.929  1.00  0.00     0.125 A 
ENDROOT
BRANCH   2  13
HETATM   13  N2  UNL     1      29.870 -15.033  36.549  1.00  0.00    -0.352 N 
ATOM     14  H2  UNL     1      30.662 -14.963  37.188  1.00  0.00     0.163 HD
BRANCH  13  15
HETATM   15  C5  UNL     1      29.156 -16.250  36.635  1.00  0.00     0.120 C 
HETATM   16 BR1  UNL     1      27.831 -16.470  35.212  1.00  0.00    -0.059 Br
BRANCH  15  17
HETATM   17  C6  UNL     1      30.157 -17.394  36.370  1.00  0.00     0.208 C 
BRANCH  17  18
HETATM   18  O1  UNL     1      29.768 -18.583  36.929  1.00  0.00    -0.398 OA
ATOM     19  H1  UNL     1      30.468 -19.224  36.956  1.00  0.00     0.209 HD
ENDBRANCH  17  18
ENDBRANCH  15  17
BRANCH  15  20
HETATM   20  C7  UNL     1      28.574 -16.576  37.985  1.00  0.00     0.130 C 
HETATM   21 BR2  UNL     1      26.947 -15.526  38.195  1.00  0.00    -0.093 Br
ENDBRANCH  15  20
ENDBRANCH  13  15
ENDBRANCH   2  13
BRANCH   1  22
HETATM   22  N1  UNL     1      31.475 -14.577  34.348  1.00  0.00    -0.385 N 
HETATM   23  C1  UNL     1      31.243 -15.577  33.326  1.00  0.00     0.149 C 
HETATM   24  C2  UNL     1      32.800 -14.504  34.882  1.00  0.00     0.149 C 
ENDBRANCH   1  22
TORSDOF 6
ENDMDL
MODEL 3
REMARK VINA RESULT: -4.880389990      3.416      5.212
REMARK  6 active torsions:
REMARK  status: ('A' for Active; 'I' for Inactive)
REMARK    1  A    between atoms: N1_2  and  C3_4 
REMARK    2  A    between atoms: C4_5  and  N2_6 
REMARK    3  A    between atoms: N2_6  and  C5_8 
REMARK    4  A    between atoms: C5_8  and  C6_10 
REMARK    5  A    between atoms: C5_8  and  C7_13 
REMARK    6  A    between atoms: C6_10  and  O1_11 
ROOT
HETATM    1  C3  UNL     1      21.183 -24.343  30.152  1.00  0.00     0.107 A 
HETATM    2  C4  UNL     1      22.231 -25.228  29.958  1.00  0.00     0.146 A 
HETATM    3  N3  UNL     1      22.038 -26.216  29.070  1.00  0.00    -0.282 N 
ATOM      4  H3  UNL     1      22.809 -26.868  28.926  1.00  0.00     0.188 HD
HETATM    5  N4  UNL     1      20.948 -26.417  28.371  1.00  0.00    -0.281 N 
ATOM      6  H4  UNL     1      20.899 -27.200  27.719  1.00  0.00     0.188 HD
HETATM    7  C8  UNL     1      19.899 -25.597  28.510  1.00  0.00     0.166 A 
HETATM    8  N5  UNL     1      18.639 -25.216  28.193  1.00  0.00    -0.282 N 
ATOM      9  H5  UNL     1      17.912 -25.555  27.562  1.00  0.00     0.188 HD
HETATM   10  N6  UNL     1      18.754 -24.233  29.040  1.00  0.00    -0.293 N 
ATOM     11  H6  UNL     1      18.123 -23.485  29.328  1.00  0.00     0.187 HD
HETATM   12  C9  UNL     1      20.009 -24.563  29.395  1.00  0.00     0.125 A 
ENDROOT
BRANCH   2  13
HETATM   13  N2  UNL     1      23.304 -25.067  30.611  1.00  0.00    -0.352 N 
ATOM     14  H2  UNL     1      23.262 -25.392  31.578  1.00  0.00     0.163 HD
BRANCH  13  15
HETATM   15  C5  UNL     1      24.549 -24.517  30.234  1.00  0.00     0.120 C 
HETATM   16 BR1  UNL     1      24.452 -23.430  28.609  1.00  0.00    -0.059 Br
BRANCH  15  17
HETATM   17  C6  UNL     1      24.954 -23.498  31.320  1.00  0.00     0.208 C 
BRANCH  17  18
HETATM   18  O1  UNL     1      24.237 -23.642  32.478  1.00  0.00    -0.398 OA
ATOM     19  H1  UNL     1      24.069 -24.551  32.699  1.00  0.00     0.209 HD
ENDBRANCH  17  18
ENDBRANCH  15  17
BRANCH  15  20
HETATM   20  C7  UNL     1      25.705 -25.480  30.185  1.00  0.00     0.130 C 
HETATM   21 BR2  UNL     1      27.327 -24.442  29.889  1.00  0.00    -0.093 Br
ENDBRANCH  15  20
ENDBRANCH  13  15
ENDBRANCH   2  13
BRANCH   1  22
HETATM   22  N1  UNL     1      21.165 -23.353  30.948  1.00  0.00    -0.385 N 
HETATM   23  C1  UNL     1      20.725 -23.543  32.315  1.00  0.00     0.149 C 
HETATM   24  C2  UNL     1      21.559 -22.028  30.582  1.00  0.00     0.149 C 
ENDBRANCH   1  22
TORSDOF 6
ENDMDL
MODEL 4
REMARK VINA RESULT: -4.759859316      2.828      5.217
REMARK  6 active torsions:
REMARK  status: ('A' for Active; 'I' for Inactive)
REMARK    1  A    between atoms: N1_2  and  C3_4 
REMARK    2  A    between atoms: C4_5  and  N2_6 
REMARK    3  A    between atoms: N2_6  and  C5_8 
REMARK    4  A    between atoms: C5_8  and  C6_10 
REMARK    5  A    between atoms: C5_8  and  C7_13 
REMARK    6  A    between atoms: C6_10  and  O1_11 
ROOT
HETATM    1  C3  UNL     1      20.487 -23.053  28.096  1.00  0.00     0.107 A 
HETATM    2  C4  UNL     1      21.547 -22.749  28.935  1.00  0.00     0.146 A 
HETATM    3  N3  UNL     1      22.018 -21.493  28.891  1.00  0.00    -0.282 N 
ATOM      4  H3  UNL     1      22.798 -21.268  29.509  1.00  0.00     0.188 HD
HETATM    5  N4  UNL     1      21.567 -20.531  28.125  1.00  0.00    -0.281 N 
ATOM      6  H4  UNL     1      21.995 -19.606  28.164  1.00  0.00     0.188 HD
HETATM    7  C8  UNL     1      20.544 -20.759  27.291  1.00  0.00     0.166 A 
HETATM    8  N5  UNL     1      19.667 -20.344  26.347  1.00  0.00    -0.282 N 
ATOM      9  H5  UNL     1      19.484 -19.469  25.856  1.00  0.00     0.188 HD
HETATM   10  N6  UNL     1      19.157 -21.542  26.336  1.00  0.00    -0.293 N 
ATOM     11  H6  UNL     1      18.395 -21.970  25.811  1.00  0.00     0.187 HD
HETATM   12  C9  UNL     1      20.003 -22.012  27.272  1.00  0.00     0.125 A 
ENDROOT
BRANCH   2  13
HETATM   13  N2  UNL     1      22.011 -23.650  29.695  1.00  0.00    -0.352 N 
ATOM     14  H2  UNL     1      22.333 -24.487  29.209  1.00  0.00     0.163 HD
BRANCH  13  15
HETATM   15  C5  UNL     1      22.160 -23.696  31.100  1.00  0.00     0.120 C 
HETATM   16 BR1  UNL     1      20.762 -22.718  32.057  1.00  0.00    -0.059 Br
BRANCH  15  17
HETATM   17  C6  UNL     1      21.938 -25.158  31.541  1.00  0.00     0.208 C 
BRANCH  17  18
HETATM   18  O1  UNL     1      21.671 -25.997  30.491  1.00  0.00    -0.398 OA
ATOM     19  H1  UNL     1      20.914 -26.551  30.644  1.00  0.00     0.209 HD
ENDBRANCH  17  18
ENDBRANCH  15  17
BRANCH  15  20
HETATM   20  C7  UNL     1      23.529 -23.358  31.626  1.00  0.00     0.130 C 
HETATM   21 BR2  UNL     1      24.837 -24.207  30.458  1.00  0.00    -0.093 Br
ENDBRANCH  15  20
ENDBRANCH  13  15
ENDBRANCH   2  13
BRANCH   1  22
HETATM   22  N1  UNL     1      19.907 -24.178  27.985  1.00  0.00    -0.385 N 
HETATM   23  C1  UNL     1      20.361 -25.120  26.982  1.00  0.00     0.149 C 
HETATM   24  C2  UNL     1      18.810 -24.594  28.802  1.00  0.00     0.149 C 
ENDBRANCH   1  22
TORSDOF 6
ENDMDL
MODEL 5
REMARK VINA RESULT: -4.753091493      2.919      4.782
REMARK  6 active torsions:
REMARK  status: ('A' for Active; 'I' for Inactive)
REMARK    1  A    between atoms: N1_2  and  C3_4 
REMARK    2  A    between atoms: C4_5  and  N2_6 
REMARK    3  A    between atoms: N2_6  and  C5_8 
REMARK    4  A    between atoms: C5_8  and  C6_10 
REMARK    5  A    between atoms: C5_8  and  C7_13 
REMARK    6  A    between atoms: C6_10  and  O1_11 
ROOT
HETATM    1  C3  UNL     1      20.882 -22.715  28.412  1.00  0.00     0.107 A 
HETATM    2  C4  UNL     1      20.952 -23.133  29.730  1.00  0.00     0.146 A 
HETATM    3  N3  UNL     1      19.998 -23.979  30.152  1.00  0.00    -0.282 N 
ATOM      4  H3  UNL     1      20.049 -24.288  31.123  1.00  0.00     0.188 HD
HETATM    5  N4  UNL     1      19.008 -24.441  29.430  1.00  0.00    -0.281 N 
ATOM      6  H4  UNL     1      18.331 -25.081  29.844  1.00  0.00     0.188 HD
HETATM    7  C8  UNL     1      18.884 -24.075  28.147  1.00  0.00     0.166 A 
HETATM    8  N5  UNL     1      18.240 -24.120  26.958  1.00  0.00    -0.282 N 
ATOM      9  H5  UNL     1      17.412 -24.593  26.594  1.00  0.00     0.188 HD
HETATM   10  N6  UNL     1      19.131 -23.300  26.478  1.00  0.00    -0.293 N 
ATOM     11  H6  UNL     1      19.264 -22.876  25.560  1.00  0.00     0.187 HD
HETATM   12  C9  UNL     1      19.813 -23.216  27.635  1.00  0.00     0.125 A 
ENDROOT
BRANCH   2  13
HETATM   13  N2  UNL     1      21.896 -22.713  30.463  1.00  0.00    -0.352 N 
ATOM     14  H2  UNL     1      21.838 -21.721  30.697  1.00  0.00     0.163 HD
BRANCH  13  15
HETATM   15  C5  UNL     1      23.015 -23.379  31.012  1.00  0.00     0.120 C 
HETATM   16 BR1  UNL     1      24.469 -22.166  31.505  1.00  0.00    -0.059 Br
BRANCH  15  17
HETATM   17  C6  UNL     1      22.578 -23.979  32.364  1.00  0.00     0.208 C 
BRANCH  17  18
HETATM   18  O1  UNL     1      22.088 -25.254  32.248  1.00  0.00    -0.398 OA
ATOM     19  H1  UNL     1      21.460 -25.471  32.926  1.00  0.00     0.209 HD
ENDBRANCH  17  18
ENDBRANCH  15  17
BRANCH  15  20
HETATM   20  C7  UNL     1      23.524 -24.561  30.232  1.00  0.00     0.130 C 
HETATM   21 BR2  UNL     1      25.470 -24.513  30.290  1.00  0.00    -0.093 Br
ENDBRANCH  15  20
ENDBRANCH  13  15
ENDBRANCH   2  13
BRANCH   1  22
HETATM   22  N1  UNL     1      21.679 -21.916  27.827  1.00  0.00    -0.385 N 
HETATM   23  C1  UNL     1      21.370 -20.502  27.784  1.00  0.00     0.149 C 
HETATM   24  C2  UNL     1      22.894 -22.325  27.192  1.00  0.00     0.149 C 
ENDBRANCH   1  22
TORSDOF 6
ENDMDL
