MODEL 1
REMARK VINA RESULT: -7.238716861      0.000      0.000
REMARK  7 active torsions:
REMARK  status: ('A' for Active; 'I' for Inactive)
REMARK    1  A    between atoms: N1_2  and  C2_5 
REMARK    2  A    between atoms: C2_5  and  C3_6 
REMARK    3  A    between atoms: C3_6  and  C4_7 
REMARK    4  A    between atoms: C4_7  and  C5_8 
REMARK    5  A    between atoms: C5_8  and  C6_9 
REMARK       I    between atoms: C6_9  and  N2_11 
REMARK    6  A    between atoms: C9_16  and  C10_17 
REMARK    7  A    between atoms: C10_17  and  C11_18 
ROOT
HETATM    1  C5  UNL     1      -1.385  35.880 102.299  1.00  0.00     0.065 C 
HETATM    2  C8  UNL     1      -2.452  36.900 102.346  1.00  0.00     0.187 C 
HETATM    3  O2  UNL     1      -2.530  37.370 101.009  1.00  0.00    -0.384 OA
HETATM    4  C9  UNL     1      -2.514  36.206 100.222  1.00  0.00     0.125 C 
HETATM    5  C16 UNL     1      -1.461  35.392 100.866  1.00  0.00     0.053 C 
ENDROOT
BRANCH   1   6
HETATM    6  C4  UNL     1      -0.064  36.204 102.779  1.00  0.00     0.023 C 
BRANCH   6   7
HETATM    7  C3  UNL     1       1.193  35.938 102.100  1.00  0.00     0.029 C 
BRANCH   7   8
HETATM    8  C2  UNL     1       2.363  35.467 102.858  1.00  0.00     0.231 C 
BRANCH   8   9
HETATM    9  N1  UNL     1       2.026  34.538 103.924  1.00  0.00    -0.079 N 
HETATM   10  C1  UNL     1       2.373  33.187 103.644  1.00  0.00     0.266 C 
ATOM     11  H12 UNL     1       1.037  34.611 104.163  1.00  0.00     0.276 HD
ATOM     12  H11 UNL     1       2.440  34.838 104.806  1.00  0.00     0.276 HD
ENDBRANCH   8   9
ENDBRANCH   7   8
ENDBRANCH   6   7
ENDBRANCH   1   6
BRANCH   1  13
HETATM   13  C6  UNL     1      -1.863  34.689 103.110  1.00  0.00     0.228 C 
HETATM   14  O1  UNL     1      -1.124  33.727 103.313  1.00  0.00    -0.273 OA
HETATM   15  N2  UNL     1      -3.174  34.734 103.616  1.00  0.00    -0.365 N 
HETATM   16  C7  UNL     1      -3.770  33.675 104.404  1.00  0.00     0.149 C 
ATOM     17  H2  UNL     1      -3.737  35.560 103.415  1.00  0.00     0.161 HD
ENDBRANCH   1  13
BRANCH   4  18
HETATM   18  C10 UNL     1      -3.866  35.625 100.076  1.00  0.00     0.075 C 
BRANCH  18  19
HETATM   19  C11 UNL     1      -4.318  35.244  98.723  1.00  0.00     0.109 C 
HETATM   20  F1  UNL     1      -3.554  34.355  98.026  1.00  0.00    -0.243 F 
HETATM   21  C12 UNL     1      -5.688  34.556  98.871  1.00  0.00     0.071 C 
HETATM   22  C13 UNL     1      -6.801  35.560  99.022  1.00  0.00     0.235 C 
HETATM   23  N3  UNL     1      -6.976  36.287  97.792  1.00  0.00    -0.075 N 
HETATM   24  C14 UNL     1      -5.771  36.227  96.973  1.00  0.00     0.235 C 
ATOM     25  H32 UNL     1      -7.797  35.965  97.279  1.00  0.00     0.277 HD
ATOM     26  H31 UNL     1      -7.269  37.249  97.963  1.00  0.00     0.277 HD
HETATM   27  C15 UNL     1      -4.560  36.468  97.836  1.00  0.00     0.071 C 
ENDBRANCH  18  19
ENDBRANCH   4  18
TORSDOF 7
ENDMDL
MODEL 2
REMARK VINA RESULT: -7.194310586      1.805      2.608
REMARK  7 active torsions:
REMARK  status: ('A' for Active; 'I' for Inactive)
REMARK    1  A    between atoms: N1_2  and  C2_5 
REMARK    2  A    between atoms: C2_5  and  C3_6 
REMARK    3  A    between atoms: C3_6  and  C4_7 
REMARK    4  A    between atoms: C4_7  and  C5_8 
REMARK    5  A    between atoms: C5_8  and  C6_9 
REMARK       I    between atoms: C6_9  and  N2_11 
REMARK    6  A    between atoms: C9_16  and  C10_17 
REMARK    7  A    between atoms: C10_17  and  C11_18 
ROOT
HETATM    1  C5  UNL     1      -1.587  36.240 101.890  1.00  0.00     0.065 C 
HETATM    2  C8  UNL     1      -0.936  36.185 100.565  1.00  0.00     0.187 C 
HETATM    3  O2  UNL     1      -1.582  35.101  99.915  1.00  0.00    -0.384 OA
HETATM    4  C9  UNL     1      -2.949  35.297 100.172  1.00  0.00     0.125 C 
HETATM    5  C16 UNL     1      -2.962  35.670 101.602  1.00  0.00     0.053 C 
ENDROOT
BRANCH   1   6
HETATM    6  C4  UNL     1      -0.914  35.693 103.042  1.00  0.00     0.023 C 
BRANCH   6   7
HETATM    7  C3  UNL     1      -1.019  34.332 103.542  1.00  0.00     0.029 C 
BRANCH   7   8
HETATM    8  C2  UNL     1       0.096  33.388 103.371  1.00  0.00     0.231 C 
BRANCH   8   9
HETATM    9  N1  UNL     1       1.267  33.727 104.163  1.00  0.00    -0.079 N 
HETATM   10  C1  UNL     1       2.468  33.111 103.713  1.00  0.00     0.266 C 
ATOM     11  H12 UNL     1       1.106  33.519 105.149  1.00  0.00     0.276 HD
ATOM     12  H11 UNL     1       1.383  34.739 104.218  1.00  0.00     0.276 HD
ENDBRANCH   8   9
ENDBRANCH   7   8
ENDBRANCH   6   7
ENDBRANCH   1   6
BRANCH   1  13
HETATM   13  C6  UNL     1      -1.861  37.701 102.198  1.00  0.00     0.228 C 
HETATM   14  O1  UNL     1      -2.161  38.060 103.335  1.00  0.00    -0.273 OA
HETATM   15  N2  UNL     1      -1.757  38.617 101.137  1.00  0.00    -0.365 N 
HETATM   16  C7  UNL     1      -1.990  40.040 101.275  1.00  0.00     0.149 C 
ATOM     17  H2  UNL     1      -1.504  38.258 100.217  1.00  0.00     0.161 HD
ENDBRANCH   1  13
BRANCH   4  18
HETATM   18  C10 UNL     1      -3.562  36.223  99.195  1.00  0.00     0.075 C 
BRANCH  18  19
HETATM   19  C11 UNL     1      -4.322  35.645  98.070  1.00  0.00     0.109 C 
HETATM   20  F1  UNL     1      -3.656  34.820  97.210  1.00  0.00    -0.243 F 
HETATM   21  C12 UNL     1      -5.439  34.769  98.668  1.00  0.00     0.071 C 
HETATM   22  C13 UNL     1      -6.617  35.598  99.112  1.00  0.00     0.235 C 
HETATM   23  N3  UNL     1      -7.279  36.163  97.966  1.00  0.00    -0.075 N 
HETATM   24  C14 UNL     1      -6.384  36.211  96.816  1.00  0.00     0.235 C 
ATOM     25  H32 UNL     1      -8.144  35.667  97.749  1.00  0.00     0.277 HD
ATOM     26  H31 UNL     1      -7.674  37.080  98.174  1.00  0.00     0.277 HD
HETATM   27  C15 UNL     1      -5.034  36.722  97.246  1.00  0.00     0.071 C 
ENDBRANCH  18  19
ENDBRANCH   4  18
TORSDOF 7
ENDMDL
MODEL 3
REMARK VINA RESULT: -7.139602551      1.415      1.936
REMARK  7 active torsions:
REMARK  status: ('A' for Active; 'I' for Inactive)
REMARK    1  A    between atoms: N1_2  and  C2_5 
REMARK    2  A    between atoms: C2_5  and  C3_6 
REMARK    3  A    between atoms: C3_6  and  C4_7 
REMARK    4  A    between atoms: C4_7  and  C5_8 
REMARK    5  A    between atoms: C5_8  and  C6_9 
REMARK       I    between atoms: C6_9  and  N2_11 
REMARK    6  A    between atoms: C9_16  and  C10_17 
REMARK    7  A    between atoms: C10_17  and  C11_18 
ROOT
HETATM    1  C5  UNL     1      -1.313  35.821 102.220  1.00  0.00     0.065 C 
HETATM    2  C8  UNL     1      -2.333  36.889 102.266  1.00  0.00     0.187 C 
HETATM    3  O2  UNL     1      -2.399  37.351 100.925  1.00  0.00    -0.384 OA
HETATM    4  C9  UNL     1      -2.440  36.183 100.147  1.00  0.00     0.125 C 
HETATM    5  C16 UNL     1      -1.421  35.327 100.791  1.00  0.00     0.053 C 
ENDROOT
BRANCH   1   6
HETATM    6  C4  UNL     1       0.024  36.089 102.688  1.00  0.00     0.023 C 
BRANCH   6   7
HETATM    7  C3  UNL     1       1.038  36.880 102.009  1.00  0.00     0.029 C 
BRANCH   7   8
HETATM    8  C2  UNL     1       1.725  37.973 102.715  1.00  0.00     0.231 C 
BRANCH   8   9
HETATM    9  N1  UNL     1       0.885  39.139 102.934  1.00  0.00    -0.079 N 
HETATM   10  C1  UNL     1       0.553  39.845 101.744  1.00  0.00     0.266 C 
ATOM     11  H12 UNL     1       1.313  39.766 103.616  1.00  0.00     0.276 HD
ATOM     12  H11 UNL     1       0.040  38.881 103.444  1.00  0.00     0.276 HD
ENDBRANCH   8   9
ENDBRANCH   7   8
ENDBRANCH   6   7
ENDBRANCH   1   6
BRANCH   1  13
HETATM   13  C6  UNL     1      -1.838  34.659 103.043  1.00  0.00     0.228 C 
HETATM   14  O1  UNL     1      -1.138  33.672 103.258  1.00  0.00    -0.273 OA
HETATM   15  N2  UNL     1      -3.147  34.760 103.545  1.00  0.00    -0.365 N 
HETATM   16  C7  UNL     1      -3.786  33.734 104.344  1.00  0.00     0.149 C 
ATOM     17  H2  UNL     1      -3.678  35.605 103.334  1.00  0.00     0.161 HD
ENDBRANCH   1  13
BRANCH   4  18
HETATM   18  C10 UNL     1      -3.818  35.661 100.015  1.00  0.00     0.075 C 
BRANCH  18  19
HETATM   19  C11 UNL     1      -4.284  35.258  98.674  1.00  0.00     0.109 C 
HETATM   20  F1  UNL     1      -3.529  34.353  97.985  1.00  0.00    -0.243 F 
HETATM   21  C12 UNL     1      -5.655  34.578  98.846  1.00  0.00     0.071 C 
HETATM   22  C13 UNL     1      -6.763  35.588  98.989  1.00  0.00     0.235 C 
HETATM   23  N3  UNL     1      -6.947  36.293  97.748  1.00  0.00    -0.075 N 
HETATM   24  C14 UNL     1      -5.750  36.215  96.919  1.00  0.00     0.235 C 
ATOM     25  H32 UNL     1      -7.773  35.965  97.248  1.00  0.00     0.277 HD
ATOM     26  H31 UNL     1      -7.235  37.260  97.904  1.00  0.00     0.277 HD
HETATM   27  C15 UNL     1      -4.530  36.467  97.767  1.00  0.00     0.071 C 
ENDBRANCH  18  19
ENDBRANCH   4  18
TORSDOF 7
ENDMDL
MODEL 4
REMARK VINA RESULT: -7.024760822      1.827      3.249
REMARK  7 active torsions:
REMARK  status: ('A' for Active; 'I' for Inactive)
REMARK    1  A    between atoms: N1_2  and  C2_5 
REMARK    2  A    between atoms: C2_5  and  C3_6 
REMARK    3  A    between atoms: C3_6  and  C4_7 
REMARK    4  A    between atoms: C4_7  and  C5_8 
REMARK    5  A    between atoms: C5_8  and  C6_9 
REMARK       I    between atoms: C6_9  and  N2_11 
REMARK    6  A    between atoms: C9_16  and  C10_17 
REMARK    7  A    between atoms: C10_17  and  C11_18 
ROOT
HETATM    1  C5  UNL     1      -1.285  36.532 101.703  1.00  0.00     0.065 C 
HETATM    2  C8  UNL     1      -0.763  36.133 100.380  1.00  0.00     0.187 C 
HETATM    3  O2  UNL     1      -1.629  35.082  99.978  1.00  0.00    -0.384 OA
HETATM    4  C9  UNL     1      -2.920  35.556 100.264  1.00  0.00     0.125 C 
HETATM    5  C16 UNL     1      -2.753  36.171 101.598  1.00  0.00     0.053 C 
ENDROOT
BRANCH   1   6
HETATM    6  C4  UNL     1      -0.616  36.086 102.900  1.00  0.00     0.023 C 
BRANCH   6   7
HETATM    7  C3  UNL     1      -0.204  34.727 103.207  1.00  0.00     0.029 C 
BRANCH   7   8
HETATM    8  C2  UNL     1      -1.196  33.726 103.630  1.00  0.00     0.231 C 
BRANCH   8   9
HETATM    9  N1  UNL     1      -1.996  34.149 104.767  1.00  0.00    -0.079 N 
HETATM   10  C1  UNL     1      -3.399  34.033 104.563  1.00  0.00     0.266 C 
ATOM     11  H12 UNL     1      -1.751  35.100 105.043  1.00  0.00     0.276 HD
ATOM     12  H11 UNL     1      -1.714  33.648 105.610  1.00  0.00     0.276 HD
ENDBRANCH   8   9
ENDBRANCH   7   8
ENDBRANCH   6   7
ENDBRANCH   1   6
BRANCH   1  13
HETATM   13  C6  UNL     1      -1.291  38.050 101.747  1.00  0.00     0.228 C 
HETATM   14  O1  UNL     1      -2.329  38.670 101.966  1.00  0.00    -0.273 OA
HETATM   15  N2  UNL     1      -0.068  38.708 101.528  1.00  0.00    -0.365 N 
HETATM   16  C7  UNL     1       0.085  40.148 101.537  1.00  0.00     0.149 C 
ATOM     17  H2  UNL     1       0.759  38.138 101.352  1.00  0.00     0.161 HD
ENDBRANCH   1  13
BRANCH   4  18
HETATM   18  C10 UNL     1      -3.453  36.390  99.165  1.00  0.00     0.075 C 
BRANCH  18  19
HETATM   19  C11 UNL     1      -4.189  35.719  98.076  1.00  0.00     0.109 C 
HETATM   20  F1  UNL     1      -3.494  34.862  97.273  1.00  0.00    -0.243 F 
HETATM   21  C12 UNL     1      -5.282  34.849  98.725  1.00  0.00     0.071 C 
HETATM   22  C13 UNL     1      -6.487  35.667  99.112  1.00  0.00     0.235 C 
HETATM   23  N3  UNL     1      -7.160  36.138  97.930  1.00  0.00    -0.075 N 
HETATM   24  C14 UNL     1      -6.261  36.141  96.782  1.00  0.00     0.235 C 
ATOM     25  H32 UNL     1      -8.008  35.603  97.743  1.00  0.00     0.277 HD
ATOM     26  H31 UNL     1      -7.584  37.054  98.079  1.00  0.00     0.277 HD
HETATM   27  C15 UNL     1      -4.929  36.719  97.184  1.00  0.00     0.071 C 
ENDBRANCH  18  19
ENDBRANCH   4  18
TORSDOF 7
ENDMDL
MODEL 5
REMARK VINA RESULT: -6.997871285      1.559      1.923
REMARK  7 active torsions:
REMARK  status: ('A' for Active; 'I' for Inactive)
REMARK    1  A    between atoms: N1_2  and  C2_5 
REMARK    2  A    between atoms: C2_5  and  C3_6 
REMARK    3  A    between atoms: C3_6  and  C4_7 
REMARK    4  A    between atoms: C4_7  and  C5_8 
REMARK    5  A    between atoms: C5_8  and  C6_9 
REMARK       I    between atoms: C6_9  and  N2_11 
REMARK    6  A    between atoms: C9_16  and  C10_17 
REMARK    7  A    between atoms: C10_17  and  C11_18 
ROOT
HETATM    1  C5  UNL     1      -1.299  35.898 102.202  1.00  0.00     0.065 C 
HETATM    2  C8  UNL     1      -2.409  36.851 101.996  1.00  0.00     0.187 C 
HETATM    3  O2  UNL     1      -2.283  37.225 100.632  1.00  0.00    -0.384 OA
HETATM    4  C9  UNL     1      -2.076  36.016  99.948  1.00  0.00     0.125 C 
HETATM    5  C16 UNL     1      -1.108  35.313 100.817  1.00  0.00     0.053 C 
ENDROOT
BRANCH   1   6
HETATM    6  C4  UNL     1      -0.096  36.334 102.867  1.00  0.00     0.023 C 
BRANCH   6   7
HETATM    7  C3  UNL     1       1.269  36.140 102.404  1.00  0.00     0.029 C 
BRANCH   7   8
HETATM    8  C2  UNL     1       2.266  35.502 103.277  1.00  0.00     0.231 C 
BRANCH   8   9
HETATM    9  N1  UNL     1       1.761  34.331 103.974  1.00  0.00    -0.079 N 
HETATM   10  C1  UNL     1       2.345  33.106 103.546  1.00  0.00     0.266 C 
ATOM     11  H12 UNL     1       0.744  34.286 103.907  1.00  0.00     0.276 HD
ATOM     12  H11 UNL     1       1.862  34.443 104.983  1.00  0.00     0.276 HD
ENDBRANCH   8   9
ENDBRANCH   7   8
ENDBRANCH   6   7
ENDBRANCH   1   6
BRANCH   1  13
HETATM   13  C6  UNL     1      -1.846  34.736 103.011  1.00  0.00     0.228 C 
HETATM   14  O1  UNL     1      -1.149  33.753 103.253  1.00  0.00    -0.273 OA
HETATM   15  N2  UNL     1      -3.172  34.832 103.468  1.00  0.00    -0.365 N 
HETATM   16  C7  UNL     1      -3.833  33.806 104.248  1.00  0.00     0.149 C 
ATOM     17  H2  UNL     1      -3.699  35.674 103.236  1.00  0.00     0.161 HD
ENDBRANCH   1  13
BRANCH   4  18
HETATM   18  C10 UNL     1      -3.353  35.343  99.627  1.00  0.00     0.075 C 
BRANCH  18  19
HETATM   19  C11 UNL     1      -3.841  35.405  98.235  1.00  0.00     0.109 C 
HETATM   20  F1  UNL     1      -4.259  36.615  97.762  1.00  0.00    -0.243 F 
HETATM   21  C12 UNL     1      -2.669  35.007  97.317  1.00  0.00     0.071 C 
HETATM   22  C13 UNL     1      -2.499  33.512  97.250  1.00  0.00     0.235 C 
HETATM   23  N3  UNL     1      -3.615  32.921  96.561  1.00  0.00    -0.075 N 
HETATM   24  C14 UNL     1      -4.773  33.807  96.586  1.00  0.00     0.235 C 
ATOM     25  H32 UNL     1      -3.369  32.649  95.610  1.00  0.00     0.277 HD
ATOM     26  H31 UNL     1      -3.840  31.997  96.933  1.00  0.00     0.277 HD
HETATM   27  C15 UNL     1      -4.945  34.378  97.969  1.00  0.00     0.071 C 
ENDBRANCH  18  19
ENDBRANCH   4  18
TORSDOF 7
ENDMDL
