MODEL 1
REMARK VINA RESULT: -7.578447431      0.000      0.000
REMARK  7 active torsions:
REMARK  status: ('A' for Active; 'I' for Inactive)
REMARK    1  A    between atoms: N1_2  and  C2_3 
REMARK    2  A    between atoms: N1_2  and  C11_21 
REMARK    3  A    between atoms: C2_3  and  C3_4 
REMARK    4  A    between atoms: C3_4  and  C4_5 
REMARK    5  A    between atoms: C4_5  and  C5_6 
REMARK    6  A    between atoms: C5_6  and  N2_7 
REMARK    7  A    between atoms: N2_7  and  C6_10 
ROOT
HETATM    1  N2  UNL     1       1.594  37.267 101.515  1.00  0.00    -0.061 N 
ATOM      2  H21 UNL     1       2.310  37.088 100.811  1.00  0.00     0.278 HD
ATOM      3  H22 UNL     1       0.830  37.542 100.898  1.00  0.00     0.278 HD
ENDROOT
BRANCH   1   4
HETATM    4  C5  UNL     1       1.971  38.332 102.378  1.00  0.00     0.233 C 
BRANCH   4   5
HETATM    5  C4  UNL     1       0.857  39.372 102.539  1.00  0.00     0.032 C 
BRANCH   5   6
HETATM    6  C3  UNL     1      -0.097  39.300 101.406  1.00  0.00     0.046 C 
BRANCH   6   7
HETATM    7  C2  UNL     1      -1.526  39.018 101.722  1.00  0.00     0.058 C 
BRANCH   7   8
HETATM    8  N1  UNL     1      -1.805  37.789 102.301  1.00  0.00    -0.390 N 
HETATM    9  C1  UNL     1      -1.756  37.498 103.651  1.00  0.00     0.149 C 
BRANCH   8  10
HETATM   10  C11 UNL     1      -2.609  36.928 101.479  1.00  0.00     0.116 C 
HETATM   11  C12 UNL     1      -1.976  36.469 100.215  1.00  0.00     0.028 C 
HETATM   12  C13 UNL     1      -3.090  36.034  99.293  1.00  0.00     0.002 C 
HETATM   13  C14 UNL     1      -4.255  35.380  99.892  1.00  0.00     0.003 C 
HETATM   14  C15 UNL     1      -4.429  35.380 101.365  1.00  0.00     0.039 C 
HETATM   15  C16 UNL     1      -3.166  35.711 102.137  1.00  0.00     0.193 C 
HETATM   16  F1  UNL     1      -2.306  34.626 101.940  1.00  0.00    -0.247 F 
ENDBRANCH   8  10
ENDBRANCH   7   8
ENDBRANCH   6   7
ENDBRANCH   5   6
ENDBRANCH   4   5
ENDBRANCH   1   4
BRANCH   1  17
HETATM   17  C6  UNL     1       1.275  36.088 102.243  1.00  0.00     0.302 C 
HETATM   18  C7  UNL     1       2.377  35.685 103.211  1.00  0.00     0.275 C 
HETATM   19  N3  UNL     1       2.884  34.365 102.987  1.00  0.00    -0.071 N 
HETATM   20  C8  UNL     1       2.191  33.331 103.719  1.00  0.00     0.252 C 
ATOM     21  H32 UNL     1       2.893  34.151 101.990  1.00  0.00     0.277 HD
ATOM     22  H31 UNL     1       3.884  34.330 103.182  1.00  0.00     0.277 HD
HETATM   23  C9  UNL     1       0.788  33.118 103.231  1.00  0.00     0.150 C 
HETATM   24  N4  UNL     1       0.731  33.594 101.847  1.00  0.00    -0.358 N 
HETATM   25  C10 UNL     1       1.085  34.880 101.360  1.00  0.00     0.250 C 
ATOM     26  H4  UNL     1       0.401  32.923 101.152  1.00  0.00     0.162 HD
HETATM   27  O1  UNL     1       1.236  34.987 100.138  1.00  0.00    -0.271 OA
ENDBRANCH   1  17
TORSDOF 7
ENDMDL
MODEL 2
REMARK VINA RESULT: -7.425500506      2.598      4.732
REMARK  7 active torsions:
REMARK  status: ('A' for Active; 'I' for Inactive)
REMARK    1  A    between atoms: N1_2  and  C2_3 
REMARK    2  A    between atoms: N1_2  and  C11_21 
REMARK    3  A    between atoms: C2_3  and  C3_4 
REMARK    4  A    between atoms: C3_4  and  C4_5 
REMARK    5  A    between atoms: C4_5  and  C5_6 
REMARK    6  A    between atoms: C5_6  and  N2_7 
REMARK    7  A    between atoms: N2_7  and  C6_10 
ROOT
HETATM    1  N2  UNL     1      -1.011  35.408 103.606  1.00  0.00    -0.061 N 
ATOM      2  H21 UNL     1      -0.271  34.935 104.124  1.00  0.00     0.278 HD
ATOM      3  H22 UNL     1      -1.539  35.786 104.392  1.00  0.00     0.278 HD
ENDROOT
BRANCH   1   4
HETATM    4  C5  UNL     1      -1.789  34.485 102.855  1.00  0.00     0.233 C 
BRANCH   4   5
HETATM    5  C4  UNL     1      -3.129  34.171 103.530  1.00  0.00     0.032 C 
BRANCH   5   6
HETATM    6  C3  UNL     1      -4.233  34.920 102.882  1.00  0.00     0.046 C 
BRANCH   6   7
HETATM    7  C2  UNL     1      -4.017  35.404 101.490  1.00  0.00     0.058 C 
BRANCH   7   8
HETATM    8  N1  UNL     1      -5.052  35.194 100.590  1.00  0.00    -0.390 N 
HETATM    9  C1  UNL     1      -6.354  35.634 100.734  1.00  0.00     0.149 C 
BRANCH   8  10
HETATM   10  C11 UNL     1      -4.610  34.892  99.257  1.00  0.00     0.116 C 
HETATM   11  C12 UNL     1      -5.661  34.407  98.324  1.00  0.00     0.028 C 
HETATM   12  C13 UNL     1      -4.958  33.686  97.199  1.00  0.00     0.002 C 
HETATM   13  C14 UNL     1      -3.669  34.214  96.752  1.00  0.00     0.003 C 
HETATM   14  C15 UNL     1      -2.979  35.261  97.547  1.00  0.00     0.039 C 
HETATM   15  C16 UNL     1      -3.877  35.974  98.539  1.00  0.00     0.193 C 
HETATM   16  F1  UNL     1      -4.770  36.727  97.769  1.00  0.00    -0.247 F 
ENDBRANCH   8  10
ENDBRANCH   7   8
ENDBRANCH   6   7
ENDBRANCH   5   6
ENDBRANCH   4   5
ENDBRANCH   1   4
BRANCH   1  17
HETATM   17  C6  UNL     1      -0.489  36.445 102.785  1.00  0.00     0.302 C 
HETATM   18  C7  UNL     1       1.005  36.652 102.988  1.00  0.00     0.275 C 
HETATM   19  N3  UNL     1       1.351  37.982 103.387  1.00  0.00    -0.071 N 
HETATM   20  C8  UNL     1       1.617  38.882 102.289  1.00  0.00     0.252 C 
ATOM     21  H32 UNL     1       0.632  38.370 103.998  1.00  0.00     0.277 HD
ATOM     22  H31 UNL     1       2.139  37.966 104.034  1.00  0.00     0.277 HD
HETATM   23  C9  UNL     1       0.387  39.201 101.491  1.00  0.00     0.150 C 
HETATM   24  N4  UNL     1      -0.769  38.979 102.364  1.00  0.00    -0.358 N 
HETATM   25  C10 UNL     1      -1.102  37.793 103.071  1.00  0.00     0.250 C 
ATOM     26  H4  UNL     1      -1.407  39.767 102.478  1.00  0.00     0.162 HD
HETATM   27  O1  UNL     1      -1.947  37.901 103.966  1.00  0.00    -0.271 OA
ENDBRANCH   1  17
TORSDOF 7
ENDMDL
MODEL 3
REMARK VINA RESULT: -7.408497143      3.277      6.706
REMARK  7 active torsions:
REMARK  status: ('A' for Active; 'I' for Inactive)
REMARK    1  A    between atoms: N1_2  and  C2_3 
REMARK    2  A    between atoms: N1_2  and  C11_21 
REMARK    3  A    between atoms: C2_3  and  C3_4 
REMARK    4  A    between atoms: C3_4  and  C4_5 
REMARK    5  A    between atoms: C4_5  and  C5_6 
REMARK    6  A    between atoms: C5_6  and  N2_7 
REMARK    7  A    between atoms: N2_7  and  C6_10 
ROOT
HETATM    1  N2  UNL     1      -4.137  35.685 100.764  1.00  0.00    -0.061 N 
ATOM      2  H21 UNL     1      -4.397  36.614 101.093  1.00  0.00     0.278 HD
ATOM      3  H22 UNL     1      -4.066  35.212 101.664  1.00  0.00     0.278 HD
ENDROOT
BRANCH   1   4
HETATM    4  C5  UNL     1      -2.886  35.704 100.088  1.00  0.00     0.233 C 
BRANCH   4   5
HETATM    5  C4  UNL     1      -1.996  36.864 100.549  1.00  0.00     0.032 C 
BRANCH   5   6
HETATM    6  C3  UNL     1      -2.362  37.296 101.920  1.00  0.00     0.046 C 
BRANCH   6   7
HETATM    7  C2  UNL     1      -1.524  36.801 103.048  1.00  0.00     0.058 C 
BRANCH   7   8
HETATM    8  N1  UNL     1      -0.149  36.854 102.872  1.00  0.00    -0.390 N 
HETATM    9  C1  UNL     1       0.656  37.955 103.090  1.00  0.00     0.149 C 
BRANCH   8  10
HETATM   10  C11 UNL     1       0.489  35.567 102.895  1.00  0.00     0.116 C 
HETATM   11  C12 UNL     1      -0.424  34.396 102.984  1.00  0.00     0.028 C 
HETATM   12  C13 UNL     1       0.393  33.234 103.497  1.00  0.00     0.002 C 
HETATM   13  C14 UNL     1       1.786  33.134 103.059  1.00  0.00     0.003 C 
HETATM   14  C15 UNL     1       2.423  34.270 102.346  1.00  0.00     0.039 C 
HETATM   15  C16 UNL     1       1.438  35.275 101.782  1.00  0.00     0.193 C 
HETATM   16  F1  UNL     1       0.771  34.612 100.747  1.00  0.00    -0.247 F 
ENDBRANCH   8  10
ENDBRANCH   7   8
ENDBRANCH   6   7
ENDBRANCH   5   6
ENDBRANCH   4   5
ENDBRANCH   1   4
BRANCH   1  17
HETATM   17  C6  UNL     1      -5.161  35.115  99.957  1.00  0.00     0.302 C 
HETATM   18  C7  UNL     1      -5.183  35.692  98.550  1.00  0.00     0.275 C 
HETATM   19  N3  UNL     1      -6.435  36.285  98.192  1.00  0.00    -0.071 N 
HETATM   20  C8  UNL     1      -7.370  35.373  97.576  1.00  0.00     0.252 C 
ATOM     21  H32 UNL     1      -6.860  36.737  99.001  1.00  0.00     0.277 HD
ATOM     22  H31 UNL     1      -6.286  37.099  97.596  1.00  0.00     0.277 HD
HETATM   23  C9  UNL     1      -7.880  34.334  98.531  1.00  0.00     0.150 C 
HETATM   24  N4  UNL     1      -7.732  34.877  99.884  1.00  0.00    -0.358 N 
HETATM   25  C10 UNL     1      -6.547  35.368 100.494  1.00  0.00     0.250 C 
ATOM     26  H4  UNL     1      -8.578  34.905 100.454  1.00  0.00     0.162 HD
HETATM   27  O1  UNL     1      -6.691  36.038 101.522  1.00  0.00    -0.271 OA
ENDBRANCH   1  17
TORSDOF 7
ENDMDL
MODEL 4
REMARK VINA RESULT: -7.329512083      2.539      4.666
REMARK  7 active torsions:
REMARK  status: ('A' for Active; 'I' for Inactive)
REMARK    1  A    between atoms: N1_2  and  C2_3 
REMARK    2  A    between atoms: N1_2  and  C11_21 
REMARK    3  A    between atoms: C2_3  and  C3_4 
REMARK    4  A    between atoms: C3_4  and  C4_5 
REMARK    5  A    between atoms: C4_5  and  C5_6 
REMARK    6  A    between atoms: C5_6  and  N2_7 
REMARK    7  A    between atoms: N2_7  and  C6_10 
ROOT
HETATM    1  N2  UNL     1      -1.190  35.334 103.567  1.00  0.00    -0.061 N 
ATOM      2  H21 UNL     1      -0.503  34.778 104.076  1.00  0.00     0.278 HD
ATOM      3  H22 UNL     1      -1.671  35.757 104.361  1.00  0.00     0.278 HD
ENDROOT
BRANCH   1   4
HETATM    4  C5  UNL     1      -2.066  34.510 102.809  1.00  0.00     0.233 C 
BRANCH   4   5
HETATM    5  C4  UNL     1      -3.541  34.831 103.075  1.00  0.00     0.032 C 
BRANCH   5   6
HETATM    6  C3  UNL     1      -4.224  35.241 101.825  1.00  0.00     0.046 C 
BRANCH   6   7
HETATM    7  C2  UNL     1      -3.399  35.882 100.763  1.00  0.00     0.058 C 
BRANCH   7   8
HETATM    8  N1  UNL     1      -3.601  35.438  99.465  1.00  0.00    -0.390 N 
HETATM    9  C1  UNL     1      -4.805  35.433  98.787  1.00  0.00     0.149 C 
BRANCH   8  10
HETATM   10  C11 UNL     1      -2.406  35.408  98.669  1.00  0.00     0.116 C 
HETATM   11  C12 UNL     1      -1.171  34.977  99.376  1.00  0.00     0.028 C 
HETATM   12  C13 UNL     1       0.002  35.483  98.570  1.00  0.00     0.002 C 
HETATM   13  C14 UNL     1      -0.127  35.492  97.112  1.00  0.00     0.003 C 
HETATM   14  C15 UNL     1      -1.449  35.251  96.482  1.00  0.00     0.039 C 
HETATM   15  C16 UNL     1      -2.467  34.614  97.408  1.00  0.00     0.193 C 
HETATM   16  F1  UNL     1      -2.007  33.313  97.639  1.00  0.00    -0.247 F 
ENDBRANCH   8  10
ENDBRANCH   7   8
ENDBRANCH   6   7
ENDBRANCH   5   6
ENDBRANCH   4   5
ENDBRANCH   1   4
BRANCH   1  17
HETATM   17  C6  UNL     1      -0.562  36.320 102.756  1.00  0.00     0.302 C 
HETATM   18  C7  UNL     1       0.945  36.368 102.961  1.00  0.00     0.275 C 
HETATM   19  N3  UNL     1       1.428  37.650 103.373  1.00  0.00    -0.071 N 
HETATM   20  C8  UNL     1       1.787  38.528 102.285  1.00  0.00     0.252 C 
ATOM     21  H32 UNL     1       0.753  38.104 103.989  1.00  0.00     0.277 HD
ATOM     22  H31 UNL     1       2.209  37.546 104.020  1.00  0.00     0.277 HD
HETATM   23  C9  UNL     1       0.598  38.982 101.490  1.00  0.00     0.150 C 
HETATM   24  N4  UNL     1      -0.575  38.873 102.362  1.00  0.00    -0.358 N 
HETATM   25  C10 UNL     1      -1.031  37.721 103.057  1.00  0.00     0.250 C 
ATOM     26  H4  UNL     1      -1.128  39.722 102.484  1.00  0.00     0.162 HD
HETATM   27  O1  UNL     1      -1.861  37.908 103.953  1.00  0.00    -0.271 OA
ENDBRANCH   1  17
TORSDOF 7
ENDMDL
MODEL 5
REMARK VINA RESULT: -7.285389366      1.493      2.187
REMARK  7 active torsions:
REMARK  status: ('A' for Active; 'I' for Inactive)
REMARK    1  A    between atoms: N1_2  and  C2_3 
REMARK    2  A    between atoms: N1_2  and  C11_21 
REMARK    3  A    between atoms: C2_3  and  C3_4 
REMARK    4  A    between atoms: C3_4  and  C4_5 
REMARK    5  A    between atoms: C4_5  and  C5_6 
REMARK    6  A    between atoms: C5_6  and  N2_7 
REMARK    7  A    between atoms: N2_7  and  C6_10 
ROOT
HETATM    1  N2  UNL     1       2.364  37.721 101.825  1.00  0.00    -0.061 N 
ATOM      2  H21 UNL     1       3.359  37.921 101.931  1.00  0.00     0.278 HD
ATOM      3  H22 UNL     1       2.266  37.924 100.830  1.00  0.00     0.278 HD
ENDROOT
BRANCH   1   4
HETATM    4  C5  UNL     1       1.572  38.599 102.614  1.00  0.00     0.233 C 
BRANCH   4   5
HETATM    5  C4  UNL     1       0.878  39.673 101.769  1.00  0.00     0.032 C 
BRANCH   5   6
HETATM    6  C3  UNL     1      -0.566  39.373 101.618  1.00  0.00     0.046 C 
BRANCH   6   7
HETATM    7  C2  UNL     1      -1.116  38.217 102.380  1.00  0.00     0.058 C 
BRANCH   7   8
HETATM    8  N1  UNL     1      -1.597  37.151 101.634  1.00  0.00    -0.390 N 
HETATM    9  C1  UNL     1      -1.142  36.759 100.390  1.00  0.00     0.149 C 
BRANCH   8  10
HETATM   10  C11 UNL     1      -2.292  36.164 102.413  1.00  0.00     0.116 C 
HETATM   11  C12 UNL     1      -3.347  35.401 101.695  1.00  0.00     0.028 C 
HETATM   12  C13 UNL     1      -4.267  34.821 102.743  1.00  0.00     0.002 C 
HETATM   13  C14 UNL     1      -3.669  34.373 104.002  1.00  0.00     0.003 C 
HETATM   14  C15 UNL     1      -2.259  34.715 104.317  1.00  0.00     0.039 C 
HETATM   15  C16 UNL     1      -1.447  35.155 103.114  1.00  0.00     0.193 C 
HETATM   16  F1  UNL     1      -1.304  34.014 102.317  1.00  0.00    -0.247 F 
ENDBRANCH   8  10
ENDBRANCH   7   8
ENDBRANCH   6   7
ENDBRANCH   5   6
ENDBRANCH   4   5
ENDBRANCH   1   4
BRANCH   1  17
HETATM   17  C6  UNL     1       2.077  36.357 102.107  1.00  0.00     0.302 C 
HETATM   18  C7  UNL     1       1.727  36.126 103.570  1.00  0.00     0.275 C 
HETATM   19  N3  UNL     1       2.579  35.177 104.221  1.00  0.00    -0.071 N 
HETATM   20  C8  UNL     1       2.117  33.811 104.141  1.00  0.00     0.252 C 
ATOM     21  H32 UNL     1       3.532  35.252 103.866  1.00  0.00     0.277 HD
ATOM     22  H31 UNL     1       2.733  35.445 105.192  1.00  0.00     0.277 HD
HETATM   23  C9  UNL     1       2.188  33.257 102.749  1.00  0.00     0.150 C 
HETATM   24  N4  UNL     1       3.198  34.031 102.022  1.00  0.00    -0.358 N 
HETATM   25  C10 UNL     1       3.245  35.439 101.846  1.00  0.00     0.250 C 
ATOM     26  H4  UNL     1       3.954  33.497 101.594  1.00  0.00     0.162 HD
HETATM   27  O1  UNL     1       4.317  35.912 101.453  1.00  0.00    -0.271 OA
ENDBRANCH   1  17
TORSDOF 7
ENDMDL
