MODEL 1
REMARK VINA RESULT: -5.959411574      0.000      0.000
REMARK  12 active torsions:
REMARK  status: ('A' for Active; 'I' for Inactive)
REMARK    1  A    between atoms: N2_5  and  C4_6 
REMARK    2  A    between atoms: C4_6  and  C5_7 
REMARK    3  A    between atoms: C5_7  and  C6_8 
REMARK    4  A    between atoms: C6_8  and  N3_9 
REMARK    5  A    between atoms: N3_9  and  C7_11 
REMARK    6  A    between atoms: C7_11  and  N4_12 
REMARK    7  A    between atoms: C7_11  and  S1_21 
REMARK    8  A    between atoms: N4_12  and  C8_14 
REMARK    9  A    between atoms: C8_14  and  C9_15 
REMARK   10  A    between atoms: C9_15  and  C10_16 
REMARK   11  A    between atoms: C10_16  and  N5_17 
REMARK   12  A    between atoms: S1_21  and  C11_22 
ROOT
HETATM    1  C7  UNL     1       0.603  37.278 103.102  1.00  0.00     0.137 C 
ENDROOT
BRANCH   1   2
HETATM    2  N3  UNL     1      -0.653  37.967 103.405  1.00  0.00    -0.371 N 
ATOM      3  H3  UNL     1      -0.619  38.729 104.083  1.00  0.00     0.161 HD
BRANCH   2   4
HETATM    4  C6  UNL     1      -1.914  37.659 102.830  1.00  0.00     0.123 C 
BRANCH   4   5
HETATM    5  C5  UNL     1      -1.907  37.626 101.321  1.00  0.00     0.039 C 
BRANCH   5   6
HETATM    6  C4  UNL     1      -2.685  36.416 100.836  1.00  0.00     0.118 C 
BRANCH   6   7
HETATM    7  N2  UNL     1      -2.463  36.089  99.478  1.00  0.00    -0.409 N 
HETATM    8  C3  UNL     1      -1.166  35.634  99.140  1.00  0.00     0.136 C 
HETATM    9  C2  UNL     1      -1.128  34.447  98.262  1.00  0.00     0.135 C 
HETATM   10  N1  UNL     1      -2.103  34.389  97.235  1.00  0.00    -0.414 N 
HETATM   11  C1  UNL     1      -2.463  33.049  96.871  1.00  0.00     0.143 C 
HETATM   12  C13 UNL     1      -3.181  35.313  97.335  1.00  0.00     0.135 C 
HETATM   13  C12 UNL     1      -3.546  35.478  98.793  1.00  0.00     0.136 C 
ENDBRANCH   6   7
ENDBRANCH   5   6
ENDBRANCH   4   5
ENDBRANCH   2   4
ENDBRANCH   1   2
BRANCH   1  14
HETATM   14  N4  UNL     1       0.645  35.910 103.343  1.00  0.00    -0.371 N 
ATOM     15  H4  UNL     1       1.087  35.659 104.227  1.00  0.00     0.161 HD
BRANCH  14  16
HETATM   16  C8  UNL     1       0.188  34.791 102.587  1.00  0.00     0.123 C 
BRANCH  16  17
HETATM   17  C9  UNL     1      -0.525  33.728 103.343  1.00  0.00     0.047 C 
BRANCH  17  18
HETATM   18  C10 UNL     1      -1.927  34.165 103.757  1.00  0.00     0.231 C 
BRANCH  18  19
HETATM   19  N5  UNL     1      -1.993  34.244 105.200  1.00  0.00    -0.079 N 
ATOM     20  H53 UNL     1      -1.228  33.742 105.651  1.00  0.00     0.274 HD
ATOM     21  H52 UNL     1      -1.777  35.178 105.547  1.00  0.00     0.274 HD
ATOM     22  H51 UNL     1      -2.908  33.917 105.511  1.00  0.00     0.274 HD
ENDBRANCH  18  19
ENDBRANCH  17  18
ENDBRANCH  16  17
ENDBRANCH  14  16
ENDBRANCH   1  14
BRANCH   1  23
HETATM   23  S1  UNL     1       1.799  38.203 102.579  1.00  0.00    -0.080 SA
BRANCH  23  24
HETATM   24  C11 UNL     1       1.817  39.552 101.401  1.00  0.00     0.197 C 
HETATM   25 CL1  UNL     1       0.333  40.540 101.478  1.00  0.00    -0.119 Cl
ENDBRANCH  23  24
ENDBRANCH   1  23
TORSDOF 12
ENDMDL
MODEL 2
REMARK VINA RESULT: -5.882164265      1.965      2.770
REMARK  12 active torsions:
REMARK  status: ('A' for Active; 'I' for Inactive)
REMARK    1  A    between atoms: N2_5  and  C4_6 
REMARK    2  A    between atoms: C4_6  and  C5_7 
REMARK    3  A    between atoms: C5_7  and  C6_8 
REMARK    4  A    between atoms: C6_8  and  N3_9 
REMARK    5  A    between atoms: N3_9  and  C7_11 
REMARK    6  A    between atoms: C7_11  and  N4_12 
REMARK    7  A    between atoms: C7_11  and  S1_21 
REMARK    8  A    between atoms: N4_12  and  C8_14 
REMARK    9  A    between atoms: C8_14  and  C9_15 
REMARK   10  A    between atoms: C9_15  and  C10_16 
REMARK   11  A    between atoms: C10_16  and  N5_17 
REMARK   12  A    between atoms: S1_21  and  C11_22 
ROOT
HETATM    1  C7  UNL     1       1.109  36.657 102.281  1.00  0.00     0.137 C 
ENDROOT
BRANCH   1   2
HETATM    2  N3  UNL     1       0.745  36.369 100.892  1.00  0.00    -0.371 N 
ATOM      3  H3  UNL     1       1.404  35.826 100.336  1.00  0.00     0.161 HD
BRANCH   2   4
HETATM    4  C6  UNL     1      -0.456  36.786 100.260  1.00  0.00     0.123 C 
BRANCH   4   5
HETATM    5  C5  UNL     1      -1.531  35.727 100.229  1.00  0.00     0.039 C 
BRANCH   5   6
HETATM    6  C4  UNL     1      -2.897  36.390 100.205  1.00  0.00     0.118 C 
BRANCH   6   7
HETATM    7  N2  UNL     1      -3.971  35.499  99.979  1.00  0.00    -0.409 N 
HETATM    8  C3  UNL     1      -4.905  35.351 101.033  1.00  0.00     0.136 C 
HETATM    9  C2  UNL     1      -6.324  35.382 100.622  1.00  0.00     0.135 C 
HETATM   10  N1  UNL     1      -6.643  34.733  99.403  1.00  0.00    -0.414 N 
HETATM   11  C1  UNL     1      -7.774  35.309  98.734  1.00  0.00     0.143 C 
HETATM   12  C13 UNL     1      -5.545  34.382  98.569  1.00  0.00     0.135 C 
HETATM   13  C12 UNL     1      -4.497  35.468  98.660  1.00  0.00     0.136 C 
ENDBRANCH   6   7
ENDBRANCH   5   6
ENDBRANCH   4   5
ENDBRANCH   2   4
ENDBRANCH   1   2
BRANCH   1  14
HETATM   14  N4  UNL     1       0.768  35.704 103.233  1.00  0.00    -0.371 N 
ATOM     15  H4  UNL     1       0.519  36.097 104.141  1.00  0.00     0.161 HD
BRANCH  14  16
HETATM   16  C8  UNL     1       0.701  34.281 103.182  1.00  0.00     0.123 C 
BRANCH  16  17
HETATM   17  C9  UNL     1      -0.656  33.679 103.253  1.00  0.00     0.047 C 
BRANCH  17  18
HETATM   18  C10 UNL     1      -1.691  34.668 103.781  1.00  0.00     0.231 C 
BRANCH  18  19
HETATM   19  N5  UNL     1      -2.018  34.328 105.148  1.00  0.00    -0.079 N 
ATOM     20  H53 UNL     1      -2.962  34.617 105.404  1.00  0.00     0.274 HD
ATOM     21  H52 UNL     1      -2.134  33.323 105.281  1.00  0.00     0.274 HD
ATOM     22  H51 UNL     1      -1.310  34.722 105.769  1.00  0.00     0.274 HD
ENDBRANCH  18  19
ENDBRANCH  17  18
ENDBRANCH  16  17
ENDBRANCH  14  16
ENDBRANCH   1  14
BRANCH   1  23
HETATM   23  S1  UNL     1       1.811  38.071 102.540  1.00  0.00    -0.080 SA
BRANCH  23  24
HETATM   24  C11 UNL     1       1.805  39.583 101.580  1.00  0.00     0.197 C 
HETATM   25 CL1  UNL     1       0.195  40.352 101.535  1.00  0.00    -0.119 Cl
ENDBRANCH  23  24
ENDBRANCH   1  23
TORSDOF 12
ENDMDL
MODEL 3
REMARK VINA RESULT: -5.809838587      1.598      1.908
REMARK  12 active torsions:
REMARK  status: ('A' for Active; 'I' for Inactive)
REMARK    1  A    between atoms: N2_5  and  C4_6 
REMARK    2  A    between atoms: C4_6  and  C5_7 
REMARK    3  A    between atoms: C5_7  and  C6_8 
REMARK    4  A    between atoms: C6_8  and  N3_9 
REMARK    5  A    between atoms: N3_9  and  C7_11 
REMARK    6  A    between atoms: C7_11  and  N4_12 
REMARK    7  A    between atoms: C7_11  and  S1_21 
REMARK    8  A    between atoms: N4_12  and  C8_14 
REMARK    9  A    between atoms: C8_14  and  C9_15 
REMARK   10  A    between atoms: C9_15  and  C10_16 
REMARK   11  A    between atoms: C10_16  and  N5_17 
REMARK   12  A    between atoms: S1_21  and  C11_22 
ROOT
HETATM    1  C7  UNL     1      -0.278  37.339 102.843  1.00  0.00     0.137 C 
ENDROOT
BRANCH   1   2
HETATM    2  N3  UNL     1      -1.584  37.061 103.444  1.00  0.00    -0.371 N 
ATOM      3  H3  UNL     1      -2.180  37.859 103.663  1.00  0.00     0.161 HD
BRANCH   2   4
HETATM    4  C6  UNL     1      -2.085  35.767 103.746  1.00  0.00     0.123 C 
BRANCH   4   5
HETATM    5  C5  UNL     1      -2.410  34.937 102.529  1.00  0.00     0.039 C 
BRANCH   5   6
HETATM    6  C4  UNL     1      -3.674  35.468 101.874  1.00  0.00     0.118 C 
BRANCH   6   7
HETATM    7  N2  UNL     1      -3.524  35.802 100.508  1.00  0.00    -0.409 N 
HETATM    8  C3  UNL     1      -2.210  35.747  99.983  1.00  0.00     0.136 C 
HETATM    9  C2  UNL     1      -2.088  35.081  98.670  1.00  0.00     0.135 C 
HETATM   10  N1  UNL     1      -3.129  35.322  97.739  1.00  0.00    -0.414 N 
HETATM   11  C1  UNL     1      -3.337  34.235  96.827  1.00  0.00     0.143 C 
HETATM   12  C13 UNL     1      -4.308  35.931  98.255  1.00  0.00     0.135 C 
HETATM   13  C12 UNL     1      -4.569  35.388  99.642  1.00  0.00     0.136 C 
ENDBRANCH   6   7
ENDBRANCH   5   6
ENDBRANCH   4   5
ENDBRANCH   2   4
ENDBRANCH   1   2
BRANCH   1  14
HETATM   14  N4  UNL     1       0.801  36.594 103.305  1.00  0.00    -0.371 N 
ATOM     15  H4  UNL     1       0.974  36.692 104.305  1.00  0.00     0.161 HD
BRANCH  14  16
HETATM   16  C8  UNL     1       1.711  35.718 102.645  1.00  0.00     0.123 C 
BRANCH  16  17
HETATM   17  C9  UNL     1       1.213  34.351 102.342  1.00  0.00     0.047 C 
BRANCH  17  18
HETATM   18  C10 UNL     1       1.559  33.360 103.449  1.00  0.00     0.231 C 
BRANCH  18  19
HETATM   19  N5  UNL     1       0.494  33.352 104.429  1.00  0.00    -0.079 N 
ATOM     20  H53 UNL     1       0.395  34.251 104.901  1.00  0.00     0.274 HD
ATOM     21  H52 UNL     1      -0.430  33.314 103.997  1.00  0.00     0.274 HD
ATOM     22  H51 UNL     1       0.647  32.585 105.084  1.00  0.00     0.274 HD
ENDBRANCH  18  19
ENDBRANCH  17  18
ENDBRANCH  16  17
ENDBRANCH  14  16
ENDBRANCH   1  14
BRANCH   1  23
HETATM   23  S1  UNL     1      -0.243  38.516 101.760  1.00  0.00    -0.080 SA
BRANCH  23  24
HETATM   24  C11 UNL     1       0.677  40.052 101.719  1.00  0.00     0.197 C 
HETATM   25 CL1  UNL     1       2.311  39.847 101.032  1.00  0.00    -0.119 Cl
ENDBRANCH  23  24
ENDBRANCH   1  23
TORSDOF 12
ENDMDL
MODEL 4
REMARK VINA RESULT: -5.769701701      1.590      2.221
REMARK  12 active torsions:
REMARK  status: ('A' for Active; 'I' for Inactive)
REMARK    1  A    between atoms: N2_5  and  C4_6 
REMARK    2  A    between atoms: C4_6  and  C5_7 
REMARK    3  A    between atoms: C5_7  and  C6_8 
REMARK    4  A    between atoms: C6_8  and  N3_9 
REMARK    5  A    between atoms: N3_9  and  C7_11 
REMARK    6  A    between atoms: C7_11  and  N4_12 
REMARK    7  A    between atoms: C7_11  and  S1_21 
REMARK    8  A    between atoms: N4_12  and  C8_14 
REMARK    9  A    between atoms: C8_14  and  C9_15 
REMARK   10  A    between atoms: C9_15  and  C10_16 
REMARK   11  A    between atoms: C10_16  and  N5_17 
REMARK   12  A    between atoms: S1_21  and  C11_22 
ROOT
HETATM    1  C7  UNL     1       0.947  36.760 102.368  1.00  0.00     0.137 C 
ENDROOT
BRANCH   1   2
HETATM    2  N3  UNL     1       0.714  36.481 100.950  1.00  0.00    -0.371 N 
ATOM      3  H3  UNL     1       1.464  36.025 100.431  1.00  0.00     0.161 HD
BRANCH   2   4
HETATM    4  C6  UNL     1      -0.475  36.795 100.240  1.00  0.00     0.123 C 
BRANCH   4   5
HETATM    5  C5  UNL     1      -1.474  35.665 100.188  1.00  0.00     0.039 C 
BRANCH   5   6
HETATM    6  C4  UNL     1      -1.419  35.000  98.824  1.00  0.00     0.118 C 
BRANCH   6   7
HETATM    7  N2  UNL     1      -2.595  35.155  98.055  1.00  0.00    -0.409 N 
HETATM    8  C3  UNL     1      -2.946  34.077  97.208  1.00  0.00     0.136 C 
HETATM    9  C2  UNL     1      -4.371  33.689  97.244  1.00  0.00     0.135 C 
HETATM   10  N1  UNL     1      -5.311  34.746  97.339  1.00  0.00    -0.414 N 
HETATM   11  C1  UNL     1      -6.522  34.368  98.008  1.00  0.00     0.143 C 
HETATM   12  C13 UNL     1      -4.789  36.025  97.681  1.00  0.00     0.135 C 
HETATM   13  C12 UNL     1      -3.668  35.843  98.680  1.00  0.00     0.136 C 
ENDBRANCH   6   7
ENDBRANCH   5   6
ENDBRANCH   4   5
ENDBRANCH   2   4
ENDBRANCH   1   2
BRANCH   1  14
HETATM   14  N4  UNL     1       0.726  35.716 103.260  1.00  0.00    -0.371 N 
ATOM     15  H4  UNL     1       0.552  36.021 104.218  1.00  0.00     0.161 HD
BRANCH  14  16
HETATM   16  C8  UNL     1       0.697  34.302 103.089  1.00  0.00     0.123 C 
BRANCH  16  17
HETATM   17  C9  UNL     1      -0.625  33.642 103.257  1.00  0.00     0.047 C 
BRANCH  17  18
HETATM   18  C10 UNL     1      -1.675  34.601 103.809  1.00  0.00     0.231 C 
BRANCH  18  19
HETATM   19  N5  UNL     1      -1.971  34.243 105.179  1.00  0.00    -0.079 N 
ATOM     20  H53 UNL     1      -1.277  33.606 105.572  1.00  0.00     0.274 HD
ATOM     21  H52 UNL     1      -1.830  35.022 105.823  1.00  0.00     0.274 HD
ATOM     22  H51 UNL     1      -2.917  33.865 105.230  1.00  0.00     0.274 HD
ENDBRANCH  18  19
ENDBRANCH  17  18
ENDBRANCH  16  17
ENDBRANCH  14  16
ENDBRANCH   1  14
BRANCH   1  23
HETATM   23  S1  UNL     1       1.376  38.259 102.725  1.00  0.00    -0.080 SA
BRANCH  23  24
HETATM   24  C11 UNL     1       1.137  39.796 101.836  1.00  0.00     0.197 C 
HETATM   25 CL1  UNL     1       2.535  40.206 100.805  1.00  0.00    -0.119 Cl
ENDBRANCH  23  24
ENDBRANCH   1  23
TORSDOF 12
ENDMDL
MODEL 5
REMARK VINA RESULT: -5.735399965      4.119      5.708
REMARK  12 active torsions:
REMARK  status: ('A' for Active; 'I' for Inactive)
REMARK    1  A    between atoms: N2_5  and  C4_6 
REMARK    2  A    between atoms: C4_6  and  C5_7 
REMARK    3  A    between atoms: C5_7  and  C6_8 
REMARK    4  A    between atoms: C6_8  and  N3_9 
REMARK    5  A    between atoms: N3_9  and  C7_11 
REMARK    6  A    between atoms: C7_11  and  N4_12 
REMARK    7  A    between atoms: C7_11  and  S1_21 
REMARK    8  A    between atoms: N4_12  and  C8_14 
REMARK    9  A    between atoms: C8_14  and  C9_15 
REMARK   10  A    between atoms: C9_15  and  C10_16 
REMARK   11  A    between atoms: C10_16  and  N5_17 
REMARK   12  A    between atoms: S1_21  and  C11_22 
ROOT
HETATM    1  C7  UNL     1       3.289  35.078 101.719  1.00  0.00     0.137 C 
ENDROOT
BRANCH   1   2
HETATM    2  N3  UNL     1       3.306  36.433 102.274  1.00  0.00    -0.371 N 
ATOM      3  H3  UNL     1       3.951  37.104 101.856  1.00  0.00     0.161 HD
BRANCH   2   4
HETATM    4  C6  UNL     1       2.495  36.886 103.347  1.00  0.00     0.123 C 
BRANCH   4   5
HETATM    5  C5  UNL     1       1.730  38.152 103.045  1.00  0.00     0.039 C 
BRANCH   5   6
HETATM    6  C4  UNL     1       1.453  38.234 101.554  1.00  0.00     0.118 C 
BRANCH   6   7
HETATM    7  N2  UNL     1       0.120  37.932 101.193  1.00  0.00    -0.409 N 
HETATM    8  C3  UNL     1      -0.066  36.847 100.303  1.00  0.00     0.136 C 
HETATM    9  C2  UNL     1      -1.145  35.909 100.675  1.00  0.00     0.135 C 
HETATM   10  N1  UNL     1      -2.321  36.483 101.222  1.00  0.00    -0.414 N 
HETATM   11  C1  UNL     1      -3.007  35.611 102.130  1.00  0.00     0.143 C 
HETATM   12  C13 UNL     1      -2.229  37.846 101.623  1.00  0.00     0.135 C 
HETATM   13  C12 UNL     1      -0.857  38.089 102.211  1.00  0.00     0.136 C 
ENDBRANCH   6   7
ENDBRANCH   5   6
ENDBRANCH   4   5
ENDBRANCH   2   4
ENDBRANCH   1   2
BRANCH   1  14
HETATM   14  N4  UNL     1       4.387  34.694 100.959  1.00  0.00    -0.371 N 
ATOM     15  H4  UNL     1       4.410  35.106 100.026  1.00  0.00     0.161 HD
BRANCH  14  16
HETATM   16  C8  UNL     1       5.488  33.832 101.236  1.00  0.00     0.123 C 
BRANCH  16  17
HETATM   17  C9  UNL     1       6.785  34.190 100.604  1.00  0.00     0.047 C 
BRANCH  17  18
HETATM   18  C10 UNL     1       7.923  34.223 101.618  1.00  0.00     0.231 C 
BRANCH  18  19
HETATM   19  N5  UNL     1       7.674  33.235 102.644  1.00  0.00    -0.079 N 
ATOM     20  H53 UNL     1       7.618  33.648 103.575  1.00  0.00     0.274 HD
ATOM     21  H52 UNL     1       6.727  32.857 102.598  1.00  0.00     0.274 HD
ATOM     22  H51 UNL     1       8.385  32.505 102.586  1.00  0.00     0.274 HD
ENDBRANCH  18  19
ENDBRANCH  17  18
ENDBRANCH  16  17
ENDBRANCH  14  16
ENDBRANCH   1  14
BRANCH   1  23
HETATM   23  S1  UNL     1       1.970  34.219 102.011  1.00  0.00    -0.080 SA
BRANCH  23  24
HETATM   24  C11 UNL     1       1.385  33.434 103.511  1.00  0.00     0.197 C 
HETATM   25 CL1  UNL     1      -0.394  33.467 103.644  1.00  0.00    -0.119 Cl
ENDBRANCH  23  24
ENDBRANCH   1  23
TORSDOF 12
ENDMDL
