MODEL 1
REMARK VINA RESULT: -7.207299554      0.000      0.000
REMARK  8 active torsions:
REMARK  status: ('A' for Active; 'I' for Inactive)
REMARK    1  A    between atoms: C2_2  and  C3_3 
REMARK    2  A    between atoms: C3_3  and  C4_4 
REMARK    3  A    between atoms: C4_4  and  C5_5 
REMARK    4  A    between atoms: C5_5  and  N1_6 
REMARK    5  A    between atoms: C7_11  and  O1_12 
REMARK    6  A    between atoms: C8_14  and  C9_15 
REMARK    7  A    between atoms: C9_15  and  C10_16 
REMARK       I    between atoms: C10_16  and  N3_18 
REMARK    8  A    between atoms: N3_18  and  C11_20 
ROOT
HETATM    1  N1  UNL     1       0.535  34.189 102.503  1.00  0.00     0.123 N 
HETATM    2  C6  UNL     1       1.604  33.910 103.430  1.00  0.00     0.506 C 
HETATM    3  N2  UNL     1       2.511  35.031 103.253  1.00  0.00    -0.020 N 
ATOM      4  H21 UNL     1       3.456  34.879 103.604  1.00  0.00     0.282 HD
ATOM      5  H22 UNL     1       2.317  35.839 103.844  1.00  0.00     0.282 HD
HETATM    6  C7  UNL     1       2.420  35.277 101.830  1.00  0.00     0.354 C 
HETATM    7  C8  UNL     1       1.129  34.742 101.329  1.00  0.00     0.289 C 
ENDROOT
BRANCH   7   8
HETATM    8  C9  UNL     1       0.275  35.730 100.599  1.00  0.00     0.143 C 
BRANCH   8   9
HETATM    9  C10 UNL     1       0.194  35.447  99.145  1.00  0.00     0.220 C 
HETATM   10  O2  UNL     1       0.712  36.260  98.336  1.00  0.00    -0.274 OA
HETATM   11  N3  UNL     1      -0.442  34.302  98.603  1.00  0.00    -0.352 N 
ATOM     12  H3  UNL     1      -0.868  33.631  99.243  1.00  0.00     0.163 HD
BRANCH  11  13
HETATM   13  C11 UNL     1      -0.515  34.042  97.184  1.00  0.00     0.032 C 
HETATM   14  C12 UNL     1       0.830  33.795  96.559  1.00  0.00     0.038 C 
HETATM   15  C13 UNL     1      -1.340  32.791  96.970  1.00  0.00     0.033 C 
HETATM   16  C14 UNL     1      -2.295  33.111  95.842  1.00  0.00     0.040 C 
HETATM   17  C15 UNL     1      -2.625  34.562  96.134  1.00  0.00     0.172 C 
HETATM   18  F1  UNL     1      -3.098  35.235  95.044  1.00  0.00    -0.249 F 
HETATM   19  C16 UNL     1      -1.280  35.135  96.497  1.00  0.00     0.067 C 
ENDBRANCH  11  13
ENDBRANCH   8   9
ENDBRANCH   7   8
BRANCH   1  20
HETATM   20  C5  UNL     1      -0.582  34.873 103.034  1.00  0.00     0.275 C 
BRANCH  20  21
HETATM   21  C4  UNL     1      -1.657  33.878 103.407  1.00  0.00     0.030 C 
BRANCH  21  22
HETATM   22  C3  UNL     1      -3.057  34.444 103.275  1.00  0.00     0.001 C 
BRANCH  22  23
HETATM   23  C2  UNL     1      -3.174  35.422 102.126  1.00  0.00    -0.005 C 
HETATM   24  C1  UNL     1      -4.545  35.335 101.480  1.00  0.00     0.005 C 
ENDBRANCH  22  23
ENDBRANCH  21  22
ENDBRANCH  20  21
ENDBRANCH   1  20
BRANCH   6  25
HETATM   25  O1  UNL     1       3.526  34.600 101.264  1.00  0.00    -0.368 OA
ATOM     26  H1  UNL     1       4.252  34.772 101.853  1.00  0.00     0.212 HD
ENDBRANCH   6  25
TORSDOF 8
ENDMDL
MODEL 2
REMARK VINA RESULT: -7.141001873      4.077      7.407
REMARK  8 active torsions:
REMARK  status: ('A' for Active; 'I' for Inactive)
REMARK    1  A    between atoms: C2_2  and  C3_3 
REMARK    2  A    between atoms: C3_3  and  C4_4 
REMARK    3  A    between atoms: C4_4  and  C5_5 
REMARK    4  A    between atoms: C5_5  and  N1_6 
REMARK    5  A    between atoms: C7_11  and  O1_12 
REMARK    6  A    between atoms: C8_14  and  C9_15 
REMARK    7  A    between atoms: C9_15  and  C10_16 
REMARK       I    between atoms: C10_16  and  N3_18 
REMARK    8  A    between atoms: N3_18  and  C11_20 
ROOT
HETATM    1  N1  UNL     1      -6.044  34.303  98.592  1.00  0.00     0.123 N 
HETATM    2  C6  UNL     1      -7.484  34.312  98.516  1.00  0.00     0.506 C 
HETATM    3  N2  UNL     1      -7.848  35.608  99.060  1.00  0.00    -0.020 N 
ATOM      4  H21 UNL     1      -8.820  35.694  99.356  1.00  0.00     0.282 HD
ATOM      5  H22 UNL     1      -7.887  36.366  98.378  1.00  0.00     0.282 HD
HETATM    6  C7  UNL     1      -6.871  35.784 100.114  1.00  0.00     0.354 C 
HETATM    7  C8  UNL     1      -5.684  34.944  99.815  1.00  0.00     0.289 C 
ENDROOT
BRANCH   7   8
HETATM    8  C9  UNL     1      -4.382  35.681  99.779  1.00  0.00     0.143 C 
BRANCH   8   9
HETATM    9  C10 UNL     1      -3.635  35.581 101.055  1.00  0.00     0.220 C 
HETATM   10  O2  UNL     1      -4.277  35.471 102.132  1.00  0.00    -0.274 OA
HETATM   11  N3  UNL     1      -2.219  35.602 101.140  1.00  0.00    -0.352 N 
ATOM     12  H3  UNL     1      -1.680  35.689 100.278  1.00  0.00     0.163 HD
BRANCH  11  13
HETATM   13  C11 UNL     1      -1.506  35.505 102.392  1.00  0.00     0.032 C 
HETATM   14  C12 UNL     1      -1.832  36.619 103.346  1.00  0.00     0.038 C 
HETATM   15  C13 UNL     1      -1.904  34.211 103.068  1.00  0.00     0.033 C 
HETATM   16  C14 UNL     1      -0.617  33.582 103.554  1.00  0.00     0.040 C 
HETATM   17  C15 UNL     1       0.333  33.941 102.428  1.00  0.00     0.172 C 
HETATM   18  F1  UNL     1       1.647  33.900 102.799  1.00  0.00    -0.249 F 
HETATM   19  C16 UNL     1      -0.033  35.373 102.138  1.00  0.00     0.067 C 
ENDBRANCH  11  13
ENDBRANCH   8   9
ENDBRANCH   7   8
BRANCH   1  20
HETATM   20  C5  UNL     1      -5.359  34.721  97.429  1.00  0.00     0.275 C 
BRANCH  20  21
HETATM   21  C4  UNL     1      -4.708  33.528  96.767  1.00  0.00     0.030 C 
BRANCH  21  22
HETATM   22  C3  UNL     1      -3.210  33.470  96.997  1.00  0.00     0.001 C 
BRANCH  22  23
HETATM   23  C2  UNL     1      -2.537  34.797  96.721  1.00  0.00    -0.005 C 
HETATM   24  C1  UNL     1      -1.338  34.993  97.631  1.00  0.00     0.005 C 
ENDBRANCH  22  23
ENDBRANCH  21  22
ENDBRANCH  20  21
ENDBRANCH   1  20
BRANCH   6  25
HETATM   25  O1  UNL     1      -7.525  35.369 101.298  1.00  0.00    -0.368 OA
ATOM     26  H1  UNL     1      -6.842  34.997 101.843  1.00  0.00     0.212 HD
ENDBRANCH   6  25
TORSDOF 8
ENDMDL
MODEL 3
REMARK VINA RESULT: -7.140278731      4.119      7.409
REMARK  8 active torsions:
REMARK  status: ('A' for Active; 'I' for Inactive)
REMARK    1  A    between atoms: C2_2  and  C3_3 
REMARK    2  A    between atoms: C3_3  and  C4_4 
REMARK    3  A    between atoms: C4_4  and  C5_5 
REMARK    4  A    between atoms: C5_5  and  N1_6 
REMARK    5  A    between atoms: C7_11  and  O1_12 
REMARK    6  A    between atoms: C8_14  and  C9_15 
REMARK    7  A    between atoms: C9_15  and  C10_16 
REMARK       I    between atoms: C10_16  and  N3_18 
REMARK    8  A    between atoms: N3_18  and  C11_20 
ROOT
HETATM    1  N1  UNL     1      -6.010  34.298  98.651  1.00  0.00     0.123 N 
HETATM    2  C6  UNL     1      -7.448  34.294  98.545  1.00  0.00     0.506 C 
HETATM    3  N2  UNL     1      -7.832  35.600  99.051  1.00  0.00    -0.020 N 
ATOM      4  H21 UNL     1      -8.811  35.686  99.324  1.00  0.00     0.282 HD
ATOM      5  H22 UNL     1      -7.862  36.341  98.350  1.00  0.00     0.282 HD
HETATM    6  C7  UNL     1      -6.880  35.807 100.120  1.00  0.00     0.354 C 
HETATM    7  C8  UNL     1      -5.680  34.970  99.867  1.00  0.00     0.289 C 
ENDROOT
BRANCH   7   8
HETATM    8  C9  UNL     1      -4.383  35.715  99.840  1.00  0.00     0.143 C 
BRANCH   8   9
HETATM    9  C10 UNL     1      -3.596  35.533 101.083  1.00  0.00     0.220 C 
HETATM   10  O2  UNL     1      -4.173  35.655 102.195  1.00  0.00    -0.274 OA
HETATM   11  N3  UNL     1      -2.211  35.225 101.097  1.00  0.00    -0.352 N 
ATOM     12  H3  UNL     1      -1.726  35.121 100.206  1.00  0.00     0.163 HD
BRANCH  11  13
HETATM   13  C11 UNL     1      -1.458  35.052 102.317  1.00  0.00     0.032 C 
HETATM   14  C12 UNL     1      -2.126  34.131 103.299  1.00  0.00     0.038 C 
HETATM   15  C13 UNL     1      -0.121  34.435 101.968  1.00  0.00     0.033 C 
HETATM   16  C14 UNL     1       0.915  35.221 102.740  1.00  0.00     0.040 C 
HETATM   17  C15 UNL     1       0.342  36.623 102.664  1.00  0.00     0.172 C 
HETATM   18  F1  UNL     1       0.816  37.452 103.640  1.00  0.00    -0.249 F 
HETATM   19  C16 UNL     1      -1.125  36.389 102.912  1.00  0.00     0.067 C 
ENDBRANCH  11  13
ENDBRANCH   8   9
ENDBRANCH   7   8
BRANCH   1  20
HETATM   20  C5  UNL     1      -5.304  34.694  97.494  1.00  0.00     0.275 C 
BRANCH  20  21
HETATM   21  C4  UNL     1      -4.666  33.484  96.849  1.00  0.00     0.030 C 
BRANCH  21  22
HETATM   22  C3  UNL     1      -3.158  33.458  97.004  1.00  0.00     0.001 C 
BRANCH  22  23
HETATM   23  C2  UNL     1      -2.534  34.814  96.750  1.00  0.00    -0.005 C 
HETATM   24  C1  UNL     1      -1.292  35.003  97.601  1.00  0.00     0.005 C 
ENDBRANCH  22  23
ENDBRANCH  21  22
ENDBRANCH  20  21
ENDBRANCH   1  20
BRANCH   6  25
HETATM   25  O1  UNL     1      -7.556  35.415 101.300  1.00  0.00    -0.368 OA
ATOM     26  H1  UNL     1      -7.349  36.086 101.941  1.00  0.00     0.212 HD
ENDBRANCH   6  25
TORSDOF 8
ENDMDL
MODEL 4
REMARK VINA RESULT: -7.113501340      1.139      1.660
REMARK  8 active torsions:
REMARK  status: ('A' for Active; 'I' for Inactive)
REMARK    1  A    between atoms: C2_2  and  C3_3 
REMARK    2  A    between atoms: C3_3  and  C4_4 
REMARK    3  A    between atoms: C4_4  and  C5_5 
REMARK    4  A    between atoms: C5_5  and  N1_6 
REMARK    5  A    between atoms: C7_11  and  O1_12 
REMARK    6  A    between atoms: C8_14  and  C9_15 
REMARK    7  A    between atoms: C9_15  and  C10_16 
REMARK       I    between atoms: C10_16  and  N3_18 
REMARK    8  A    between atoms: N3_18  and  C11_20 
ROOT
HETATM    1  N1  UNL     1       0.525  34.204 102.380  1.00  0.00     0.123 N 
HETATM    2  C6  UNL     1       1.582  33.913 103.317  1.00  0.00     0.506 C 
HETATM    3  N2  UNL     1       2.492  35.035 103.166  1.00  0.00    -0.020 N 
ATOM      4  H21 UNL     1       3.432  34.878 103.527  1.00  0.00     0.282 HD
ATOM      5  H22 UNL     1       2.290  35.836 103.763  1.00  0.00     0.282 HD
HETATM    6  C7  UNL     1       2.419  35.298 101.744  1.00  0.00     0.354 C 
HETATM    7  C8  UNL     1       1.135  34.769 101.221  1.00  0.00     0.289 C 
ENDROOT
BRANCH   7   8
HETATM    8  C9  UNL     1       0.291  35.766 100.490  1.00  0.00     0.143 C 
BRANCH   8   9
HETATM    9  C10 UNL     1       0.134  35.435  99.054  1.00  0.00     0.220 C 
HETATM   10  O2  UNL     1       0.704  36.157  98.195  1.00  0.00    -0.274 OA
HETATM   11  N3  UNL     1      -0.632  34.339  98.580  1.00  0.00    -0.352 N 
ATOM     12  H3  UNL     1      -1.101  33.741  99.261  1.00  0.00     0.163 HD
BRANCH  11  13
HETATM   13  C11 UNL     1      -0.777  34.031  97.176  1.00  0.00     0.032 C 
HETATM   14  C12 UNL     1      -1.278  35.192  96.365  1.00  0.00     0.038 C 
HETATM   15  C13 UNL     1       0.584  33.661  96.627  1.00  0.00     0.033 C 
HETATM   16  C14 UNL     1       0.371  32.418  95.791  1.00  0.00     0.040 C 
HETATM   17  C15 UNL     1      -0.677  31.688  96.606  1.00  0.00     0.172 C 
HETATM   18  F1  UNL     1      -1.381  30.770  95.879  1.00  0.00    -0.249 F 
HETATM   19  C16 UNL     1      -1.614  32.798  97.002  1.00  0.00     0.067 C 
ENDBRANCH  11  13
ENDBRANCH   8   9
ENDBRANCH   7   8
BRANCH   1  20
HETATM   20  C5  UNL     1      -0.598  34.882 102.904  1.00  0.00     0.275 C 
BRANCH  20  21
HETATM   21  C4  UNL     1      -1.582  33.881 103.463  1.00  0.00     0.030 C 
BRANCH  21  22
HETATM   22  C3  UNL     1      -3.025  34.321 103.312  1.00  0.00     0.001 C 
BRANCH  22  23
HETATM   23  C2  UNL     1      -3.189  35.389 102.252  1.00  0.00    -0.005 C 
HETATM   24  C1  UNL     1      -4.565  35.311 101.617  1.00  0.00     0.005 C 
ENDBRANCH  22  23
ENDBRANCH  21  22
ENDBRANCH  20  21
ENDBRANCH   1  20
BRANCH   6  25
HETATM   25  O1  UNL     1       3.533  34.626 101.186  1.00  0.00    -0.368 OA
ATOM     26  H1  UNL     1       3.463  34.765 100.248  1.00  0.00     0.212 HD
ENDBRANCH   6  25
TORSDOF 8
ENDMDL
MODEL 5
REMARK VINA RESULT: -6.984243719      1.315      1.958
REMARK  8 active torsions:
REMARK  status: ('A' for Active; 'I' for Inactive)
REMARK    1  A    between atoms: C2_2  and  C3_3 
REMARK    2  A    between atoms: C3_3  and  C4_4 
REMARK    3  A    between atoms: C4_4  and  C5_5 
REMARK    4  A    between atoms: C5_5  and  N1_6 
REMARK    5  A    between atoms: C7_11  and  O1_12 
REMARK    6  A    between atoms: C8_14  and  C9_15 
REMARK    7  A    between atoms: C9_15  and  C10_16 
REMARK       I    between atoms: C10_16  and  N3_18 
REMARK    8  A    between atoms: N3_18  and  C11_20 
ROOT
HETATM    1  N1  UNL     1      -1.351  34.871 101.787  1.00  0.00     0.123 N 
HETATM    2  C6  UNL     1      -1.499  34.250 103.080  1.00  0.00     0.506 C 
HETATM    3  N2  UNL     1      -0.172  34.350 103.662  1.00  0.00    -0.020 N 
ATOM      4  H21 UNL     1       0.003  33.722 104.446  1.00  0.00     0.282 HD
ATOM      5  H22 UNL     1       0.006  35.209 104.183  1.00  0.00     0.282 HD
HETATM    6  C7  UNL     1       0.683  34.143 102.512  1.00  0.00     0.354 C 
HETATM    7  C8  UNL     1      -0.071  34.490 101.281  1.00  0.00     0.289 C 
ENDROOT
BRANCH   7   8
HETATM    8  C9  UNL     1       0.585  35.507 100.402  1.00  0.00     0.143 C 
BRANCH   8   9
HETATM    9  C10 UNL     1       0.347  35.252  98.961  1.00  0.00     0.220 C 
HETATM   10  O2  UNL     1       0.770  36.084  98.117  1.00  0.00    -0.274 OA
HETATM   11  N3  UNL     1      -0.338  34.113  98.468  1.00  0.00    -0.352 N 
ATOM     12  H3  UNL     1      -0.688  33.427  99.137  1.00  0.00     0.163 HD
BRANCH  11  13
HETATM   13  C11 UNL     1      -0.563  33.880  97.061  1.00  0.00     0.032 C 
HETATM   14  C12 UNL     1       0.686  33.497  96.317  1.00  0.00     0.038 C 
HETATM   15  C13 UNL     1      -1.535  32.728  96.917  1.00  0.00     0.033 C 
HETATM   16  C14 UNL     1      -2.545  33.164  95.880  1.00  0.00     0.040 C 
HETATM   17  C15 UNL     1      -2.688  34.638  96.204  1.00  0.00     0.172 C 
HETATM   18  F1  UNL     1      -3.180  35.372  95.163  1.00  0.00    -0.249 F 
HETATM   19  C16 UNL     1      -1.263  35.058  96.448  1.00  0.00     0.067 C 
ENDBRANCH  11  13
ENDBRANCH   8   9
ENDBRANCH   7   8
BRANCH   1  20
HETATM   20  C5  UNL     1      -1.680  36.243 101.717  1.00  0.00     0.275 C 
BRANCH  20  21
HETATM   21  C4  UNL     1      -3.062  36.404 101.127  1.00  0.00     0.030 C 
BRANCH  21  22
HETATM   22  C3  UNL     1      -3.170  35.863  99.715  1.00  0.00     0.001 C 
BRANCH  22  23
HETATM   23  C2  UNL     1      -4.560  35.353  99.403  1.00  0.00    -0.005 C 
HETATM   24  C1  UNL     1      -5.420  35.330 100.654  1.00  0.00     0.005 C 
ENDBRANCH  22  23
ENDBRANCH  21  22
ENDBRANCH  20  21
ENDBRANCH   1  20
BRANCH   6  25
HETATM   25  O1  UNL     1       1.030  32.772 102.549  1.00  0.00    -0.368 OA
ATOM     26  H1  UNL     1       0.820  32.438 101.685  1.00  0.00     0.212 HD
ENDBRANCH   6  25
TORSDOF 8
ENDMDL
