MODEL 1
REMARK VINA RESULT: -7.877829838      0.000      0.000
REMARK  12 active torsions:
REMARK  status: ('A' for Active; 'I' for Inactive)
REMARK    1  A    between atoms: C2_2  and  N1_4 
REMARK    2  A    between atoms: C2_2  and  N3_8 
REMARK    3  A    between atoms: N1_4  and  N2_5 
REMARK    4  A    between atoms: N3_8  and  C4_9 
REMARK    5  A    between atoms: N3_8  and  N12_32 
REMARK    6  A    between atoms: C4_9  and  O1_10 
REMARK    7  A    between atoms: C5_12  and  N4_13 
REMARK    8  A    between atoms: C7_19  and  N8_20 
REMARK    9  A    between atoms: C8_25  and  N10_26 
REMARK   10  A    between atoms: C12_36  and  C13_37 
REMARK   11  A    between atoms: C13_37  and  C14_38 
REMARK   12  A    between atoms: C14_38  and  N13_39 
ROOT
HETATM    1  C4  UNL     1      11.956  30.858  16.405  1.00  0.00     0.172 C 
HETATM    2  C5  UNL     1      11.073  29.731  16.271  1.00  0.00     0.175 C 
ENDROOT
BRANCH   1   3
HETATM    3  N3  UNL     1      12.943  31.336  15.547  1.00  0.00    -0.260 N 
BRANCH   3   4
HETATM    4  C2  UNL     1      14.351  31.156  15.761  1.00  0.00     0.133 C 
HETATM    5  C1  UNL     1      14.886  29.940  14.937  1.00  0.00     0.061 C 
HETATM    6  C3  UNL     1      15.025  32.321  14.997  1.00  0.00     0.061 C 
BRANCH   4   7
HETATM    7  N1  UNL     1      14.831  30.985  17.070  1.00  0.00    -0.115 NA
BRANCH   7   8
HETATM    8  N2  UNL     1      15.137  29.674  17.338  1.00  0.00    -0.346 N 
ATOM      9  H22 UNL     1      14.431  28.966  17.541  1.00  0.00     0.172 HD
ATOM     10  H21 UNL     1      16.143  29.502  17.310  1.00  0.00     0.172 HD
ENDBRANCH   7   8
ENDBRANCH   4   7
ENDBRANCH   3   4
BRANCH   3  11
HETATM   11  N12 UNL     1      12.639  32.051  14.386  1.00  0.00    -0.194 NA
HETATM   12  C10 UNL     1      11.975  33.308  14.574  1.00  0.00     0.143 C 
HETATM   13  C11 UNL     1      11.735  33.690  13.105  1.00  0.00     0.186 C 
HETATM   14  O2  UNL     1      11.878  32.500  12.400  1.00  0.00    -0.368 OA
HETATM   15  C12 UNL     1      11.849  31.477  13.382  1.00  0.00     0.216 C 
BRANCH  15  16
HETATM   16  C13 UNL     1      12.220  30.150  12.845  1.00  0.00     0.077 C 
BRANCH  16  17
HETATM   17  C14 UNL     1      12.905  30.230  11.490  1.00  0.00     0.233 C 
BRANCH  17  18
HETATM   18  N13 UNL     1      14.123  30.983  11.675  1.00  0.00    -0.079 N 
ATOM     19 3H13 UNL     1      14.866  30.440  12.115  1.00  0.00     0.274 HD
ATOM     20 2H13 UNL     1      14.607  31.182  10.799  1.00  0.00     0.274 HD
ATOM     21 1H13 UNL     1      13.879  31.825  12.197  1.00  0.00     0.274 HD
ENDBRANCH  17  18
ENDBRANCH  16  17
ENDBRANCH  15  16
ENDBRANCH   3  11
ENDBRANCH   1   3
BRANCH   1  22
HETATM   22  O1  UNL     1      11.770  31.532  17.517  1.00  0.00    -0.344 OA
ATOM     23  H1  UNL     1      11.686  31.020  18.313  1.00  0.00     0.219 HD
ENDBRANCH   1  22
BRANCH   2  24
HETATM   24  N4  UNL     1      11.272  28.588  17.109  1.00  0.00    -0.121 N 
HETATM   25  C6  UNL     1      12.235  27.635  16.912  1.00  0.00     0.230 A 
HETATM   26  N5  UNL     1      13.143  27.551  15.828  1.00  0.00    -0.061 NA
HETATM   27  N6  UNL     1      12.177  26.772  17.936  1.00  0.00    -0.236 N 
HETATM   28  N7  UNL     1      11.223  27.154  18.754  1.00  0.00     0.094 N 
ATOM     29  H6  UNL     1      12.775  25.954  18.059  1.00  0.00     0.191 HD
HETATM   30  C7  UNL     1      10.785  26.649  19.916  1.00  0.00     0.727 A 
HETATM   31  C9  UNL     1      10.665  28.271  18.248  1.00  0.00     0.742 A 
HETATM   32  N9  UNL     1       9.793  27.234  20.603  1.00  0.00    -0.020 N 
HETATM   33  C8  UNL     1       9.207  28.350  20.141  1.00  0.00     0.705 A 
ATOM     34  H9  UNL     1       9.481  26.827  21.485  1.00  0.00     0.203 HD
HETATM   35  N11 UNL     1       9.669  28.821  18.981  1.00  0.00    -0.019 N 
ATOM     36  H11 UNL     1       9.235  29.668  18.615  1.00  0.00     0.203 HD
BRANCH  30  37
HETATM   37  N8  UNL     1      11.306  25.574  20.420  1.00  0.00    -0.232 N 
ATOM     38  H82 UNL     1      12.240  25.651  20.823  1.00  0.00     0.174 HD
ATOM     39  H81 UNL     1      10.800  24.688  20.413  1.00  0.00     0.174 HD
ENDBRANCH  30  37
BRANCH  33  40
HETATM   40  N10 UNL     1       8.243  28.943  20.778  1.00  0.00    -0.234 N 
ATOM     41 2H10 UNL     1       7.764  28.494  21.558  1.00  0.00     0.174 HD
ATOM     42 1H10 UNL     1       7.922  29.880  20.533  1.00  0.00     0.174 HD
ENDBRANCH  33  40
ENDBRANCH   2  24
TORSDOF 12
ENDMDL
MODEL 2
REMARK VINA RESULT: -7.380639340      0.968      1.310
REMARK  12 active torsions:
REMARK  status: ('A' for Active; 'I' for Inactive)
REMARK    1  A    between atoms: C2_2  and  N1_4 
REMARK    2  A    between atoms: C2_2  and  N3_8 
REMARK    3  A    between atoms: N1_4  and  N2_5 
REMARK    4  A    between atoms: N3_8  and  C4_9 
REMARK    5  A    between atoms: N3_8  and  N12_32 
REMARK    6  A    between atoms: C4_9  and  O1_10 
REMARK    7  A    between atoms: C5_12  and  N4_13 
REMARK    8  A    between atoms: C7_19  and  N8_20 
REMARK    9  A    between atoms: C8_25  and  N10_26 
REMARK   10  A    between atoms: C12_36  and  C13_37 
REMARK   11  A    between atoms: C13_37  and  C14_38 
REMARK   12  A    between atoms: C14_38  and  N13_39 
ROOT
HETATM    1  C4  UNL     1      11.867  30.663  16.380  1.00  0.00     0.172 C 
HETATM    2  C5  UNL     1      11.034  29.504  16.209  1.00  0.00     0.175 C 
ENDROOT
BRANCH   1   3
HETATM    3  N3  UNL     1      12.882  31.170  15.574  1.00  0.00    -0.260 N 
BRANCH   3   4
HETATM    4  C2  UNL     1      14.258  31.259  15.974  1.00  0.00     0.133 C 
HETATM    5  C1  UNL     1      14.394  32.028  17.328  1.00  0.00     0.061 C 
HETATM    6  C3  UNL     1      14.636  29.830  16.432  1.00  0.00     0.061 C 
BRANCH   4   7
HETATM    7  N1  UNL     1      15.191  31.838  15.098  1.00  0.00    -0.115 NA
BRANCH   7   8
HETATM    8  N2  UNL     1      15.020  33.195  14.987  1.00  0.00    -0.346 N 
ATOM      9  H22 UNL     1      14.423  33.626  14.282  1.00  0.00     0.172 HD
ATOM     10  H21 UNL     1      15.557  33.708  15.687  1.00  0.00     0.172 HD
ENDBRANCH   7   8
ENDBRANCH   4   7
ENDBRANCH   3   4
BRANCH   3  11
HETATM   11  N12 UNL     1      12.640  31.651  14.285  1.00  0.00    -0.194 NA
HETATM   12  C10 UNL     1      11.620  32.651  14.165  1.00  0.00     0.143 C 
HETATM   13  C11 UNL     1      11.599  32.810  12.637  1.00  0.00     0.186 C 
HETATM   14  O2  UNL     1      12.224  31.666  12.152  1.00  0.00    -0.368 OA
HETATM   15  C12 UNL     1      12.281  30.775  13.253  1.00  0.00     0.216 C 
BRANCH  15  16
HETATM   16  C13 UNL     1      13.123  29.587  12.993  1.00  0.00     0.077 C 
BRANCH  16  17
HETATM   17  C14 UNL     1      14.119  29.805  11.864  1.00  0.00     0.233 C 
BRANCH  17  18
HETATM   18  N13 UNL     1      15.011  30.859  12.282  1.00  0.00    -0.079 N 
ATOM     19 3H13 UNL     1      14.936  31.698  11.707  1.00  0.00     0.274 HD
ATOM     20 2H13 UNL     1      14.740  31.285  13.168  1.00  0.00     0.274 HD
ATOM     21 1H13 UNL     1      15.952  30.467  12.298  1.00  0.00     0.274 HD
ENDBRANCH  17  18
ENDBRANCH  16  17
ENDBRANCH  15  16
ENDBRANCH   3  11
ENDBRANCH   1   3
BRANCH   1  22
HETATM   22  O1  UNL     1      11.595  31.337  17.474  1.00  0.00    -0.344 OA
ATOM     23  H1  UNL     1      11.653  30.858  18.292  1.00  0.00     0.219 HD
ENDBRANCH   1  22
BRANCH   2  24
HETATM   24  N4  UNL     1      11.226  28.374  17.066  1.00  0.00    -0.121 N 
HETATM   25  C6  UNL     1      12.145  27.382  16.854  1.00  0.00     0.230 A 
HETATM   26  N5  UNL     1      13.004  27.239  15.737  1.00  0.00    -0.061 NA
HETATM   27  N6  UNL     1      12.100  26.547  17.901  1.00  0.00    -0.236 N 
HETATM   28  N7  UNL     1      11.195  26.983  18.748  1.00  0.00     0.094 N 
ATOM     29  H6  UNL     1      12.673  25.711  18.020  1.00  0.00     0.191 HD
HETATM   30  C7  UNL     1      10.788  26.523  19.939  1.00  0.00     0.727 A 
HETATM   31  C9  UNL     1      10.656  28.108  18.237  1.00  0.00     0.742 A 
HETATM   32  N9  UNL     1       9.847  27.160  20.651  1.00  0.00    -0.020 N 
HETATM   33  C8  UNL     1       9.282  28.285  20.185  1.00  0.00     0.705 A 
ATOM     34  H9  UNL     1       9.558  26.786  21.555  1.00  0.00     0.203 HD
HETATM   35  N11 UNL     1       9.713  28.711  18.995  1.00  0.00    -0.019 N 
ATOM     36  H11 UNL     1       9.294  29.565  18.627  1.00  0.00     0.203 HD
BRANCH  30  37
HETATM   37  N8  UNL     1      11.291  25.442  20.449  1.00  0.00    -0.232 N 
ATOM     38  H82 UNL     1      11.300  24.608  19.863  1.00  0.00     0.174 HD
ATOM     39  H81 UNL     1      11.662  25.429  21.400  1.00  0.00     0.174 HD
ENDBRANCH  30  37
BRANCH  33  40
HETATM   40  N10 UNL     1       8.368  28.929  20.846  1.00  0.00    -0.234 N 
ATOM     41 2H10 UNL     1       8.400  29.943  20.948  1.00  0.00     0.174 HD
ATOM     42 1H10 UNL     1       7.581  28.457  21.291  1.00  0.00     0.174 HD
ENDBRANCH  33  40
ENDBRANCH   2  24
TORSDOF 12
ENDMDL
MODEL 3
REMARK VINA RESULT: -7.238698580      1.159      1.535
REMARK  12 active torsions:
REMARK  status: ('A' for Active; 'I' for Inactive)
REMARK    1  A    between atoms: C2_2  and  N1_4 
REMARK    2  A    between atoms: C2_2  and  N3_8 
REMARK    3  A    between atoms: N1_4  and  N2_5 
REMARK    4  A    between atoms: N3_8  and  C4_9 
REMARK    5  A    between atoms: N3_8  and  N12_32 
REMARK    6  A    between atoms: C4_9  and  O1_10 
REMARK    7  A    between atoms: C5_12  and  N4_13 
REMARK    8  A    between atoms: C7_19  and  N8_20 
REMARK    9  A    between atoms: C8_25  and  N10_26 
REMARK   10  A    between atoms: C12_36  and  C13_37 
REMARK   11  A    between atoms: C13_37  and  C14_38 
REMARK   12  A    between atoms: C14_38  and  N13_39 
ROOT
HETATM    1  C4  UNL     1      11.822  31.032  15.944  1.00  0.00     0.172 C 
HETATM    2  C5  UNL     1      10.958  29.887  15.854  1.00  0.00     0.175 C 
ENDROOT
BRANCH   1   3
HETATM    3  N3  UNL     1      12.792  31.500  15.063  1.00  0.00    -0.260 N 
BRANCH   3   4
HETATM    4  C2  UNL     1      14.175  31.115  15.109  1.00  0.00     0.133 C 
HETATM    5  C1  UNL     1      15.103  32.359  14.923  1.00  0.00     0.061 C 
HETATM    6  C3  UNL     1      14.451  30.788  16.596  1.00  0.00     0.061 C 
BRANCH   4   7
HETATM    7  N1  UNL     1      14.645  30.137  14.217  1.00  0.00    -0.115 NA
BRANCH   7   8
HETATM    8  N2  UNL     1      15.140  30.689  13.062  1.00  0.00    -0.346 N 
ATOM      9  H22 UNL     1      16.138  30.772  12.866  1.00  0.00     0.172 HD
ATOM     10  H21 UNL     1      14.396  30.998  12.436  1.00  0.00     0.172 HD
ENDBRANCH   7   8
ENDBRANCH   4   7
ENDBRANCH   3   4
BRANCH   3  11
HETATM   11  N12 UNL     1      12.497  32.407  14.042  1.00  0.00    -0.194 NA
HETATM   12  C10 UNL     1      12.064  33.709  14.460  1.00  0.00     0.143 C 
HETATM   13  C11 UNL     1      11.749  34.324  13.087  1.00  0.00     0.186 C 
HETATM   14  O2  UNL     1      11.631  33.236  12.229  1.00  0.00    -0.368 OA
HETATM   15  C12 UNL     1      11.533  32.101  13.073  1.00  0.00     0.216 C 
BRANCH  15  16
HETATM   16  C13 UNL     1      11.633  30.823  12.337  1.00  0.00     0.077 C 
BRANCH  16  17
HETATM   17  C14 UNL     1      11.328  30.968  10.855  1.00  0.00     0.233 C 
BRANCH  17  18
HETATM   18  N13 UNL     1       9.910  31.212  10.736  1.00  0.00    -0.079 N 
ATOM     19 3H13 UNL     1       9.376  30.862  11.532  1.00  0.00     0.274 HD
ATOM     20 2H13 UNL     1       9.663  32.196  10.836  1.00  0.00     0.274 HD
ATOM     21 1H13 UNL     1       9.610  30.812   9.847  1.00  0.00     0.274 HD
ENDBRANCH  17  18
ENDBRANCH  16  17
ENDBRANCH  15  16
ENDBRANCH   3  11
ENDBRANCH   1   3
BRANCH   1  22
HETATM   22  O1  UNL     1      11.634  31.737  17.037  1.00  0.00    -0.344 OA
ATOM     23  H1  UNL     1      10.783  32.147  17.134  1.00  0.00     0.219 HD
ENDBRANCH   1  22
BRANCH   2  24
HETATM   24  N4  UNL     1      11.184  28.773  16.725  1.00  0.00    -0.121 N 
HETATM   25  C6  UNL     1      12.132  27.806  16.524  1.00  0.00     0.230 A 
HETATM   26  N5  UNL     1      12.993  27.675  15.407  1.00  0.00    -0.061 NA
HETATM   27  N6  UNL     1      12.112  26.982  17.580  1.00  0.00    -0.236 N 
HETATM   28  N7  UNL     1      11.195  27.401  18.423  1.00  0.00     0.094 N 
ATOM     29  H6  UNL     1      12.709  26.165  17.709  1.00  0.00     0.191 HD
HETATM   30  C7  UNL     1      10.803  26.944  19.620  1.00  0.00     0.727 A 
HETATM   31  C9  UNL     1      10.623  28.504  17.900  1.00  0.00     0.742 A 
HETATM   32  N9  UNL     1       9.844  27.561  20.325  1.00  0.00    -0.020 N 
HETATM   33  C8  UNL     1       9.246  28.664  19.847  1.00  0.00     0.705 A 
ATOM     34  H9  UNL     1       9.567  27.190  21.234  1.00  0.00     0.203 HD
HETATM   35  N11 UNL     1       9.662  29.088  18.651  1.00  0.00    -0.019 N 
ATOM     36  H11 UNL     1       9.218  29.925  18.273  1.00  0.00     0.203 HD
BRANCH  30  37
HETATM   37  N8  UNL     1      11.338  25.884  20.142  1.00  0.00    -0.232 N 
ATOM     38  H82 UNL     1      10.857  24.997  19.997  1.00  0.00     0.174 HD
ATOM     39  H81 UNL     1      12.205  25.939  20.677  1.00  0.00     0.174 HD
ENDBRANCH  30  37
BRANCH  33  40
HETATM   40  N10 UNL     1       8.314  29.288  20.501  1.00  0.00    -0.234 N 
ATOM     41 2H10 UNL     1       8.259  29.248  21.518  1.00  0.00     0.174 HD
ATOM     42 1H10 UNL     1       7.598  29.844  20.034  1.00  0.00     0.174 HD
ENDBRANCH  33  40
ENDBRANCH   2  24
TORSDOF 12
ENDMDL
MODEL 4
REMARK VINA RESULT: -7.159351507      1.615      3.224
REMARK  12 active torsions:
REMARK  status: ('A' for Active; 'I' for Inactive)
REMARK    1  A    between atoms: C2_2  and  N1_4 
REMARK    2  A    between atoms: C2_2  and  N3_8 
REMARK    3  A    between atoms: N1_4  and  N2_5 
REMARK    4  A    between atoms: N3_8  and  C4_9 
REMARK    5  A    between atoms: N3_8  and  N12_32 
REMARK    6  A    between atoms: C4_9  and  O1_10 
REMARK    7  A    between atoms: C5_12  and  N4_13 
REMARK    8  A    between atoms: C7_19  and  N8_20 
REMARK    9  A    between atoms: C8_25  and  N10_26 
REMARK   10  A    between atoms: C12_36  and  C13_37 
REMARK   11  A    between atoms: C13_37  and  C14_38 
REMARK   12  A    between atoms: C14_38  and  N13_39 
ROOT
HETATM    1  C4  UNL     1      11.312  30.255  15.706  1.00  0.00     0.172 C 
HETATM    2  C5  UNL     1      10.715  28.952  15.592  1.00  0.00     0.175 C 
ENDROOT
BRANCH   1   3
HETATM    3  N3  UNL     1      12.317  30.855  14.953  1.00  0.00    -0.260 N 
BRANCH   3   4
HETATM    4  C2  UNL     1      12.220  32.168  14.382  1.00  0.00     0.133 C 
HETATM    5  C1  UNL     1      13.516  32.521  13.581  1.00  0.00     0.061 C 
HETATM    6  C3  UNL     1      11.210  32.026  13.218  1.00  0.00     0.061 C 
BRANCH   4   7
HETATM    7  N1  UNL     1      11.966  33.265  15.221  1.00  0.00    -0.115 NA
BRANCH   7   8
HETATM    8  N2  UNL     1      11.949  34.450  14.529  1.00  0.00    -0.346 N 
ATOM      9  H22 UNL     1      12.254  34.534  13.559  1.00  0.00     0.172 HD
ATOM     10  H21 UNL     1      11.599  35.221  15.098  1.00  0.00     0.172 HD
ENDBRANCH   7   8
ENDBRANCH   4   7
ENDBRANCH   3   4
BRANCH   3  11
HETATM   11  N12 UNL     1      13.528  30.213  14.681  1.00  0.00    -0.194 NA
HETATM   12  C10 UNL     1      13.530  29.319  13.560  1.00  0.00     0.143 C 
HETATM   13  C11 UNL     1      14.959  28.765  13.681  1.00  0.00     0.186 C 
HETATM   14  O2  UNL     1      15.345  29.060  14.983  1.00  0.00    -0.368 OA
HETATM   15  C12 UNL     1      14.152  29.424  15.656  1.00  0.00     0.216 C 
BRANCH  15  16
HETATM   16  C13 UNL     1      14.395  29.997  16.997  1.00  0.00     0.077 C 
BRANCH  16  17
HETATM   17  C14 UNL     1      14.779  31.468  16.950  1.00  0.00     0.233 C 
BRANCH  17  18
HETATM   18  N13 UNL     1      13.742  32.199  17.640  1.00  0.00    -0.079 N 
ATOM     19 3H13 UNL     1      12.859  31.690  17.689  1.00  0.00     0.274 HD
ATOM     20 2H13 UNL     1      13.905  32.274  18.643  1.00  0.00     0.274 HD
ATOM     21 1H13 UNL     1      13.656  33.105  17.179  1.00  0.00     0.274 HD
ENDBRANCH  17  18
ENDBRANCH  16  17
ENDBRANCH  15  16
ENDBRANCH   3  11
ENDBRANCH   1   3
BRANCH   1  22
HETATM   22  O1  UNL     1      10.797  30.976  16.676  1.00  0.00    -0.344 OA
ATOM     23  H1  UNL     1      11.013  31.901  16.676  1.00  0.00     0.219 HD
ENDBRANCH   1  22
BRANCH   2  24
HETATM   24  N4  UNL     1      10.989  27.969  16.596  1.00  0.00    -0.121 N 
HETATM   25  C6  UNL     1      11.860  26.923  16.445  1.00  0.00     0.230 A 
HETATM   26  N5  UNL     1      12.576  26.571  15.275  1.00  0.00    -0.061 NA
HETATM   27  N6  UNL     1      11.926  26.270  17.613  1.00  0.00    -0.236 N 
HETATM   28  N7  UNL     1      11.136  26.869  18.475  1.00  0.00     0.094 N 
ATOM     29  H6  UNL     1      12.495  25.444  17.801  1.00  0.00     0.191 HD
HETATM   30  C7  UNL     1      10.867  26.622  19.764  1.00  0.00     0.727 A 
HETATM   31  C9  UNL     1      10.559  27.916  17.852  1.00  0.00     0.742 A 
HETATM   32  N9  UNL     1      10.029  27.399  20.465  1.00  0.00    -0.020 N 
HETATM   33  C8  UNL     1       9.431  28.454  19.890  1.00  0.00     0.705 A 
ATOM     34  H9  UNL     1       9.844  27.187  21.446  1.00  0.00     0.203 HD
HETATM   35  N11 UNL     1       9.723  28.667  18.604  1.00  0.00    -0.019 N 
ATOM     36  H11 UNL     1       9.277  29.465  18.151  1.00  0.00     0.203 HD
BRANCH  30  37
HETATM   37  N8  UNL     1      11.409  25.620  20.384  1.00  0.00    -0.232 N 
ATOM     38  H82 UNL     1      11.044  25.387  21.307  1.00  0.00     0.174 HD
ATOM     39  H81 UNL     1      12.171  25.088  19.962  1.00  0.00     0.174 HD
ENDBRANCH  30  37
BRANCH  33  40
HETATM   40  N10 UNL     1       8.613  29.229  20.536  1.00  0.00    -0.234 N 
ATOM     41 2H10 UNL     1       8.887  29.683  21.408  1.00  0.00     0.174 HD
ATOM     42 1H10 UNL     1       7.667  29.420  20.208  1.00  0.00     0.174 HD
ENDBRANCH  33  40
ENDBRANCH   2  24
TORSDOF 12
ENDMDL
MODEL 5
REMARK VINA RESULT: -7.063518460      2.231      6.777
REMARK  12 active torsions:
REMARK  status: ('A' for Active; 'I' for Inactive)
REMARK    1  A    between atoms: C2_2  and  N1_4 
REMARK    2  A    between atoms: C2_2  and  N3_8 
REMARK    3  A    between atoms: N1_4  and  N2_5 
REMARK    4  A    between atoms: N3_8  and  C4_9 
REMARK    5  A    between atoms: N3_8  and  N12_32 
REMARK    6  A    between atoms: C4_9  and  O1_10 
REMARK    7  A    between atoms: C5_12  and  N4_13 
REMARK    8  A    between atoms: C7_19  and  N8_20 
REMARK    9  A    between atoms: C8_25  and  N10_26 
REMARK   10  A    between atoms: C12_36  and  C13_37 
REMARK   11  A    between atoms: C13_37  and  C14_38 
REMARK   12  A    between atoms: C14_38  and  N13_39 
ROOT
HETATM    1  C4  UNL     1      10.072  29.862  17.498  1.00  0.00     0.172 C 
HETATM    2  C5  UNL     1      11.247  30.684  17.413  1.00  0.00     0.175 C 
ENDROOT
BRANCH   1   3
HETATM    3  N3  UNL     1       9.872  28.637  18.130  1.00  0.00    -0.260 N 
BRANCH   3   4
HETATM    4  C2  UNL     1       9.088  28.463  19.319  1.00  0.00     0.133 C 
HETATM    5  C1  UNL     1       7.785  27.656  19.011  1.00  0.00     0.061 C 
HETATM    6  C3  UNL     1       9.861  27.420  20.161  1.00  0.00     0.061 C 
BRANCH   4   7
HETATM    7  N1  UNL     1       8.686  29.594  20.048  1.00  0.00    -0.115 NA
BRANCH   7   8
HETATM    8  N2  UNL     1       7.871  29.265  21.103  1.00  0.00    -0.346 N 
ATOM      9  H22 UNL     1       8.205  29.194  22.064  1.00  0.00     0.172 HD
ATOM     10  H21 UNL     1       6.908  29.103  20.807  1.00  0.00     0.172 HD
ENDBRANCH   7   8
ENDBRANCH   4   7
ENDBRANCH   3   4
BRANCH   3  11
HETATM   11  N12 UNL     1      10.436  27.451  17.651  1.00  0.00    -0.194 NA
HETATM   12  C10 UNL     1      11.853  27.311  17.825  1.00  0.00     0.143 C 
HETATM   13  C11 UNL     1      12.067  25.979  17.090  1.00  0.00     0.186 C 
HETATM   14  O2  UNL     1      10.931  25.820  16.304  1.00  0.00    -0.368 OA
HETATM   15  C12 UNL     1      10.292  27.085  16.307  1.00  0.00     0.216 C 
BRANCH  15  16
HETATM   16  C13 UNL     1       8.939  27.052  15.712  1.00  0.00     0.077 C 
BRANCH  16  17
HETATM   17  C14 UNL     1       8.426  25.638  15.489  1.00  0.00     0.233 C 
BRANCH  17  18
HETATM   18  N13 UNL     1       8.281  25.029  16.790  1.00  0.00    -0.079 N 
ATOM     19 3H13 UNL     1       8.965  25.366  17.468  1.00  0.00     0.274 HD
ATOM     20 2H13 UNL     1       7.444  25.337  17.285  1.00  0.00     0.274 HD
ATOM     21 1H13 UNL     1       8.317  24.019  16.655  1.00  0.00     0.274 HD
ENDBRANCH  17  18
ENDBRANCH  16  17
ENDBRANCH  15  16
ENDBRANCH   3  11
ENDBRANCH   1   3
BRANCH   1  22
HETATM   22  O1  UNL     1       9.032  30.380  16.884  1.00  0.00    -0.344 OA
ATOM     23  H1  UNL     1       9.183  30.716  16.009  1.00  0.00     0.219 HD
ENDBRANCH   1  22
BRANCH   2  24
HETATM   24  N4  UNL     1      11.927  30.800  16.159  1.00  0.00    -0.121 N 
HETATM   25  C6  UNL     1      11.426  31.439  15.056  1.00  0.00     0.230 A 
HETATM   26  N5  UNL     1      10.142  32.021  14.918  1.00  0.00    -0.061 NA
HETATM   27  N6  UNL     1      12.370  31.424  14.105  1.00  0.00    -0.236 N 
HETATM   28  N7  UNL     1      13.429  30.806  14.575  1.00  0.00     0.094 N 
ATOM     29  H6  UNL     1      12.280  31.825  13.171  1.00  0.00     0.191 HD
HETATM   30  C7  UNL     1      14.628  30.547  14.035  1.00  0.00     0.727 A 
HETATM   31  C9  UNL     1      13.160  30.422  15.839  1.00  0.00     0.742 A 
HETATM   32  N9  UNL     1      15.584  29.910  14.725  1.00  0.00    -0.020 N 
HETATM   33  C8  UNL     1      15.365  29.509  15.988  1.00  0.00     0.705 A 
ATOM     34  H9  UNL     1      16.488  29.728  14.287  1.00  0.00     0.203 HD
HETATM   35  N11 UNL     1      14.159  29.784  16.490  1.00  0.00    -0.019 N 
ATOM     36  H11 UNL     1      13.975  29.486  17.449  1.00  0.00     0.203 HD
BRANCH  30  37
HETATM   37  N8  UNL     1      14.909  30.905  12.820  1.00  0.00    -0.232 N 
ATOM     38  H82 UNL     1      14.133  30.978  12.162  1.00  0.00     0.174 HD
ATOM     39  H81 UNL     1      15.868  31.106  12.537  1.00  0.00     0.174 HD
ENDBRANCH  30  37
BRANCH  33  40
HETATM   40  N10 UNL     1      16.266  28.890  16.687  1.00  0.00    -0.234 N 
ATOM     41 2H10 UNL     1      16.660  28.000  16.381  1.00  0.00     0.174 HD
ATOM     42 1H10 UNL     1      16.623  29.259  17.569  1.00  0.00     0.174 HD
ENDBRANCH  33  40
ENDBRANCH   2  24
TORSDOF 12
ENDMDL
