MODEL 1
REMARK VINA RESULT: -7.874858669      0.000      0.000
REMARK  13 active torsions:
REMARK  status: ('A' for Active; 'I' for Inactive)
REMARK    1  A    between atoms: N2_3  and  C2_5 
REMARK    2  A    between atoms: C2_5  and  N3_6 
REMARK    3  A    between atoms: C2_5  and  C4_11 
REMARK       I    between atoms: N3_6  and  C3_8 
REMARK    4  A    between atoms: C5_12  and  N5_13 
REMARK    5  A    between atoms: C6_18  and  C7_19 
REMARK    6  A    between atoms: C7_19  and  N8_20 
REMARK    7  A    between atoms: C7_19  and  C8_24 
REMARK    8  A    between atoms: C8_24  and  O2_25 
REMARK    9  A    between atoms: C8_24  and  C9_27 
REMARK   10  A    between atoms: C9_27  and  O3_28 
REMARK   11  A    between atoms: C10_30  and  O4_31 
REMARK   12  A    between atoms: C12_36  and  C13_37 
REMARK   13  A    between atoms: C14_40  and  O7_41 
ROOT
HETATM    1  C1  UNL     1       5.645  27.944  19.028  1.00  0.00     0.258 C 
HETATM    2  N1  UNL     1       6.688  27.928  18.574  1.00  0.00    -0.348 NA
HETATM    3  N2  UNL     1       7.920  27.924  18.061  1.00  0.00    -0.219 N 
ATOM      4  H2  UNL     1       8.050  27.410  17.189  1.00  0.00     0.203 HD
ENDROOT
BRANCH   3   5
HETATM    5  C2  UNL     1       8.960  28.499  18.550  1.00  0.00     0.150 C 
BRANCH   5   6
HETATM    6  N3  UNL     1       8.972  28.850  19.915  1.00  0.00    -0.295 N 
HETATM    7  C3  UNL     1       8.938  27.975  21.015  1.00  0.00     0.334 C 
HETATM    8  N4  UNL     1       8.947  28.483  22.338  1.00  0.00    -0.040 NA
HETATM    9  O1  UNL     1       8.900  26.735  20.855  1.00  0.00    -0.251 OA
ATOM     10  H3  UNL     1       9.009  29.847  20.127  1.00  0.00     0.172 HD
ENDBRANCH   5   6
BRANCH   5  11
HETATM   11  C4  UNL     1      10.087  28.767  17.698  1.00  0.00     0.076 A 
HETATM   12  C5  UNL     1      11.140  27.909  17.632  1.00  0.00     0.092 A 
HETATM   13  C11 UNL     1      12.212  28.197  16.801  1.00  0.00     0.121 A 
HETATM   14  N9  UNL     1      12.228  29.300  16.067  1.00  0.00    -0.356 N 
HETATM   15  C12 UNL     1      11.191  30.186  16.106  1.00  0.00     0.144 A 
ATOM     16  H9  UNL     1      13.029  29.490  15.464  1.00  0.00     0.165 HD
HETATM   17  C14 UNL     1      10.101  29.948  16.916  1.00  0.00     0.115 A 
BRANCH  12  18
HETATM   18  N5  UNL     1      11.160  26.720  18.397  1.00  0.00    -0.216 N 
HETATM   19  N6  UNL     1      11.705  26.400  19.527  1.00  0.00    -0.233 N 
HETATM   20  N7  UNL     1      11.454  25.149  19.872  1.00  0.00    -0.283 N 
ATOM     21  H6  UNL     1      12.265  27.042  20.089  1.00  0.00     0.209 HD
HETATM   22  C6  UNL     1      10.704  24.602  18.927  1.00  0.00     0.113 A 
ATOM     23  H7  UNL     1      11.781  24.684  20.719  1.00  0.00     0.188 HD
HETATM   24  C10 UNL     1      10.510  25.588  17.987  1.00  0.00     0.190 A 
BRANCH  22  25
HETATM   25  C7  UNL     1      10.150  23.235  18.820  1.00  0.00     0.269 C 
BRANCH  25  26
HETATM   26  N8  UNL     1      10.377  22.759  17.439  1.00  0.00    -0.067 N 
ATOM     27  H83 UNL     1       9.825  23.269  16.750  1.00  0.00     0.275 HD
ATOM     28  H82 UNL     1      11.301  23.006  17.084  1.00  0.00     0.275 HD
ATOM     29  H81 UNL     1      10.202  21.754  17.421  1.00  0.00     0.275 HD
ENDBRANCH  25  26
BRANCH  25  30
HETATM   30  C8  UNL     1      10.879  22.253  19.692  1.00  0.00     0.178 C 
BRANCH  30  31
HETATM   31  O2  UNL     1      12.231  22.303  19.260  1.00  0.00    -0.391 OA
ATOM     32  H2  UNL     1      12.671  22.866  19.887  1.00  0.00     0.210 HD
ENDBRANCH  30  31
BRANCH  30  33
HETATM   33  C9  UNL     1      10.432  20.819  19.495  1.00  0.00     0.198 C 
BRANCH  33  34
HETATM   34  O3  UNL     1      11.246  20.304  18.458  1.00  0.00    -0.398 OA
ATOM     35  H3  UNL     1      11.766  19.616  18.857  1.00  0.00     0.209 HD
ENDBRANCH  33  34
ENDBRANCH  30  33
ENDBRANCH  25  30
ENDBRANCH  22  25
BRANCH  24  36
HETATM   36  O4  UNL     1       9.775  25.443  16.819  1.00  0.00    -0.343 OA
ATOM     37  H4  UNL     1       9.086  24.807  16.664  1.00  0.00     0.219 HD
ENDBRANCH  24  36
ENDBRANCH  12  18
BRANCH  15  38
HETATM   38  C13 UNL     1      11.302  31.360  15.269  1.00  0.00     0.229 C 
HETATM   39  O5  UNL     1      10.321  31.965  14.836  1.00  0.00    -0.643 OA
HETATM   40  O6  UNL     1      12.590  31.822  14.940  1.00  0.00    -0.643 OA
ENDBRANCH  15  38
BRANCH  17  41
HETATM   41  O7  UNL     1       9.005  30.754  17.042  1.00  0.00    -0.357 OA
ATOM     42  H7  UNL     1       8.531  30.933  16.238  1.00  0.00     0.217 HD
ENDBRANCH  17  41
ENDBRANCH   5  11
ENDBRANCH   3   5
TORSDOF 13
ENDMDL
MODEL 2
REMARK VINA RESULT: -7.530125776      1.411      1.561
REMARK  13 active torsions:
REMARK  status: ('A' for Active; 'I' for Inactive)
REMARK    1  A    between atoms: N2_3  and  C2_5 
REMARK    2  A    between atoms: C2_5  and  N3_6 
REMARK    3  A    between atoms: C2_5  and  C4_11 
REMARK       I    between atoms: N3_6  and  C3_8 
REMARK    4  A    between atoms: C5_12  and  N5_13 
REMARK    5  A    between atoms: C6_18  and  C7_19 
REMARK    6  A    between atoms: C7_19  and  N8_20 
REMARK    7  A    between atoms: C7_19  and  C8_24 
REMARK    8  A    between atoms: C8_24  and  O2_25 
REMARK    9  A    between atoms: C8_24  and  C9_27 
REMARK   10  A    between atoms: C9_27  and  O3_28 
REMARK   11  A    between atoms: C10_30  and  O4_31 
REMARK   12  A    between atoms: C12_36  and  C13_37 
REMARK   13  A    between atoms: C14_40  and  O7_41 
ROOT
HETATM    1  C1  UNL     1       6.878  27.254  16.667  1.00  0.00     0.258 C 
HETATM    2  N1  UNL     1       7.313  27.062  17.701  1.00  0.00    -0.348 NA
HETATM    3  N2  UNL     1       7.843  26.849  18.907  1.00  0.00    -0.219 N 
ATOM      4  H2  UNL     1       7.315  26.246  19.538  1.00  0.00     0.203 HD
ENDROOT
BRANCH   3   5
HETATM    5  C2  UNL     1       8.948  27.326  19.357  1.00  0.00     0.150 C 
BRANCH   5   6
HETATM    6  N3  UNL     1       9.114  27.476  20.748  1.00  0.00    -0.295 N 
HETATM    7  C3  UNL     1       8.600  28.506  21.557  1.00  0.00     0.334 C 
HETATM    8  N4  UNL     1       8.861  28.525  22.950  1.00  0.00    -0.040 NA
HETATM    9  O1  UNL     1       7.904  29.425  21.071  1.00  0.00    -0.251 OA
ATOM     10  H3  UNL     1       9.666  26.760  21.220  1.00  0.00     0.172 HD
ENDBRANCH   5   6
BRANCH   5  11
HETATM   11  C4  UNL     1       9.991  27.690  18.435  1.00  0.00     0.076 A 
HETATM   12  C5  UNL     1      10.933  26.790  18.048  1.00  0.00     0.092 A 
HETATM   13  C11 UNL     1      11.926  27.173  17.158  1.00  0.00     0.121 A 
HETATM   14  N9  UNL     1      11.971  28.407  16.678  1.00  0.00    -0.356 N 
HETATM   15  C12 UNL     1      11.043  29.338  17.043  1.00  0.00     0.144 A 
ATOM     16  H9  UNL     1      12.711  28.665  16.025  1.00  0.00     0.165 HD
HETATM   17  C14 UNL     1      10.036  29.010  17.925  1.00  0.00     0.115 A 
BRANCH  12  18
HETATM   18  N5  UNL     1      10.919  25.463  18.536  1.00  0.00    -0.216 N 
HETATM   19  N6  UNL     1      11.494  24.879  19.539  1.00  0.00    -0.233 N 
HETATM   20  N7  UNL     1      11.186  23.595  19.618  1.00  0.00    -0.283 N 
ATOM     21  H6  UNL     1      12.114  25.356  20.194  1.00  0.00     0.209 HD
HETATM   22  C6  UNL     1      10.366  23.304  18.621  1.00  0.00     0.113 A 
ATOM     23  H7  UNL     1      11.524  22.943  20.326  1.00  0.00     0.188 HD
HETATM   24  C10 UNL     1      10.188  24.479  17.927  1.00  0.00     0.190 A 
BRANCH  22  25
HETATM   25  C7  UNL     1       9.730  22.020  18.252  1.00  0.00     0.269 C 
BRANCH  25  26
HETATM   26  N8  UNL     1      10.177  21.667  16.888  1.00  0.00    -0.067 N 
ATOM     27  H83 UNL     1      10.744  22.397  16.456  1.00  0.00     0.275 HD
ATOM     28  H82 UNL     1      10.880  20.928  16.882  1.00  0.00     0.275 HD
ATOM     29  H81 UNL     1       9.351  21.431  16.339  1.00  0.00     0.275 HD
ENDBRANCH  25  26
BRANCH  25  30
HETATM   30  C8  UNL     1      10.194  20.883  19.117  1.00  0.00     0.178 C 
BRANCH  30  31
HETATM   31  O2  UNL     1      11.584  20.760  18.856  1.00  0.00    -0.391 OA
ATOM     32  H2  UNL     1      11.905  20.141  19.503  1.00  0.00     0.210 HD
ENDBRANCH  30  31
BRANCH  30  33
HETATM   33  C9  UNL     1       9.580  19.549  18.745  1.00  0.00     0.198 C 
BRANCH  33  34
HETATM   34  O3  UNL     1      10.488  18.950  17.839  1.00  0.00    -0.398 OA
ATOM     35  H3  UNL     1      10.932  18.271  18.332  1.00  0.00     0.209 HD
ENDBRANCH  33  34
ENDBRANCH  30  33
ENDBRANCH  25  30
ENDBRANCH  22  25
BRANCH  24  36
HETATM   36  O4  UNL     1       9.395  24.627  16.798  1.00  0.00    -0.343 OA
ATOM     37  H4  UNL     1       8.460  24.793  16.787  1.00  0.00     0.219 HD
ENDBRANCH  24  36
ENDBRANCH  12  18
BRANCH  15  38
HETATM   38  C13 UNL     1      11.177  30.656  16.464  1.00  0.00     0.229 C 
HETATM   39  O5  UNL     1      11.008  30.879  15.264  1.00  0.00    -0.643 OA
HETATM   40  O6  UNL     1      11.514  31.725  17.316  1.00  0.00    -0.643 OA
ENDBRANCH  15  38
BRANCH  17  41
HETATM   41  O7  UNL     1       9.051  29.849  18.365  1.00  0.00    -0.357 OA
ATOM     42  H7  UNL     1       8.648  30.395  17.700  1.00  0.00     0.217 HD
ENDBRANCH  17  41
ENDBRANCH   5  11
ENDBRANCH   3   5
TORSDOF 13
ENDMDL
MODEL 3
REMARK VINA RESULT: -7.457706110      0.867      1.858
REMARK  13 active torsions:
REMARK  status: ('A' for Active; 'I' for Inactive)
REMARK    1  A    between atoms: N2_3  and  C2_5 
REMARK    2  A    between atoms: C2_5  and  N3_6 
REMARK    3  A    between atoms: C2_5  and  C4_11 
REMARK       I    between atoms: N3_6  and  C3_8 
REMARK    4  A    between atoms: C5_12  and  N5_13 
REMARK    5  A    between atoms: C6_18  and  C7_19 
REMARK    6  A    between atoms: C7_19  and  N8_20 
REMARK    7  A    between atoms: C7_19  and  C8_24 
REMARK    8  A    between atoms: C8_24  and  O2_25 
REMARK    9  A    between atoms: C8_24  and  C9_27 
REMARK   10  A    between atoms: C9_27  and  O3_28 
REMARK   11  A    between atoms: C10_30  and  O4_31 
REMARK   12  A    between atoms: C12_36  and  C13_37 
REMARK   13  A    between atoms: C14_40  and  O7_41 
ROOT
HETATM    1  C1  UNL     1       9.154  27.733  21.469  1.00  0.00     0.258 C 
HETATM    2  N1  UNL     1       9.028  28.381  20.543  1.00  0.00    -0.348 NA
HETATM    3  N2  UNL     1       8.885  29.122  19.442  1.00  0.00    -0.219 N 
ATOM      4  H2  UNL     1       8.687  30.113  19.581  1.00  0.00     0.203 HD
ENDROOT
BRANCH   3   5
HETATM    5  C2  UNL     1       8.970  28.717  18.225  1.00  0.00     0.150 C 
BRANCH   5   6
HETATM    6  N3  UNL     1       7.884  28.022  17.656  1.00  0.00    -0.295 N 
HETATM    7  C3  UNL     1       6.594  27.875  18.198  1.00  0.00     0.334 C 
HETATM    8  N4  UNL     1       5.604  27.134  17.505  1.00  0.00    -0.040 NA
HETATM    9  O1  UNL     1       6.290  28.391  19.296  1.00  0.00    -0.251 OA
ATOM     10  H3  UNL     1       8.052  27.577  16.754  1.00  0.00     0.172 HD
ENDBRANCH   5   6
BRANCH   5  11
HETATM   11  C4  UNL     1      10.165  28.986  17.471  1.00  0.00     0.076 A 
HETATM   12  C5  UNL     1      11.217  28.124  17.487  1.00  0.00     0.092 A 
HETATM   13  C11 UNL     1      12.355  28.413  16.750  1.00  0.00     0.121 A 
HETATM   14  N9  UNL     1      12.435  29.521  16.027  1.00  0.00    -0.356 N 
HETATM   15  C12 UNL     1      11.401  30.410  15.985  1.00  0.00     0.144 A 
ATOM     16  H9  UNL     1      13.283  29.712  15.494  1.00  0.00     0.165 HD
HETATM   17  C14 UNL     1      10.247  30.171  16.700  1.00  0.00     0.115 A 
BRANCH  12  18
HETATM   18  N5  UNL     1      11.170  26.931  18.245  1.00  0.00    -0.216 N 
HETATM   19  N6  UNL     1      11.656  26.589  19.395  1.00  0.00    -0.233 N 
HETATM   20  N7  UNL     1      11.354  25.343  19.719  1.00  0.00    -0.283 N 
ATOM     21  H6  UNL     1      12.210  27.211  19.984  1.00  0.00     0.209 HD
HETATM   22  C6  UNL     1      10.630  24.824  18.740  1.00  0.00     0.113 A 
ATOM     23  H7  UNL     1      11.632  24.865  20.576  1.00  0.00     0.188 HD
HETATM   24  C10 UNL     1      10.505  25.821  17.799  1.00  0.00     0.190 A 
BRANCH  22  25
HETATM   25  C7  UNL     1      10.042  23.474  18.599  1.00  0.00     0.269 C 
BRANCH  25  26
HETATM   26  N8  UNL     1      10.378  22.970  17.251  1.00  0.00    -0.067 N 
ATOM     27  H83 UNL     1      11.072  23.546  16.776  1.00  0.00     0.275 HD
ATOM     28  H82 UNL     1      10.915  22.103  17.276  1.00  0.00     0.275 HD
ATOM     29  H81 UNL     1       9.510  22.881  16.724  1.00  0.00     0.275 HD
ENDBRANCH  25  26
BRANCH  25  30
HETATM   30  C8  UNL     1      10.655  22.483  19.547  1.00  0.00     0.178 C 
BRANCH  30  31
HETATM   31  O2  UNL     1      12.055  22.573  19.327  1.00  0.00    -0.391 OA
ATOM     32  H2  UNL     1      12.314  23.403  19.711  1.00  0.00     0.210 HD
ENDBRANCH  30  31
BRANCH  30  33
HETATM   33  C9  UNL     1      10.278  21.046  19.248  1.00  0.00     0.198 C 
BRANCH  33  34
HETATM   34  O3  UNL     1      11.362  20.513  18.509  1.00  0.00    -0.398 OA
ATOM     35  H3  UNL     1      11.981  21.226  18.410  1.00  0.00     0.209 HD
ENDBRANCH  33  34
ENDBRANCH  30  33
ENDBRANCH  25  30
ENDBRANCH  22  25
BRANCH  24  36
HETATM   36  O4  UNL     1       9.818  25.704  16.599  1.00  0.00    -0.343 OA
ATOM     37  H4  UNL     1       9.977  25.057  15.922  1.00  0.00     0.219 HD
ENDBRANCH  24  36
ENDBRANCH  12  18
BRANCH  15  38
HETATM   38  C13 UNL     1      11.584  31.588  15.167  1.00  0.00     0.229 C 
HETATM   39  O5  UNL     1      10.682  32.073  14.484  1.00  0.00    -0.643 OA
HETATM   40  O6  UNL     1      12.852  32.200  15.158  1.00  0.00    -0.643 OA
ENDBRANCH  15  38
BRANCH  17  41
HETATM   41  O7  UNL     1       9.146  30.980  16.740  1.00  0.00    -0.357 OA
ATOM     42  H7  UNL     1       9.315  31.909  16.636  1.00  0.00     0.217 HD
ENDBRANCH  17  41
ENDBRANCH   5  11
ENDBRANCH   3   5
TORSDOF 13
ENDMDL
MODEL 4
REMARK VINA RESULT: -7.366528651      3.351      5.793
REMARK  13 active torsions:
REMARK  status: ('A' for Active; 'I' for Inactive)
REMARK    1  A    between atoms: N2_3  and  C2_5 
REMARK    2  A    between atoms: C2_5  and  N3_6 
REMARK    3  A    between atoms: C2_5  and  C4_11 
REMARK       I    between atoms: N3_6  and  C3_8 
REMARK    4  A    between atoms: C5_12  and  N5_13 
REMARK    5  A    between atoms: C6_18  and  C7_19 
REMARK    6  A    between atoms: C7_19  and  N8_20 
REMARK    7  A    between atoms: C7_19  and  C8_24 
REMARK    8  A    between atoms: C8_24  and  O2_25 
REMARK    9  A    between atoms: C8_24  and  C9_27 
REMARK   10  A    between atoms: C9_27  and  O3_28 
REMARK   11  A    between atoms: C10_30  and  O4_31 
REMARK   12  A    between atoms: C12_36  and  C13_37 
REMARK   13  A    between atoms: C14_40  and  O7_41 
ROOT
HETATM    1  C1  UNL     1      15.237  28.798  15.931  1.00  0.00     0.258 C 
HETATM    2  N1  UNL     1      14.426  28.664  15.145  1.00  0.00    -0.348 NA
HETATM    3  N2  UNL     1      13.459  28.521  14.236  1.00  0.00    -0.219 N 
ATOM      4  H2  UNL     1      13.660  27.903  13.449  1.00  0.00     0.203 HD
ENDROOT
BRANCH   3   5
HETATM    5  C2  UNL     1      12.302  29.080  14.248  1.00  0.00     0.150 C 
BRANCH   5   6
HETATM    6  N3  UNL     1      11.180  28.343  13.818  1.00  0.00    -0.295 N 
HETATM    7  C3  UNL     1      10.693  27.142  14.368  1.00  0.00     0.334 C 
HETATM    8  N4  UNL     1       9.550  26.511  13.816  1.00  0.00    -0.040 NA
HETATM    9  O1  UNL     1      11.252  26.606  15.350  1.00  0.00    -0.251 OA
ATOM     10  H3  UNL     1      10.666  28.721  13.023  1.00  0.00     0.172 HD
ENDBRANCH   5   6
BRANCH   5  11
HETATM   11  C4  UNL     1      12.176  30.438  14.703  1.00  0.00     0.076 A 
HETATM   12  C5  UNL     1      11.695  30.724  15.943  1.00  0.00     0.092 A 
HETATM   13  C11 UNL     1      11.585  32.045  16.351  1.00  0.00     0.121 A 
HETATM   14  N9  UNL     1      11.942  33.037  15.549  1.00  0.00    -0.356 N 
HETATM   15  C12 UNL     1      12.429  32.791  14.298  1.00  0.00     0.144 A 
ATOM     16  H9  UNL     1      11.851  34.000  15.872  1.00  0.00     0.165 HD
HETATM   17  C14 UNL     1      12.558  31.496  13.843  1.00  0.00     0.115 A 
BRANCH  12  18
HETATM   18  N5  UNL     1      11.304  29.693  16.829  1.00  0.00    -0.216 N 
HETATM   19  N6  UNL     1      11.951  28.747  17.431  1.00  0.00    -0.233 N 
HETATM   20  N7  UNL     1      11.163  27.999  18.184  1.00  0.00    -0.283 N 
ATOM     21  H6  UNL     1      12.956  28.596  17.335  1.00  0.00     0.209 HD
HETATM   22  C6  UNL     1       9.928  28.465  18.083  1.00  0.00     0.113 A 
ATOM     23  H7  UNL     1      11.457  27.200  18.747  1.00  0.00     0.188 HD
HETATM   24  C10 UNL     1      10.004  29.540  17.227  1.00  0.00     0.190 A 
BRANCH  22  25
HETATM   25  C7  UNL     1       8.676  27.995  18.714  1.00  0.00     0.269 C 
BRANCH  25  26
HETATM   26  N8  UNL     1       8.782  26.534  18.903  1.00  0.00    -0.067 N 
ATOM     27  H83 UNL     1       7.884  26.058  18.820  1.00  0.00     0.275 HD
ATOM     28  H82 UNL     1       9.255  26.068  18.128  1.00  0.00     0.275 HD
ATOM     29  H81 UNL     1       9.237  26.366  19.801  1.00  0.00     0.275 HD
ENDBRANCH  25  26
BRANCH  25  30
HETATM   30  C8  UNL     1       8.489  28.552  20.097  1.00  0.00     0.178 C 
BRANCH  30  31
HETATM   31  O2  UNL     1       9.047  29.857  20.051  1.00  0.00    -0.391 OA
ATOM     32  H2  UNL     1       9.683  29.880  20.757  1.00  0.00     0.210 HD
ENDBRANCH  30  31
BRANCH  30  33
HETATM   33  C9  UNL     1       9.265  27.804  21.161  1.00  0.00     0.198 C 
BRANCH  33  34
HETATM   34  O3  UNL     1       8.829  28.336  22.398  1.00  0.00    -0.398 OA
ATOM     35  H3  UNL     1       8.888  27.621  23.020  1.00  0.00     0.209 HD
ENDBRANCH  33  34
ENDBRANCH  30  33
ENDBRANCH  25  30
ENDBRANCH  22  25
BRANCH  24  36
HETATM   36  O4  UNL     1       8.930  30.328  16.839  1.00  0.00    -0.343 OA
ATOM     37  H4  UNL     1       8.164  30.530  17.363  1.00  0.00     0.219 HD
ENDBRANCH  24  36
ENDBRANCH  12  18
BRANCH  15  38
HETATM   38  C13 UNL     1      12.792  33.940  13.500  1.00  0.00     0.229 C 
HETATM   39  O5  UNL     1      13.912  34.086  13.010  1.00  0.00    -0.643 OA
HETATM   40  O6  UNL     1      11.815  34.930  13.278  1.00  0.00    -0.643 OA
ENDBRANCH  15  38
BRANCH  17  41
HETATM   41  O7  UNL     1      13.031  31.121  12.617  1.00  0.00    -0.357 OA
ATOM     42  H7  UNL     1      13.323  31.829  12.055  1.00  0.00     0.217 HD
ENDBRANCH  17  41
ENDBRANCH   5  11
ENDBRANCH   3   5
TORSDOF 13
ENDMDL
MODEL 5
REMARK VINA RESULT: -7.265314928      1.530      1.927
REMARK  13 active torsions:
REMARK  status: ('A' for Active; 'I' for Inactive)
REMARK    1  A    between atoms: N2_3  and  C2_5 
REMARK    2  A    between atoms: C2_5  and  N3_6 
REMARK    3  A    between atoms: C2_5  and  C4_11 
REMARK       I    between atoms: N3_6  and  C3_8 
REMARK    4  A    between atoms: C5_12  and  N5_13 
REMARK    5  A    between atoms: C6_18  and  C7_19 
REMARK    6  A    between atoms: C7_19  and  N8_20 
REMARK    7  A    between atoms: C7_19  and  C8_24 
REMARK    8  A    between atoms: C8_24  and  O2_25 
REMARK    9  A    between atoms: C8_24  and  C9_27 
REMARK   10  A    between atoms: C9_27  and  O3_28 
REMARK   11  A    between atoms: C10_30  and  O4_31 
REMARK   12  A    between atoms: C12_36  and  C13_37 
REMARK   13  A    between atoms: C14_40  and  O7_41 
ROOT
HETATM    1  C1  UNL     1       5.631  27.650  18.758  1.00  0.00     0.258 C 
HETATM    2  N1  UNL     1       6.666  27.459  18.327  1.00  0.00    -0.348 NA
HETATM    3  N2  UNL     1       7.891  27.243  17.842  1.00  0.00    -0.219 N 
ATOM      4  H2  UNL     1       7.950  26.913  16.879  1.00  0.00     0.203 HD
ENDROOT
BRANCH   3   5
HETATM    5  C2  UNL     1       9.005  27.409  18.463  1.00  0.00     0.150 C 
BRANCH   5   6
HETATM    6  N3  UNL     1       9.023  27.338  19.870  1.00  0.00    -0.295 N 
HETATM    7  C3  UNL     1       8.847  28.401  20.774  1.00  0.00     0.334 C 
HETATM    8  N4  UNL     1       8.900  28.172  22.172  1.00  0.00    -0.040 NA
HETATM    9  O1  UNL     1       8.639  29.567  20.371  1.00  0.00    -0.251 OA
ATOM     10  H3  UNL     1       9.181  26.416  20.277  1.00  0.00     0.172 HD
ENDBRANCH   5   6
BRANCH   5  11
HETATM   11  C4  UNL     1      10.205  27.656  17.710  1.00  0.00     0.076 A 
HETATM   12  C5  UNL     1      10.968  26.631  17.245  1.00  0.00     0.092 A 
HETATM   13  C11 UNL     1      12.121  26.902  16.523  1.00  0.00     0.121 A 
HETATM   14  N9  UNL     1      12.492  28.150  16.278  1.00  0.00    -0.356 N 
HETATM   15  C12 UNL     1      11.752  29.206  16.727  1.00  0.00     0.144 A 
ATOM     16  H9  UNL     1      13.344  28.325  15.745  1.00  0.00     0.165 HD
HETATM   17  C14 UNL     1      10.599  28.991  17.450  1.00  0.00     0.115 A 
BRANCH  12  18
HETATM   18  N5  UNL     1      10.606  25.285  17.485  1.00  0.00    -0.216 N 
HETATM   19  N6  UNL     1      10.105  24.353  16.738  1.00  0.00    -0.233 N 
HETATM   20  N7  UNL     1       9.928  23.220  17.397  1.00  0.00    -0.283 N 
ATOM     21  H6  UNL     1       9.872  24.480  15.753  1.00  0.00     0.209 HD
HETATM   22  C6  UNL     1      10.330  23.400  18.645  1.00  0.00     0.113 A 
ATOM     23  H7  UNL     1       9.548  22.357  17.009  1.00  0.00     0.188 HD
HETATM   24  C10 UNL     1      10.763  24.705  18.714  1.00  0.00     0.190 A 
BRANCH  22  25
HETATM   25  C7  UNL     1      10.346  22.461  19.788  1.00  0.00     0.269 C 
BRANCH  25  26
HETATM   26  N8  UNL     1       9.542  21.278  19.414  1.00  0.00    -0.067 N 
ATOM     27  H83 UNL     1       9.004  21.419  18.560  1.00  0.00     0.275 HD
ATOM     28  H82 UNL     1      10.114  20.499  19.087  1.00  0.00     0.275 HD
ATOM     29  H81 UNL     1       8.959  21.030  20.213  1.00  0.00     0.275 HD
ENDBRANCH  25  26
BRANCH  25  30
HETATM   30  C8  UNL     1      11.721  21.922  20.066  1.00  0.00     0.178 C 
BRANCH  30  31
HETATM   31  O2  UNL     1      11.942  20.934  19.071  1.00  0.00    -0.391 OA
ATOM     32  H2  UNL     1      11.183  20.364  19.113  1.00  0.00     0.210 HD
ENDBRANCH  30  31
BRANCH  30  33
HETATM   33  C9  UNL     1      11.832  21.206  21.396  1.00  0.00     0.198 C 
BRANCH  33  34
HETATM   34  O3  UNL     1      11.278  19.920  21.186  1.00  0.00    -0.398 OA
ATOM     35  H3  UNL     1      11.429  19.441  21.992  1.00  0.00     0.209 HD
ENDBRANCH  33  34
ENDBRANCH  30  33
ENDBRANCH  25  30
ENDBRANCH  22  25
BRANCH  24  36
HETATM   36  O4  UNL     1      11.271  25.318  19.851  1.00  0.00    -0.343 OA
ATOM     37  H4  UNL     1      11.256  24.965  20.733  1.00  0.00     0.219 HD
ENDBRANCH  24  36
ENDBRANCH  12  18
BRANCH  15  38
HETATM   38  C13 UNL     1      12.240  30.529  16.407  1.00  0.00     0.229 C 
HETATM   39  O5  UNL     1      13.031  30.744  15.488  1.00  0.00    -0.643 OA
HETATM   40  O6  UNL     1      11.785  31.611  17.185  1.00  0.00    -0.643 OA
ENDBRANCH  15  38
BRANCH  17  41
HETATM   41  O7  UNL     1       9.775  29.959  17.952  1.00  0.00    -0.357 OA
ATOM     42  H7  UNL     1      10.043  30.855  17.783  1.00  0.00     0.217 HD
ENDBRANCH  17  41
ENDBRANCH   5  11
ENDBRANCH   3   5
TORSDOF 13
ENDMDL
