MODEL 1
REMARK VINA RESULT: -9.134456310      0.000      0.000
REMARK  11 active torsions:
REMARK  status: ('A' for Active; 'I' for Inactive)
REMARK    1  A    between atoms: N1_1  and  C1_5 
REMARK    2  A    between atoms: C1_5  and  C2_6 
REMARK    3  A    between atoms: C2_6  and  O2_8 
REMARK    4  A    between atoms: O2_8  and  C3_9 
REMARK    5  A    between atoms: C4_10  and  C5_11 
REMARK    6  A    between atoms: N2_12  and  N3_14 
REMARK       I    between atoms: N3_14  and  C6_16 
REMARK    7  A    between atoms: N5_18  and  N6_20 
REMARK    8  A    between atoms: N6_20  and  C7_22 
REMARK    9  A    between atoms: N10_29  and  C8_30 
REMARK   10  A    between atoms: C13_39  and  O3_40 
REMARK   11  A    between atoms: C14_42  and  O4_43 
ROOT
HETATM    1  N3  UNL     1       9.782  29.798  16.684  1.00  0.00    -0.273 N 
ATOM      2  H3  UNL     1       9.048  30.148  17.300  1.00  0.00     0.189 HD
HETATM    3  C6  UNL     1      10.801  30.665  16.222  1.00  0.00     0.222 C 
HETATM    4  N4  UNL     1      11.359  31.625  17.089  1.00  0.00    -0.061 NA
HETATM    5  N5  UNL     1      11.210  30.569  15.018  1.00  0.00    -0.258 N 
ATOM      6  H5  UNL     1      10.797  29.869  14.402  1.00  0.00     0.190 HD
ENDROOT
BRANCH   1   7
HETATM    7  N2  UNL     1       9.791  28.505  16.302  1.00  0.00    -0.309 N 
HETATM    8  C5  UNL     1       9.036  27.507  16.414  1.00  0.00     0.121 C 
ATOM      9  H2  UNL     1      10.638  28.276  15.783  1.00  0.00     0.186 HD
BRANCH   8  10
HETATM   10  C4  UNL     1       7.752  27.403  17.068  1.00  0.00     0.018 A 
HETATM   11  C3  UNL     1       7.633  27.965  18.339  1.00  0.00     0.126 A 
HETATM   12  C14 UNL     1       6.418  27.874  18.973  1.00  0.00     0.134 A 
HETATM   13  C13 UNL     1       5.325  27.255  18.405  1.00  0.00     0.101 A 
HETATM   14  C12 UNL     1       5.482  26.707  17.137  1.00  0.00     0.040 A 
HETATM   15  C11 UNL     1       6.697  26.777  16.461  1.00  0.00     0.018 A 
BRANCH  11  16
HETATM   16  O2  UNL     1       8.712  28.599  18.949  1.00  0.00    -0.274 OA
BRANCH  16  17
HETATM   17  C2  UNL     1       9.639  27.866  19.669  1.00  0.00     0.289 C 
HETATM   18  O1  UNL     1      10.759  27.639  19.142  1.00  0.00    -0.263 OA
BRANCH  17  19
HETATM   19  C1  UNL     1       9.361  27.341  21.034  1.00  0.00     0.340 C 
BRANCH  19  20
HETATM   20  N1  UNL     1       8.769  28.379  21.850  1.00  0.00    -0.070 N 
ATOM     21  H13 UNL     1       8.930  29.309  21.463  1.00  0.00     0.274 HD
ATOM     22  H12 UNL     1       7.750  28.372  21.800  1.00  0.00     0.274 HD
ATOM     23  H11 UNL     1       9.105  28.301  22.810  1.00  0.00     0.274 HD
ENDBRANCH  19  20
ENDBRANCH  17  19
ENDBRANCH  16  17
ENDBRANCH  11  16
BRANCH  12  24
HETATM   24  O4  UNL     1       6.278  28.425  20.233  1.00  0.00    -0.356 OA
ATOM     25  H4  UNL     1       5.926  27.888  20.934  1.00  0.00     0.218 HD
ENDBRANCH  12  24
BRANCH  13  26
HETATM   26  O3  UNL     1       4.104  27.174  19.065  1.00  0.00    -0.358 OA
ATOM     27  H3  UNL     1       3.460  27.868  18.978  1.00  0.00     0.217 HD
ENDBRANCH  13  26
ENDBRANCH   8  10
ENDBRANCH   1   7
BRANCH   5  28
HETATM   28  N6  UNL     1      12.204  31.400  14.534  1.00  0.00    -0.126 N 
ATOM     29  H6  UNL     1      13.161  31.053  14.463  1.00  0.00     0.206 HD
BRANCH  28  30
HETATM   30  C7  UNL     1      11.938  32.597  14.176  1.00  0.00     0.750 A 
HETATM   31  N7  UNL     1      11.964  33.693  14.955  1.00  0.00    -0.113 N 
HETATM   32  N8  UNL     1      11.626  34.728  14.214  1.00  0.00    -0.212 N 
ATOM     33  H7  UNL     1      12.204  33.718  15.946  1.00  0.00     0.207 HD
HETATM   34  N9  UNL     1      11.394  34.281  12.994  1.00  0.00    -0.191 N 
ATOM     35  H8  UNL     1      11.557  35.697  14.526  1.00  0.00     0.210 HD
HETATM   36  N10 UNL     1      11.575  32.973  12.932  1.00  0.00     0.109 N 
ATOM     37  H9  UNL     1      11.113  34.866  12.207  1.00  0.00     0.211 HD
BRANCH  36  38
HETATM   38  C8  UNL     1      11.434  32.091  11.817  1.00  0.00     0.719 A 
HETATM   39  N11 UNL     1      10.318  31.415  11.456  1.00  0.00    -0.198 N 
HETATM   40  C9  UNL     1      10.552  30.687  10.363  1.00  0.00     0.123 A 
ATOM     41  H11 UNL     1       9.426  31.456  11.950  1.00  0.00     0.183 HD
HETATM   42  C10 UNL     1      11.856  30.893  10.001  1.00  0.00     0.123 A 
HETATM   43  N12 UNL     1      12.362  31.757  10.914  1.00  0.00    -0.198 N 
ATOM     44  H12 UNL     1      13.320  32.105  10.913  1.00  0.00     0.183 HD
ENDBRANCH  36  38
ENDBRANCH  28  30
ENDBRANCH   5  28
TORSDOF 11
ENDMDL
MODEL 2
REMARK VINA RESULT: -9.019110910      2.259      3.356
REMARK  11 active torsions:
REMARK  status: ('A' for Active; 'I' for Inactive)
REMARK    1  A    between atoms: N1_1  and  C1_5 
REMARK    2  A    between atoms: C1_5  and  C2_6 
REMARK    3  A    between atoms: C2_6  and  O2_8 
REMARK    4  A    between atoms: O2_8  and  C3_9 
REMARK    5  A    between atoms: C4_10  and  C5_11 
REMARK    6  A    between atoms: N2_12  and  N3_14 
REMARK       I    between atoms: N3_14  and  C6_16 
REMARK    7  A    between atoms: N5_18  and  N6_20 
REMARK    8  A    between atoms: N6_20  and  C7_22 
REMARK    9  A    between atoms: N10_29  and  C8_30 
REMARK   10  A    between atoms: C13_39  and  O3_40 
REMARK   11  A    between atoms: C14_42  and  O4_43 
ROOT
HETATM    1  N3  UNL     1      10.075  29.182  16.059  1.00  0.00    -0.273 N 
ATOM      2  H3  UNL     1       9.390  29.775  15.591  1.00  0.00     0.189 HD
HETATM    3  C6  UNL     1      11.218  29.754  16.668  1.00  0.00     0.222 C 
HETATM    4  N4  UNL     1      11.107  30.966  17.378  1.00  0.00    -0.061 NA
HETATM    5  N5  UNL     1      12.344  29.165  16.570  1.00  0.00    -0.258 N 
ATOM      6  H5  UNL     1      12.408  28.288  16.053  1.00  0.00     0.190 HD
ENDROOT
BRANCH   1   7
HETATM    7  N2  UNL     1       9.901  27.846  16.105  1.00  0.00    -0.309 N 
HETATM    8  C5  UNL     1       9.085  27.041  16.619  1.00  0.00     0.121 C 
ATOM      9  H2  UNL     1      10.627  27.357  15.582  1.00  0.00     0.186 HD
BRANCH   8  10
HETATM   10  C4  UNL     1       7.922  27.315  17.429  1.00  0.00     0.018 A 
HETATM   11  C3  UNL     1       8.133  27.886  18.684  1.00  0.00     0.126 A 
HETATM   12  C14 UNL     1       7.036  28.153  19.466  1.00  0.00     0.134 A 
HETATM   13  C13 UNL     1       5.748  27.879  19.059  1.00  0.00     0.101 A 
HETATM   14  C12 UNL     1       5.575  27.309  17.803  1.00  0.00     0.040 A 
HETATM   15  C11 UNL     1       6.662  27.023  16.980  1.00  0.00     0.018 A 
BRANCH  11  16
HETATM   16  O2  UNL     1       9.419  28.179  19.133  1.00  0.00    -0.274 OA
BRANCH  16  17
HETATM   17  C2  UNL     1      10.057  27.336  20.024  1.00  0.00     0.289 C 
HETATM   18  O1  UNL     1       9.824  27.479  21.253  1.00  0.00    -0.263 OA
BRANCH  17  19
HETATM   19  C1  UNL     1      11.002  26.271  19.586  1.00  0.00     0.340 C 
BRANCH  19  20
HETATM   20  N1  UNL     1      12.177  26.870  18.991  1.00  0.00    -0.070 N 
ATOM     21  H13 UNL     1      12.305  26.580  18.021  1.00  0.00     0.274 HD
ATOM     22  H12 UNL     1      12.059  27.871  18.832  1.00  0.00     0.274 HD
ATOM     23  H11 UNL     1      12.997  26.668  19.562  1.00  0.00     0.274 HD
ENDBRANCH  19  20
ENDBRANCH  17  19
ENDBRANCH  16  17
ENDBRANCH  11  16
BRANCH  12  24
HETATM   24  O4  UNL     1       7.223  28.720  20.712  1.00  0.00    -0.356 OA
ATOM     25  H4  UNL     1       7.465  28.161  21.441  1.00  0.00     0.218 HD
ENDBRANCH  12  24
BRANCH  13  26
HETATM   26  O3  UNL     1       4.651  28.157  19.867  1.00  0.00    -0.358 OA
ATOM     27  H3  UNL     1       4.766  28.578  20.712  1.00  0.00     0.217 HD
ENDBRANCH  13  26
ENDBRANCH   8  10
ENDBRANCH   1   7
BRANCH   5  28
HETATM   28  N6  UNL     1      13.481  29.697  17.153  1.00  0.00    -0.126 N 
ATOM     29  H6  UNL     1      13.430  30.083  18.095  1.00  0.00     0.206 HD
BRANCH  28  30
HETATM   30  C7  UNL     1      14.591  29.709  16.523  1.00  0.00     0.750 A 
HETATM   31  N7  UNL     1      15.689  28.989  16.817  1.00  0.00    -0.113 N 
HETATM   32  N8  UNL     1      16.620  29.285  15.933  1.00  0.00    -0.212 N 
ATOM     33  H7  UNL     1      15.784  28.329  17.589  1.00  0.00     0.207 HD
HETATM   34  N9  UNL     1      16.108  30.175  15.104  1.00  0.00    -0.191 N 
ATOM     35  H8  UNL     1      17.562  28.898  15.897  1.00  0.00     0.210 HD
HETATM   36  N10 UNL     1      14.861  30.461  15.435  1.00  0.00     0.109 N 
ATOM     37  H9  UNL     1      16.607  30.586  14.315  1.00  0.00     0.211 HD
BRANCH  36  38
HETATM   38  C8  UNL     1      13.943  31.363  14.815  1.00  0.00     0.719 A 
HETATM   39  N11 UNL     1      13.417  31.256  13.572  1.00  0.00    -0.198 N 
HETATM   40  C9  UNL     1      12.597  32.279  13.328  1.00  0.00     0.123 A 
ATOM     41  H11 UNL     1      13.620  30.501  12.916  1.00  0.00     0.183 HD
HETATM   42  C10 UNL     1      12.587  33.076  14.441  1.00  0.00     0.123 A 
HETATM   43  N12 UNL     1      13.422  32.483  15.328  1.00  0.00    -0.198 N 
ATOM     44  H12 UNL     1      13.626  32.842  16.261  1.00  0.00     0.183 HD
ENDBRANCH  36  38
ENDBRANCH  28  30
ENDBRANCH   5  28
TORSDOF 11
ENDMDL
MODEL 3
REMARK VINA RESULT: -8.919601880      2.133      3.225
REMARK  11 active torsions:
REMARK  status: ('A' for Active; 'I' for Inactive)
REMARK    1  A    between atoms: N1_1  and  C1_5 
REMARK    2  A    between atoms: C1_5  and  C2_6 
REMARK    3  A    between atoms: C2_6  and  O2_8 
REMARK    4  A    between atoms: O2_8  and  C3_9 
REMARK    5  A    between atoms: C4_10  and  C5_11 
REMARK    6  A    between atoms: N2_12  and  N3_14 
REMARK       I    between atoms: N3_14  and  C6_16 
REMARK    7  A    between atoms: N5_18  and  N6_20 
REMARK    8  A    between atoms: N6_20  and  C7_22 
REMARK    9  A    between atoms: N10_29  and  C8_30 
REMARK   10  A    between atoms: C13_39  and  O3_40 
REMARK   11  A    between atoms: C14_42  and  O4_43 
ROOT
HETATM    1  N3  UNL     1      10.031  28.940  16.295  1.00  0.00    -0.273 N 
ATOM      2  H3  UNL     1       9.212  29.385  15.881  1.00  0.00     0.189 HD
HETATM    3  C6  UNL     1      11.120  29.724  16.746  1.00  0.00     0.222 C 
HETATM    4  N4  UNL     1      10.884  30.945  17.410  1.00  0.00    -0.061 NA
HETATM    5  N5  UNL     1      12.312  29.318  16.548  1.00  0.00    -0.258 N 
ATOM      6  H5  UNL     1      12.467  28.432  16.067  1.00  0.00     0.190 HD
ENDROOT
BRANCH   1   7
HETATM    7  N2  UNL     1      10.087  27.599  16.420  1.00  0.00    -0.309 N 
HETATM    8  C5  UNL     1       9.328  26.678  16.813  1.00  0.00     0.121 C 
ATOM      9  H2  UNL     1      10.988  27.233  16.113  1.00  0.00     0.186 HD
BRANCH   8  10
HETATM   10  C4  UNL     1       7.979  26.763  17.323  1.00  0.00     0.018 A 
HETATM   11  C3  UNL     1       7.764  27.577  18.436  1.00  0.00     0.126 A 
HETATM   12  C14 UNL     1       6.486  27.668  18.932  1.00  0.00     0.134 A 
HETATM   13  C13 UNL     1       5.422  26.993  18.376  1.00  0.00     0.101 A 
HETATM   14  C12 UNL     1       5.674  26.191  17.268  1.00  0.00     0.040 A 
HETATM   15  C11 UNL     1       6.955  26.072  16.734  1.00  0.00     0.018 A 
BRANCH  11  16
HETATM   16  O2  UNL     1       8.813  28.276  19.028  1.00  0.00    -0.274 OA
BRANCH  16  17
HETATM   17  C2  UNL     1       9.631  27.657  19.956  1.00  0.00     0.289 C 
HETATM   18  O1  UNL     1      10.796  27.337  19.605  1.00  0.00    -0.263 OA
BRANCH  17  19
HETATM   19  C1  UNL     1       9.186  27.359  21.346  1.00  0.00     0.340 C 
BRANCH  19  20
HETATM   20  N1  UNL     1       8.620  28.548  21.947  1.00  0.00    -0.070 N 
ATOM     21  H13 UNL     1       7.830  28.330  22.555  1.00  0.00     0.274 HD
ATOM     22  H12 UNL     1       9.240  28.954  22.648  1.00  0.00     0.274 HD
ATOM     23  H11 UNL     1       8.371  29.219  21.222  1.00  0.00     0.274 HD
ENDBRANCH  19  20
ENDBRANCH  17  19
ENDBRANCH  16  17
ENDBRANCH  11  16
BRANCH  12  24
HETATM   24  O4  UNL     1       6.252  28.469  20.033  1.00  0.00    -0.356 OA
ATOM     25  H4  UNL     1       5.390  28.460  20.433  1.00  0.00     0.218 HD
ENDBRANCH  12  24
BRANCH  13  26
HETATM   26  O3  UNL     1       4.136  27.099  18.894  1.00  0.00    -0.358 OA
ATOM     27  H3  UNL     1       3.760  26.391  19.404  1.00  0.00     0.217 HD
ENDBRANCH  13  26
ENDBRANCH   8  10
ENDBRANCH   1   7
BRANCH   5  28
HETATM   28  N6  UNL     1      13.398  30.060  16.976  1.00  0.00    -0.126 N 
ATOM     29  H6  UNL     1      13.267  30.787  17.680  1.00  0.00     0.206 HD
BRANCH  28  30
HETATM   30  C7  UNL     1      14.563  29.845  16.498  1.00  0.00     0.750 A 
HETATM   31  N7  UNL     1      15.482  28.988  16.977  1.00  0.00    -0.113 N 
HETATM   32  N8  UNL     1      16.548  29.061  16.207  1.00  0.00    -0.212 N 
ATOM     33  H7  UNL     1      15.373  28.387  17.794  1.00  0.00     0.207 HD
HETATM   34  N9  UNL     1      16.294  29.949  15.265  1.00  0.00    -0.191 N 
ATOM     35  H8  UNL     1      17.410  28.528  16.319  1.00  0.00     0.210 HD
HETATM   36  N10 UNL     1      15.082  30.455  15.411  1.00  0.00     0.109 N 
ATOM     37  H9  UNL     1      16.946  30.210  14.525  1.00  0.00     0.211 HD
BRANCH  36  38
HETATM   38  C8  UNL     1      14.408  31.436  14.622  1.00  0.00     0.719 A 
HETATM   39  N11 UNL     1      14.420  32.776  14.813  1.00  0.00    -0.198 N 
HETATM   40  C9  UNL     1      13.680  33.382  13.882  1.00  0.00     0.123 A 
ATOM     41  H11 UNL     1      14.923  33.254  15.560  1.00  0.00     0.183 HD
HETATM   42  C10 UNL     1      13.169  32.411  13.063  1.00  0.00     0.123 A 
HETATM   43  N12 UNL     1      13.637  31.235  13.547  1.00  0.00    -0.198 N 
ATOM     44  H12 UNL     1      13.429  30.320  13.147  1.00  0.00     0.183 HD
ENDBRANCH  36  38
ENDBRANCH  28  30
ENDBRANCH   5  28
TORSDOF 11
ENDMDL
MODEL 4
REMARK VINA RESULT: -8.775429468      3.596      8.236
REMARK  11 active torsions:
REMARK  status: ('A' for Active; 'I' for Inactive)
REMARK    1  A    between atoms: N1_1  and  C1_5 
REMARK    2  A    between atoms: C1_5  and  C2_6 
REMARK    3  A    between atoms: C2_6  and  O2_8 
REMARK    4  A    between atoms: O2_8  and  C3_9 
REMARK    5  A    between atoms: C4_10  and  C5_11 
REMARK    6  A    between atoms: N2_12  and  N3_14 
REMARK       I    between atoms: N3_14  and  C6_16 
REMARK    7  A    between atoms: N5_18  and  N6_20 
REMARK    8  A    between atoms: N6_20  and  C7_22 
REMARK    9  A    between atoms: N10_29  and  C8_30 
REMARK   10  A    between atoms: C13_39  and  O3_40 
REMARK   11  A    between atoms: C14_42  and  O4_43 
ROOT
HETATM    1  N3  UNL     1      12.521  28.301  16.455  1.00  0.00    -0.273 N 
ATOM      2  H3  UNL     1      12.431  28.450  15.450  1.00  0.00     0.189 HD
HETATM    3  C6  UNL     1      11.527  27.584  17.163  1.00  0.00     0.222 C 
HETATM    4  N4  UNL     1      10.935  26.442  16.587  1.00  0.00    -0.061 NA
HETATM    5  N5  UNL     1      11.173  27.977  18.323  1.00  0.00    -0.258 N 
ATOM      6  H5  UNL     1      11.611  28.805  18.727  1.00  0.00     0.190 HD
ENDROOT
BRANCH   1   7
HETATM    7  N2  UNL     1      13.588  28.784  17.123  1.00  0.00    -0.309 N 
HETATM    8  C5  UNL     1      14.497  29.627  16.918  1.00  0.00     0.121 C 
ATOM      9  H2  UNL     1      13.682  28.349  18.040  1.00  0.00     0.186 HD
BRANCH   8  10
HETATM   10  C4  UNL     1      14.727  30.458  15.760  1.00  0.00     0.018 A 
HETATM   11  C3  UNL     1      13.959  31.616  15.640  1.00  0.00     0.126 A 
HETATM   12  C14 UNL     1      14.166  32.417  14.543  1.00  0.00     0.134 A 
HETATM   13  C13 UNL     1      15.094  32.120  13.568  1.00  0.00     0.101 A 
HETATM   14  C12 UNL     1      15.840  30.957  13.722  1.00  0.00     0.040 A 
HETATM   15  C11 UNL     1      15.661  30.118  14.819  1.00  0.00     0.018 A 
BRANCH  11  16
HETATM   16  O2  UNL     1      13.011  31.953  16.602  1.00  0.00    -0.274 OA
BRANCH  16  17
HETATM   17  C2  UNL     1      11.736  31.418  16.546  1.00  0.00     0.289 C 
HETATM   18  O1  UNL     1      11.206  31.027  17.618  1.00  0.00    -0.263 OA
BRANCH  17  19
HETATM   19  C1  UNL     1      10.975  31.290  15.272  1.00  0.00     0.340 C 
BRANCH  19  20
HETATM   20  N1  UNL     1      10.585  32.600  14.798  1.00  0.00    -0.070 N 
ATOM     21  H13 UNL     1       9.800  32.980  15.327  1.00  0.00     0.274 HD
ATOM     22  H12 UNL     1      11.278  33.313  15.027  1.00  0.00     0.274 HD
ATOM     23  H11 UNL     1      10.391  32.564  13.798  1.00  0.00     0.274 HD
ENDBRANCH  19  20
ENDBRANCH  17  19
ENDBRANCH  16  17
ENDBRANCH  11  16
BRANCH  12  24
HETATM   24  O4  UNL     1      13.417  33.571  14.405  1.00  0.00    -0.356 OA
ATOM     25  H4  UNL     1      13.565  34.128  13.650  1.00  0.00     0.218 HD
ENDBRANCH  12  24
BRANCH  13  26
HETATM   26  O3  UNL     1      15.287  32.945  12.466  1.00  0.00    -0.358 OA
ATOM     27  H3  UNL     1      14.934  33.827  12.454  1.00  0.00     0.217 HD
ENDBRANCH  13  26
ENDBRANCH   8  10
ENDBRANCH   1   7
BRANCH   5  28
HETATM   28  N6  UNL     1      10.204  27.300  19.042  1.00  0.00    -0.126 N 
ATOM     29  H6  UNL     1      10.249  26.283  19.113  1.00  0.00     0.206 HD
BRANCH  28  30
HETATM   30  C7  UNL     1       9.256  27.933  19.615  1.00  0.00     0.750 A 
HETATM   31  N7  UNL     1       9.335  28.634  20.761  1.00  0.00    -0.113 N 
HETATM   32  N8  UNL     1       8.144  29.134  21.016  1.00  0.00    -0.212 N 
ATOM     33  H7  UNL     1      10.172  28.757  21.331  1.00  0.00     0.207 HD
HETATM   34  N9  UNL     1       7.338  28.750  20.045  1.00  0.00    -0.191 N 
ATOM     35  H8  UNL     1       7.891  29.712  21.818  1.00  0.00     0.210 HD
HETATM   36  N10 UNL     1       7.986  28.008  19.164  1.00  0.00     0.109 N 
ATOM     37  H9  UNL     1       6.349  28.992  19.984  1.00  0.00     0.211 HD
BRANCH  36  38
HETATM   38  C8  UNL     1       7.503  27.390  17.970  1.00  0.00     0.719 A 
HETATM   39  N11 UNL     1       7.966  27.586  16.713  1.00  0.00    -0.198 N 
HETATM   40  C9  UNL     1       7.277  26.842  15.846  1.00  0.00     0.123 A 
ATOM     41  H11 UNL     1       8.732  28.213  16.464  1.00  0.00     0.183 HD
HETATM   42  C10 UNL     1       6.338  26.143  16.556  1.00  0.00     0.123 A 
HETATM   43  N12 UNL     1       6.508  26.505  17.851  1.00  0.00    -0.198 N 
ATOM     44  H12 UNL     1       5.952  26.150  18.628  1.00  0.00     0.183 HD
ENDBRANCH  36  38
ENDBRANCH  28  30
ENDBRANCH   5  28
TORSDOF 11
ENDMDL
MODEL 5
REMARK VINA RESULT: -8.717248944      5.098      8.161
REMARK  11 active torsions:
REMARK  status: ('A' for Active; 'I' for Inactive)
REMARK    1  A    between atoms: N1_1  and  C1_5 
REMARK    2  A    between atoms: C1_5  and  C2_6 
REMARK    3  A    between atoms: C2_6  and  O2_8 
REMARK    4  A    between atoms: O2_8  and  C3_9 
REMARK    5  A    between atoms: C4_10  and  C5_11 
REMARK    6  A    between atoms: N2_12  and  N3_14 
REMARK       I    between atoms: N3_14  and  C6_16 
REMARK    7  A    between atoms: N5_18  and  N6_20 
REMARK    8  A    between atoms: N6_20  and  C7_22 
REMARK    9  A    between atoms: N10_29  and  C8_30 
REMARK   10  A    between atoms: C13_39  and  O3_40 
REMARK   11  A    between atoms: C14_42  and  O4_43 
ROOT
HETATM    1  N3  UNL     1      11.846  33.630  14.954  1.00  0.00    -0.273 N 
ATOM      2  H3  UNL     1      10.956  34.128  14.976  1.00  0.00     0.189 HD
HETATM    3  C6  UNL     1      11.996  32.402  15.643  1.00  0.00     0.222 C 
HETATM    4  N4  UNL     1      10.949  31.458  15.639  1.00  0.00    -0.061 NA
HETATM    5  N5  UNL     1      13.081  32.157  16.264  1.00  0.00    -0.258 N 
ATOM      6  H5  UNL     1      13.830  32.850  16.258  1.00  0.00     0.190 HD
ENDROOT
BRANCH   1   7
HETATM    7  N2  UNL     1      12.892  34.134  14.269  1.00  0.00    -0.309 N 
HETATM    8  C5  UNL     1      13.479  33.902  13.183  1.00  0.00     0.121 C 
ATOM      9  H2  UNL     1      13.323  34.913  14.766  1.00  0.00     0.186 HD
BRANCH   8  10
HETATM   10  C4  UNL     1      13.191  32.896  12.187  1.00  0.00     0.018 A 
HETATM   11  C3  UNL     1      13.716  31.620  12.395  1.00  0.00     0.126 A 
HETATM   12  C14 UNL     1      13.450  30.652  11.456  1.00  0.00     0.134 A 
HETATM   13  C13 UNL     1      12.693  30.894  10.331  1.00  0.00     0.101 A 
HETATM   14  C12 UNL     1      12.187  32.178  10.158  1.00  0.00     0.040 A 
HETATM   15  C11 UNL     1      12.433  33.187  11.086  1.00  0.00     0.018 A 
BRANCH  11  16
HETATM   16  O2  UNL     1      14.486  31.333  13.519  1.00  0.00    -0.274 OA
BRANCH  16  17
HETATM   17  C2  UNL     1      15.859  31.197  13.410  1.00  0.00     0.289 C 
HETATM   18  O1  UNL     1      16.351  30.040  13.481  1.00  0.00    -0.263 OA
BRANCH  17  19
HETATM   19  C1  UNL     1      16.767  32.359  13.211  1.00  0.00     0.340 C 
BRANCH  19  20
HETATM   20  N1  UNL     1      17.103  32.488  11.810  1.00  0.00    -0.070 N 
ATOM     21  H13 UNL     1      17.513  31.633  11.434  1.00  0.00     0.274 HD
ATOM     22  H12 UNL     1      16.273  32.527  11.219  1.00  0.00     0.274 HD
ATOM     23  H11 UNL     1      17.710  33.296  11.671  1.00  0.00     0.274 HD
ENDBRANCH  19  20
ENDBRANCH  17  19
ENDBRANCH  16  17
ENDBRANCH  11  16
BRANCH  12  24
HETATM   24  O4  UNL     1      13.960  29.381  11.643  1.00  0.00    -0.356 OA
ATOM     25  H4  UNL     1      13.486  28.639  11.286  1.00  0.00     0.218 HD
ENDBRANCH  12  24
BRANCH  13  26
HETATM   26  O3  UNL     1      12.436  29.900   9.393  1.00  0.00    -0.358 OA
ATOM     27  H3  UNL     1      12.467  28.982   9.640  1.00  0.00     0.217 HD
ENDBRANCH  13  26
ENDBRANCH   8  10
ENDBRANCH   1   7
BRANCH   5  28
HETATM   28  N6  UNL     1      13.260  30.968  16.947  1.00  0.00    -0.126 N 
ATOM     29  H6  UNL     1      12.605  30.706  17.683  1.00  0.00     0.206 HD
BRANCH  28  30
HETATM   30  C7  UNL     1      14.237  30.195  16.666  1.00  0.00     0.750 A 
HETATM   31  N7  UNL     1      15.523  30.361  17.025  1.00  0.00    -0.113 N 
HETATM   32  N8  UNL     1      16.215  29.352  16.540  1.00  0.00    -0.212 N 
ATOM     33  H7  UNL     1      15.895  31.134  17.577  1.00  0.00     0.207 HD
HETATM   34  N9  UNL     1      15.373  28.571  15.889  1.00  0.00    -0.191 N 
ATOM     35  H8  UNL     1      17.219  29.202  16.647  1.00  0.00     0.210 HD
HETATM   36  N10 UNL     1      14.146  29.058  15.944  1.00  0.00     0.109 N 
ATOM     37  H9  UNL     1      15.635  27.710  15.410  1.00  0.00     0.211 HD
BRANCH  36  38
HETATM   38  C8  UNL     1      12.940  28.538  15.382  1.00  0.00     0.719 A 
HETATM   39  N11 UNL     1      12.348  28.932  14.230  1.00  0.00    -0.198 N 
HETATM   40  C9  UNL     1      11.236  28.226  14.017  1.00  0.00     0.123 A 
ATOM     41  H11 UNL     1      12.702  29.664  13.613  1.00  0.00     0.183 HD
HETATM   42  C10 UNL     1      11.097  27.349  15.059  1.00  0.00     0.123 A 
HETATM   43  N12 UNL     1      12.158  27.570  15.873  1.00  0.00    -0.198 N 
ATOM     44  H12 UNL     1      12.336  27.067  16.741  1.00  0.00     0.183 HD
ENDBRANCH  36  38
ENDBRANCH  28  30
ENDBRANCH   5  28
TORSDOF 11
ENDMDL
