MODEL 1
REMARK VINA RESULT: -8.180737134      0.000      0.000
REMARK  11 active torsions:
REMARK  status: ('A' for Active; 'I' for Inactive)
REMARK    1  A    between atoms: C3_3  and  C4_4 
REMARK    2  A    between atoms: N2_6  and  N3_8 
REMARK    3  A    between atoms: N8_19  and  C8_20 
REMARK    4  A    between atoms: C8_20  and  C9_21 
REMARK    5  A    between atoms: C8_20  and  N9_24 
REMARK    6  A    between atoms: C9_21  and  O1_22 
REMARK    7  A    between atoms: N9_24  and  N10_26 
REMARK    8  A    between atoms: N10_26  and  C10_28 
REMARK    9  A    between atoms: C11_31  and  C12_32 
REMARK   10  A    between atoms: C12_32  and  O2_33 
REMARK   11  A    between atoms: C12_32  and  O3_35 
ROOT
HETATM    1  C8  UNL     1      15.136  29.718  14.931  1.00  0.00     0.243 C 
ENDROOT
BRANCH   1   2
HETATM    2  N8  UNL     1      14.070  30.301  15.723  1.00  0.00    -0.251 N 
HETATM    3  C2  UNL     1      12.865  29.735  15.923  1.00  0.00     0.056 A 
HETATM    4  C1  UNL     1      12.402  28.419  15.376  1.00  0.00     0.072 C 
HETATM    5  C3  UNL     1      12.087  30.554  16.724  1.00  0.00     0.112 A 
HETATM    6  N6  UNL     1      12.873  31.615  16.985  1.00  0.00    -0.279 N 
HETATM    7  N7  UNL     1      14.041  31.447  16.386  1.00  0.00    -0.017 NA
ATOM      8  H6  UNL     1      12.611  32.420  17.555  1.00  0.00     0.184 HD
BRANCH   5   9
HETATM    9  C4  UNL     1      10.724  30.295  17.165  1.00  0.00     0.161 C 
HETATM   10  N1  UNL     1       9.645  31.017  16.602  1.00  0.00    -0.079 NA
HETATM   11  N2  UNL     1      10.465  29.416  18.065  1.00  0.00    -0.272 N 
ATOM     12  H2  UNL     1      11.257  28.908  18.457  1.00  0.00     0.189 HD
BRANCH  11  13
HETATM   13  N3  UNL     1       9.217  29.099  18.548  1.00  0.00    -0.234 N 
HETATM   14  C5  UNL     1       8.353  28.259  17.780  1.00  0.00     0.192 C 
HETATM   15  C6  UNL     1       7.661  27.290  18.686  1.00  0.00     0.256 C 
HETATM   16  N4  UNL     1       7.298  27.812  19.969  1.00  0.00    -0.059 N 
HETATM   17  C7  UNL     1       8.443  28.466  20.618  1.00  0.00     0.368 C 
ATOM     18  H42 UNL     1       6.495  28.437  19.905  1.00  0.00     0.278 HD
ATOM     19  H41 UNL     1       6.890  27.092  20.565  1.00  0.00     0.278 HD
HETATM   20  N5  UNL     1       8.780  29.595  19.796  1.00  0.00    -0.096 NA
ENDBRANCH  11  13
ENDBRANCH   5   9
ENDBRANCH   1   2
BRANCH   1  21
HETATM   21  C9  UNL     1      16.225  29.158  15.860  1.00  0.00     0.213 C 
BRANCH  21  22
HETATM   22  O1  UNL     1      15.656  28.787  17.077  1.00  0.00    -0.397 OA
ATOM     23  H1  UNL     1      16.225  29.056  17.789  1.00  0.00     0.209 HD
ENDBRANCH  21  22
ENDBRANCH   1  21
BRANCH   1  24
HETATM   24  N9  UNL     1      15.792  30.705  14.105  1.00  0.00    -0.295 N 
ATOM     25  H9  UNL     1      16.567  31.224  14.520  1.00  0.00     0.183 HD
BRANCH  24  26
HETATM   26  N10 UNL     1      15.459  31.001  12.813  1.00  0.00    -0.134 N 
ATOM     27  H10 UNL     1      16.015  30.602  12.056  1.00  0.00     0.205 HD
BRANCH  26  28
HETATM   28  C10 UNL     1      14.434  31.791  12.513  1.00  0.00     0.703 A 
HETATM   29  N11 UNL     1      13.957  32.598  13.424  1.00  0.00    -0.181 N 
HETATM   30  C11 UNL     1      12.939  33.380  13.120  1.00  0.00     0.139 A 
ATOM     31  H11 UNL     1      14.366  32.623  14.358  1.00  0.00     0.185 HD
HETATM   32  S1  UNL     1      12.649  32.960  11.494  1.00  0.00     0.021 SA
HETATM   33  N12 UNL     1      13.857  31.803  11.307  1.00  0.00    -0.157 N 
ATOM     34  H12 UNL     1      14.089  31.250  10.482  1.00  0.00     0.193 HD
BRANCH  30  35
HETATM   35  C12 UNL     1      12.260  34.369  14.034  1.00  0.00     0.314 C 
BRANCH  35  36
HETATM   36  O2  UNL     1      11.892  33.741  15.204  1.00  0.00    -0.365 OA
ATOM     37  H2  UNL     1      12.547  33.903  15.872  1.00  0.00     0.213 HD
ENDBRANCH  35  36
BRANCH  35  38
HETATM   38  O3  UNL     1      11.139  34.909  13.437  1.00  0.00    -0.365 OA
ATOM     39  H3  UNL     1      11.217  35.852  13.350  1.00  0.00     0.213 HD
ENDBRANCH  35  38
ENDBRANCH  30  35
ENDBRANCH  26  28
ENDBRANCH  24  26
ENDBRANCH   1  24
TORSDOF 11
ENDMDL
MODEL 2
REMARK VINA RESULT: -7.899101787      1.359      1.599
REMARK  11 active torsions:
REMARK  status: ('A' for Active; 'I' for Inactive)
REMARK    1  A    between atoms: C3_3  and  C4_4 
REMARK    2  A    between atoms: N2_6  and  N3_8 
REMARK    3  A    between atoms: N8_19  and  C8_20 
REMARK    4  A    between atoms: C8_20  and  C9_21 
REMARK    5  A    between atoms: C8_20  and  N9_24 
REMARK    6  A    between atoms: C9_21  and  O1_22 
REMARK    7  A    between atoms: N9_24  and  N10_26 
REMARK    8  A    between atoms: N10_26  and  C10_28 
REMARK    9  A    between atoms: C11_31  and  C12_32 
REMARK   10  A    between atoms: C12_32  and  O2_33 
REMARK   11  A    between atoms: C12_32  and  O3_35 
ROOT
HETATM    1  C8  UNL     1      13.798  28.236  13.658  1.00  0.00     0.243 C 
ENDROOT
BRANCH   1   2
HETATM    2  N8  UNL     1      13.214  28.875  14.820  1.00  0.00    -0.251 N 
HETATM    3  C2  UNL     1      11.905  28.847  15.134  1.00  0.00     0.056 A 
HETATM    4  C1  UNL     1      10.821  28.163  14.358  1.00  0.00     0.072 C 
HETATM    5  C3  UNL     1      11.685  29.555  16.304  1.00  0.00     0.112 A 
HETATM    6  N6  UNL     1      12.905  29.998  16.663  1.00  0.00    -0.279 N 
HETATM    7  N7  UNL     1      13.795  29.586  15.775  1.00  0.00    -0.017 NA
ATOM      8  H6  UNL     1      13.110  30.562  17.489  1.00  0.00     0.184 HD
BRANCH   5   9
HETATM    9  C4  UNL     1      10.407  29.757  16.969  1.00  0.00     0.161 C 
HETATM   10  N1  UNL     1       9.646  30.922  16.709  1.00  0.00    -0.079 NA
HETATM   11  N2  UNL     1       9.938  28.898  17.800  1.00  0.00    -0.272 N 
ATOM     12  H2  UNL     1      10.502  28.066  17.973  1.00  0.00     0.189 HD
BRANCH  11  13
HETATM   13  N3  UNL     1       8.745  28.996  18.477  1.00  0.00    -0.234 N 
HETATM   14  C5  UNL     1       7.550  28.485  17.883  1.00  0.00     0.192 C 
HETATM   15  C6  UNL     1       6.734  27.784  18.923  1.00  0.00     0.256 C 
HETATM   16  N4  UNL     1       6.761  28.385  20.223  1.00  0.00    -0.059 N 
HETATM   17  C7  UNL     1       8.141  28.630  20.665  1.00  0.00     0.368 C 
ATOM     18  H42 UNL     1       6.200  29.237  20.253  1.00  0.00     0.278 HD
ATOM     19  H41 UNL     1       6.241  27.831  20.904  1.00  0.00     0.278 HD
HETATM   20  N5  UNL     1       8.689  29.597  19.754  1.00  0.00    -0.096 NA
ENDBRANCH  11  13
ENDBRANCH   5   9
ENDBRANCH   1   2
BRANCH   1  21
HETATM   21  C9  UNL     1      15.173  27.654  14.023  1.00  0.00     0.213 C 
BRANCH  21  22
HETATM   22  O1  UNL     1      15.084  26.967  15.233  1.00  0.00    -0.397 OA
ATOM     23  H1  UNL     1      15.624  26.187  15.197  1.00  0.00     0.209 HD
ENDBRANCH  21  22
ENDBRANCH   1  21
BRANCH   1  24
HETATM   24  N9  UNL     1      14.042  29.180  12.592  1.00  0.00    -0.295 N 
ATOM     25  H9  UNL     1      13.539  29.038  11.715  1.00  0.00     0.183 HD
BRANCH  24  26
HETATM   26  N10 UNL     1      14.891  30.248  12.663  1.00  0.00    -0.134 N 
ATOM     27  H10 UNL     1      15.896  30.086  12.605  1.00  0.00     0.205 HD
BRANCH  26  28
HETATM   28  C10 UNL     1      14.447  31.493  12.806  1.00  0.00     0.703 A 
HETATM   29  N11 UNL     1      13.455  31.731  13.624  1.00  0.00    -0.181 N 
HETATM   30  C11 UNL     1      13.019  32.968  13.761  1.00  0.00     0.139 A 
ATOM     31  H11 UNL     1      13.024  30.971  14.149  1.00  0.00     0.185 HD
HETATM   32  S1  UNL     1      14.045  33.821  12.700  1.00  0.00     0.021 SA
HETATM   33  N12 UNL     1      14.972  32.530  12.145  1.00  0.00    -0.157 N 
ATOM     34  H12 UNL     1      15.740  32.538  11.474  1.00  0.00     0.193 HD
BRANCH  30  35
HETATM   35  C12 UNL     1      11.893  33.432  14.651  1.00  0.00     0.314 C 
BRANCH  35  36
HETATM   36  O2  UNL     1      11.848  34.810  14.660  1.00  0.00    -0.365 OA
ATOM     37  H2  UNL     1      10.955  35.101  14.517  1.00  0.00     0.213 HD
ENDBRANCH  35  36
BRANCH  35  38
HETATM   38  O3  UNL     1      12.061  32.976  15.943  1.00  0.00    -0.365 OA
ATOM     39  H3  UNL     1      12.961  33.079  16.229  1.00  0.00     0.213 HD
ENDBRANCH  35  38
ENDBRANCH  30  35
ENDBRANCH  26  28
ENDBRANCH  24  26
ENDBRANCH   1  24
TORSDOF 11
ENDMDL
MODEL 3
REMARK VINA RESULT: -7.679501085      1.724      1.903
REMARK  11 active torsions:
REMARK  status: ('A' for Active; 'I' for Inactive)
REMARK    1  A    between atoms: C3_3  and  C4_4 
REMARK    2  A    between atoms: N2_6  and  N3_8 
REMARK    3  A    between atoms: N8_19  and  C8_20 
REMARK    4  A    between atoms: C8_20  and  C9_21 
REMARK    5  A    between atoms: C8_20  and  N9_24 
REMARK    6  A    between atoms: C9_21  and  O1_22 
REMARK    7  A    between atoms: N9_24  and  N10_26 
REMARK    8  A    between atoms: N10_26  and  C10_28 
REMARK    9  A    between atoms: C11_31  and  C12_32 
REMARK   10  A    between atoms: C12_32  and  O2_33 
REMARK   11  A    between atoms: C12_32  and  O3_35 
ROOT
HETATM    1  C8  UNL     1      13.753  28.080  13.515  1.00  0.00     0.243 C 
ENDROOT
BRANCH   1   2
HETATM    2  N8  UNL     1      13.205  28.775  14.662  1.00  0.00    -0.251 N 
HETATM    3  C2  UNL     1      11.912  28.742  15.033  1.00  0.00     0.056 A 
HETATM    4  C1  UNL     1      10.811  27.995  14.345  1.00  0.00     0.072 C 
HETATM    5  C3  UNL     1      11.727  29.512  16.169  1.00  0.00     0.112 A 
HETATM    6  N6  UNL     1      12.951  29.997  16.450  1.00  0.00    -0.279 N 
HETATM    7  N7  UNL     1      13.811  29.550  15.549  1.00  0.00    -0.017 NA
ATOM      8  H6  UNL     1      13.180  30.610  17.232  1.00  0.00     0.184 HD
BRANCH   5   9
HETATM    9  C4  UNL     1      10.473  29.730  16.875  1.00  0.00     0.161 C 
HETATM   10  N1  UNL     1       9.724  30.909  16.649  1.00  0.00    -0.079 NA
HETATM   11  N2  UNL     1      10.017  28.871  17.714  1.00  0.00    -0.272 N 
ATOM     12  H2  UNL     1      10.573  28.029  17.863  1.00  0.00     0.189 HD
BRANCH  11  13
HETATM   13  N3  UNL     1       8.848  28.983  18.430  1.00  0.00    -0.234 N 
HETATM   14  C5  UNL     1       7.627  28.491  17.873  1.00  0.00     0.192 C 
HETATM   15  C6  UNL     1       6.835  27.797  18.936  1.00  0.00     0.256 C 
HETATM   16  N4  UNL     1       6.912  28.394  20.236  1.00  0.00    -0.059 N 
HETATM   17  C7  UNL     1       8.309  28.618  20.634  1.00  0.00     0.368 C 
ATOM     18  H42 UNL     1       6.364  29.252  20.287  1.00  0.00     0.278 HD
ATOM     19  H41 UNL     1       6.407  27.844  20.932  1.00  0.00     0.278 HD
HETATM   20  N5  UNL     1       8.841  29.580  19.709  1.00  0.00    -0.096 NA
ENDBRANCH  11  13
ENDBRANCH   5   9
ENDBRANCH   1   2
BRANCH   1  21
HETATM   21  C9  UNL     1      15.264  28.345  13.421  1.00  0.00     0.213 C 
BRANCH  21  22
HETATM   22  O1  UNL     1      15.499  29.719  13.440  1.00  0.00    -0.397 OA
ATOM     23  H1  UNL     1      15.047  30.130  12.713  1.00  0.00     0.209 HD
ENDBRANCH  21  22
ENDBRANCH   1  21
BRANCH   1  24
HETATM   24  N9  UNL     1      13.191  28.565  12.275  1.00  0.00    -0.295 N 
ATOM     25  H9  UNL     1      12.722  27.886  11.674  1.00  0.00     0.183 HD
BRANCH  24  26
HETATM   26  N10 UNL     1      13.237  29.860  11.841  1.00  0.00    -0.134 N 
ATOM     27  H10 UNL     1      13.911  30.116  11.119  1.00  0.00     0.205 HD
BRANCH  26  28
HETATM   28  C10 UNL     1      12.431  30.796  12.331  1.00  0.00     0.703 A 
HETATM   29  N11 UNL     1      12.859  31.575  13.291  1.00  0.00    -0.181 N 
HETATM   30  C11 UNL     1      12.054  32.501  13.773  1.00  0.00     0.139 A 
ATOM     31  H11 UNL     1      13.803  31.466  13.662  1.00  0.00     0.185 HD
HETATM   32  S1  UNL     1      10.648  32.264  12.840  1.00  0.00     0.021 SA
HETATM   33  N12 UNL     1      11.184  30.985  11.886  1.00  0.00    -0.157 N 
ATOM     34  H12 UNL     1      10.684  30.482  11.153  1.00  0.00     0.193 HD
BRANCH  30  35
HETATM   35  C12 UNL     1      12.371  33.485  14.873  1.00  0.00     0.314 C 
BRANCH  35  36
HETATM   36  O2  UNL     1      11.865  33.020  16.068  1.00  0.00    -0.365 OA
ATOM     37  H2  UNL     1      12.058  33.643  16.759  1.00  0.00     0.213 HD
ENDBRANCH  35  36
BRANCH  35  38
HETATM   38  O3  UNL     1      11.829  34.724  14.602  1.00  0.00    -0.365 OA
ATOM     39  H3  UNL     1      12.226  35.111  13.830  1.00  0.00     0.213 HD
ENDBRANCH  35  38
ENDBRANCH  30  35
ENDBRANCH  26  28
ENDBRANCH  24  26
ENDBRANCH   1  24
TORSDOF 11
ENDMDL
MODEL 4
REMARK VINA RESULT: -7.670453501      2.092      2.477
REMARK  11 active torsions:
REMARK  status: ('A' for Active; 'I' for Inactive)
REMARK    1  A    between atoms: C3_3  and  C4_4 
REMARK    2  A    between atoms: N2_6  and  N3_8 
REMARK    3  A    between atoms: N8_19  and  C8_20 
REMARK    4  A    between atoms: C8_20  and  C9_21 
REMARK    5  A    between atoms: C8_20  and  N9_24 
REMARK    6  A    between atoms: C9_21  and  O1_22 
REMARK    7  A    between atoms: N9_24  and  N10_26 
REMARK    8  A    between atoms: N10_26  and  C10_28 
REMARK    9  A    between atoms: C11_31  and  C12_32 
REMARK   10  A    between atoms: C12_32  and  O2_33 
REMARK   11  A    between atoms: C12_32  and  O3_35 
ROOT
HETATM    1  C8  UNL     1      13.674  28.291  13.363  1.00  0.00     0.243 C 
ENDROOT
BRANCH   1   2
HETATM    2  N8  UNL     1      13.262  28.427  14.746  1.00  0.00    -0.251 N 
HETATM    3  C2  UNL     1      12.021  28.181  15.204  1.00  0.00     0.056 A 
HETATM    4  C1  UNL     1      10.848  27.726  14.389  1.00  0.00     0.072 C 
HETATM    5  C3  UNL     1      11.967  28.408  16.569  1.00  0.00     0.112 A 
HETATM    6  N6  UNL     1      13.215  28.796  16.894  1.00  0.00    -0.279 N 
HETATM    7  N7  UNL     1      13.965  28.801  15.804  1.00  0.00    -0.017 NA
ATOM      8  H6  UNL     1      13.532  29.047  17.831  1.00  0.00     0.184 HD
BRANCH   5   9
HETATM    9  C4  UNL     1      10.804  28.255  17.430  1.00  0.00     0.161 C 
HETATM   10  N1  UNL     1      10.607  27.053  18.152  1.00  0.00    -0.079 NA
HETATM   11  N2  UNL     1       9.934  29.190  17.557  1.00  0.00    -0.272 N 
ATOM     12  H2  UNL     1      10.095  30.047  17.028  1.00  0.00     0.189 HD
BRANCH  11  13
HETATM   13  N3  UNL     1       8.806  29.143  18.342  1.00  0.00    -0.234 N 
HETATM   14  C5  UNL     1       7.598  28.593  17.812  1.00  0.00     0.192 C 
HETATM   15  C6  UNL     1       6.931  27.751  18.854  1.00  0.00     0.256 C 
HETATM   16  N4  UNL     1       7.038  28.245  20.193  1.00  0.00    -0.059 N 
HETATM   17  C7  UNL     1       8.433  28.557  20.533  1.00  0.00     0.368 C 
ATOM     18  H42 UNL     1       6.426  29.046  20.347  1.00  0.00     0.278 HD
ATOM     19  H41 UNL     1       6.623  27.600  20.866  1.00  0.00     0.278 HD
HETATM   20  N5  UNL     1       8.828  29.633  19.666  1.00  0.00    -0.096 NA
ENDBRANCH  11  13
ENDBRANCH   5   9
ENDBRANCH   1   2
BRANCH   1  21
HETATM   21  C9  UNL     1      15.165  27.926  13.300  1.00  0.00     0.213 C 
BRANCH  21  22
HETATM   22  O1  UNL     1      15.736  28.486  12.158  1.00  0.00    -0.397 OA
ATOM     23  H1  UNL     1      15.070  28.950  11.664  1.00  0.00     0.209 HD
ENDBRANCH  21  22
ENDBRANCH   1  21
BRANCH   1  24
HETATM   24  N9  UNL     1      13.543  29.535  12.639  1.00  0.00    -0.295 N 
ATOM     25  H9  UNL     1      12.964  29.531  11.799  1.00  0.00     0.183 HD
BRANCH  24  26
HETATM   26  N10 UNL     1      14.131  30.717  12.989  1.00  0.00    -0.134 N 
ATOM     27  H10 UNL     1      15.128  30.844  12.815  1.00  0.00     0.205 HD
BRANCH  26  28
HETATM   28  C10 UNL     1      13.445  31.707  13.550  1.00  0.00     0.703 A 
HETATM   29  N11 UNL     1      12.789  31.487  14.660  1.00  0.00    -0.181 N 
HETATM   30  C11 UNL     1      12.109  32.473  15.211  1.00  0.00     0.139 A 
ATOM     31  H11 UNL     1      12.803  30.564  15.093  1.00  0.00     0.185 HD
HETATM   32  S1  UNL     1      12.408  33.753  14.126  1.00  0.00     0.021 SA
HETATM   33  N12 UNL     1      13.389  32.938  13.029  1.00  0.00    -0.157 N 
ATOM     34  H12 UNL     1      13.831  33.293  12.181  1.00  0.00     0.193 HD
BRANCH  30  35
HETATM   35  C12 UNL     1      11.299  32.407  16.482  1.00  0.00     0.314 C 
BRANCH  35  36
HETATM   36  O2  UNL     1      11.963  31.640  17.415  1.00  0.00    -0.365 OA
ATOM     37  H2  UNL     1      12.306  32.201  18.101  1.00  0.00     0.213 HD
ENDBRANCH  35  36
BRANCH  35  38
HETATM   38  O3  UNL     1      10.053  31.861  16.249  1.00  0.00    -0.365 OA
ATOM     39  H3  UNL     1       9.556  31.785  17.055  1.00  0.00     0.213 HD
ENDBRANCH  35  38
ENDBRANCH  30  35
ENDBRANCH  26  28
ENDBRANCH  24  26
ENDBRANCH   1  24
TORSDOF 11
ENDMDL
MODEL 5
REMARK VINA RESULT: -7.480600170      1.858      2.438
REMARK  11 active torsions:
REMARK  status: ('A' for Active; 'I' for Inactive)
REMARK    1  A    between atoms: C3_3  and  C4_4 
REMARK    2  A    between atoms: N2_6  and  N3_8 
REMARK    3  A    between atoms: N8_19  and  C8_20 
REMARK    4  A    between atoms: C8_20  and  C9_21 
REMARK    5  A    between atoms: C8_20  and  N9_24 
REMARK    6  A    between atoms: C9_21  and  O1_22 
REMARK    7  A    between atoms: N9_24  and  N10_26 
REMARK    8  A    between atoms: N10_26  and  C10_28 
REMARK    9  A    between atoms: C11_31  and  C12_32 
REMARK   10  A    between atoms: C12_32  and  O2_33 
REMARK   11  A    between atoms: C12_32  and  O3_35 
ROOT
HETATM    1  C8  UNL     1      14.460  28.387  15.231  1.00  0.00     0.243 C 
ENDROOT
BRANCH   1   2
HETATM    2  N8  UNL     1      13.267  28.744  15.973  1.00  0.00    -0.251 N 
HETATM    3  C2  UNL     1      12.328  27.871  16.382  1.00  0.00     0.056 A 
HETATM    4  C1  UNL     1      12.335  26.390  16.155  1.00  0.00     0.072 C 
HETATM    5  C3  UNL     1      11.325  28.541  17.062  1.00  0.00     0.112 A 
HETATM    6  N6  UNL     1      11.706  29.832  17.037  1.00  0.00    -0.279 N 
HETATM    7  N7  UNL     1      12.855  29.932  16.390  1.00  0.00    -0.017 NA
ATOM      8  H6  UNL     1      11.190  30.609  17.451  1.00  0.00     0.184 HD
BRANCH   5   9
HETATM    9  C4  UNL     1      10.136  27.950  17.658  1.00  0.00     0.161 C 
HETATM   10  N1  UNL     1      10.157  27.508  19.002  1.00  0.00    -0.079 NA
HETATM   11  N2  UNL     1       9.048  27.811  16.990  1.00  0.00    -0.272 N 
ATOM     12  H2  UNL     1       9.054  28.135  16.022  1.00  0.00     0.189 HD
BRANCH  11  13
HETATM   13  N3  UNL     1       7.875  27.267  17.459  1.00  0.00    -0.234 N 
HETATM   14  C5  UNL     1       6.950  28.088  18.174  1.00  0.00     0.192 C 
HETATM   15  C6  UNL     1       5.554  27.765  17.742  1.00  0.00     0.256 C 
HETATM   16  N4  UNL     1       5.311  26.382  17.462  1.00  0.00    -0.059 N 
HETATM   17  C7  UNL     1       6.322  25.841  16.542  1.00  0.00     0.368 C 
ATOM     18  H42 UNL     1       5.250  25.832  18.319  1.00  0.00     0.278 HD
ATOM     19  H41 UNL     1       4.365  26.231  17.111  1.00  0.00     0.278 HD
HETATM   20  N5  UNL     1       7.576  25.904  17.242  1.00  0.00    -0.096 NA
ENDBRANCH  11  13
ENDBRANCH   5   9
ENDBRANCH   1   2
BRANCH   1  21
HETATM   21  C9  UNL     1      15.702  28.933  15.953  1.00  0.00     0.213 C 
BRANCH  21  22
HETATM   22  O1  UNL     1      15.569  28.735  17.326  1.00  0.00    -0.397 OA
ATOM     23  H1  UNL     1      15.112  29.474  17.712  1.00  0.00     0.209 HD
ENDBRANCH  21  22
ENDBRANCH   1  21
BRANCH   1  24
HETATM   24  N9  UNL     1      14.474  28.988  13.917  1.00  0.00    -0.295 N 
ATOM     25  H9  UNL     1      13.878  28.568  13.203  1.00  0.00     0.183 HD
BRANCH  24  26
HETATM   26  N10 UNL     1      15.222  30.072  13.553  1.00  0.00    -0.134 N 
ATOM     27  H10 UNL     1      16.216  29.945  13.361  1.00  0.00     0.205 HD
BRANCH  26  28
HETATM   28  C10 UNL     1      14.694  31.286  13.441  1.00  0.00     0.703 A 
HETATM   29  N11 UNL     1      13.635  31.594  14.145  1.00  0.00    -0.181 N 
HETATM   30  C11 UNL     1      13.116  32.801  14.030  1.00  0.00     0.139 A 
ATOM     31  H11 UNL     1      13.217  30.910  14.775  1.00  0.00     0.185 HD
HETATM   32  S1  UNL     1      14.158  33.523  12.890  1.00  0.00     0.021 SA
HETATM   33  N12 UNL     1      15.198  32.225  12.633  1.00  0.00    -0.157 N 
ATOM     34  H12 UNL     1      16.008  32.168  12.016  1.00  0.00     0.193 HD
BRANCH  30  35
HETATM   35  C12 UNL     1      11.906  33.333  14.757  1.00  0.00     0.314 C 
BRANCH  35  36
HETATM   36  O2  UNL     1      11.886  34.710  14.675  1.00  0.00    -0.365 OA
ATOM     37  H2  UNL     1      11.038  35.033  14.956  1.00  0.00     0.213 HD
ENDBRANCH  35  36
BRANCH  35  38
HETATM   38  O3  UNL     1      11.919  32.958  16.084  1.00  0.00    -0.365 OA
ATOM     39  H3  UNL     1      11.305  32.251  16.246  1.00  0.00     0.213 HD
ENDBRANCH  35  38
ENDBRANCH  30  35
ENDBRANCH  26  28
ENDBRANCH  24  26
ENDBRANCH   1  24
TORSDOF 11
ENDMDL
