MODEL 1
REMARK VINA RESULT: -5.994939815      0.000      0.000
REMARK  1 active torsions:
REMARK  status: ('A' for Active; 'I' for Inactive)
REMARK    1  A    between atoms: N2_3  and  N3_5 
ROOT
HETATM    1  N3  UNL     1      56.429  -2.836  21.368  1.00  0.00    -0.286 N 
ATOM      2  H3  UNL     1      55.777  -2.063  21.503  1.00  0.00     0.188 HD
HETATM    3  C2  UNL     1      56.560  -3.762  22.264  1.00  0.00     0.124 C 
HETATM    4  C3  UNL     1      55.733  -3.667  23.492  1.00  0.00     0.203 C 
HETATM    5  N4  UNL     1      54.817  -4.740  23.667  1.00  0.00    -0.335 N 
ATOM      6  H4  UNL     1      53.937  -4.456  24.097  1.00  0.00     0.164 HD
HETATM    7  C4  UNL     1      54.879  -6.138  23.363  1.00  0.00     0.331 C 
HETATM    8  O1  UNL     1      53.772  -6.747  23.341  1.00  0.00    -0.246 OA
HETATM    9  N5  UNL     1      56.024  -6.903  23.087  1.00  0.00    -0.219 N 
ATOM     10  H5  UNL     1      55.893  -7.915  23.083  1.00  0.00     0.185 HD
HETATM   11  S1  UNL     1      57.625  -6.351  22.754  1.00  0.00     0.328 S 
HETATM   12  O2  UNL     1      58.371  -7.328  21.900  1.00  0.00    -0.182 OA
HETATM   13  O3  UNL     1      58.321  -6.133  24.069  1.00  0.00    -0.182 OA
HETATM   14  N6  UNL     1      57.490  -4.805  21.998  1.00  0.00    -0.254 N 
ATOM     15  H6  UNL     1      58.169  -4.614  21.261  1.00  0.00     0.181 HD
ENDROOT
BRANCH   1  16
HETATM   16  N2  UNL     1      57.203  -2.927  20.220  1.00  0.00    -0.297 N 
HETATM   17  C1  UNL     1      57.162  -2.115  19.240  1.00  0.00     0.206 C 
HETATM   18  N1  UNL     1      58.024  -2.348  18.132  1.00  0.00    -0.095 NA
ATOM     19  H2  UNL     1      57.858  -3.707  20.156  1.00  0.00     0.187 HD
ENDBRANCH   1  16
TORSDOF 1
ENDMDL
MODEL 2
REMARK VINA RESULT: -5.822523412      2.668      3.656
REMARK  1 active torsions:
REMARK  status: ('A' for Active; 'I' for Inactive)
REMARK    1  A    between atoms: N2_3  and  N3_5 
ROOT
HETATM    1  N3  UNL     1      59.055  -5.082  19.803  1.00  0.00    -0.286 N 
ATOM      2  H3  UNL     1      59.808  -5.556  19.305  1.00  0.00     0.188 HD
HETATM    3  C2  UNL     1      58.515  -5.611  20.855  1.00  0.00     0.124 C 
HETATM    4  C3  UNL     1      59.023  -6.927  21.314  1.00  0.00     0.203 C 
HETATM    5  N4  UNL     1      59.613  -6.910  22.606  1.00  0.00    -0.335 N 
ATOM      6  H4  UNL     1      60.404  -7.547  22.700  1.00  0.00     0.164 HD
HETATM    7  C4  UNL     1      59.323  -6.181  23.805  1.00  0.00     0.331 C 
HETATM    8  O1  UNL     1      60.242  -6.154  24.671  1.00  0.00    -0.246 OA
HETATM    9  N5  UNL     1      58.139  -5.495  24.122  1.00  0.00    -0.219 N 
ATOM     10  H5  UNL     1      58.043  -5.199  25.094  1.00  0.00     0.185 HD
HETATM   11  S1  UNL     1      56.824  -5.089  23.080  1.00  0.00     0.328 S 
HETATM   12  O2  UNL     1      56.111  -3.863  23.556  1.00  0.00    -0.182 OA
HETATM   13  O3  UNL     1      55.898  -6.272  23.023  1.00  0.00    -0.182 OA
HETATM   14  N6  UNL     1      57.470  -4.884  21.492  1.00  0.00    -0.254 N 
ATOM     15  H6  UNL     1      57.047  -4.141  20.936  1.00  0.00     0.181 HD
ENDROOT
BRANCH   1  16
HETATM   16  N2  UNL     1      58.578  -3.851  19.376  1.00  0.00    -0.297 N 
HETATM   17  C1  UNL     1      57.951  -3.643  18.288  1.00  0.00     0.206 C 
HETATM   18  N1  UNL     1      57.527  -2.318  17.994  1.00  0.00    -0.095 NA
ATOM     19  H2  UNL     1      58.744  -3.047  19.984  1.00  0.00     0.187 HD
ENDBRANCH   1  16
TORSDOF 1
ENDMDL
MODEL 3
REMARK VINA RESULT: -5.772507456      1.039      1.039
REMARK  1 active torsions:
REMARK  status: ('A' for Active; 'I' for Inactive)
REMARK    1  A    between atoms: N2_3  and  N3_5 
ROOT
HETATM    1  N3  UNL     1      56.346  -3.086  21.518  1.00  0.00    -0.286 N 
ATOM      2  H3  UNL     1      55.652  -2.466  21.938  1.00  0.00     0.188 HD
HETATM    3  C2  UNL     1      56.881  -4.048  22.201  1.00  0.00     0.124 C 
HETATM    4  C3  UNL     1      56.455  -4.224  23.611  1.00  0.00     0.203 C 
HETATM    5  N4  UNL     1      55.812  -5.462  23.880  1.00  0.00    -0.335 N 
ATOM      6  H4  UNL     1      55.068  -5.392  24.574  1.00  0.00     0.164 HD
HETATM    7  C4  UNL     1      55.996  -6.790  23.375  1.00  0.00     0.331 C 
HETATM    8  O1  UNL     1      55.042  -7.594  23.575  1.00  0.00    -0.246 OA
HETATM    9  N5  UNL     1      57.111  -7.295  22.686  1.00  0.00    -0.219 N 
ATOM     10  H5  UNL     1      57.143  -8.308  22.575  1.00  0.00     0.185 HD
HETATM   11  S1  UNL     1      58.433  -6.421  22.003  1.00  0.00     0.328 S 
HETATM   12  O2  UNL     1      59.032  -7.157  20.845  1.00  0.00    -0.182 OA
HETATM   13  O3  UNL     1      59.447  -6.194  23.089  1.00  0.00    -0.182 OA
HETATM   14  N6  UNL     1      57.840  -4.866  21.542  1.00  0.00    -0.254 N 
ATOM     15  H6  UNL     1      58.229  -4.483  20.680  1.00  0.00     0.181 HD
ENDROOT
BRANCH   1  16
HETATM   16  N2  UNL     1      56.746  -2.924  20.199  1.00  0.00    -0.297 N 
HETATM   17  C1  UNL     1      56.767  -1.818  19.569  1.00  0.00     0.206 C 
HETATM   18  N1  UNL     1      57.205  -1.819  18.216  1.00  0.00    -0.095 NA
ATOM     19  H2  UNL     1      57.047  -3.758  19.695  1.00  0.00     0.187 HD
ENDBRANCH   1  16
TORSDOF 1
ENDMDL
MODEL 4
REMARK VINA RESULT: -5.687945857      3.873      4.627
REMARK  1 active torsions:
REMARK  status: ('A' for Active; 'I' for Inactive)
REMARK    1  A    between atoms: N2_3  and  N3_5 
ROOT
HETATM    1  N3  UNL     1      57.969  -4.615  20.588  1.00  0.00    -0.286 N 
ATOM      2  H3  UNL     1      57.811  -4.502  21.590  1.00  0.00     0.188 HD
HETATM    3  C2  UNL     1      58.700  -5.582  20.133  1.00  0.00     0.124 C 
HETATM    4  C3  UNL     1      59.302  -6.522  21.110  1.00  0.00     0.203 C 
HETATM    5  N4  UNL     1      58.856  -7.866  20.983  1.00  0.00    -0.335 N 
ATOM      6  H4  UNL     1      58.776  -8.354  21.875  1.00  0.00     0.164 HD
HETATM    7  C4  UNL     1      58.495  -8.674  19.857  1.00  0.00     0.331 C 
HETATM    8  O1  UNL     1      57.827  -9.715  20.116  1.00  0.00    -0.246 OA
HETATM    9  N5  UNL     1      58.798  -8.441  18.505  1.00  0.00    -0.219 N 
ATOM     10  H5  UNL     1      58.625  -9.220  17.870  1.00  0.00     0.185 HD
HETATM   11  S1  UNL     1      59.424  -7.005  17.781  1.00  0.00     0.328 S 
HETATM   12  O2  UNL     1      59.007  -6.891  16.348  1.00  0.00    -0.182 OA
HETATM   13  O3  UNL     1      60.922  -7.038  17.913  1.00  0.00    -0.182 OA
HETATM   14  N6  UNL     1      58.870  -5.669  18.722  1.00  0.00    -0.254 N 
ATOM     15  H6  UNL     1      58.631  -4.828  18.197  1.00  0.00     0.181 HD
ENDROOT
BRANCH   1  16
HETATM   16  N2  UNL     1      57.407  -3.737  19.672  1.00  0.00    -0.297 N 
HETATM   17  C1  UNL     1      57.297  -2.478  19.832  1.00  0.00     0.206 C 
HETATM   18  N1  UNL     1      56.695  -1.714  18.795  1.00  0.00    -0.095 NA
ATOM     19  H2  UNL     1      57.054  -4.132  18.799  1.00  0.00     0.187 HD
ENDBRANCH   1  16
TORSDOF 1
ENDMDL
MODEL 5
REMARK VINA RESULT: -5.685636921      4.160      5.889
REMARK  1 active torsions:
REMARK  status: ('A' for Active; 'I' for Inactive)
REMARK    1  A    between atoms: N2_3  and  N3_5 
ROOT
HETATM    1  N3  UNL     1      58.993  -6.247  20.635  1.00  0.00    -0.286 N 
ATOM      2  H3  UNL     1      59.408  -7.179  20.609  1.00  0.00     0.188 HD
HETATM    3  C2  UNL     1      58.842  -5.554  19.551  1.00  0.00     0.124 C 
HETATM    4  C3  UNL     1      59.289  -6.154  18.270  1.00  0.00     0.203 C 
HETATM    5  N4  UNL     1      58.247  -6.368  17.327  1.00  0.00    -0.335 N 
ATOM      6  H4  UNL     1      58.374  -7.208  16.764  1.00  0.00     0.164 HD
HETATM    7  C4  UNL     1      57.054  -5.642  17.006  1.00  0.00     0.331 C 
HETATM    8  O1  UNL     1      56.181  -6.279  16.352  1.00  0.00    -0.246 OA
HETATM    9  N5  UNL     1      56.749  -4.312  17.337  1.00  0.00    -0.219 N 
ATOM     10  H5  UNL     1      55.941  -3.910  16.861  1.00  0.00     0.185 HD
HETATM   11  S1  UNL     1      57.564  -3.269  18.444  1.00  0.00     0.328 S 
HETATM   12  O2  UNL     1      56.634  -2.243  19.011  1.00  0.00    -0.182 OA
HETATM   13  O3  UNL     1      58.709  -2.623  17.713  1.00  0.00    -0.182 OA
HETATM   14  N6  UNL     1      58.255  -4.263  19.674  1.00  0.00    -0.254 N 
ATOM     15  H6  UNL     1      58.240  -3.874  20.617  1.00  0.00     0.181 HD
ENDROOT
BRANCH   1  16
HETATM   16  N2  UNL     1      58.574  -5.684  21.831  1.00  0.00    -0.297 N 
HETATM   17  C1  UNL     1      57.846  -6.262  22.701  1.00  0.00     0.206 C 
HETATM   18  N1  UNL     1      57.502  -5.546  23.880  1.00  0.00    -0.095 NA
ATOM     19  H2  UNL     1      58.875  -4.729  22.031  1.00  0.00     0.187 HD
ENDBRANCH   1  16
TORSDOF 1
ENDMDL
