MODEL 1
REMARK VINA RESULT: -6.857700417      0.000      0.000
REMARK  4 active torsions:
REMARK  status: ('A' for Active; 'I' for Inactive)
REMARK    1  A    between atoms: C1_4  and  C2_5 
REMARK    2  A    between atoms: C1_4  and  N5_11 
REMARK    3  A    between atoms: C2_5  and  N2_6 
REMARK    4  A    between atoms: N5_11  and  C4_13 
ROOT
HETATM    1  N5  UNL     1      59.321  -5.256  19.739  1.00  0.00    -0.179 N 
ATOM      2  H5  UNL     1      60.272  -4.893  19.671  1.00  0.00     0.185 HD
ENDROOT
BRANCH   1   3
HETATM    3  C1  UNL     1      59.116  -6.632  19.446  1.00  0.00     0.108 C 
HETATM    4  N1  UNL     1      59.030  -7.430  20.455  1.00  0.00    -0.387 N 
ATOM      5  H12 UNL     1      58.883  -8.418  20.244  1.00  0.00     0.157 HD
ATOM      6  H11 UNL     1      59.100  -7.143  21.431  1.00  0.00     0.157 HD
BRANCH   3   7
HETATM    7  C2  UNL     1      59.016  -7.044  18.046  1.00  0.00     0.198 C 
BRANCH   7   8
HETATM    8  N2  UNL     1      57.752  -6.782  17.437  1.00  0.00    -0.360 N 
HETATM    9  C3  UNL     1      57.609  -5.749  16.688  1.00  0.00     0.197 C 
HETATM   10  N3  UNL     1      56.374  -5.430  16.050  1.00  0.00    -0.067 NA
HETATM   11  N4  UNL     1      58.713  -4.884  16.479  1.00  0.00    -0.067 NA
ATOM     12  H2  UNL     1      56.967  -7.414  17.596  1.00  0.00     0.162 HD
ENDBRANCH   7   8
ENDBRANCH   3   7
ENDBRANCH   1   3
BRANCH   1  13
HETATM   13  C4  UNL     1      58.403  -4.448  20.081  1.00  0.00     0.691 A 
HETATM   14  N6  UNL     1      57.752  -4.585  21.248  1.00  0.00    -0.141 N 
HETATM   15  C5  UNL     1      56.787  -3.698  21.558  1.00  0.00     0.342 A 
ATOM     16  H6  UNL     1      57.984  -5.346  21.887  1.00  0.00     0.189 HD
HETATM   17  O1  UNL     1      56.134  -3.776  22.650  1.00  0.00    -0.246 OA
HETATM   18  N7  UNL     1      56.486  -2.687  20.696  1.00  0.00    -0.260 N 
HETATM   19  C6  UNL     1      57.135  -2.541  19.520  1.00  0.00     0.342 A 
ATOM     20  H7  UNL     1      55.753  -2.023  20.945  1.00  0.00     0.175 HD
HETATM   21  O2  UNL     1      56.848  -1.602  18.731  1.00  0.00    -0.246 OA
HETATM   22  N8  UNL     1      58.091  -3.443  19.244  1.00  0.00    -0.141 N 
ATOM     23  H8  UNL     1      58.600  -3.363  18.364  1.00  0.00     0.189 HD
ENDBRANCH   1  13
TORSDOF 4
ENDMDL
MODEL 2
REMARK VINA RESULT: -6.727080234      0.752      2.108
REMARK  4 active torsions:
REMARK  status: ('A' for Active; 'I' for Inactive)
REMARK    1  A    between atoms: C1_4  and  C2_5 
REMARK    2  A    between atoms: C1_4  and  N5_11 
REMARK    3  A    between atoms: C2_5  and  N2_6 
REMARK    4  A    between atoms: N5_11  and  C4_13 
ROOT
HETATM    1  N5  UNL     1      59.263  -5.140  19.565  1.00  0.00    -0.179 N 
ATOM      2  H5  UNL     1      60.237  -4.863  19.689  1.00  0.00     0.185 HD
ENDROOT
BRANCH   1   3
HETATM    3  C1  UNL     1      59.004  -6.355  18.874  1.00  0.00     0.108 C 
HETATM    4  N1  UNL     1      58.954  -7.426  19.590  1.00  0.00    -0.387 N 
ATOM      5  H12 UNL     1      58.769  -8.298  19.094  1.00  0.00     0.157 HD
ATOM      6  H11 UNL     1      59.087  -7.457  20.601  1.00  0.00     0.157 HD
BRANCH   3   7
HETATM    7  C2  UNL     1      58.814  -6.310  17.425  1.00  0.00     0.198 C 
BRANCH   7   8
HETATM    8  N2  UNL     1      57.483  -6.588  16.990  1.00  0.00    -0.360 N 
HETATM    9  C3  UNL     1      56.691  -5.618  16.708  1.00  0.00     0.197 C 
HETATM   10  N3  UNL     1      55.350  -5.826  16.269  1.00  0.00    -0.067 NA
HETATM   11  N4  UNL     1      57.154  -4.284  16.834  1.00  0.00    -0.067 NA
ATOM     12  H2  UNL     1      57.163  -7.553  16.903  1.00  0.00     0.162 HD
ENDBRANCH   7   8
ENDBRANCH   3   7
ENDBRANCH   1   3
BRANCH   1  13
HETATM   13  C4  UNL     1      58.367  -4.376  20.040  1.00  0.00     0.691 A 
HETATM   14  N6  UNL     1      58.012  -3.243  19.411  1.00  0.00    -0.141 N 
HETATM   15  C5  UNL     1      57.056  -2.471  19.961  1.00  0.00     0.342 A 
ATOM     16  H6  UNL     1      58.458  -2.973  18.534  1.00  0.00     0.189 HD
HETATM   17  O1  UNL     1      56.676  -1.384  19.411  1.00  0.00    -0.246 OA
HETATM   18  N7  UNL     1      56.467  -2.841  21.133  1.00  0.00    -0.260 N 
HETATM   19  C6  UNL     1      56.818  -3.978  21.773  1.00  0.00     0.342 A 
ATOM     20  H7  UNL     1      55.744  -2.246  21.536  1.00  0.00     0.175 HD
HETATM   21  O2  UNL     1      56.268  -4.311  22.856  1.00  0.00    -0.246 OA
HETATM   22  N8  UNL     1      57.775  -4.724  21.196  1.00  0.00    -0.141 N 
ATOM     23  H8  UNL     1      58.064  -5.589  21.653  1.00  0.00     0.189 HD
ENDBRANCH   1  13
TORSDOF 4
ENDMDL
MODEL 3
REMARK VINA RESULT: -6.554268360      2.752      4.673
REMARK  4 active torsions:
REMARK  status: ('A' for Active; 'I' for Inactive)
REMARK    1  A    between atoms: C1_4  and  C2_5 
REMARK    2  A    between atoms: C1_4  and  N5_11 
REMARK    3  A    between atoms: C2_5  and  N2_6 
REMARK    4  A    between atoms: N5_11  and  C4_13 
ROOT
HETATM    1  N5  UNL     1      59.113  -5.197  19.906  1.00  0.00    -0.179 N 
ATOM      2  H5  UNL     1      59.660  -4.354  20.083  1.00  0.00     0.185 HD
ENDROOT
BRANCH   1   3
HETATM    3  C1  UNL     1      58.628  -5.919  21.030  1.00  0.00     0.108 C 
HETATM    4  N1  UNL     1      57.688  -5.359  21.712  1.00  0.00    -0.387 N 
ATOM      5  H12 UNL     1      57.339  -5.877  22.520  1.00  0.00     0.157 HD
ATOM      6  H11 UNL     1      57.279  -4.448  21.501  1.00  0.00     0.157 HD
BRANCH   3   7
HETATM    7  C2  UNL     1      59.214  -7.224  21.333  1.00  0.00     0.198 C 
BRANCH   7   8
HETATM    8  N2  UNL     1      58.420  -8.341  20.933  1.00  0.00    -0.360 N 
HETATM    9  C3  UNL     1      58.877  -9.166  20.062  1.00  0.00     0.197 C 
HETATM   10  N3  UNL     1      58.136 -10.301  19.619  1.00  0.00    -0.067 NA
HETATM   11  N4  UNL     1      60.167  -8.953  19.512  1.00  0.00    -0.067 NA
ATOM     12  H2  UNL     1      57.494  -8.482  21.337  1.00  0.00     0.162 HD
ENDBRANCH   7   8
ENDBRANCH   3   7
ENDBRANCH   1   3
BRANCH   1  13
HETATM   13  C4  UNL     1      58.914  -5.528  18.697  1.00  0.00     0.691 A 
HETATM   14  N6  UNL     1      57.775  -5.201  18.063  1.00  0.00    -0.141 N 
HETATM   15  C5  UNL     1      57.617  -5.579  16.780  1.00  0.00     0.342 A 
ATOM     16  H6  UNL     1      57.043  -4.677  18.544  1.00  0.00     0.189 HD
HETATM   17  O1  UNL     1      56.559  -5.299  16.126  1.00  0.00    -0.246 OA
HETATM   18  N7  UNL     1      58.601  -6.279  16.148  1.00  0.00    -0.260 N 
HETATM   19  C6  UNL     1      59.749  -6.613  16.776  1.00  0.00     0.342 A 
ATOM     20  H7  UNL     1      58.467  -6.557  15.176  1.00  0.00     0.175 HD
HETATM   21  O2  UNL     1      60.652  -7.260  16.182  1.00  0.00    -0.246 OA
HETATM   22  N8  UNL     1      59.872  -6.220  18.055  1.00  0.00    -0.141 N 
ATOM     23  H8  UNL     1      60.726  -6.455  18.560  1.00  0.00     0.189 HD
ENDBRANCH   1  13
TORSDOF 4
ENDMDL
MODEL 4
REMARK VINA RESULT: -6.498175396      2.745      4.644
REMARK  4 active torsions:
REMARK  status: ('A' for Active; 'I' for Inactive)
REMARK    1  A    between atoms: C1_4  and  C2_5 
REMARK    2  A    between atoms: C1_4  and  N5_11 
REMARK    3  A    between atoms: C2_5  and  N2_6 
REMARK    4  A    between atoms: N5_11  and  C4_13 
ROOT
HETATM    1  N5  UNL     1      59.073  -5.170  19.903  1.00  0.00    -0.179 N 
ATOM      2  H5  UNL     1      59.533  -4.277  20.077  1.00  0.00     0.185 HD
ENDROOT
BRANCH   1   3
HETATM    3  C1  UNL     1      58.611  -5.906  21.028  1.00  0.00     0.108 C 
HETATM    4  N1  UNL     1      57.677  -5.360  21.731  1.00  0.00    -0.387 N 
ATOM      5  H12 UNL     1      57.346  -5.889  22.539  1.00  0.00     0.157 HD
ATOM      6  H11 UNL     1      57.258  -4.452  21.535  1.00  0.00     0.157 HD
BRANCH   3   7
HETATM    7  C2  UNL     1      59.213  -7.209  21.310  1.00  0.00     0.198 C 
BRANCH   7   8
HETATM    8  N2  UNL     1      58.418  -8.329  20.919  1.00  0.00    -0.360 N 
HETATM    9  C3  UNL     1      58.879  -9.168  20.064  1.00  0.00     0.197 C 
HETATM   10  N3  UNL     1      58.139 -10.307  19.631  1.00  0.00    -0.067 NA
HETATM   11  N4  UNL     1      60.174  -8.967  19.522  1.00  0.00    -0.067 NA
ATOM     12  H2  UNL     1      57.489  -8.461  21.318  1.00  0.00     0.162 HD
ENDBRANCH   7   8
ENDBRANCH   3   7
ENDBRANCH   1   3
BRANCH   1  13
HETATM   13  C4  UNL     1      58.952  -5.548  18.697  1.00  0.00     0.691 A 
HETATM   14  N6  UNL     1      59.928  -6.234  18.080  1.00  0.00    -0.141 N 
HETATM   15  C5  UNL     1      59.746  -6.608  16.800  1.00  0.00     0.342 A 
ATOM     16  H6  UNL     1      60.791  -6.468  18.572  1.00  0.00     0.189 HD
HETATM   17  O1  UNL     1      60.636  -7.261  16.161  1.00  0.00    -0.246 OA
HETATM   18  N7  UNL     1      58.590  -6.290  16.152  1.00  0.00    -0.260 N 
HETATM   19  C6  UNL     1      57.603  -5.599  16.764  1.00  0.00     0.342 A 
ATOM     20  H7  UNL     1      58.467  -6.581  15.182  1.00  0.00     0.175 HD
HETATM   21  O2  UNL     1      56.538  -5.311  16.156  1.00  0.00    -0.246 OA
HETATM   22  N8  UNL     1      57.819  -5.243  18.041  1.00  0.00    -0.141 N 
ATOM     23  H8  UNL     1      57.094  -4.720  18.532  1.00  0.00     0.189 HD
ENDBRANCH   1  13
TORSDOF 4
ENDMDL
MODEL 5
REMARK VINA RESULT: -6.491134316      2.585      5.414
REMARK  4 active torsions:
REMARK  status: ('A' for Active; 'I' for Inactive)
REMARK    1  A    between atoms: C1_4  and  C2_5 
REMARK    2  A    between atoms: C1_4  and  N5_11 
REMARK    3  A    between atoms: C2_5  and  N2_6 
REMARK    4  A    between atoms: N5_11  and  C4_13 
ROOT
HETATM    1  N5  UNL     1      58.325  -4.109  19.653  1.00  0.00    -0.179 N 
ATOM      2  H5  UNL     1      58.929  -4.409  20.418  1.00  0.00     0.185 HD
ENDROOT
BRANCH   1   3
HETATM    3  C1  UNL     1      57.558  -2.927  19.843  1.00  0.00     0.108 C 
HETATM    4  N1  UNL     1      57.656  -2.023  18.928  1.00  0.00    -0.387 N 
ATOM      5  H12 UNL     1      57.105  -1.175  19.065  1.00  0.00     0.157 HD
ATOM      6  H11 UNL     1      58.238  -2.099  18.095  1.00  0.00     0.157 HD
BRANCH   3   7
HETATM    7  C2  UNL     1      56.722  -2.818  21.038  1.00  0.00     0.198 C 
BRANCH   7   8
HETATM    8  N2  UNL     1      56.981  -3.803  22.038  1.00  0.00    -0.360 N 
HETATM    9  C3  UNL     1      56.084  -4.066  22.918  1.00  0.00     0.197 C 
HETATM   10  N3  UNL     1      56.277  -5.038  23.943  1.00  0.00    -0.067 NA
HETATM   11  N4  UNL     1      54.849  -3.370  22.881  1.00  0.00    -0.067 NA
ATOM     12  H2  UNL     1      57.874  -4.297  22.052  1.00  0.00     0.162 HD
ENDBRANCH   7   8
ENDBRANCH   3   7
ENDBRANCH   1   3
BRANCH   1  13
HETATM   13  C4  UNL     1      58.311  -4.815  18.598  1.00  0.00     0.691 A 
HETATM   14  N6  UNL     1      59.369  -5.566  18.248  1.00  0.00    -0.141 N 
HETATM   15  C5  UNL     1      59.298  -6.295  17.118  1.00  0.00     0.342 A 
ATOM     16  H6  UNL     1      60.209  -5.583  18.826  1.00  0.00     0.189 HD
HETATM   17  O1  UNL     1      60.269  -7.026  16.733  1.00  0.00    -0.246 OA
HETATM   18  N7  UNL     1      58.171  -6.263  16.353  1.00  0.00    -0.260 N 
HETATM   19  C6  UNL     1      57.103  -5.511  16.697  1.00  0.00     0.342 A 
ATOM     20  H7  UNL     1      58.133  -6.821  15.500  1.00  0.00     0.175 HD
HETATM   21  O2  UNL     1      56.066  -5.489  15.982  1.00  0.00    -0.246 OA
HETATM   22  N8  UNL     1      57.208  -4.797  17.829  1.00  0.00    -0.141 N 
ATOM     23  H8  UNL     1      56.420  -4.218  18.118  1.00  0.00     0.189 HD
ENDBRANCH   1  13
TORSDOF 4
ENDMDL
