MODEL 1
REMARK VINA RESULT: -6.674954487      0.000      0.000
REMARK  3 active torsions:
REMARK  status: ('A' for Active; 'I' for Inactive)
REMARK    1  A    between atoms: N1_1  and  C1_4 
REMARK    2  A    between atoms: N5_14  and  N6_16 
REMARK    3  A    between atoms: N6_16  and  S1_18 
ROOT
HETATM    1  C1  UNL     1      57.116  -2.653  19.916  1.00  0.00     0.150 A 
HETATM    2  N2  UNL     1      56.753  -2.852  21.195  1.00  0.00    -0.291 N 
ATOM      3  H2  UNL     1      56.240  -2.113  21.675  1.00  0.00     0.172 HD
HETATM    4  C2  UNL     1      57.035  -3.980  21.870  1.00  0.00     0.340 A 
HETATM    5  O1  UNL     1      56.695  -4.168  23.065  1.00  0.00    -0.245 OA
HETATM    6  N3  UNL     1      57.719  -4.958  21.221  1.00  0.00    -0.250 N 
ATOM      7  H3  UNL     1      57.951  -5.828  21.701  1.00  0.00     0.192 HD
HETATM    8  N4  UNL     1      58.082  -4.773  19.962  1.00  0.00    -0.277 N 
ATOM      9  H4  UNL     1      58.594  -5.518  19.489  1.00  0.00     0.189 HD
HETATM   10  C3  UNL     1      57.807  -3.655  19.281  1.00  0.00     0.180 A 
HETATM   11  N5  UNL     1      58.163  -3.484  18.060  1.00  0.00    -0.271 N 
ATOM     12  H5  UNL     1      57.911  -2.600  17.617  1.00  0.00     0.189 HD
ENDROOT
BRANCH   1  13
HETATM   13  N1  UNL     1      56.809  -1.533  19.324  1.00  0.00    -0.382 N 
ATOM     14  H12 UNL     1      56.970  -0.624  19.758  1.00  0.00     0.157 HD
ATOM     15  H11 UNL     1      56.390  -1.550  18.394  1.00  0.00     0.157 HD
ENDBRANCH   1  13
BRANCH  11  16
HETATM   16  N6  UNL     1      58.860  -4.402  17.298  1.00  0.00    -0.211 N 
ATOM     17  H6  UNL     1      59.866  -4.281  17.186  1.00  0.00     0.201 HD
BRANCH  16  18
HETATM   18  S1  UNL     1      58.100  -5.740  16.530  1.00  0.00     0.373 S 
HETATM   19  O2  UNL     1      58.162  -6.979  17.396  1.00  0.00    -0.186 OA
HETATM   20  O3  UNL     1      56.635  -5.449  16.311  1.00  0.00    -0.186 OA
ENDBRANCH  16  18
ENDBRANCH  11  16
TORSDOF 3
ENDMDL
MODEL 2
REMARK VINA RESULT: -6.626010279      1.261      1.571
REMARK  3 active torsions:
REMARK  status: ('A' for Active; 'I' for Inactive)
REMARK    1  A    between atoms: N1_1  and  C1_4 
REMARK    2  A    between atoms: N5_14  and  N6_16 
REMARK    3  A    between atoms: N6_16  and  S1_18 
ROOT
HETATM    1  C1  UNL     1      57.413  -2.889  19.698  1.00  0.00     0.150 A 
HETATM    2  N2  UNL     1      56.765  -2.561  20.830  1.00  0.00    -0.291 N 
ATOM      3  H2  UNL     1      56.301  -1.654  20.878  1.00  0.00     0.172 HD
HETATM    4  C2  UNL     1      56.701  -3.373  21.900  1.00  0.00     0.340 A 
HETATM    5  O1  UNL     1      56.095  -3.068  22.958  1.00  0.00    -0.245 OA
HETATM    6  N3  UNL     1      57.323  -4.578  21.824  1.00  0.00    -0.250 N 
ATOM      7  H3  UNL     1      57.297  -5.221  22.616  1.00  0.00     0.192 HD
HETATM    8  N4  UNL     1      57.964  -4.912  20.715  1.00  0.00    -0.277 N 
ATOM      9  H4  UNL     1      58.425  -5.821  20.675  1.00  0.00     0.189 HD
HETATM   10  C3  UNL     1      58.034  -4.112  19.645  1.00  0.00     0.180 A 
HETATM   11  N5  UNL     1      58.658  -4.444  18.574  1.00  0.00    -0.271 N 
ATOM     12  H5  UNL     1      58.661  -3.773  17.805  1.00  0.00     0.189 HD
ENDROOT
BRANCH   1  13
HETATM   13  N1  UNL     1      57.433  -2.051  18.700  1.00  0.00    -0.382 N 
ATOM     14  H12 UNL     1      56.878  -2.193  17.856  1.00  0.00     0.157 HD
ATOM     15  H11 UNL     1      58.022  -1.220  18.749  1.00  0.00     0.157 HD
ENDBRANCH   1  13
BRANCH  11  16
HETATM   16  N6  UNL     1      59.326  -5.638  18.379  1.00  0.00    -0.211 N 
ATOM     17  H6  UNL     1      59.992  -5.946  19.087  1.00  0.00     0.201 HD
BRANCH  16  18
HETATM   18  S1  UNL     1      59.081  -6.623  16.992  1.00  0.00     0.373 S 
HETATM   19  O2  UNL     1      58.415  -5.848  15.876  1.00  0.00    -0.186 OA
HETATM   20  O3  UNL     1      60.409  -7.093  16.447  1.00  0.00    -0.186 OA
ENDBRANCH  16  18
ENDBRANCH  11  16
TORSDOF 3
ENDMDL
MODEL 3
REMARK VINA RESULT: -6.437601505      3.230      4.775
REMARK  3 active torsions:
REMARK  status: ('A' for Active; 'I' for Inactive)
REMARK    1  A    between atoms: N1_1  and  C1_4 
REMARK    2  A    between atoms: N5_14  and  N6_16 
REMARK    3  A    between atoms: N6_16  and  S1_18 
ROOT
HETATM    1  C1  UNL     1      59.506  -6.210  17.633  1.00  0.00     0.150 A 
HETATM    2  N2  UNL     1      59.934  -7.480  17.740  1.00  0.00    -0.291 N 
ATOM      3  H2  UNL     1      60.355  -7.921  16.922  1.00  0.00     0.172 HD
HETATM    4  C2  UNL     1      59.833  -8.195  18.874  1.00  0.00     0.340 A 
HETATM    5  O1  UNL     1      60.233  -9.382  18.975  1.00  0.00    -0.245 OA
HETATM    6  N3  UNL     1      59.270  -7.598  19.957  1.00  0.00    -0.250 N 
ATOM      7  H3  UNL     1      59.176  -8.109  20.834  1.00  0.00     0.192 HD
HETATM    8  N4  UNL     1      58.846  -6.348  19.863  1.00  0.00    -0.277 N 
ATOM      9  H4  UNL     1      58.426  -5.915  20.686  1.00  0.00     0.189 HD
HETATM   10  C3  UNL     1      58.941  -5.627  18.740  1.00  0.00     0.180 A 
HETATM   11  N5  UNL     1      58.526  -4.416  18.659  1.00  0.00    -0.271 N 
ATOM     12  H5  UNL     1      58.639  -3.940  17.764  1.00  0.00     0.189 HD
ENDROOT
BRANCH   1  13
HETATM   13  N1  UNL     1      59.636  -5.577  16.501  1.00  0.00    -0.382 N 
ATOM     14  H12 UNL     1      60.383  -5.789  15.839  1.00  0.00     0.157 HD
ATOM     15  H11 UNL     1      58.976  -4.839  16.254  1.00  0.00     0.157 HD
ENDBRANCH   1  13
BRANCH  11  16
HETATM   16  N6  UNL     1      57.939  -3.705  19.688  1.00  0.00    -0.211 N 
ATOM     17  H6  UNL     1      57.880  -4.137  20.610  1.00  0.00     0.201 HD
BRANCH  16  18
HETATM   18  S1  UNL     1      57.304  -2.121  19.479  1.00  0.00     0.373 S 
HETATM   19  O2  UNL     1      57.021  -1.830  18.021  1.00  0.00    -0.186 OA
HETATM   20  O3  UNL     1      55.984  -1.992  20.200  1.00  0.00    -0.186 OA
ENDBRANCH  16  18
ENDBRANCH  11  16
TORSDOF 3
ENDMDL
MODEL 4
REMARK VINA RESULT: -6.436330300      1.855      2.697
REMARK  3 active torsions:
REMARK  status: ('A' for Active; 'I' for Inactive)
REMARK    1  A    between atoms: N1_1  and  C1_4 
REMARK    2  A    between atoms: N5_14  and  N6_16 
REMARK    3  A    between atoms: N6_16  and  S1_18 
ROOT
HETATM    1  C1  UNL     1      57.761  -4.312  20.530  1.00  0.00     0.150 A 
HETATM    2  N2  UNL     1      57.154  -3.113  20.568  1.00  0.00    -0.291 N 
ATOM      3  H2  UNL     1      56.635  -2.857  21.408  1.00  0.00     0.172 HD
HETATM    4  C2  UNL     1      57.199  -2.236  19.549  1.00  0.00     0.340 A 
HETATM    5  O1  UNL     1      56.632  -1.115  19.583  1.00  0.00    -0.245 OA
HETATM    6  N3  UNL     1      57.892  -2.587  18.435  1.00  0.00    -0.250 N 
ATOM      7  H3  UNL     1      57.948  -1.948  17.642  1.00  0.00     0.192 HD
HETATM    8  N4  UNL     1      58.494  -3.764  18.387  1.00  0.00    -0.277 N 
ATOM      9  H4  UNL     1      59.011  -4.012  17.543  1.00  0.00     0.189 HD
HETATM   10  C3  UNL     1      58.456  -4.645  19.394  1.00  0.00     0.180 A 
HETATM   11  N5  UNL     1      59.043  -5.785  19.338  1.00  0.00    -0.271 N 
ATOM     12  H5  UNL     1      58.962  -6.394  20.152  1.00  0.00     0.189 HD
ENDROOT
BRANCH   1  13
HETATM   13  N1  UNL     1      57.675  -5.112  21.556  1.00  0.00    -0.382 N 
ATOM     14  H12 UNL     1      57.004  -4.963  22.310  1.00  0.00     0.157 HD
ATOM     15  H11 UNL     1      58.295  -5.920  21.621  1.00  0.00     0.157 HD
ENDBRANCH   1  13
BRANCH  11  16
HETATM   16  N6  UNL     1      59.774  -6.252  18.263  1.00  0.00    -0.211 N 
ATOM     17  H6  UNL     1      60.732  -6.564  18.423  1.00  0.00     0.201 HD
BRANCH  16  18
HETATM   18  S1  UNL     1      59.137  -6.328  16.669  1.00  0.00     0.373 S 
HETATM   19  O2  UNL     1      57.633  -6.489  16.684  1.00  0.00    -0.186 OA
HETATM   20  O3  UNL     1      59.418  -5.038  15.935  1.00  0.00    -0.186 OA
ENDBRANCH  16  18
ENDBRANCH  11  16
TORSDOF 3
ENDMDL
MODEL 5
REMARK VINA RESULT: -6.412145135      1.075      1.076
REMARK  3 active torsions:
REMARK  status: ('A' for Active; 'I' for Inactive)
REMARK    1  A    between atoms: N1_1  and  C1_4 
REMARK    2  A    between atoms: N5_14  and  N6_16 
REMARK    3  A    between atoms: N6_16  and  S1_18 
ROOT
HETATM    1  C1  UNL     1      57.230  -2.721  19.769  1.00  0.00     0.150 A 
HETATM    2  N2  UNL     1      56.650  -2.491  20.960  1.00  0.00    -0.291 N 
ATOM      3  H2  UNL     1      56.160  -1.607  21.100  1.00  0.00     0.172 HD
HETATM    4  C2  UNL     1      56.686  -3.372  21.976  1.00  0.00     0.340 A 
HETATM    5  O1  UNL     1      56.144  -3.158  23.089  1.00  0.00    -0.245 OA
HETATM    6  N3  UNL     1      57.342  -4.545  21.780  1.00  0.00    -0.250 N 
ATOM      7  H3  UNL     1      57.391  -5.238  22.527  1.00  0.00     0.192 HD
HETATM    8  N4  UNL     1      57.916  -4.783  20.611  1.00  0.00    -0.277 N 
ATOM      9  H4  UNL     1      58.403  -5.669  20.480  1.00  0.00     0.189 HD
HETATM   10  C3  UNL     1      57.887  -3.914  19.594  1.00  0.00     0.180 A 
HETATM   11  N5  UNL     1      58.447  -4.152  18.465  1.00  0.00    -0.271 N 
ATOM     12  H5  UNL     1      58.375  -3.434  17.744  1.00  0.00     0.189 HD
ENDROOT
BRANCH   1  13
HETATM   13  N1  UNL     1      57.155  -1.821  18.830  1.00  0.00    -0.382 N 
ATOM     14  H12 UNL     1      56.983  -0.835  19.030  1.00  0.00     0.157 HD
ATOM     15  H11 UNL     1      57.269  -2.096  17.854  1.00  0.00     0.157 HD
ENDBRANCH   1  13
BRANCH  11  16
HETATM   16  N6  UNL     1      59.140  -5.305  18.147  1.00  0.00    -0.211 N 
ATOM     17  H6  UNL     1      59.496  -5.886  18.906  1.00  0.00     0.201 HD
BRANCH  16  18
HETATM   18  S1  UNL     1      59.426  -5.800  16.526  1.00  0.00     0.373 S 
HETATM   19  O2  UNL     1      60.068  -7.169  16.474  1.00  0.00    -0.186 OA
HETATM   20  O3  UNL     1      58.118  -5.916  15.780  1.00  0.00    -0.186 OA
ENDBRANCH  16  18
ENDBRANCH  11  16
TORSDOF 3
ENDMDL
