MODEL 1
REMARK VINA RESULT: -6.426433720      0.000      0.000
REMARK  4 active torsions:
REMARK  status: ('A' for Active; 'I' for Inactive)
REMARK    1  A    between atoms: N1_1  and  N2_4 
REMARK    2  A    between atoms: N2_4  and  C1_6 
REMARK    3  A    between atoms: N3_7  and  N4_9 
REMARK    4  A    between atoms: N7_21  and  C7_22 
ROOT
HETATM    1  N4  UNL     1      59.217  -5.632  18.503  1.00  0.00    -0.286 N 
ATOM      2  H4  UNL     1      59.091  -5.152  17.613  1.00  0.00     0.188 HD
HETATM    3  C2  UNL     1      58.679  -5.110  19.519  1.00  0.00     0.130 C 
HETATM    4  C3  UNL     1      58.846  -5.800  20.848  1.00  0.00     0.203 C 
HETATM    5  N5  UNL     1      57.760  -5.674  21.746  1.00  0.00    -0.336 N 
ATOM      6  H5  UNL     1      57.335  -6.590  21.889  1.00  0.00     0.164 HD
HETATM    7  C4  UNL     1      57.058  -4.708  22.517  1.00  0.00     0.317 C 
HETATM    8  O1  UNL     1      56.595  -5.132  23.608  1.00  0.00    -0.247 OA
HETATM    9  N6  UNL     1      56.727  -3.323  22.375  1.00  0.00    -0.332 N 
ATOM     10  H6  UNL     1      56.596  -2.840  23.264  1.00  0.00     0.165 HD
HETATM   11  C5  UNL     1      56.533  -2.436  21.169  1.00  0.00     0.230 C 
HETATM   12  C6  UNL     1      57.198  -3.021  20.079  1.00  0.00    -0.040 C 
HETATM   13  N7  UNL     1      57.937  -3.868  19.294  1.00  0.00    -0.242 N 
ENDROOT
BRANCH   1  14
HETATM   14  N3  UNL     1      59.954  -6.788  18.490  1.00  0.00    -0.294 N 
HETATM   15  C1  UNL     1      60.459  -7.246  17.399  1.00  0.00     0.213 C 
ATOM     16  H3  UNL     1      60.105  -7.295  19.362  1.00  0.00     0.187 HD
BRANCH  15  17
HETATM   17  N2  UNL     1      60.278  -6.580  16.160  1.00  0.00    -0.301 N 
ATOM     18  H2  UNL     1      61.078  -6.336  15.578  1.00  0.00     0.187 HD
BRANCH  17  19
HETATM   19  N1  UNL     1      58.972  -6.265  15.752  1.00  0.00    -0.344 N 
ATOM     20  H12 UNL     1      58.781  -6.075  14.768  1.00  0.00     0.176 HD
ATOM     21  H11 UNL     1      58.236  -6.232  16.456  1.00  0.00     0.176 HD
ENDBRANCH  17  19
ENDBRANCH  15  17
ENDBRANCH   1  14
BRANCH  13  22
HETATM   22  C7  UNL     1      58.019  -3.468  17.928  1.00  0.00     0.368 C 
HETATM   23  O2  UNL     1      57.292  -4.031  17.052  1.00  0.00    -0.282 OA
ENDBRANCH  13  22
TORSDOF 4
ENDMDL
MODEL 2
REMARK VINA RESULT: -6.302281285      2.024      5.351
REMARK  4 active torsions:
REMARK  status: ('A' for Active; 'I' for Inactive)
REMARK    1  A    between atoms: N1_1  and  N2_4 
REMARK    2  A    between atoms: N2_4  and  C1_6 
REMARK    3  A    between atoms: N3_7  and  N4_9 
REMARK    4  A    between atoms: N7_21  and  C7_22 
ROOT
HETATM    1  N4  UNL     1      57.848  -4.600  20.472  1.00  0.00    -0.286 N 
ATOM      2  H4  UNL     1      57.447  -3.691  20.244  1.00  0.00     0.188 HD
HETATM    3  C2  UNL     1      58.352  -5.262  19.522  1.00  0.00     0.130 C 
HETATM    4  C3  UNL     1      58.954  -6.607  19.831  1.00  0.00     0.203 C 
HETATM    5  N5  UNL     1      60.061  -6.982  19.034  1.00  0.00    -0.336 N 
ATOM      6  H5  UNL     1      60.894  -7.032  19.620  1.00  0.00     0.164 HD
HETATM    7  C4  UNL     1      60.410  -7.312  17.697  1.00  0.00     0.317 C 
HETATM    8  O1  UNL     1      61.329  -8.164  17.581  1.00  0.00    -0.247 OA
HETATM    9  N6  UNL     1      59.973  -6.916  16.392  1.00  0.00    -0.332 N 
ATOM     10  H6  UNL     1      60.121  -7.628  15.677  1.00  0.00     0.165 HD
HETATM   11  C5  UNL     1      59.335  -5.653  15.868  1.00  0.00     0.230 C 
HETATM   12  C6  UNL     1      58.735  -4.979  16.944  1.00  0.00    -0.040 C 
HETATM   13  N7  UNL     1      58.294  -4.640  18.197  1.00  0.00    -0.242 N 
ENDROOT
BRANCH   1  14
HETATM   14  N3  UNL     1      57.794  -4.994  21.784  1.00  0.00    -0.294 N 
HETATM   15  C1  UNL     1      57.034  -4.393  22.632  1.00  0.00     0.213 C 
ATOM     16  H3  UNL     1      58.367  -5.778  22.095  1.00  0.00     0.187 HD
BRANCH  15  17
HETATM   17  N2  UNL     1      56.219  -3.297  22.250  1.00  0.00    -0.301 N 
ATOM     18  H2  UNL     1      56.635  -2.401  21.999  1.00  0.00     0.187 HD
BRANCH  17  19
HETATM   19  N1  UNL     1      54.827  -3.473  22.226  1.00  0.00    -0.344 N 
ATOM     20  H12 UNL     1      54.418  -4.199  21.638  1.00  0.00     0.176 HD
ATOM     21  H11 UNL     1      54.248  -2.863  22.803  1.00  0.00     0.176 HD
ENDBRANCH  17  19
ENDBRANCH  15  17
ENDBRANCH   1  14
BRANCH  13  22
HETATM   22  C7  UNL     1      57.615  -3.388  18.253  1.00  0.00     0.368 C 
HETATM   23  O2  UNL     1      58.253  -2.306  18.069  1.00  0.00    -0.282 OA
ENDBRANCH  13  22
TORSDOF 4
ENDMDL
MODEL 3
REMARK VINA RESULT: -6.211019557      1.766      6.084
REMARK  4 active torsions:
REMARK  status: ('A' for Active; 'I' for Inactive)
REMARK    1  A    between atoms: N1_1  and  N2_4 
REMARK    2  A    between atoms: N2_4  and  C1_6 
REMARK    3  A    between atoms: N3_7  and  N4_9 
REMARK    4  A    between atoms: N7_21  and  C7_22 
ROOT
HETATM    1  N4  UNL     1      57.697  -4.513  20.987  1.00  0.00    -0.286 N 
ATOM      2  H4  UNL     1      57.801  -5.046  21.850  1.00  0.00     0.188 HD
HETATM    3  C2  UNL     1      58.222  -4.996  19.945  1.00  0.00     0.130 C 
HETATM    4  C3  UNL     1      58.082  -4.230  18.656  1.00  0.00     0.203 C 
HETATM    5  N5  UNL     1      58.004  -5.014  17.481  1.00  0.00    -0.336 N 
ATOM      6  H5  UNL     1      57.080  -4.905  17.065  1.00  0.00     0.164 HD
HETATM    7  C4  UNL     1      58.774  -5.903  16.683  1.00  0.00     0.317 C 
HETATM    8  O1  UNL     1      58.535  -5.853  15.448  1.00  0.00    -0.247 OA
HETATM    9  N6  UNL     1      59.793  -6.880  16.922  1.00  0.00    -0.332 N 
ATOM     10  H6  UNL     1      60.415  -7.027  16.127  1.00  0.00     0.165 HD
HETATM   11  C5  UNL     1      60.128  -7.735  18.119  1.00  0.00     0.230 C 
HETATM   12  C6  UNL     1      59.580  -7.131  19.263  1.00  0.00    -0.040 C 
HETATM   13  N7  UNL     1      58.924  -6.271  20.105  1.00  0.00    -0.242 N 
ENDROOT
BRANCH   1  14
HETATM   14  N3  UNL     1      56.998  -3.335  21.062  1.00  0.00    -0.294 N 
HETATM   15  C1  UNL     1      56.509  -2.918  22.177  1.00  0.00     0.213 C 
ATOM     16  H3  UNL     1      56.864  -2.779  20.218  1.00  0.00     0.187 HD
BRANCH  15  17
HETATM   17  N2  UNL     1      56.667  -3.655  23.378  1.00  0.00    -0.301 N 
ATOM     18  H2  UNL     1      56.767  -4.669  23.358  1.00  0.00     0.187 HD
BRANCH  17  19
HETATM   19  N1  UNL     1      56.683  -2.958  24.596  1.00  0.00    -0.344 N 
ATOM     20  H12 UNL     1      57.574  -2.710  25.026  1.00  0.00     0.176 HD
ATOM     21  H11 UNL     1      55.793  -2.711  25.029  1.00  0.00     0.176 HD
ENDBRANCH  17  19
ENDBRANCH  15  17
ENDBRANCH   1  14
BRANCH  13  22
HETATM   22  C7  UNL     1      58.906  -6.694  21.466  1.00  0.00     0.368 C 
HETATM   23  O2  UNL     1      59.587  -6.072  22.337  1.00  0.00    -0.282 OA
ENDBRANCH  13  22
TORSDOF 4
ENDMDL
MODEL 4
REMARK VINA RESULT: -6.013731154      1.425      1.568
REMARK  4 active torsions:
REMARK  status: ('A' for Active; 'I' for Inactive)
REMARK    1  A    between atoms: N1_1  and  N2_4 
REMARK    2  A    between atoms: N2_4  and  C1_6 
REMARK    3  A    between atoms: N3_7  and  N4_9 
REMARK    4  A    between atoms: N7_21  and  C7_22 
ROOT
HETATM    1  N4  UNL     1      59.177  -6.762  18.469  1.00  0.00    -0.286 N 
ATOM      2  H4  UNL     1      59.099  -6.660  17.458  1.00  0.00     0.188 HD
HETATM    3  C2  UNL     1      58.729  -5.818  19.179  1.00  0.00     0.130 C 
HETATM    4  C3  UNL     1      58.831  -5.942  20.676  1.00  0.00     0.203 C 
HETATM    5  N5  UNL     1      57.787  -5.337  21.414  1.00  0.00    -0.336 N 
ATOM      6  H5  UNL     1      57.250  -6.062  21.892  1.00  0.00     0.164 HD
HETATM    7  C4  UNL     1      57.228  -4.066  21.718  1.00  0.00     0.317 C 
HETATM    8  O1  UNL     1      56.735  -3.963  22.871  1.00  0.00    -0.247 OA
HETATM    9  N6  UNL     1      57.074  -2.820  21.031  1.00  0.00    -0.332 N 
ATOM     10  H6  UNL     1      57.022  -2.013  21.652  1.00  0.00     0.165 HD
HETATM   11  C5  UNL     1      56.974  -2.465  19.568  1.00  0.00     0.230 C 
HETATM   12  C6  UNL     1      57.538  -3.511  18.819  1.00  0.00    -0.040 C 
HETATM   13  N7  UNL     1      58.148  -4.684  18.457  1.00  0.00    -0.242 N 
ENDROOT
BRANCH   1  14
HETATM   14  N3  UNL     1      59.760  -7.911  18.938  1.00  0.00    -0.294 N 
HETATM   15  C1  UNL     1      60.752  -8.456  18.324  1.00  0.00     0.213 C 
ATOM     16  H3  UNL     1      59.401  -8.343  19.789  1.00  0.00     0.187 HD
BRANCH  15  17
HETATM   17  N2  UNL     1      61.288  -7.895  17.137  1.00  0.00    -0.301 N 
ATOM     18  H2  UNL     1      61.290  -8.425  16.266  1.00  0.00     0.187 HD
BRANCH  17  19
HETATM   19  N1  UNL     1      61.814  -6.595  17.186  1.00  0.00    -0.344 N 
ATOM     20  H12 UNL     1      61.944  -6.135  18.087  1.00  0.00     0.176 HD
ATOM     21  H11 UNL     1      62.058  -6.135  16.309  1.00  0.00     0.176 HD
ENDBRANCH  17  19
ENDBRANCH  15  17
ENDBRANCH   1  14
BRANCH  13  22
HETATM   22  C7  UNL     1      58.256  -4.870  17.047  1.00  0.00     0.368 C 
HETATM   23  O2  UNL     1      59.381  -4.748  16.471  1.00  0.00    -0.282 OA
ENDBRANCH  13  22
TORSDOF 4
ENDMDL
MODEL 5
REMARK VINA RESULT: -5.985938521      2.048      3.071
REMARK  4 active torsions:
REMARK  status: ('A' for Active; 'I' for Inactive)
REMARK    1  A    between atoms: N1_1  and  N2_4 
REMARK    2  A    between atoms: N2_4  and  C1_6 
REMARK    3  A    between atoms: N3_7  and  N4_9 
REMARK    4  A    between atoms: N7_21  and  C7_22 
ROOT
HETATM    1  N4  UNL     1      59.477  -6.233  18.410  1.00  0.00    -0.286 N 
ATOM      2  H4  UNL     1      59.959  -7.014  18.853  1.00  0.00     0.188 HD
HETATM    3  C2  UNL     1      58.725  -5.531  19.142  1.00  0.00     0.130 C 
HETATM    4  C3  UNL     1      58.001  -4.369  18.514  1.00  0.00     0.203 C 
HETATM    5  N5  UNL     1      57.786  -3.252  19.355  1.00  0.00    -0.336 N 
ATOM      6  H5  UNL     1      58.324  -2.460  19.005  1.00  0.00     0.164 HD
HETATM    7  C4  UNL     1      57.077  -2.856  20.521  1.00  0.00     0.317 C 
HETATM    8  O1  UNL     1      56.694  -1.657  20.530  1.00  0.00    -0.247 OA
HETATM    9  N6  UNL     1      56.664  -3.488  21.738  1.00  0.00    -0.332 N 
ATOM     10  H6  UNL     1      55.835  -3.067  22.157  1.00  0.00     0.165 HD
HETATM   11  C5  UNL     1      57.214  -4.654  22.522  1.00  0.00     0.230 C 
HETATM   12  C6  UNL     1      57.992  -5.441  21.657  1.00  0.00    -0.040 C 
HETATM   13  N7  UNL     1      58.636  -5.928  20.549  1.00  0.00    -0.242 N 
ENDROOT
BRANCH   1  14
HETATM   14  N3  UNL     1      59.702  -6.039  17.071  1.00  0.00    -0.294 N 
HETATM   15  C1  UNL     1      60.806  -6.404  16.520  1.00  0.00     0.213 C 
ATOM     16  H3  UNL     1      58.981  -5.597  16.501  1.00  0.00     0.187 HD
BRANCH  15  17
HETATM   17  N2  UNL     1      61.841  -7.022  17.268  1.00  0.00    -0.301 N 
ATOM     18  H2  UNL     1      62.592  -6.466  17.675  1.00  0.00     0.187 HD
BRANCH  17  19
HETATM   19  N1  UNL     1      61.808  -8.415  17.436  1.00  0.00    -0.344 N 
ATOM     20  H12 UNL     1      61.039  -8.845  17.950  1.00  0.00     0.176 HD
ATOM     21  H11 UNL     1      62.562  -8.972  17.036  1.00  0.00     0.176 HD
ENDBRANCH  17  19
ENDBRANCH  15  17
ENDBRANCH   1  14
BRANCH  13  22
HETATM   22  C7  UNL     1      59.412  -7.098  20.797  1.00  0.00     0.368 C 
HETATM   23  O2  UNL     1      59.028  -8.224  20.354  1.00  0.00    -0.282 OA
ENDBRANCH  13  22
TORSDOF 4
ENDMDL
