MODEL 1
REMARK VINA RESULT: -7.531207533      0.000      0.000
REMARK  3 active torsions:
REMARK  status: ('A' for Active; 'I' for Inactive)
REMARK       I    between atoms: C1_4  and  N3_6 
REMARK    1  A    between atoms: N3_6  and  C2_8 
REMARK    2  A    between atoms: C3_13  and  C4_14 
REMARK    3  A    between atoms: C5_15  and  C6_16 
ROOT
HETATM    1  C2  UNL     1      58.801  -5.404  17.920  1.00  0.00     0.702 A 
HETATM    2  N4  UNL     1      58.622  -5.659  19.232  1.00  0.00    -0.131 N 
ATOM      3  H4  UNL     1      58.905  -6.549  19.642  1.00  0.00     0.205 HD
HETATM    4  N5  UNL     1      58.072  -4.726  19.956  1.00  0.00    -0.281 N 
ATOM      5  H5  UNL     1      57.945  -4.937  20.946  1.00  0.00     0.187 HD
HETATM    6  C3  UNL     1      57.658  -3.525  19.550  1.00  0.00     0.117 A 
HETATM    7  C7  UNL     1      57.871  -3.310  18.167  1.00  0.00     0.287 A 
HETATM    8  O2  UNL     1      57.531  -2.231  17.652  1.00  0.00    -0.265 OA
HETATM    9  N7  UNL     1      58.432  -4.235  17.377  1.00  0.00    -0.153 N 
ATOM     10  H7  UNL     1      58.574  -4.054  16.383  1.00  0.00     0.187 HD
ENDROOT
BRANCH   1  11
HETATM   11  N3  UNL     1      59.340  -6.292  17.163  1.00  0.00    -0.162 N 
HETATM   12  C1  UNL     1      60.496  -7.027  17.504  1.00  0.00     0.200 C 
HETATM   13  N1  UNL     1      61.650  -6.683  17.089  1.00  0.00    -0.373 N 
HETATM   14  N2  UNL     1      60.372  -8.173  18.325  1.00  0.00    -0.063 NA
ATOM     15  H12 UNL     1      62.486  -7.214  17.335  1.00  0.00     0.158 HD
ATOM     16  H11 UNL     1      61.739  -5.857  16.497  1.00  0.00     0.158 HD
ATOM     17  H3  UNL     1      58.904  -6.478  16.259  1.00  0.00     0.187 HD
ENDBRANCH   1  11
BRANCH   6  18
HETATM   18  C4  UNL     1      57.051  -2.493  20.350  1.00  0.00     0.042 C 
HETATM   19  C5  UNL     1      56.552  -2.480  21.530  1.00  0.00     0.073 C 
BRANCH  19  20
HETATM   20  C6  UNL     1      56.423  -3.519  22.486  1.00  0.00     0.254 C 
HETATM   21  N6  UNL     1      55.128  -3.738  23.146  1.00  0.00    -0.058 NA
HETATM   22  O1  UNL     1      57.284  -4.325  22.882  1.00  0.00    -0.272 OA
ENDBRANCH  19  20
ENDBRANCH   6  18
TORSDOF 3
ENDMDL
MODEL 2
REMARK VINA RESULT: -7.195753698      2.672      5.760
REMARK  3 active torsions:
REMARK  status: ('A' for Active; 'I' for Inactive)
REMARK       I    between atoms: C1_4  and  N3_6 
REMARK    1  A    between atoms: N3_6  and  C2_8 
REMARK    2  A    between atoms: C3_13  and  C4_14 
REMARK    3  A    between atoms: C5_15  and  C6_16 
ROOT
HETATM    1  C2  UNL     1      56.813  -3.699  21.919  1.00  0.00     0.702 A 
HETATM    2  N4  UNL     1      57.543  -4.743  21.474  1.00  0.00    -0.131 N 
ATOM      3  H4  UNL     1      57.749  -5.539  22.077  1.00  0.00     0.205 HD
HETATM    4  N5  UNL     1      57.973  -4.695  20.245  1.00  0.00    -0.281 N 
ATOM      5  H5  UNL     1      58.522  -5.494  19.927  1.00  0.00     0.187 HD
HETATM    6  C3  UNL     1      57.777  -3.721  19.356  1.00  0.00     0.117 A 
HETATM    7  C7  UNL     1      57.006  -2.652  19.875  1.00  0.00     0.287 A 
HETATM    8  O2  UNL     1      56.746  -1.674  19.154  1.00  0.00    -0.265 OA
HETATM    9  N7  UNL     1      56.538  -2.650  21.131  1.00  0.00    -0.153 N 
ATOM     10  H7  UNL     1      55.984  -1.868  21.479  1.00  0.00     0.187 HD
ENDROOT
BRANCH   1  11
HETATM   11  N3  UNL     1      56.365  -3.698  23.124  1.00  0.00    -0.162 N 
HETATM   12  C1  UNL     1      55.005  -3.863  23.462  1.00  0.00     0.200 C 
HETATM   13  N1  UNL     1      54.253  -2.864  23.705  1.00  0.00    -0.373 N 
HETATM   14  N2  UNL     1      54.461  -5.168  23.534  1.00  0.00    -0.063 NA
ATOM     15  H12 UNL     1      53.270  -2.982  23.949  1.00  0.00     0.158 HD
ATOM     16  H11 UNL     1      54.645  -1.923  23.653  1.00  0.00     0.158 HD
ATOM     17  H3  UNL     1      57.035  -3.571  23.883  1.00  0.00     0.187 HD
ENDBRANCH   1  11
BRANCH   6  18
HETATM   18  C4  UNL     1      58.252  -3.667  17.998  1.00  0.00     0.042 C 
HETATM   19  C5  UNL     1      58.126  -4.455  16.996  1.00  0.00     0.073 C 
BRANCH  19  20
HETATM   20  C6  UNL     1      57.449  -5.695  16.878  1.00  0.00     0.254 C 
HETATM   21  N6  UNL     1      56.043  -5.714  16.453  1.00  0.00    -0.058 NA
HETATM   22  O1  UNL     1      57.882  -6.842  17.092  1.00  0.00    -0.272 OA
ENDBRANCH  19  20
ENDBRANCH   6  18
TORSDOF 3
ENDMDL
MODEL 3
REMARK VINA RESULT: -7.110319403      1.816      5.677
REMARK  3 active torsions:
REMARK  status: ('A' for Active; 'I' for Inactive)
REMARK       I    between atoms: C1_4  and  N3_6 
REMARK    1  A    between atoms: N3_6  and  C2_8 
REMARK    2  A    between atoms: C3_13  and  C4_14 
REMARK    3  A    between atoms: C5_15  and  C6_16 
ROOT
HETATM    1  C2  UNL     1      57.184  -3.629  21.221  1.00  0.00     0.702 A 
HETATM    2  N4  UNL     1      57.804  -4.794  20.941  1.00  0.00    -0.131 N 
ATOM      3  H4  UNL     1      57.954  -5.500  21.662  1.00  0.00     0.205 HD
HETATM    4  N5  UNL     1      58.205  -4.981  19.716  1.00  0.00    -0.281 N 
ATOM      5  H5  UNL     1      58.672  -5.868  19.524  1.00  0.00     0.187 HD
HETATM    6  C3  UNL     1      58.074  -4.146  18.684  1.00  0.00     0.117 A 
HETATM    7  C7  UNL     1      57.417  -2.942  19.034  1.00  0.00     0.287 A 
HETATM    8  O2  UNL     1      57.227  -2.071  18.168  1.00  0.00    -0.265 OA
HETATM    9  N7  UNL     1      56.984  -2.698  20.278  1.00  0.00    -0.153 N 
ATOM     10  H7  UNL     1      56.512  -1.821  20.502  1.00  0.00     0.187 HD
ENDROOT
BRANCH   1  11
HETATM   11  N3  UNL     1      56.769  -3.396  22.415  1.00  0.00    -0.162 N 
HETATM   12  C1  UNL     1      55.581  -3.930  22.958  1.00  0.00     0.200 C 
HETATM   13  N1  UNL     1      54.497  -3.260  22.979  1.00  0.00    -0.373 N 
HETATM   14  N2  UNL     1      55.591  -5.240  23.494  1.00  0.00    -0.063 NA
ATOM     15  H12 UNL     1      53.639  -3.646  23.372  1.00  0.00     0.158 HD
ATOM     16  H11 UNL     1      54.490  -2.316  22.593  1.00  0.00     0.158 HD
ATOM     17  H3  UNL     1      57.334  -2.786  23.008  1.00  0.00     0.187 HD
ENDBRANCH   1  11
BRANCH   6  18
HETATM   18  C4  UNL     1      58.517  -4.354  17.329  1.00  0.00     0.042 C 
HETATM   19  C5  UNL     1      58.999  -5.367  16.712  1.00  0.00     0.073 C 
BRANCH  19  20
HETATM   20  C6  UNL     1      59.271  -6.681  17.171  1.00  0.00     0.254 C 
HETATM   21  N6  UNL     1      60.603  -7.262  16.951  1.00  0.00    -0.058 NA
HETATM   22  O1  UNL     1      58.516  -7.470  17.767  1.00  0.00    -0.272 OA
ENDBRANCH  19  20
ENDBRANCH   6  18
TORSDOF 3
ENDMDL
MODEL 4
REMARK VINA RESULT: -7.012150480      1.642      2.166
REMARK  3 active torsions:
REMARK  status: ('A' for Active; 'I' for Inactive)
REMARK       I    between atoms: C1_4  and  N3_6 
REMARK    1  A    between atoms: N3_6  and  C2_8 
REMARK    2  A    between atoms: C3_13  and  C4_14 
REMARK    3  A    between atoms: C5_15  and  C6_16 
ROOT
HETATM    1  C2  UNL     1      58.199  -4.044  18.589  1.00  0.00     0.702 A 
HETATM    2  N4  UNL     1      58.224  -4.935  19.602  1.00  0.00    -0.131 N 
ATOM      3  H4  UNL     1      58.646  -5.857  19.486  1.00  0.00     0.205 HD
HETATM    4  N5  UNL     1      57.689  -4.574  20.734  1.00  0.00    -0.281 N 
ATOM      5  H5  UNL     1      57.718  -5.261  21.487  1.00  0.00     0.187 HD
HETATM    6  C3  UNL     1      57.109  -3.407  21.019  1.00  0.00     0.117 A 
HETATM    7  C7  UNL     1      57.111  -2.511  19.922  1.00  0.00     0.287 A 
HETATM    8  O2  UNL     1      56.601  -1.385  20.047  1.00  0.00    -0.265 OA
HETATM    9  N7  UNL     1      57.647  -2.832  18.737  1.00  0.00    -0.153 N 
ATOM     10  H7  UNL     1      57.636  -2.167  17.963  1.00  0.00     0.187 HD
ENDROOT
BRANCH   1  11
HETATM   11  N3  UNL     1      58.714  -4.353  17.452  1.00  0.00    -0.162 N 
HETATM   12  C1  UNL     1      59.022  -5.672  17.056  1.00  0.00     0.200 C 
HETATM   13  N1  UNL     1      60.202  -6.142  17.164  1.00  0.00    -0.373 N 
HETATM   14  N2  UNL     1      58.000  -6.494  16.526  1.00  0.00    -0.063 NA
ATOM     15  H12 UNL     1      60.425  -7.095  16.877  1.00  0.00     0.158 HD
ATOM     16  H11 UNL     1      60.939  -5.549  17.546  1.00  0.00     0.158 HD
ATOM     17  H3  UNL     1      58.912  -3.598  16.796  1.00  0.00     0.187 HD
ENDBRANCH   1  11
BRANCH   6  18
HETATM   18  C4  UNL     1      56.518  -3.007  22.269  1.00  0.00     0.042 C 
HETATM   19  C5  UNL     1      55.870  -3.642  23.174  1.00  0.00     0.073 C 
BRANCH  19  20
HETATM   20  C6  UNL     1      55.501  -5.009  23.254  1.00  0.00     0.254 C 
HETATM   21  N6  UNL     1      56.544  -6.031  23.415  1.00  0.00    -0.058 NA
HETATM   22  O1  UNL     1      54.364  -5.512  23.207  1.00  0.00    -0.272 OA
ENDBRANCH  19  20
ENDBRANCH   6  18
TORSDOF 3
ENDMDL
MODEL 5
REMARK VINA RESULT: -6.916365847      2.012      5.525
REMARK  3 active torsions:
REMARK  status: ('A' for Active; 'I' for Inactive)
REMARK       I    between atoms: C1_4  and  N3_6 
REMARK    1  A    between atoms: N3_6  and  C2_8 
REMARK    2  A    between atoms: C3_13  and  C4_14 
REMARK    3  A    between atoms: C5_15  and  C6_16 
ROOT
HETATM    1  C2  UNL     1      57.190  -3.357  20.604  1.00  0.00     0.702 A 
HETATM    2  N4  UNL     1      57.765  -4.577  20.587  1.00  0.00    -0.131 N 
ATOM      3  H4  UNL     1      57.835  -5.141  21.434  1.00  0.00     0.205 HD
HETATM    4  N5  UNL     1      58.226  -5.008  19.448  1.00  0.00    -0.281 N 
ATOM      5  H5  UNL     1      58.657  -5.933  19.455  1.00  0.00     0.187 HD
HETATM    6  C3  UNL     1      58.199  -4.378  18.273  1.00  0.00     0.117 A 
HETATM    7  C7  UNL     1      57.585  -3.104  18.348  1.00  0.00     0.287 A 
HETATM    8  O2  UNL     1      57.491  -2.405  17.324  1.00  0.00    -0.265 OA
HETATM    9  N7  UNL     1      57.093  -2.613  19.493  1.00  0.00    -0.153 N 
ATOM     10  H7  UNL     1      56.655  -1.692  19.519  1.00  0.00     0.187 HD
ENDROOT
BRANCH   1  11
HETATM   11  N3  UNL     1      56.718  -2.887  21.704  1.00  0.00    -0.162 N 
HETATM   12  C1  UNL     1      55.952  -3.637  22.621  1.00  0.00     0.200 C 
HETATM   13  N1  UNL     1      54.679  -3.585  22.626  1.00  0.00    -0.373 N 
HETATM   14  N2  UNL     1      56.611  -4.468  23.558  1.00  0.00    -0.063 NA
ATOM     15  H12 UNL     1      54.125  -4.127  23.289  1.00  0.00     0.158 HD
ATOM     16  H11 UNL     1      54.204  -2.987  21.950  1.00  0.00     0.158 HD
ATOM     17  H3  UNL     1      56.910  -1.910  21.927  1.00  0.00     0.187 HD
ENDBRANCH   1  11
BRANCH   6  18
HETATM   18  C4  UNL     1      58.709  -4.854  17.013  1.00  0.00     0.042 C 
HETATM   19  C5  UNL     1      59.335  -5.917  16.668  1.00  0.00     0.073 C 
BRANCH  19  20
HETATM   20  C6  UNL     1      59.755  -7.030  17.440  1.00  0.00     0.254 C 
HETATM   21  N6  UNL     1      58.755  -7.825  18.167  1.00  0.00    -0.058 NA
HETATM   22  O1  UNL     1      60.906  -7.469  17.611  1.00  0.00    -0.272 OA
ENDBRANCH  19  20
ENDBRANCH   6  18
TORSDOF 3
ENDMDL
