MODEL 1
REMARK VINA RESULT: -6.197765448      0.000      0.000
REMARK  2 active torsions:
REMARK  status: ('A' for Active; 'I' for Inactive)
REMARK    1  A    between atoms: C1_2  and  C2_4 
REMARK    2  A    between atoms: C2_4  and  N2_5 
ROOT
HETATM    1  C2  UNL     1      59.430  -6.963  17.846  1.00  0.00     0.359 C 
HETATM    2  N3  UNL     1      58.528  -6.689  16.739  1.00  0.00    -0.285 N 
ATOM      3  H3  UNL     1      58.594  -7.218  15.870  1.00  0.00     0.169 HD
HETATM    4  C3  UNL     1      57.548  -5.665  16.894  1.00  0.00     0.327 C 
HETATM    5  O2  UNL     1      56.651  -5.462  16.013  1.00  0.00    -0.247 OA
HETATM    6  N4  UNL     1      57.523  -4.819  18.026  1.00  0.00    -0.261 N 
ATOM      7  H4  UNL     1      56.815  -4.088  18.101  1.00  0.00     0.175 HD
HETATM    8  C4  UNL     1      58.489  -4.988  19.063  1.00  0.00     0.327 C 
HETATM    9  O3  UNL     1      58.448  -4.293  20.088  1.00  0.00    -0.247 OA
HETATM   10  N5  UNL     1      59.459  -6.016  18.868  1.00  0.00    -0.285 N 
ATOM     11  H5  UNL     1      60.235  -6.060  19.528  1.00  0.00     0.169 HD
ENDROOT
BRANCH   1  12
HETATM   12  C1  UNL     1      60.780  -7.338  17.351  1.00  0.00     0.310 C 
HETATM   13  N1  UNL     1      61.404  -8.507  17.858  1.00  0.00    -0.056 NA
HETATM   14  O1  UNL     1      61.359  -6.625  16.512  1.00  0.00    -0.270 OA
ENDBRANCH   1  12
BRANCH   1  15
HETATM   15  N2  UNL     1      58.822  -8.251  18.404  1.00  0.00    -0.024 N 
ATOM     16  H23 UNL     1      58.197  -8.099  19.196  1.00  0.00     0.280 HD
ATOM     17  H22 UNL     1      58.132  -8.679  17.786  1.00  0.00     0.280 HD
ATOM     18  H21 UNL     1      59.611  -8.860  18.618  1.00  0.00     0.280 HD
ENDBRANCH   1  15
TORSDOF 2
ENDMDL
MODEL 2
REMARK VINA RESULT: -6.093178571      1.926      2.504
REMARK  2 active torsions:
REMARK  status: ('A' for Active; 'I' for Inactive)
REMARK    1  A    between atoms: C1_2  and  C2_4 
REMARK    2  A    between atoms: C2_4  and  N2_5 
ROOT
HETATM    1  C2  UNL     1      58.403  -5.459  17.611  1.00  0.00     0.359 C 
HETATM    2  N3  UNL     1      58.063  -4.048  17.532  1.00  0.00    -0.285 N 
ATOM      3  H3  UNL     1      57.995  -3.579  16.629  1.00  0.00     0.169 HD
HETATM    4  C3  UNL     1      57.826  -3.333  18.742  1.00  0.00     0.327 C 
HETATM    5  O2  UNL     1      57.404  -2.131  18.735  1.00  0.00    -0.247 OA
HETATM    6  N4  UNL     1      58.052  -3.913  20.011  1.00  0.00    -0.261 N 
ATOM      7  H4  UNL     1      57.884  -3.371  20.858  1.00  0.00     0.175 HD
HETATM    8  C4  UNL     1      58.517  -5.260  20.105  1.00  0.00     0.327 C 
HETATM    9  O3  UNL     1      58.668  -5.804  21.208  1.00  0.00    -0.247 OA
HETATM   10  N5  UNL     1      58.753  -5.940  18.873  1.00  0.00    -0.285 N 
ATOM     11  H5  UNL     1      59.213  -6.848  18.918  1.00  0.00     0.169 HD
ENDROOT
BRANCH   1  12
HETATM   12  C1  UNL     1      59.372  -5.834  16.550  1.00  0.00     0.310 C 
HETATM   13  N1  UNL     1      59.990  -7.110  16.594  1.00  0.00    -0.056 NA
HETATM   14  O1  UNL     1      59.647  -5.030  15.641  1.00  0.00    -0.270 OA
ENDBRANCH   1  12
BRANCH   1  15
HETATM   15  N2  UNL     1      57.075  -6.102  17.205  1.00  0.00    -0.024 N 
ATOM     16  H23 UNL     1      56.916  -6.109  16.198  1.00  0.00     0.280 HD
ATOM     17  H22 UNL     1      57.052  -7.113  17.340  1.00  0.00     0.280 HD
ATOM     18  H21 UNL     1      56.356  -5.603  17.729  1.00  0.00     0.280 HD
ENDBRANCH   1  15
TORSDOF 2
ENDMDL
MODEL 3
REMARK VINA RESULT: -5.972779880      2.342      3.595
REMARK  2 active torsions:
REMARK  status: ('A' for Active; 'I' for Inactive)
REMARK    1  A    between atoms: C1_2  and  C2_4 
REMARK    2  A    between atoms: C2_4  and  N2_5 
ROOT
HETATM    1  C2  UNL     1      58.160  -5.044  17.267  1.00  0.00     0.359 C 
HETATM    2  N3  UNL     1      58.526  -5.944  18.348  1.00  0.00    -0.285 N 
ATOM      3  H3  UNL     1      58.694  -6.933  18.168  1.00  0.00     0.169 HD
HETATM    4  C3  UNL     1      58.647  -5.414  19.666  1.00  0.00     0.327 C 
HETATM    5  O2  UNL     1      59.086  -6.121  20.632  1.00  0.00    -0.247 OA
HETATM    6  N4  UNL     1      58.283  -4.084  19.975  1.00  0.00    -0.261 N 
ATOM      7  H4  UNL     1      58.371  -3.738  20.930  1.00  0.00     0.175 HD
HETATM    8  C4  UNL     1      57.792  -3.224  18.947  1.00  0.00     0.327 C 
HETATM    9  O3  UNL     1      57.520  -2.038  19.186  1.00  0.00    -0.247 OA
HETATM   10  N5  UNL     1      57.675  -3.792  17.643  1.00  0.00    -0.285 N 
ATOM     11  H5  UNL     1      57.200  -3.239  16.931  1.00  0.00     0.169 HD
ENDROOT
BRANCH   1  12
HETATM   12  C1  UNL     1      57.300  -5.733  16.270  1.00  0.00     0.310 C 
HETATM   13  N1  UNL     1      55.908  -5.848  16.518  1.00  0.00    -0.056 NA
HETATM   14  O1  UNL     1      57.800  -6.214  15.238  1.00  0.00    -0.270 OA
ENDBRANCH   1  12
BRANCH   1  15
HETATM   15  N2  UNL     1      59.513  -4.847  16.581  1.00  0.00    -0.024 N 
ATOM     16  H23 UNL     1      59.449  -4.764  15.567  1.00  0.00     0.280 HD
ATOM     17  H22 UNL     1      59.929  -3.931  16.752  1.00  0.00     0.280 HD
ATOM     18  H21 UNL     1      60.095  -5.625  16.892  1.00  0.00     0.280 HD
ENDBRANCH   1  15
TORSDOF 2
ENDMDL
MODEL 4
REMARK VINA RESULT: -5.497778890      1.684      4.106
REMARK  2 active torsions:
REMARK  status: ('A' for Active; 'I' for Inactive)
REMARK    1  A    between atoms: C1_2  and  C2_4 
REMARK    2  A    between atoms: C2_4  and  N2_5 
ROOT
HETATM    1  C2  UNL     1      58.125  -4.102  18.393  1.00  0.00     0.359 C 
HETATM    2  N3  UNL     1      57.069  -4.593  17.523  1.00  0.00    -0.285 N 
ATOM      3  H3  UNL     1      56.256  -4.014  17.312  1.00  0.00     0.169 HD
HETATM    4  C3  UNL     1      57.192  -5.902  16.971  1.00  0.00     0.327 C 
HETATM    5  O2  UNL     1      56.367  -6.341  16.105  1.00  0.00    -0.247 OA
HETATM    6  N4  UNL     1      58.229  -6.782  17.355  1.00  0.00    -0.261 N 
ATOM      7  H4  UNL     1      58.283  -7.715  16.949  1.00  0.00     0.175 HD
HETATM    8  C4  UNL     1      59.200  -6.362  18.314  1.00  0.00     0.327 C 
HETATM    9  O3  UNL     1      60.148  -7.098  18.622  1.00  0.00    -0.247 OA
HETATM   10  N5  UNL     1      59.038  -5.050  18.852  1.00  0.00    -0.285 N 
ATOM     11  H5  UNL     1      59.637  -4.786  19.633  1.00  0.00     0.169 HD
ENDROOT
BRANCH   1  12
HETATM   12  C1  UNL     1      57.568  -3.249  19.475  1.00  0.00     0.310 C 
HETATM   13  N1  UNL     1      57.005  -1.990  19.144  1.00  0.00    -0.056 NA
HETATM   14  O1  UNL     1      57.610  -3.631  20.658  1.00  0.00    -0.270 OA
ENDBRANCH   1  12
BRANCH   1  15
HETATM   15  N2  UNL     1      58.858  -3.148  17.449  1.00  0.00    -0.024 N 
ATOM     16  H23 UNL     1      59.469  -3.620  16.783  1.00  0.00     0.280 HD
ATOM     17  H22 UNL     1      58.249  -2.703  16.762  1.00  0.00     0.280 HD
ATOM     18  H21 UNL     1      59.347  -2.485  18.051  1.00  0.00     0.280 HD
ENDBRANCH   1  15
TORSDOF 2
ENDMDL
MODEL 5
REMARK VINA RESULT: -5.462051240      1.192      3.458
REMARK  2 active torsions:
REMARK  status: ('A' for Active; 'I' for Inactive)
REMARK    1  A    between atoms: C1_2  and  C2_4 
REMARK    2  A    between atoms: C2_4  and  N2_5 
ROOT
HETATM    1  C2  UNL     1      58.996  -6.602  18.721  1.00  0.00     0.359 C 
HETATM    2  N3  UNL     1      60.338  -6.684  18.167  1.00  0.00    -0.285 N 
ATOM      3  H3  UNL     1      61.147  -6.798  18.778  1.00  0.00     0.169 HD
HETATM    4  C3  UNL     1      60.500  -6.600  16.754  1.00  0.00     0.327 C 
HETATM    5  O2  UNL     1      61.632  -6.790  16.200  1.00  0.00    -0.247 OA
HETATM    6  N4  UNL     1      59.421  -6.299  15.893  1.00  0.00    -0.261 N 
ATOM      7  H4  UNL     1      59.572  -6.236  14.886  1.00  0.00     0.175 HD
HETATM    8  C4  UNL     1      58.118  -6.081  16.434  1.00  0.00     0.327 C 
HETATM    9  O3  UNL     1      57.149  -5.871  15.691  1.00  0.00    -0.247 OA
HETATM   10  N5  UNL     1      57.997  -6.163  17.853  1.00  0.00    -0.285 N 
ATOM     11  H5  UNL     1      57.109  -5.877  18.266  1.00  0.00     0.169 HD
ENDROOT
BRANCH   1  12
HETATM   12  C1  UNL     1      59.001  -5.888  20.023  1.00  0.00     0.310 C 
HETATM   13  N1  UNL     1      59.416  -6.580  21.191  1.00  0.00    -0.056 NA
HETATM   14  O1  UNL     1      58.631  -4.703  20.090  1.00  0.00    -0.270 OA
ENDBRANCH   1  12
BRANCH   1  15
HETATM   15  N2  UNL     1      58.729  -8.071  19.054  1.00  0.00    -0.024 N 
ATOM     16  H23 UNL     1      59.303  -8.427  19.818  1.00  0.00     0.280 HD
ATOM     17  H22 UNL     1      57.824  -8.232  19.496  1.00  0.00     0.280 HD
ATOM     18  H21 UNL     1      58.853  -8.580  18.179  1.00  0.00     0.280 HD
ENDBRANCH   1  15
TORSDOF 2
ENDMDL
