MODEL 1
REMARK VINA RESULT: -8.738325253      0.000      0.000
REMARK  12 active torsions:
REMARK  status: ('A' for Active; 'I' for Inactive)
REMARK    1  A    between atoms: S1_2  and  C2_3 
REMARK    2  A    between atoms: C2_3  and  C3_4 
REMARK    3  A    between atoms: C2_3  and  C16_41 
REMARK       I    between atoms: C3_4  and  N1_6 
REMARK    4  A    between atoms: N1_6  and  C4_8 
REMARK    5  A    between atoms: C6_11  and  C7_12 
REMARK    6  A    between atoms: C7_12  and  C8_13 
REMARK    7  A    between atoms: C8_13  and  C9_18 
REMARK    8  A    between atoms: N2_14  and  O2_16 
REMARK       I    between atoms: C9_18  and  N3_20 
REMARK    9  A    between atoms: N3_20  and  C10_22 
REMARK   10  A    between atoms: C10_22  and  C11_23 
REMARK   11  A    between atoms: N7_32  and  N8_33 
REMARK       I    between atoms: N8_33  and  C13_35 
REMARK   12  A    between atoms: C15_38  and  O5_39 
ROOT
HETATM    1  C8  UNL     1      53.704  19.188  13.182  1.00  0.00     0.104 C 
HETATM    2  N2  UNL     1      52.906  19.338  12.238  1.00  0.00    -0.268 N 
ATOM      3  H2  UNL     1      52.004  18.906  12.436  1.00  0.00     0.194 HD
ENDROOT
BRANCH   1   4
HETATM    4  C7  UNL     1      55.065  19.676  13.233  1.00  0.00     0.114 C 
BRANCH   4   5
HETATM    5  C6  UNL     1      55.149  20.983  13.961  1.00  0.00     0.024 A 
HETATM    6  S2  UNL     1      54.712  22.527  13.416  1.00  0.00    -0.101 SA
HETATM    7  C5  UNL     1      55.121  23.433  14.804  1.00  0.00     0.082 A 
HETATM    8  C4  UNL     1      55.598  22.495  15.675  1.00  0.00     0.075 A 
HETATM    9  C15 UNL     1      55.611  21.208  15.227  1.00  0.00     0.106 A 
BRANCH   8  10
HETATM   10  N1  UNL     1      56.070  22.819  17.012  1.00  0.00    -0.323 N 
HETATM   11  C3  UNL     1      55.540  22.323  18.200  1.00  0.00     0.240 C 
HETATM   12  O1  UNL     1      54.585  21.535  18.250  1.00  0.00    -0.272 OA
ATOM     13  H1  UNL     1      56.856  23.464  17.086  1.00  0.00     0.169 HD
BRANCH  11  14
HETATM   14  C2  UNL     1      56.109  22.727  19.528  1.00  0.00     0.173 C 
BRANCH  14  15
HETATM   15  S1  UNL     1      57.227  21.476  20.165  1.00  0.00    -0.154 SA
HETATM   16  C1  UNL     1      58.577  21.061  19.067  1.00  0.00     0.091 C 
ENDBRANCH  14  15
BRANCH  14  17
HETATM   17  C16 UNL     1      55.001  23.058  20.450  1.00  0.00    -0.019 A 
HETATM   18  C17 UNL     1      54.976  22.515  21.719  1.00  0.00     0.015 A 
HETATM   19  C18 UNL     1      53.941  22.816  22.608  1.00  0.00     0.075 A 
HETATM   20  C19 UNL     1      52.961  23.659  22.177  1.00  0.00     0.246 A 
HETATM   21  O6  UNL     1      52.029  23.938  22.958  1.00  0.00    -0.268 OA
HETATM   22  N9  UNL     1      52.964  24.204  20.936  1.00  0.00    -0.328 N 
HETATM   23  C20 UNL     1      51.878  25.090  20.573  1.00  0.00     0.159 C 
HETATM   24  C21 UNL     1      53.970  23.903  20.093  1.00  0.00     0.102 A 
ENDBRANCH  14  17
ENDBRANCH  11  14
ENDBRANCH   8  10
BRANCH   9  25
HETATM   25  O5  UNL     1      56.078  20.107  16.015  1.00  0.00    -0.357 OA
ATOM     26  H5  UNL     1      55.513  19.599  16.585  1.00  0.00     0.217 HD
ENDBRANCH   9  25
ENDBRANCH   4   5
ENDBRANCH   1   4
BRANCH   1  27
HETATM   27  C9  UNL     1      53.229  18.405  14.346  1.00  0.00     0.266 C 
HETATM   28  O3  UNL     1      53.730  17.272  14.512  1.00  0.00    -0.266 OA
HETATM   29  N3  UNL     1      52.252  18.972  15.190  1.00  0.00    -0.349 N 
ATOM     30  H3  UNL     1      51.885  19.905  15.004  1.00  0.00     0.163 HD
BRANCH  29  31
HETATM   31  C10 UNL     1      51.768  18.189  16.351  1.00  0.00     0.203 C 
BRANCH  31  32
HETATM   32  C11 UNL     1      52.703  18.346  17.486  1.00  0.00     0.154 A 
HETATM   33  N4  UNL     1      54.026  18.618  17.277  1.00  0.00    -0.271 N 
HETATM   34  N5  UNL     1      54.614  18.733  18.416  1.00  0.00    -0.129 N 
ATOM     35  H4  UNL     1      54.474  18.715  16.366  1.00  0.00     0.189 HD
HETATM   36  C12 UNL     1      53.729  18.547  19.386  1.00  0.00     0.713 A 
ATOM     37  H5  UNL     1      55.605  18.934  18.551  1.00  0.00     0.205 HD
HETATM   38  N6  UNL     1      53.908  18.577  20.657  1.00  0.00    -0.232 N 
HETATM   39  N7  UNL     1      52.493  18.296  18.790  1.00  0.00    -0.067 N 
ATOM     40  H62 UNL     1      54.812  18.760  21.093  1.00  0.00     0.174 HD
ATOM     41  H61 UNL     1      53.227  18.435  21.403  1.00  0.00     0.174 HD
BRANCH  39  42
HETATM   42  N8  UNL     1      51.363  18.022  19.531  1.00  0.00    -0.248 N 
HETATM   43  C13 UNL     1      50.321  17.147  19.403  1.00  0.00     0.233 C 
HETATM   44  C14 UNL     1      49.238  17.212  20.521  1.00  0.00     0.119 C 
HETATM   45  O4  UNL     1      50.055  16.286  18.554  1.00  0.00    -0.272 OA
ATOM     46  H8  UNL     1      51.288  18.605  20.365  1.00  0.00     0.191 HD
ENDBRANCH  39  42
ENDBRANCH  31  32
ENDBRANCH  29  31
ENDBRANCH   1  27
BRANCH   2  47
HETATM   47  O2  UNL     1      52.919  19.910  11.047  1.00  0.00    -0.290 OA
ATOM     48  H2  UNL     1      52.315  20.416  10.514  1.00  0.00     0.244 HD
ENDBRANCH   2  47
TORSDOF 12
ENDMDL
MODEL 2
REMARK VINA RESULT: -8.236662323      2.092      3.001
REMARK  12 active torsions:
REMARK  status: ('A' for Active; 'I' for Inactive)
REMARK    1  A    between atoms: S1_2  and  C2_3 
REMARK    2  A    between atoms: C2_3  and  C3_4 
REMARK    3  A    between atoms: C2_3  and  C16_41 
REMARK       I    between atoms: C3_4  and  N1_6 
REMARK    4  A    between atoms: N1_6  and  C4_8 
REMARK    5  A    between atoms: C6_11  and  C7_12 
REMARK    6  A    between atoms: C7_12  and  C8_13 
REMARK    7  A    between atoms: C8_13  and  C9_18 
REMARK    8  A    between atoms: N2_14  and  O2_16 
REMARK       I    between atoms: C9_18  and  N3_20 
REMARK    9  A    between atoms: N3_20  and  C10_22 
REMARK   10  A    between atoms: C10_22  and  C11_23 
REMARK   11  A    between atoms: N7_32  and  N8_33 
REMARK       I    between atoms: N8_33  and  C13_35 
REMARK   12  A    between atoms: C15_38  and  O5_39 
ROOT
HETATM    1  C8  UNL     1      54.795  21.160  13.852  1.00  0.00     0.104 C 
HETATM    2  N2  UNL     1      53.914  22.038  13.921  1.00  0.00    -0.268 N 
ATOM      3  H2  UNL     1      53.001  21.639  14.137  1.00  0.00     0.194 HD
ENDROOT
BRANCH   1   4
HETATM    4  C7  UNL     1      56.196  21.377  13.566  1.00  0.00     0.114 C 
BRANCH   4   5
HETATM    5  C6  UNL     1      57.030  21.262  14.805  1.00  0.00     0.024 A 
HETATM    6  S2  UNL     1      58.654  20.800  14.948  1.00  0.00    -0.101 SA
HETATM    7  C5  UNL     1      58.824  20.916  16.643  1.00  0.00     0.082 A 
HETATM    8  C4  UNL     1      57.590  21.318  17.065  1.00  0.00     0.075 A 
HETATM    9  C15 UNL     1      56.650  21.500  16.095  1.00  0.00     0.106 A 
BRANCH   8  10
HETATM   10  N1  UNL     1      57.266  21.552  18.464  1.00  0.00    -0.323 N 
HETATM   11  C3  UNL     1      57.690  22.639  19.223  1.00  0.00     0.240 C 
HETATM   12  O1  UNL     1      58.408  23.547  18.781  1.00  0.00    -0.272 OA
ATOM     13  H1  UNL     1      56.678  20.860  18.929  1.00  0.00     0.169 HD
BRANCH  11  14
HETATM   14  C2  UNL     1      57.293  22.779  20.662  1.00  0.00     0.173 C 
BRANCH  14  15
HETATM   15  S1  UNL     1      57.629  21.274  21.581  1.00  0.00    -0.154 SA
HETATM   16  C1  UNL     1      59.117  21.329  22.572  1.00  0.00     0.091 C 
ENDBRANCH  14  15
BRANCH  14  17
HETATM   17  C16 UNL     1      55.882  23.216  20.736  1.00  0.00    -0.019 A 
HETATM   18  C17 UNL     1      55.086  22.803  21.785  1.00  0.00     0.015 A 
HETATM   19  C18 UNL     1      53.751  23.205  21.876  1.00  0.00     0.075 A 
HETATM   20  C19 UNL     1      53.265  24.016  20.894  1.00  0.00     0.246 A 
HETATM   21  O6  UNL     1      52.076  24.384  20.959  1.00  0.00    -0.268 OA
HETATM   22  N9  UNL     1      54.027  24.435  19.854  1.00  0.00    -0.328 N 
HETATM   23  C20 UNL     1      53.419  25.296  18.861  1.00  0.00     0.159 C 
HETATM   24  C21 UNL     1      55.312  24.037  19.783  1.00  0.00     0.102 A 
ENDBRANCH  14  17
ENDBRANCH  11  14
ENDBRANCH   8  10
BRANCH   9  25
HETATM   25  O5  UNL     1      55.309  21.920  16.371  1.00  0.00    -0.357 OA
ATOM     26  H5  UNL     1      54.611  21.317  16.600  1.00  0.00     0.217 HD
ENDBRANCH   9  25
ENDBRANCH   4   5
ENDBRANCH   1   4
BRANCH   1  27
HETATM   27  C9  UNL     1      54.360  19.757  14.045  1.00  0.00     0.266 C 
HETATM   28  O3  UNL     1      54.806  18.907  13.245  1.00  0.00    -0.266 OA
HETATM   29  N3  UNL     1      53.479  19.461  15.105  1.00  0.00    -0.349 N 
ATOM     30  H3  UNL     1      53.152  20.199  15.730  1.00  0.00     0.163 HD
BRANCH  29  31
HETATM   31  C10 UNL     1      53.035  18.061  15.297  1.00  0.00     0.203 C 
BRANCH  31  32
HETATM   32  C11 UNL     1      51.902  18.019  16.247  1.00  0.00     0.154 A 
HETATM   33  N4  UNL     1      50.618  17.872  15.804  1.00  0.00    -0.271 N 
HETATM   34  N5  UNL     1      49.827  17.840  16.819  1.00  0.00    -0.129 N 
ATOM     35  H4  UNL     1      50.332  17.798  14.828  1.00  0.00     0.189 HD
HETATM   36  C12 UNL     1      50.538  17.961  17.932  1.00  0.00     0.713 A 
ATOM     37  H5  UNL     1      48.813  17.738  16.775  1.00  0.00     0.205 HD
HETATM   38  N6  UNL     1      50.133  17.977  19.150  1.00  0.00    -0.232 N 
HETATM   39  N7  UNL     1      51.879  18.078  17.567  1.00  0.00    -0.067 N 
ATOM     40  H62 UNL     1      49.152  17.891  19.417  1.00  0.00     0.174 HD
ATOM     41  H61 UNL     1      50.681  18.069  20.006  1.00  0.00     0.174 HD
BRANCH  39  42
HETATM   42  N8  UNL     1      52.881  18.259  18.498  1.00  0.00    -0.248 N 
HETATM   43  C13 UNL     1      53.819  19.225  18.721  1.00  0.00     0.233 C 
HETATM   44  C14 UNL     1      54.773  18.982  19.929  1.00  0.00     0.119 C 
HETATM   45  O4  UNL     1      54.075  20.290  18.141  1.00  0.00    -0.272 OA
ATOM     46  H8  UNL     1      52.931  17.497  19.175  1.00  0.00     0.191 HD
ENDBRANCH  39  42
ENDBRANCH  31  32
ENDBRANCH  29  31
ENDBRANCH   1  27
BRANCH   2  47
HETATM   47  O2  UNL     1      53.851  23.351  13.787  1.00  0.00    -0.290 OA
ATOM     48  H2  UNL     1      53.535  24.086  14.299  1.00  0.00     0.244 HD
ENDBRANCH   2  47
TORSDOF 12
ENDMDL
MODEL 3
REMARK VINA RESULT: -7.828731288      2.897      4.031
REMARK  12 active torsions:
REMARK  status: ('A' for Active; 'I' for Inactive)
REMARK    1  A    between atoms: S1_2  and  C2_3 
REMARK    2  A    between atoms: C2_3  and  C3_4 
REMARK    3  A    between atoms: C2_3  and  C16_41 
REMARK       I    between atoms: C3_4  and  N1_6 
REMARK    4  A    between atoms: N1_6  and  C4_8 
REMARK    5  A    between atoms: C6_11  and  C7_12 
REMARK    6  A    between atoms: C7_12  and  C8_13 
REMARK    7  A    between atoms: C8_13  and  C9_18 
REMARK    8  A    between atoms: N2_14  and  O2_16 
REMARK       I    between atoms: C9_18  and  N3_20 
REMARK    9  A    between atoms: N3_20  and  C10_22 
REMARK   10  A    between atoms: C10_22  and  C11_23 
REMARK   11  A    between atoms: N7_32  and  N8_33 
REMARK       I    between atoms: N8_33  and  C13_35 
REMARK   12  A    between atoms: C15_38  and  O5_39 
ROOT
HETATM    1  C8  UNL     1      54.971  21.372  14.178  1.00  0.00     0.104 C 
HETATM    2  N2  UNL     1      55.083  21.876  13.044  1.00  0.00    -0.268 N 
ATOM      3  H2  UNL     1      54.821  21.216  12.312  1.00  0.00     0.194 HD
ENDROOT
BRANCH   1   4
HETATM    4  C7  UNL     1      55.257  22.029  15.434  1.00  0.00     0.114 C 
BRANCH   4   5
HETATM    5  C6  UNL     1      56.626  21.677  15.934  1.00  0.00     0.024 A 
HETATM    6  S2  UNL     1      58.002  21.256  15.040  1.00  0.00    -0.101 SA
HETATM    7  C5  UNL     1      59.097  21.006  16.325  1.00  0.00     0.082 A 
HETATM    8  C4  UNL     1      58.352  21.260  17.440  1.00  0.00     0.075 A 
HETATM    9  C15 UNL     1      57.052  21.613  17.229  1.00  0.00     0.106 A 
BRANCH   8  10
HETATM   10  N1  UNL     1      58.886  21.170  18.791  1.00  0.00    -0.323 N 
HETATM   11  C3  UNL     1      59.365  22.238  19.545  1.00  0.00     0.240 C 
HETATM   12  O1  UNL     1      59.392  23.409  19.138  1.00  0.00    -0.272 OA
ATOM     13  H1  UNL     1      58.912  20.246  19.222  1.00  0.00     0.169 HD
BRANCH  11  14
HETATM   14  C2  UNL     1      59.894  22.029  20.932  1.00  0.00     0.173 C 
BRANCH  14  15
HETATM   15  S1  UNL     1      60.310  20.307  21.219  1.00  0.00    -0.154 SA
HETATM   16  C1  UNL     1      61.906  19.814  20.577  1.00  0.00     0.091 C 
ENDBRANCH  14  15
BRANCH  14  17
HETATM   17  C16 UNL     1      58.926  22.575  21.908  1.00  0.00    -0.019 A 
HETATM   18  C17 UNL     1      57.571  22.398  21.708  1.00  0.00     0.015 A 
HETATM   19  C18 UNL     1      56.640  22.904  22.617  1.00  0.00     0.075 A 
HETATM   20  C19 UNL     1      57.115  23.577  23.704  1.00  0.00     0.246 A 
HETATM   21  O6  UNL     1      56.296  24.035  24.526  1.00  0.00    -0.268 OA
HETATM   22  N9  UNL     1      58.439  23.763  23.921  1.00  0.00    -0.328 N 
HETATM   23  C20 UNL     1      58.845  24.491  25.105  1.00  0.00     0.159 C 
HETATM   24  C21 UNL     1      59.324  23.269  23.034  1.00  0.00     0.102 A 
ENDBRANCH  14  17
ENDBRANCH  11  14
ENDBRANCH   8  10
BRANCH   9  25
HETATM   25  O5  UNL     1      56.139  21.913  18.291  1.00  0.00    -0.357 OA
ATOM     26  H5  UNL     1      55.195  21.884  18.189  1.00  0.00     0.217 HD
ENDBRANCH   9  25
ENDBRANCH   4   5
ENDBRANCH   1   4
BRANCH   1  27
HETATM   27  C9  UNL     1      54.542  19.956  14.244  1.00  0.00     0.266 C 
HETATM   28  O3  UNL     1      55.145  19.143  13.511  1.00  0.00    -0.266 OA
HETATM   29  N3  UNL     1      53.490  19.608  15.117  1.00  0.00    -0.349 N 
ATOM     30  H3  UNL     1      53.039  20.317  15.695  1.00  0.00     0.163 HD
BRANCH  29  31
HETATM   31  C10 UNL     1      53.052  18.194  15.181  1.00  0.00     0.203 C 
BRANCH  31  32
HETATM   32  C11 UNL     1      51.899  18.067  16.098  1.00  0.00     0.154 A 
HETATM   33  N4  UNL     1      50.628  17.929  15.615  1.00  0.00    -0.271 N 
HETATM   34  N5  UNL     1      49.815  17.813  16.607  1.00  0.00    -0.129 N 
ATOM     35  H4  UNL     1      50.366  17.919  14.630  1.00  0.00     0.189 HD
HETATM   36  C12 UNL     1      50.499  17.869  17.742  1.00  0.00     0.713 A 
ATOM     37  H5  UNL     1      48.805  17.697  16.532  1.00  0.00     0.205 HD
HETATM   38  N6  UNL     1      50.066  17.793  18.948  1.00  0.00    -0.232 N 
HETATM   39  N7  UNL     1      51.845  18.034  17.418  1.00  0.00    -0.067 N 
ATOM     40  H62 UNL     1      49.082  17.672  19.185  1.00  0.00     0.174 HD
ATOM     41  H61 UNL     1      50.593  17.835  19.821  1.00  0.00     0.174 HD
BRANCH  39  42
HETATM   42  N8  UNL     1      52.822  18.166  18.383  1.00  0.00    -0.248 N 
HETATM   43  C13 UNL     1      53.704  19.152  18.726  1.00  0.00     0.233 C 
HETATM   44  C14 UNL     1      54.651  18.831  19.920  1.00  0.00     0.119 C 
HETATM   45  O4  UNL     1      53.909  20.284  18.267  1.00  0.00    -0.272 OA
ATOM     46  H8  UNL     1      52.904  17.340  18.976  1.00  0.00     0.191 HD
ENDBRANCH  39  42
ENDBRANCH  31  32
ENDBRANCH  29  31
ENDBRANCH   1  27
BRANCH   2  47
HETATM   47  O2  UNL     1      55.450  23.040  12.540  1.00  0.00    -0.290 OA
ATOM     48  H2  UNL     1      55.020  23.834  12.242  1.00  0.00     0.244 HD
ENDBRANCH   2  47
TORSDOF 12
ENDMDL
MODEL 4
REMARK VINA RESULT: -7.765850943      2.723      6.005
REMARK  12 active torsions:
REMARK  status: ('A' for Active; 'I' for Inactive)
REMARK    1  A    between atoms: S1_2  and  C2_3 
REMARK    2  A    between atoms: C2_3  and  C3_4 
REMARK    3  A    between atoms: C2_3  and  C16_41 
REMARK       I    between atoms: C3_4  and  N1_6 
REMARK    4  A    between atoms: N1_6  and  C4_8 
REMARK    5  A    between atoms: C6_11  and  C7_12 
REMARK    6  A    between atoms: C7_12  and  C8_13 
REMARK    7  A    between atoms: C8_13  and  C9_18 
REMARK    8  A    between atoms: N2_14  and  O2_16 
REMARK       I    between atoms: C9_18  and  N3_20 
REMARK    9  A    between atoms: N3_20  and  C10_22 
REMARK   10  A    between atoms: C10_22  and  C11_23 
REMARK   11  A    between atoms: N7_32  and  N8_33 
REMARK       I    between atoms: N8_33  and  C13_35 
REMARK   12  A    between atoms: C15_38  and  O5_39 
ROOT
HETATM    1  C8  UNL     1      53.859  20.013  12.972  1.00  0.00     0.104 C 
HETATM    2  N2  UNL     1      53.171  19.757  11.966  1.00  0.00    -0.268 N 
ATOM      3  H2  UNL     1      52.729  20.595  11.589  1.00  0.00     0.194 HD
ENDROOT
BRANCH   1   4
HETATM    4  C7  UNL     1      54.620  19.060  13.751  1.00  0.00     0.114 C 
BRANCH   4   5
HETATM    5  C6  UNL     1      54.264  19.136  15.205  1.00  0.00     0.024 A 
HETATM    6  S2  UNL     1      53.008  18.352  16.028  1.00  0.00    -0.101 SA
HETATM    7  C5  UNL     1      53.284  18.966  17.597  1.00  0.00     0.082 A 
HETATM    8  C4  UNL     1      54.367  19.783  17.439  1.00  0.00     0.075 A 
HETATM    9  C15 UNL     1      54.879  19.868  16.179  1.00  0.00     0.106 A 
BRANCH   8  10
HETATM   10  N1  UNL     1      54.965  20.529  18.536  1.00  0.00    -0.323 N 
HETATM   11  C3  UNL     1      55.271  21.887  18.519  1.00  0.00     0.240 C 
HETATM   12  O1  UNL     1      55.064  22.626  17.546  1.00  0.00    -0.272 OA
ATOM     13  H1  UNL     1      55.180  20.014  19.389  1.00  0.00     0.169 HD
BRANCH  11  14
HETATM   14  C2  UNL     1      55.888  22.555  19.711  1.00  0.00     0.173 C 
BRANCH  14  15
HETATM   15  S1  UNL     1      57.156  21.524  20.453  1.00  0.00    -0.154 SA
HETATM   16  C1  UNL     1      58.486  21.074  19.343  1.00  0.00     0.091 C 
ENDBRANCH  14  15
BRANCH  14  17
HETATM   17  C16 UNL     1      54.819  22.950  20.653  1.00  0.00    -0.019 A 
HETATM   18  C17 UNL     1      54.827  22.468  21.947  1.00  0.00     0.015 A 
HETATM   19  C18 UNL     1      53.829  22.829  22.854  1.00  0.00     0.075 A 
HETATM   20  C19 UNL     1      52.850  23.671  22.417  1.00  0.00     0.246 A 
HETATM   21  O6  UNL     1      51.950  24.003  23.215  1.00  0.00    -0.268 OA
HETATM   22  N9  UNL     1      52.820  24.157  21.153  1.00  0.00    -0.328 N 
HETATM   23  C20 UNL     1      51.738  25.046  20.784  1.00  0.00     0.159 C 
HETATM   24  C21 UNL     1      53.791  23.798  20.291  1.00  0.00     0.102 A 
ENDBRANCH  14  17
ENDBRANCH  11  14
ENDBRANCH   8  10
BRANCH   9  25
HETATM   25  O5  UNL     1      56.012  20.678  15.847  1.00  0.00    -0.357 OA
ATOM     26  H5  UNL     1      56.714  20.868  16.459  1.00  0.00     0.217 HD
ENDBRANCH   9  25
ENDBRANCH   4   5
ENDBRANCH   1   4
BRANCH   1  27
HETATM   27  C9  UNL     1      53.870  21.419  13.438  1.00  0.00     0.266 C 
HETATM   28  O3  UNL     1      52.764  21.946  13.685  1.00  0.00    -0.266 OA
HETATM   29  N3  UNL     1      55.110  22.077  13.575  1.00  0.00    -0.349 N 
ATOM     30  H3  UNL     1      55.981  21.591  13.363  1.00  0.00     0.163 HD
BRANCH  29  31
HETATM   31  C10 UNL     1      55.125  23.486  14.034  1.00  0.00     0.203 C 
BRANCH  31  32
HETATM   32  C11 UNL     1      56.502  24.022  13.961  1.00  0.00     0.154 A 
HETATM   33  N4  UNL     1      57.571  23.274  14.368  1.00  0.00    -0.271 N 
HETATM   34  N5  UNL     1      58.650  23.951  14.181  1.00  0.00    -0.129 N 
ATOM     35  H4  UNL     1      57.522  22.333  14.757  1.00  0.00     0.189 HD
HETATM   36  C12 UNL     1      58.340  25.131  13.659  1.00  0.00     0.713 A 
ATOM     37  H5  UNL     1      59.593  23.631  14.399  1.00  0.00     0.205 HD
HETATM   38  N6  UNL     1      59.121  26.094  13.326  1.00  0.00    -0.232 N 
HETATM   39  N7  UNL     1      56.954  25.182  13.517  1.00  0.00    -0.067 N 
ATOM     40  H62 UNL     1      60.135  26.057  13.430  1.00  0.00     0.174 HD
ATOM     41  H61 UNL     1      58.883  27.002  12.924  1.00  0.00     0.174 HD
BRANCH  39  42
HETATM   42  N8  UNL     1      56.306  26.299  13.033  1.00  0.00    -0.248 N 
HETATM   43  C13 UNL     1      55.293  26.509  12.142  1.00  0.00     0.233 C 
HETATM   44  C14 UNL     1      54.895  27.997  11.903  1.00  0.00     0.119 C 
HETATM   45  O4  UNL     1      54.603  25.734  11.465  1.00  0.00    -0.272 OA
ATOM     46  H8  UNL     1      56.665  27.166  13.433  1.00  0.00     0.191 HD
ENDBRANCH  39  42
ENDBRANCH  31  32
ENDBRANCH  29  31
ENDBRANCH   1  27
BRANCH   2  47
HETATM   47  O2  UNL     1      52.862  18.685  11.259  1.00  0.00    -0.290 OA
ATOM     48  H2  UNL     1      52.246  18.463  10.570  1.00  0.00     0.244 HD
ENDBRANCH   2  47
TORSDOF 12
ENDMDL
MODEL 5
REMARK VINA RESULT: -7.736452702      2.848      3.976
REMARK  12 active torsions:
REMARK  status: ('A' for Active; 'I' for Inactive)
REMARK    1  A    between atoms: S1_2  and  C2_3 
REMARK    2  A    between atoms: C2_3  and  C3_4 
REMARK    3  A    between atoms: C2_3  and  C16_41 
REMARK       I    between atoms: C3_4  and  N1_6 
REMARK    4  A    between atoms: N1_6  and  C4_8 
REMARK    5  A    between atoms: C6_11  and  C7_12 
REMARK    6  A    between atoms: C7_12  and  C8_13 
REMARK    7  A    between atoms: C8_13  and  C9_18 
REMARK    8  A    between atoms: N2_14  and  O2_16 
REMARK       I    between atoms: C9_18  and  N3_20 
REMARK    9  A    between atoms: N3_20  and  C10_22 
REMARK   10  A    between atoms: C10_22  and  C11_23 
REMARK   11  A    between atoms: N7_32  and  N8_33 
REMARK       I    between atoms: N8_33  and  C13_35 
REMARK   12  A    between atoms: C15_38  and  O5_39 
ROOT
HETATM    1  C8  UNL     1      55.103  21.246  14.065  1.00  0.00     0.104 C 
HETATM    2  N2  UNL     1      54.230  22.133  14.005  1.00  0.00    -0.268 N 
ATOM      3  H2  UNL     1      53.291  21.738  14.047  1.00  0.00     0.194 HD
ENDROOT
BRANCH   1   4
HETATM    4  C7  UNL     1      56.534  21.456  14.032  1.00  0.00     0.114 C 
BRANCH   4   5
HETATM    5  C6  UNL     1      57.135  21.329  15.400  1.00  0.00     0.024 A 
HETATM    6  S2  UNL     1      58.748  21.026  15.822  1.00  0.00    -0.101 SA
HETATM    7  C5  UNL     1      58.590  21.022  17.522  1.00  0.00     0.082 A 
HETATM    8  C4  UNL     1      57.261  21.260  17.724  1.00  0.00     0.075 A 
HETATM    9  C15 UNL     1      56.499  21.421  16.605  1.00  0.00     0.106 A 
BRANCH   8  10
HETATM   10  N1  UNL     1      56.661  21.346  19.047  1.00  0.00    -0.323 N 
HETATM   11  C3  UNL     1      56.461  22.517  19.771  1.00  0.00     0.240 C 
HETATM   12  O1  UNL     1      56.780  23.642  19.360  1.00  0.00    -0.272 OA
ATOM     13  H1  UNL     1      56.361  20.473  19.481  1.00  0.00     0.169 HD
BRANCH  11  14
HETATM   14  C2  UNL     1      55.829  22.487  21.131  1.00  0.00     0.173 C 
BRANCH  14  15
HETATM   15  S1  UNL     1      54.338  23.484  21.180  1.00  0.00    -0.154 SA
HETATM   16  C1  UNL     1      53.472  23.598  19.618  1.00  0.00     0.091 C 
ENDBRANCH  14  15
BRANCH  14  17
HETATM   17  C16 UNL     1      56.836  22.876  22.142  1.00  0.00    -0.019 A 
HETATM   18  C17 UNL     1      58.155  22.501  21.982  1.00  0.00     0.015 A 
HETATM   19  C18 UNL     1      59.122  22.859  22.923  1.00  0.00     0.075 A 
HETATM   20  C19 UNL     1      58.719  23.589  24.001  1.00  0.00     0.246 A 
HETATM   21  O6  UNL     1      59.570  23.917  24.852  1.00  0.00    -0.268 OA
HETATM   22  N9  UNL     1      57.430  23.969  24.180  1.00  0.00    -0.328 N 
HETATM   23  C20 UNL     1      57.100  24.744  25.358  1.00  0.00     0.159 C 
HETATM   24  C21 UNL     1      56.510  23.615  23.262  1.00  0.00     0.102 A 
ENDBRANCH  14  17
ENDBRANCH  11  14
ENDBRANCH   8  10
BRANCH   9  25
HETATM   25  O5  UNL     1      55.091  21.677  16.644  1.00  0.00    -0.357 OA
ATOM     26  H5  UNL     1      54.472  21.274  16.046  1.00  0.00     0.217 HD
ENDBRANCH   9  25
ENDBRANCH   4   5
ENDBRANCH   1   4
BRANCH   1  27
HETATM   27  C9  UNL     1      54.633  19.844  14.138  1.00  0.00     0.266 C 
HETATM   28  O3  UNL     1      55.225  19.006  13.423  1.00  0.00    -0.266 OA
HETATM   29  N3  UNL     1      53.559  19.535  14.997  1.00  0.00    -0.349 N 
ATOM     30  H3  UNL     1      53.119  20.262  15.561  1.00  0.00     0.163 HD
BRANCH  29  31
HETATM   31  C10 UNL     1      53.080  18.134  15.068  1.00  0.00     0.203 C 
BRANCH  31  32
HETATM   32  C11 UNL     1      51.931  18.043  15.995  1.00  0.00     0.154 A 
HETATM   33  N4  UNL     1      50.650  17.980  15.524  1.00  0.00    -0.271 N 
HETATM   34  N5  UNL     1      49.843  17.881  16.523  1.00  0.00    -0.129 N 
ATOM     35  H4  UNL     1      50.377  18.007  14.542  1.00  0.00     0.189 HD
HETATM   36  C12 UNL     1      50.541  17.875  17.650  1.00  0.00     0.713 A 
ATOM     37  H5  UNL     1      48.827  17.818  16.456  1.00  0.00     0.205 HD
HETATM   38  N6  UNL     1      50.117  17.792  18.860  1.00  0.00    -0.232 N 
HETATM   39  N7  UNL     1      51.890  17.981  17.315  1.00  0.00    -0.067 N 
ATOM     40  H62 UNL     1      49.130  17.715  19.105  1.00  0.00     0.174 HD
ATOM     41  H61 UNL     1      50.654  17.786  19.727  1.00  0.00     0.174 HD
BRANCH  39  42
HETATM   42  N8  UNL     1      52.882  18.040  18.271  1.00  0.00    -0.248 N 
HETATM   43  C13 UNL     1      53.634  19.045  18.811  1.00  0.00     0.233 C 
HETATM   44  C14 UNL     1      54.671  18.613  19.891  1.00  0.00     0.119 C 
HETATM   45  O4  UNL     1      53.659  20.268  18.611  1.00  0.00    -0.272 OA
ATOM     46  H8  UNL     1      53.105  17.126  18.665  1.00  0.00     0.191 HD
ENDBRANCH  39  42
ENDBRANCH  31  32
ENDBRANCH  29  31
ENDBRANCH   1  27
BRANCH   2  47
HETATM   47  O2  UNL     1      54.200  23.449  13.900  1.00  0.00    -0.290 OA
ATOM     48  H2  UNL     1      53.538  24.131  13.917  1.00  0.00     0.244 HD
ENDBRANCH   2  47
TORSDOF 12
ENDMDL
