MODEL 1
REMARK VINA RESULT: -7.948266100      0.000      0.000
REMARK  15 active torsions:
REMARK  status: ('A' for Active; 'I' for Inactive)
REMARK    1  A    between atoms: O1_2  and  C2_3 
REMARK    2  A    between atoms: C2_3  and  O2_4 
REMARK    3  A    between atoms: C2_3  and  C3_6 
REMARK    4  A    between atoms: C4_8  and  C5_9 
REMARK    5  A    between atoms: C5_9  and  O3_10 
REMARK    6  A    between atoms: C5_9  and  N1_12 
REMARK    7  A    between atoms: N1_12  and  C6_14 
REMARK    8  A    between atoms: C6_14  and  N2_15 
REMARK    9  A    between atoms: C6_14  and  C14_33 
REMARK       I    between atoms: N2_15  and  C7_17 
REMARK   10  A    between atoms: C7_17  and  C8_19 
REMARK   11  A    between atoms: C11_24  and  N3_25 
REMARK   12  A    between atoms: C12_28  and  O9_29 
REMARK   13  A    between atoms: C14_33  and  O11_34 
REMARK   14  A    between atoms: C14_33  and  C15_36 
REMARK   15  A    between atoms: C17_40  and  N4_41 
REMARK       I    between atoms: N4_41  and  C18_43 
ROOT
HETATM    1  C6  UNL     1      57.805  22.979  19.255  1.00  0.00     0.222 C 
ENDROOT
BRANCH   1   2
HETATM    2  N1  UNL     1      57.751  21.754  18.535  1.00  0.00    -0.369 N 
ATOM      3  H1  UNL     1      57.216  20.959  18.886  1.00  0.00     0.158 HD
BRANCH   2   4
HETATM    4  C5  UNL     1      58.465  21.674  17.314  1.00  0.00     0.256 C 
BRANCH   4   5
HETATM    5  C4  UNL     1      57.425  21.742  16.208  1.00  0.00     0.033 A 
HETATM    6  S1  UNL     1      56.203  20.647  15.813  1.00  0.00    -0.083 SA
HETATM    7  C3  UNL     1      55.503  21.476  14.465  1.00  0.00     0.090 A 
HETATM    8  C17 UNL     1      56.269  22.608  14.368  1.00  0.00     0.058 A 
HETATM    9  C16 UNL     1      57.269  22.737  15.283  1.00  0.00     0.050 A 
BRANCH   7  10
HETATM   10  C2  UNL     1      54.369  20.999  13.682  1.00  0.00     0.197 C 
BRANCH  10  11
HETATM   11  O1  UNL     1      54.334  19.807  13.027  1.00  0.00    -0.335 OA
HETATM   12  C1  UNL     1      53.179  19.449  12.283  1.00  0.00     0.212 C 
ENDBRANCH  10  11
BRANCH  10  13
HETATM   13  O2  UNL     1      53.339  21.792  13.630  1.00  0.00    -0.340 OA
ATOM     14  H2  UNL     1      52.989  22.160  14.433  1.00  0.00     0.220 HD
ENDBRANCH  10  13
ENDBRANCH   7  10
BRANCH   8  15
HETATM   15  N4  UNL     1      56.009  23.604  13.340  1.00  0.00    -0.326 N 
HETATM   16  C18 UNL     1      55.496  24.885  13.510  1.00  0.00     0.218 C 
HETATM   17  C19 UNL     1      55.310  25.749  12.295  1.00  0.00     0.117 C 
HETATM   18  O14 UNL     1      55.176  25.379  14.591  1.00  0.00    -0.274 OA
ATOM     19  H4  UNL     1      56.229  23.331  12.383  1.00  0.00     0.169 HD
ENDBRANCH   8  15
ENDBRANCH   4   5
BRANCH   4  20
HETATM   20  O3  UNL     1      59.193  20.508  17.119  1.00  0.00    -0.372 OA
ATOM     21  H3  UNL     1      58.671  19.791  17.460  1.00  0.00     0.212 HD
ENDBRANCH   4  20
ENDBRANCH   2   4
ENDBRANCH   1   2
BRANCH   1  22
HETATM   22  N2  UNL     1      56.594  23.346  19.945  1.00  0.00    -0.333 N 
HETATM   23  C7  UNL     1      55.359  23.582  19.280  1.00  0.00     0.259 C 
HETATM   24  O4  UNL     1      55.359  23.455  18.021  1.00  0.00    -0.267 OA
ATOM     25  H2  UNL     1      56.624  23.440  20.961  1.00  0.00     0.165 HD
BRANCH  23  26
HETATM   26  C8  UNL     1      54.151  23.947  19.949  1.00  0.00     0.107 C 
HETATM   27  C9  UNL     1      53.399  24.990  19.442  1.00  0.00     0.167 C 
HETATM   28  O5  UNL     1      52.219  25.421  19.802  1.00  0.00    -0.285 OA
HETATM   29  C10 UNL     1      51.572  25.239  20.915  1.00  0.00     0.324 C 
HETATM   30  O6  UNL     1      50.421  25.753  20.994  1.00  0.00    -0.257 OA
HETATM   31  C11 UNL     1      51.966  24.550  22.052  1.00  0.00     0.215 C 
HETATM   32  C12 UNL     1      52.918  23.544  22.081  1.00  0.00     0.157 C 
HETATM   33  C13 UNL     1      53.827  23.205  21.078  1.00  0.00     0.225 C 
HETATM   34  O10 UNL     1      54.427  22.103  21.206  1.00  0.00    -0.284 OA
BRANCH  31  35
HETATM   35  N3  UNL     1      51.353  24.901  23.276  1.00  0.00    -0.106 N 
HETATM   36  O7  UNL     1      51.845  25.805  23.966  1.00  0.00    -0.531 OA
HETATM   37  O8  UNL     1      50.229  24.265  23.716  1.00  0.00    -0.531 OA
ENDBRANCH  31  35
BRANCH  32  38
HETATM   38  O9  UNL     1      52.966  22.798  23.231  1.00  0.00    -0.355 OA
ATOM     39  H9  UNL     1      53.824  22.478  23.482  1.00  0.00     0.218 HD
ENDBRANCH  32  38
ENDBRANCH  23  26
ENDBRANCH   1  22
BRANCH   1  40
HETATM   40  C14 UNL     1      59.028  23.096  20.143  1.00  0.00     0.260 C 
BRANCH  40  41
HETATM   41  O11 UNL     1      59.571  24.378  20.089  1.00  0.00    -0.381 OA
ATOM     42  H11 UNL     1      60.478  24.356  19.808  1.00  0.00     0.210 HD
ENDBRANCH  40  41
BRANCH  40  43
HETATM   43  C15 UNL     1      58.732  22.772  21.547  1.00  0.00     0.206 C 
HETATM   44  O12 UNL     1      58.048  21.772  21.845  1.00  0.00    -0.646 OA
HETATM   45  O13 UNL     1      59.206  23.572  22.564  1.00  0.00    -0.646 OA
ENDBRANCH  40  43
ENDBRANCH   1  40
TORSDOF 15
ENDMDL
MODEL 2
REMARK VINA RESULT: -7.897931881      2.133      3.165
REMARK  15 active torsions:
REMARK  status: ('A' for Active; 'I' for Inactive)
REMARK    1  A    between atoms: O1_2  and  C2_3 
REMARK    2  A    between atoms: C2_3  and  O2_4 
REMARK    3  A    between atoms: C2_3  and  C3_6 
REMARK    4  A    between atoms: C4_8  and  C5_9 
REMARK    5  A    between atoms: C5_9  and  O3_10 
REMARK    6  A    between atoms: C5_9  and  N1_12 
REMARK    7  A    between atoms: N1_12  and  C6_14 
REMARK    8  A    between atoms: C6_14  and  N2_15 
REMARK    9  A    between atoms: C6_14  and  C14_33 
REMARK       I    between atoms: N2_15  and  C7_17 
REMARK   10  A    between atoms: C7_17  and  C8_19 
REMARK   11  A    between atoms: C11_24  and  N3_25 
REMARK   12  A    between atoms: C12_28  and  O9_29 
REMARK   13  A    between atoms: C14_33  and  O11_34 
REMARK   14  A    between atoms: C14_33  and  C15_36 
REMARK   15  A    between atoms: C17_40  and  N4_41 
REMARK       I    between atoms: N4_41  and  C18_43 
ROOT
HETATM    1  C6  UNL     1      57.418  22.506  18.553  1.00  0.00     0.222 C 
ENDROOT
BRANCH   1   2
HETATM    2  N1  UNL     1      57.231  21.304  17.815  1.00  0.00    -0.369 N 
ATOM      3  H1  UNL     1      57.001  20.428  18.284  1.00  0.00     0.158 HD
BRANCH   2   4
HETATM    4  C5  UNL     1      57.374  21.366  16.407  1.00  0.00     0.256 C 
BRANCH   4   5
HETATM    5  C4  UNL     1      56.143  20.694  15.824  1.00  0.00     0.033 A 
HETATM    6  S1  UNL     1      55.715  20.445  14.211  1.00  0.00    -0.083 SA
HETATM    7  C3  UNL     1      54.204  19.633  14.438  1.00  0.00     0.090 A 
HETATM    8  C17 UNL     1      54.084  19.584  15.802  1.00  0.00     0.058 A 
HETATM    9  C16 UNL     1      55.101  20.140  16.516  1.00  0.00     0.050 A 
BRANCH   7  10
HETATM   10  C2  UNL     1      53.338  19.154  13.368  1.00  0.00     0.197 C 
BRANCH  10  11
HETATM   11  O1  UNL     1      53.483  19.485  12.056  1.00  0.00    -0.335 OA
HETATM   12  C1  UNL     1      52.487  19.098  11.121  1.00  0.00     0.212 C 
ENDBRANCH  10  11
BRANCH  10  13
HETATM   13  O2  UNL     1      52.374  18.358  13.728  1.00  0.00    -0.340 OA
ATOM     14  H2  UNL     1      52.549  17.660  14.349  1.00  0.00     0.220 HD
ENDBRANCH  10  13
ENDBRANCH   7  10
BRANCH   8  15
HETATM   15  N4  UNL     1      52.927  18.965  16.432  1.00  0.00    -0.326 N 
HETATM   16  C18 UNL     1      52.910  17.864  17.281  1.00  0.00     0.218 C 
HETATM   17  C19 UNL     1      51.589  17.394  17.818  1.00  0.00     0.117 C 
HETATM   18  O14 UNL     1      53.906  17.232  17.636  1.00  0.00    -0.274 OA
ATOM     19  H4  UNL     1      52.023  19.388  16.226  1.00  0.00     0.169 HD
ENDBRANCH   8  15
ENDBRANCH   4   5
BRANCH   4  20
HETATM   20  O3  UNL     1      58.483  20.709  15.887  1.00  0.00    -0.372 OA
ATOM     21  H3  UNL     1      58.907  20.262  16.610  1.00  0.00     0.212 HD
ENDBRANCH   4  20
ENDBRANCH   2   4
ENDBRANCH   1   2
BRANCH   1  22
HETATM   22  N2  UNL     1      56.302  22.911  19.370  1.00  0.00    -0.333 N 
HETATM   23  C7  UNL     1      55.096  23.442  18.834  1.00  0.00     0.259 C 
HETATM   24  O4  UNL     1      55.034  23.549  17.574  1.00  0.00    -0.267 OA
ATOM     25  H2  UNL     1      56.381  22.812  20.382  1.00  0.00     0.165 HD
BRANCH  23  26
HETATM   26  C8  UNL     1      53.982  23.849  19.629  1.00  0.00     0.107 C 
HETATM   27  C9  UNL     1      53.209  24.911  19.197  1.00  0.00     0.167 C 
HETATM   28  O5  UNL     1      52.091  25.381  19.682  1.00  0.00    -0.285 OA
HETATM   29  C10 UNL     1      51.566  25.227  20.862  1.00  0.00     0.324 C 
HETATM   30  O6  UNL     1      50.448  25.778  21.063  1.00  0.00    -0.257 OA
HETATM   31  C11 UNL     1      52.065  24.536  21.955  1.00  0.00     0.215 C 
HETATM   32  C12 UNL     1      52.983  23.501  21.889  1.00  0.00     0.157 C 
HETATM   33  C13 UNL     1      53.764  23.126  20.795  1.00  0.00     0.225 C 
HETATM   34  O10 UNL     1      54.342  22.007  20.867  1.00  0.00    -0.284 OA
BRANCH  31  35
HETATM   35  N3  UNL     1      51.603  24.914  23.237  1.00  0.00    -0.106 N 
HETATM   36  O7  UNL     1      52.183  25.822  23.848  1.00  0.00    -0.531 OA
HETATM   37  O8  UNL     1      50.531  24.302  23.815  1.00  0.00    -0.531 OA
ENDBRANCH  31  35
BRANCH  32  38
HETATM   38  O9  UNL     1      53.138  22.762  23.035  1.00  0.00    -0.355 OA
ATOM     39  H9  UNL     1      53.867  22.154  23.041  1.00  0.00     0.218 HD
ENDBRANCH  32  38
ENDBRANCH  23  26
ENDBRANCH   1  22
BRANCH   1  40
HETATM   40  C14 UNL     1      58.728  22.540  19.315  1.00  0.00     0.260 C 
BRANCH  40  41
HETATM   41  O11 UNL     1      59.084  23.845  19.650  1.00  0.00    -0.381 OA
ATOM     42  H11 UNL     1      59.858  24.123  19.176  1.00  0.00     0.210 HD
ENDBRANCH  40  41
BRANCH  40  43
HETATM   43  C15 UNL     1      58.678  21.738  20.548  1.00  0.00     0.206 C 
HETATM   44  O12 UNL     1      57.924  20.748  20.640  1.00  0.00    -0.646 OA
HETATM   45  O13 UNL     1      59.468  22.067  21.628  1.00  0.00    -0.646 OA
ENDBRANCH  40  43
ENDBRANCH   1  40
TORSDOF 15
ENDMDL
MODEL 3
REMARK VINA RESULT: -7.792094962      2.272      3.735
REMARK  15 active torsions:
REMARK  status: ('A' for Active; 'I' for Inactive)
REMARK    1  A    between atoms: O1_2  and  C2_3 
REMARK    2  A    between atoms: C2_3  and  O2_4 
REMARK    3  A    between atoms: C2_3  and  C3_6 
REMARK    4  A    between atoms: C4_8  and  C5_9 
REMARK    5  A    between atoms: C5_9  and  O3_10 
REMARK    6  A    between atoms: C5_9  and  N1_12 
REMARK    7  A    between atoms: N1_12  and  C6_14 
REMARK    8  A    between atoms: C6_14  and  N2_15 
REMARK    9  A    between atoms: C6_14  and  C14_33 
REMARK       I    between atoms: N2_15  and  C7_17 
REMARK   10  A    between atoms: C7_17  and  C8_19 
REMARK   11  A    between atoms: C11_24  and  N3_25 
REMARK   12  A    between atoms: C12_28  and  O9_29 
REMARK   13  A    between atoms: C14_33  and  O11_34 
REMARK   14  A    between atoms: C14_33  and  C15_36 
REMARK   15  A    between atoms: C17_40  and  N4_41 
REMARK       I    between atoms: N4_41  and  C18_43 
ROOT
HETATM    1  C6  UNL     1      57.784  22.298  17.403  1.00  0.00     0.222 C 
ENDROOT
BRANCH   1   2
HETATM    2  N1  UNL     1      57.428  21.093  16.736  1.00  0.00    -0.369 N 
ATOM      3  H1  UNL     1      57.151  20.262  17.261  1.00  0.00     0.158 HD
BRANCH   2   4
HETATM    4  C5  UNL     1      57.470  21.085  15.320  1.00  0.00     0.256 C 
BRANCH   4   5
HETATM    5  C4  UNL     1      56.148  20.495  14.859  1.00  0.00     0.033 A 
HETATM    6  S1  UNL     1      55.601  20.176  13.295  1.00  0.00    -0.083 SA
HETATM    7  C3  UNL     1      54.038  19.532  13.665  1.00  0.00     0.090 A 
HETATM    8  C17 UNL     1      53.998  19.590  15.034  1.00  0.00     0.058 A 
HETATM    9  C16 UNL     1      55.104  20.095  15.647  1.00  0.00     0.050 A 
BRANCH   7  10
HETATM   10  C2  UNL     1      53.067  19.065  12.684  1.00  0.00     0.197 C 
BRANCH  10  11
HETATM   11  O1  UNL     1      53.196  19.224  11.339  1.00  0.00    -0.335 OA
HETATM   12  C1  UNL     1      52.125  18.857  10.482  1.00  0.00     0.212 C 
ENDBRANCH  10  11
BRANCH  10  13
HETATM   13  O2  UNL     1      52.020  18.458  13.161  1.00  0.00    -0.340 OA
ATOM     14  H2  UNL     1      51.697  18.688  14.025  1.00  0.00     0.220 HD
ENDBRANCH  10  13
ENDBRANCH   7  10
BRANCH   8  15
HETATM   15  N4  UNL     1      52.831  19.132  15.771  1.00  0.00    -0.326 N 
HETATM   16  C18 UNL     1      52.751  18.062  16.655  1.00  0.00     0.218 C 
HETATM   17  C19 UNL     1      51.430  17.769  17.308  1.00  0.00     0.117 C 
HETATM   18  O14 UNL     1      53.689  17.322  16.953  1.00  0.00    -0.274 OA
ATOM     19  H4  UNL     1      51.969  19.657  15.622  1.00  0.00     0.169 HD
ENDBRANCH   8  15
ENDBRANCH   4   5
BRANCH   4  20
HETATM   20  O3  UNL     1      58.480  20.316  14.754  1.00  0.00    -0.372 OA
ATOM     21  H3  UNL     1      58.689  19.628  15.375  1.00  0.00     0.212 HD
ENDBRANCH   4  20
ENDBRANCH   2   4
ENDBRANCH   1   2
BRANCH   1  22
HETATM   22  N2  UNL     1      56.907  22.696  18.474  1.00  0.00    -0.333 N 
HETATM   23  C7  UNL     1      55.567  23.126  18.265  1.00  0.00     0.259 C 
HETATM   24  O4  UNL     1      55.157  23.148  17.068  1.00  0.00    -0.267 OA
ATOM     25  H2  UNL     1      57.264  22.668  19.430  1.00  0.00     0.165 HD
BRANCH  23  26
HETATM   26  C8  UNL     1      54.685  23.524  19.315  1.00  0.00     0.107 C 
HETATM   27  C9  UNL     1      54.467  22.654  20.367  1.00  0.00     0.167 C 
HETATM   28  O5  UNL     1      53.810  22.838  21.481  1.00  0.00    -0.285 OA
HETATM   29  C10 UNL     1      52.911  23.729  21.779  1.00  0.00     0.324 C 
HETATM   30  O6  UNL     1      52.448  23.698  22.953  1.00  0.00    -0.257 OA
HETATM   31  C11 UNL     1      52.374  24.727  20.981  1.00  0.00     0.215 C 
HETATM   32  C12 UNL     1      52.992  25.273  19.869  1.00  0.00     0.157 C 
HETATM   33  C13 UNL     1      54.108  24.782  19.189  1.00  0.00     0.225 C 
HETATM   34  O10 UNL     1      54.659  25.561  18.364  1.00  0.00    -0.284 OA
BRANCH  31  35
HETATM   35  N3  UNL     1      51.098  25.227  21.327  1.00  0.00    -0.106 N 
HETATM   36  O7  UNL     1      50.971  25.914  22.350  1.00  0.00    -0.531 OA
HETATM   37  O8  UNL     1      50.002  24.971  20.557  1.00  0.00    -0.531 OA
ENDBRANCH  31  35
BRANCH  32  38
HETATM   38  O9  UNL     1      52.439  26.430  19.383  1.00  0.00    -0.355 OA
ATOM     39  H9  UNL     1      51.788  26.325  18.700  1.00  0.00     0.218 HD
ENDBRANCH  32  38
ENDBRANCH  23  26
ENDBRANCH   1  22
BRANCH   1  40
HETATM   40  C14 UNL     1      59.243  22.346  17.810  1.00  0.00     0.260 C 
BRANCH  40  41
HETATM   41  O11 UNL     1      59.951  23.271  17.045  1.00  0.00    -0.381 OA
ATOM     42  H11 UNL     1      59.567  24.138  17.111  1.00  0.00     0.210 HD
ENDBRANCH  40  41
BRANCH  40  43
HETATM   43  C15 UNL     1      59.416  22.685  19.231  1.00  0.00     0.206 C 
HETATM   44  O12 UNL     1      59.664  21.801  20.077  1.00  0.00    -0.646 OA
HETATM   45  O13 UNL     1      59.305  23.991  19.657  1.00  0.00    -0.646 OA
ENDBRANCH  40  43
ENDBRANCH   1  40
TORSDOF 15
ENDMDL
MODEL 4
REMARK VINA RESULT: -7.704054101      2.708      8.988
REMARK  15 active torsions:
REMARK  status: ('A' for Active; 'I' for Inactive)
REMARK    1  A    between atoms: O1_2  and  C2_3 
REMARK    2  A    between atoms: C2_3  and  O2_4 
REMARK    3  A    between atoms: C2_3  and  C3_6 
REMARK    4  A    between atoms: C4_8  and  C5_9 
REMARK    5  A    between atoms: C5_9  and  O3_10 
REMARK    6  A    between atoms: C5_9  and  N1_12 
REMARK    7  A    between atoms: N1_12  and  C6_14 
REMARK    8  A    between atoms: C6_14  and  N2_15 
REMARK    9  A    between atoms: C6_14  and  C14_33 
REMARK       I    between atoms: N2_15  and  C7_17 
REMARK   10  A    between atoms: C7_17  and  C8_19 
REMARK   11  A    between atoms: C11_24  and  N3_25 
REMARK   12  A    between atoms: C12_28  and  O9_29 
REMARK   13  A    between atoms: C14_33  and  O11_34 
REMARK   14  A    between atoms: C14_33  and  C15_36 
REMARK   15  A    between atoms: C17_40  and  N4_41 
REMARK       I    between atoms: N4_41  and  C18_43 
ROOT
HETATM    1  C6  UNL     1      55.355  20.930  14.103  1.00  0.00     0.222 C 
ENDROOT
BRANCH   1   2
HETATM    2  N1  UNL     1      55.877  20.365  15.300  1.00  0.00    -0.369 N 
ATOM      3  H1  UNL     1      56.810  19.955  15.327  1.00  0.00     0.158 HD
BRANCH   2   4
HETATM    4  C5  UNL     1      55.055  20.391  16.454  1.00  0.00     0.256 C 
BRANCH   4   5
HETATM    5  C4  UNL     1      55.873  21.062  17.544  1.00  0.00     0.033 A 
HETATM    6  S1  UNL     1      57.381  21.814  17.447  1.00  0.00    -0.083 SA
HETATM    7  C3  UNL     1      57.569  22.290  19.100  1.00  0.00     0.090 A 
HETATM    8  C17 UNL     1      56.418  21.832  19.685  1.00  0.00     0.058 A 
HETATM    9  C16 UNL     1      55.540  21.193  18.864  1.00  0.00     0.050 A 
BRANCH   7  10
HETATM   10  C2  UNL     1      58.718  23.004  19.643  1.00  0.00     0.197 C 
BRANCH  10  11
HETATM   11  O1  UNL     1      58.934  23.216  20.970  1.00  0.00    -0.335 OA
HETATM   12  C1  UNL     1      59.775  22.331  21.694  1.00  0.00     0.212 C 
ENDBRANCH  10  11
BRANCH  10  13
HETATM   13  O2  UNL     1      59.574  23.453  18.773  1.00  0.00    -0.340 OA
ATOM     14  H2  UNL     1      60.480  23.582  19.029  1.00  0.00     0.220 HD
ENDBRANCH  10  13
ENDBRANCH   7  10
BRANCH   8  15
HETATM   15  N4  UNL     1      56.166  22.030  21.104  1.00  0.00    -0.326 N 
HETATM   16  C18 UNL     1      55.331  22.972  21.695  1.00  0.00     0.218 C 
HETATM   17  C19 UNL     1      55.224  22.994  23.193  1.00  0.00     0.117 C 
HETATM   18  O14 UNL     1      54.661  23.803  21.082  1.00  0.00    -0.274 OA
ATOM     19  H4  UNL     1      56.661  21.405  21.740  1.00  0.00     0.169 HD
ENDBRANCH   8  15
ENDBRANCH   4   5
BRANCH   4  20
HETATM   20  O3  UNL     1      54.665  19.149  16.941  1.00  0.00    -0.372 OA
ATOM     21  H3  UNL     1      55.050  19.054  17.805  1.00  0.00     0.212 HD
ENDBRANCH   4  20
ENDBRANCH   2   4
ENDBRANCH   1   2
BRANCH   1  22
HETATM   22  N2  UNL     1      55.987  22.150  13.668  1.00  0.00    -0.333 N 
HETATM   23  C7  UNL     1      55.303  23.394  13.580  1.00  0.00     0.259 C 
HETATM   24  O4  UNL     1      54.081  23.394  13.908  1.00  0.00    -0.267 OA
ATOM     25  H2  UNL     1      56.975  22.119  13.411  1.00  0.00     0.165 HD
BRANCH  23  26
HETATM   26  C8  UNL     1      55.914  24.610  13.150  1.00  0.00     0.107 C 
HETATM   27  C9  UNL     1      55.269  25.379  12.198  1.00  0.00     0.167 C 
HETATM   28  O5  UNL     1      55.567  26.567  11.743  1.00  0.00    -0.285 OA
HETATM   29  C10 UNL     1      56.693  27.216  11.785  1.00  0.00     0.324 C 
HETATM   30  O6  UNL     1      56.699  28.375  11.285  1.00  0.00    -0.257 OA
HETATM   31  C11 UNL     1      57.913  26.814  12.306  1.00  0.00     0.215 C 
HETATM   32  C12 UNL     1      58.079  25.846  13.282  1.00  0.00     0.157 C 
HETATM   33  C13 UNL     1      57.133  24.926  13.737  1.00  0.00     0.225 C 
HETATM   34  O10 UNL     1      57.409  24.308  14.801  1.00  0.00    -0.284 OA
BRANCH  31  35
HETATM   35  N3  UNL     1      59.078  27.438  11.804  1.00  0.00    -0.106 N 
HETATM   36  O7  UNL     1      59.681  26.924  10.852  1.00  0.00    -0.531 OA
HETATM   37  O8  UNL     1      59.552  28.597  12.345  1.00  0.00    -0.531 OA
ENDBRANCH  31  35
BRANCH  32  38
HETATM   38  O9  UNL     1      59.319  25.789  13.865  1.00  0.00    -0.355 OA
ATOM     39  H9  UNL     1      59.885  26.535  13.711  1.00  0.00     0.218 HD
ENDBRANCH  32  38
ENDBRANCH  23  26
ENDBRANCH   1  22
BRANCH   1  40
HETATM   40  C14 UNL     1      55.218  19.923  12.979  1.00  0.00     0.260 C 
BRANCH  40  41
HETATM   41  O11 UNL     1      56.327  19.083  12.915  1.00  0.00    -0.381 OA
ATOM     42  H11 UNL     1      57.136  19.580  12.908  1.00  0.00     0.210 HD
ENDBRANCH  40  41
BRANCH  40  43
HETATM   43  C15 UNL     1      54.010  19.094  13.117  1.00  0.00     0.206 C 
HETATM   44  O12 UNL     1      53.864  18.329  14.092  1.00  0.00    -0.646 OA
HETATM   45  O13 UNL     1      53.014  19.147  12.167  1.00  0.00    -0.646 OA
ENDBRANCH  40  43
ENDBRANCH   1  40
TORSDOF 15
ENDMDL
MODEL 5
REMARK VINA RESULT: -7.584331099      2.054      2.665
REMARK  15 active torsions:
REMARK  status: ('A' for Active; 'I' for Inactive)
REMARK    1  A    between atoms: O1_2  and  C2_3 
REMARK    2  A    between atoms: C2_3  and  O2_4 
REMARK    3  A    between atoms: C2_3  and  C3_6 
REMARK    4  A    between atoms: C4_8  and  C5_9 
REMARK    5  A    between atoms: C5_9  and  O3_10 
REMARK    6  A    between atoms: C5_9  and  N1_12 
REMARK    7  A    between atoms: N1_12  and  C6_14 
REMARK    8  A    between atoms: C6_14  and  N2_15 
REMARK    9  A    between atoms: C6_14  and  C14_33 
REMARK       I    between atoms: N2_15  and  C7_17 
REMARK   10  A    between atoms: C7_17  and  C8_19 
REMARK   11  A    between atoms: C11_24  and  N3_25 
REMARK   12  A    between atoms: C12_28  and  O9_29 
REMARK   13  A    between atoms: C14_33  and  O11_34 
REMARK   14  A    between atoms: C14_33  and  C15_36 
REMARK   15  A    between atoms: C17_40  and  N4_41 
REMARK       I    between atoms: N4_41  and  C18_43 
ROOT
HETATM    1  C6  UNL     1      57.678  22.812  19.192  1.00  0.00     0.222 C 
ENDROOT
BRANCH   1   2
HETATM    2  N1  UNL     1      57.637  21.534  18.567  1.00  0.00    -0.369 N 
ATOM      3  H1  UNL     1      57.649  20.676  19.118  1.00  0.00     0.158 HD
BRANCH   2   4
HETATM    4  C5  UNL     1      57.579  21.495  17.152  1.00  0.00     0.256 C 
BRANCH   4   5
HETATM    5  C4  UNL     1      56.324  20.715  16.799  1.00  0.00     0.033 A 
HETATM    6  S1  UNL     1      55.166  20.026  17.815  1.00  0.00    -0.083 SA
HETATM    7  C3  UNL     1      54.110  19.347  16.625  1.00  0.00     0.090 A 
HETATM    8  C17 UNL     1      54.715  19.691  15.444  1.00  0.00     0.058 A 
HETATM    9  C16 UNL     1      55.871  20.405  15.547  1.00  0.00     0.050 A 
BRANCH   7  10
HETATM   10  C2  UNL     1      52.890  18.602  16.910  1.00  0.00     0.197 C 
BRANCH  10  11
HETATM   11  O1  UNL     1      52.721  17.786  17.985  1.00  0.00    -0.335 OA
HETATM   12  C1  UNL     1      51.463  17.739  18.641  1.00  0.00     0.212 C 
ENDBRANCH  10  11
BRANCH  10  13
HETATM   13  O2  UNL     1      51.917  18.753  16.059  1.00  0.00    -0.340 OA
ATOM     14  H2  UNL     1      51.630  18.013  15.538  1.00  0.00     0.220 HD
ENDBRANCH  10  13
ENDBRANCH   7  10
BRANCH   8  15
HETATM   15  N4  UNL     1      54.139  19.307  14.165  1.00  0.00    -0.326 N 
HETATM   16  C18 UNL     1      53.456  20.117  13.264  1.00  0.00     0.218 C 
HETATM   17  C19 UNL     1      52.944  19.502  11.993  1.00  0.00     0.117 C 
HETATM   18  O14 UNL     1      53.233  21.317  13.425  1.00  0.00    -0.274 OA
ATOM     19  H4  UNL     1      54.248  18.329  13.897  1.00  0.00     0.169 HD
ENDBRANCH   8  15
ENDBRANCH   4   5
BRANCH   4  20
HETATM   20  O3  UNL     1      58.645  20.861  16.525  1.00  0.00    -0.372 OA
ATOM     21  H3  UNL     1      58.550  19.929  16.686  1.00  0.00     0.212 HD
ENDBRANCH   4  20
ENDBRANCH   2   4
ENDBRANCH   1   2
BRANCH   1  22
HETATM   22  N2  UNL     1      56.485  23.189  19.908  1.00  0.00    -0.333 N 
HETATM   23  C7  UNL     1      55.289  23.609  19.262  1.00  0.00     0.259 C 
HETATM   24  O4  UNL     1      55.308  23.641  17.997  1.00  0.00    -0.267 OA
ATOM     25  H2  UNL     1      56.499  23.152  20.928  1.00  0.00     0.165 HD
BRANCH  23  26
HETATM   26  C8  UNL     1      54.100  23.987  19.956  1.00  0.00     0.107 C 
HETATM   27  C9  UNL     1      53.368  25.061  19.485  1.00  0.00     0.167 C 
HETATM   28  O5  UNL     1      52.204  25.512  19.872  1.00  0.00    -0.285 OA
HETATM   29  C10 UNL     1      51.567  25.319  20.989  1.00  0.00     0.324 C 
HETATM   30  O6  UNL     1      50.431  25.860  21.096  1.00  0.00    -0.257 OA
HETATM   31  C11 UNL     1      51.958  24.592  22.102  1.00  0.00     0.215 C 
HETATM   32  C12 UNL     1      52.884  23.562  22.093  1.00  0.00     0.157 C 
HETATM   33  C13 UNL     1      53.771  23.225  21.070  1.00  0.00     0.225 C 
HETATM   34  O10 UNL     1      54.345  22.105  21.162  1.00  0.00    -0.284 OA
BRANCH  31  35
HETATM   35  N3  UNL     1      51.370  24.926  23.343  1.00  0.00    -0.106 N 
HETATM   36  O7  UNL     1      51.879  25.817  24.037  1.00  0.00    -0.531 OA
HETATM   37  O8  UNL     1      50.251  24.290  23.794  1.00  0.00    -0.531 OA
ENDBRANCH  31  35
BRANCH  32  38
HETATM   38  O9  UNL     1      52.928  22.785  23.223  1.00  0.00    -0.355 OA
ATOM     39  H9  UNL     1      53.720  22.276  23.346  1.00  0.00     0.218 HD
ENDBRANCH  32  38
ENDBRANCH  23  26
ENDBRANCH   1  22
BRANCH   1  40
HETATM   40  C14 UNL     1      58.932  23.034  20.013  1.00  0.00     0.260 C 
BRANCH  40  41
HETATM   41  O11 UNL     1      59.356  24.359  19.940  1.00  0.00    -0.381 OA
ATOM     42  H11 UNL     1      60.196  24.428  19.501  1.00  0.00     0.210 HD
ENDBRANCH  40  41
BRANCH  40  43
HETATM   43  C15 UNL     1      58.743  22.681  21.430  1.00  0.00     0.206 C 
HETATM   44  O12 UNL     1      58.132  21.644  21.757  1.00  0.00    -0.646 OA
HETATM   45  O13 UNL     1      59.240  23.495  22.424  1.00  0.00    -0.646 OA
ENDBRANCH  40  43
ENDBRANCH   1  40
TORSDOF 15
ENDMDL
