MODEL 1
REMARK VINA RESULT: -11.067918269      0.000      0.000
REMARK  13 active torsions:
REMARK  status: ('A' for Active; 'I' for Inactive)
REMARK       I    between atoms: N1_1  and  C1_5 
REMARK       I    between atoms: C1_5  and  N2_6 
REMARK       I    between atoms: C1_5  and  N5_33 
REMARK       I    between atoms: N2_6  and  C2_8 
REMARK    1  A    between atoms: C2_8  and  C3_10 
REMARK    2  A    between atoms: C3_10  and  O2_11 
REMARK    3  A    between atoms: C3_10  and  C4_13 
REMARK    4  A    between atoms: C3_10  and  N3_21 
REMARK    5  A    between atoms: C8_17  and  O3_18 
REMARK    6  A    between atoms: C11_23  and  O4_24 
REMARK    7  A    between atoms: C13_28  and  N4_29 
REMARK    8  A    between atoms: N5_33  and  C15_35 
REMARK    9  A    between atoms: C15_35  and  C16_36 
REMARK   10  A    between atoms: C15_35  and  C23_46 
REMARK   11  A    between atoms: C16_36  and  C17_37 
REMARK   12  A    between atoms: C20_40  and  N6_41 
REMARK       I    between atoms: C23_46  and  N7_48 
REMARK   13  A    between atoms: N7_48  and  O11_50 
ROOT
HETATM    1  N1  UNL     1      53.161  17.455  17.363  1.00  0.00    -0.041 N 
ATOM      2  H11 UNL     1      52.631  16.584  17.342  1.00  0.00     0.279 HD
ATOM      3  H12 UNL     1      54.175  17.340  17.368  1.00  0.00     0.279 HD
ATOM      4  H13 UNL     1      53.127  18.000  16.502  1.00  0.00     0.279 HD
HETATM    5  C1  UNL     1      52.618  18.125  18.532  1.00  0.00     0.385 C 
HETATM    6  N2  UNL     1      53.390  19.395  18.563  1.00  0.00    -0.313 N 
ATOM      7  H2  UNL     1      53.192  20.112  17.866  1.00  0.00     0.166 HD
HETATM    8  C2  UNL     1      54.385  19.637  19.523  1.00  0.00     0.282 C 
HETATM    9  O1  UNL     1      54.606  18.731  20.372  1.00  0.00    -0.267 OA
HETATM   10  N5  UNL     1      51.294  18.428  18.628  1.00  0.00    -0.367 N 
ATOM     11  H5  UNL     1      51.085  19.384  18.918  1.00  0.00     0.157 HD
ENDROOT
BRANCH   8  12
HETATM   12  C3  UNL     1      55.185  20.864  19.613  1.00  0.00     0.250 C 
BRANCH  12  13
HETATM   13  O2  UNL     1      56.222  20.667  20.516  1.00  0.00    -0.359 OA
ATOM     14  H2  UNL     1      56.564  21.511  20.788  1.00  0.00     0.213 HD
ENDBRANCH  12  13
BRANCH  12  15
HETATM   15  C4  UNL     1      54.472  22.079  20.006  1.00  0.00     0.009 A 
HETATM   16  C5  UNL     1      54.050  23.079  19.171  1.00  0.00     0.013 A 
HETATM   17  C6  UNL     1      53.407  24.166  19.700  1.00  0.00     0.003 A 
HETATM   18  C7  UNL     1      53.161  24.305  21.055  1.00  0.00     0.036 A 
HETATM   19  C8  UNL     1      53.585  23.301  21.897  1.00  0.00     0.066 A 
HETATM   20  C9  UNL     1      54.229  22.208  21.385  1.00  0.00     0.049 A 
BRANCH  19  21
HETATM   21  O3  UNL     1      53.337  23.438  23.265  1.00  0.00    -0.361 OA
ATOM     22  H3  UNL     1      52.634  22.926  23.647  1.00  0.00     0.217 HD
ENDBRANCH  19  21
ENDBRANCH  12  15
BRANCH  12  23
HETATM   23  N3  UNL     1      55.760  21.091  18.299  1.00  0.00    -0.317 N 
HETATM   24  C10 UNL     1      56.782  21.946  18.160  1.00  0.00     0.135 A 
HETATM   25  C11 UNL     1      57.367  22.207  16.930  1.00  0.00     0.134 A 
HETATM   26  C12 UNL     1      56.873  21.553  15.819  1.00  0.00     0.240 A 
HETATM   27  O5  UNL     1      57.350  21.740  14.682  1.00  0.00    -0.283 OA
HETATM   28  C13 UNL     1      55.836  20.681  15.951  1.00  0.00     0.171 A 
HETATM   29  C14 UNL     1      55.292  20.465  17.214  1.00  0.00     0.134 A 
BRANCH  25  30
HETATM   30  O4  UNL     1      58.420  23.098  16.830  1.00  0.00    -0.356 OA
ATOM     31  H4  UNL     1      59.155  22.912  16.258  1.00  0.00     0.218 HD
ENDBRANCH  25  30
BRANCH  28  32
HETATM   32  N4  UNL     1      55.258  19.963  14.873  1.00  0.00    -0.110 N 
HETATM   33  O6  UNL     1      54.066  19.607  14.903  1.00  0.00    -0.532 OA
HETATM   34  O7  UNL     1      55.975  19.634  13.744  1.00  0.00    -0.532 OA
ENDBRANCH  28  32
ENDBRANCH  12  23
ENDBRANCH   8  12
BRANCH  10  35
HETATM   35  C15 UNL     1      50.176  17.617  18.386  1.00  0.00     0.178 C 
BRANCH  35  36
HETATM   36  C16 UNL     1      50.172  16.452  19.331  1.00  0.00     0.073 C 
BRANCH  36  37
HETATM   37  C17 UNL     1      49.343  16.535  20.526  1.00  0.00    -0.056 A 
HETATM   38  C18 UNL     1      49.033  17.688  21.207  1.00  0.00     0.009 A 
HETATM   39  C19 UNL     1      48.272  17.663  22.362  1.00  0.00     0.036 A 
HETATM   40  C20 UNL     1      47.782  16.497  22.901  1.00  0.00     0.102 A 
HETATM   41  C21 UNL     1      48.090  15.326  22.221  1.00  0.00     0.036 A 
HETATM   42  C22 UNL     1      48.843  15.347  21.075  1.00  0.00     0.009 A 
BRANCH  40  43
HETATM   43  N6  UNL     1      46.990  16.485  24.084  1.00  0.00    -0.116 N 
HETATM   44  O8  UNL     1      46.127  15.604  24.252  1.00  0.00    -0.532 OA
HETATM   45  O9  UNL     1      47.166  17.436  25.038  1.00  0.00    -0.532 OA
ENDBRANCH  40  43
ENDBRANCH  36  37
ENDBRANCH  35  36
BRANCH  35  46
HETATM   46  C23 UNL     1      50.108  17.135  16.983  1.00  0.00     0.263 C 
HETATM   47  O10 UNL     1      49.799  15.902  16.814  1.00  0.00    -0.269 OA
HETATM   48  N7  UNL     1      50.345  17.851  15.821  1.00  0.00    -0.236 N 
ATOM     49  H7  UNL     1      49.579  17.879  15.148  1.00  0.00     0.197 HD
BRANCH  48  50
HETATM   50  O11 UNL     1      51.372  18.461  15.501  1.00  0.00    -0.287 OA
ATOM     51  H11 UNL     1      51.534  18.953  14.704  1.00  0.00     0.244 HD
ENDBRANCH  48  50
ENDBRANCH  35  46
ENDBRANCH  10  35
TORSDOF 13
ENDMDL
MODEL 2
REMARK VINA RESULT: -10.842816850      0.819      1.103
REMARK  13 active torsions:
REMARK  status: ('A' for Active; 'I' for Inactive)
REMARK       I    between atoms: N1_1  and  C1_5 
REMARK       I    between atoms: C1_5  and  N2_6 
REMARK       I    between atoms: C1_5  and  N5_33 
REMARK       I    between atoms: N2_6  and  C2_8 
REMARK    1  A    between atoms: C2_8  and  C3_10 
REMARK    2  A    between atoms: C3_10  and  O2_11 
REMARK    3  A    between atoms: C3_10  and  C4_13 
REMARK    4  A    between atoms: C3_10  and  N3_21 
REMARK    5  A    between atoms: C8_17  and  O3_18 
REMARK    6  A    between atoms: C11_23  and  O4_24 
REMARK    7  A    between atoms: C13_28  and  N4_29 
REMARK    8  A    between atoms: N5_33  and  C15_35 
REMARK    9  A    between atoms: C15_35  and  C16_36 
REMARK   10  A    between atoms: C15_35  and  C23_46 
REMARK   11  A    between atoms: C16_36  and  C17_37 
REMARK   12  A    between atoms: C20_40  and  N6_41 
REMARK       I    between atoms: C23_46  and  N7_48 
REMARK   13  A    between atoms: N7_48  and  O11_50 
ROOT
HETATM    1  N1  UNL     1      53.271  17.467  17.307  1.00  0.00    -0.041 N 
ATOM      2  H11 UNL     1      52.717  16.611  17.263  1.00  0.00     0.279 HD
ATOM      3  H12 UNL     1      54.281  17.324  17.333  1.00  0.00     0.279 HD
ATOM      4  H13 UNL     1      53.271  18.022  16.452  1.00  0.00     0.279 HD
HETATM    5  C1  UNL     1      52.720  18.137  18.472  1.00  0.00     0.385 C 
HETATM    6  N2  UNL     1      53.527  19.385  18.536  1.00  0.00    -0.313 N 
ATOM      7  H2  UNL     1      53.363  20.116  17.844  1.00  0.00     0.166 HD
HETATM    8  C2  UNL     1      54.506  19.587  19.521  1.00  0.00     0.282 C 
HETATM    9  O1  UNL     1      54.682  18.665  20.363  1.00  0.00    -0.267 OA
HETATM   10  N5  UNL     1      51.403  18.476  18.543  1.00  0.00    -0.367 N 
ATOM     11  H5  UNL     1      51.215  19.434  18.840  1.00  0.00     0.157 HD
ENDROOT
BRANCH   8  12
HETATM   12  C3  UNL     1      55.338  20.790  19.643  1.00  0.00     0.250 C 
BRANCH  12  13
HETATM   13  O2  UNL     1      56.407  20.521  20.488  1.00  0.00    -0.359 OA
ATOM     14  H2  UNL     1      57.079  21.181  20.360  1.00  0.00     0.213 HD
ENDBRANCH  12  13
BRANCH  12  15
HETATM   15  C4  UNL     1      54.670  21.996  20.134  1.00  0.00     0.009 A 
HETATM   16  C5  UNL     1      54.313  22.256  21.431  1.00  0.00     0.013 A 
HETATM   17  C6  UNL     1      53.675  23.431  21.726  1.00  0.00     0.003 A 
HETATM   18  C7  UNL     1      53.371  24.381  20.766  1.00  0.00     0.036 A 
HETATM   19  C8  UNL     1      53.729  24.122  19.461  1.00  0.00     0.066 A 
HETATM   20  C9  UNL     1      54.366  22.952  19.149  1.00  0.00     0.049 A 
BRANCH  19  21
HETATM   21  O3  UNL     1      53.424  25.079  18.491  1.00  0.00    -0.361 OA
ATOM     22  H3  UNL     1      53.487  24.827  17.577  1.00  0.00     0.217 HD
ENDBRANCH  19  21
ENDBRANCH  12  15
BRANCH  12  23
HETATM   23  N3  UNL     1      55.861  21.079  18.321  1.00  0.00    -0.317 N 
HETATM   24  C10 UNL     1      56.911  21.900  18.187  1.00  0.00     0.135 A 
HETATM   25  C11 UNL     1      57.450  22.217  16.948  1.00  0.00     0.134 A 
HETATM   26  C12 UNL     1      56.878  21.658  15.824  1.00  0.00     0.240 A 
HETATM   27  O5  UNL     1      57.311  21.899  14.679  1.00  0.00    -0.283 OA
HETATM   28  C13 UNL     1      55.811  20.821  15.950  1.00  0.00     0.171 A 
HETATM   29  C14 UNL     1      55.317  20.545  17.222  1.00  0.00     0.134 A 
BRANCH  25  30
HETATM   30  O4  UNL     1      58.535  23.069  16.855  1.00  0.00    -0.356 OA
ATOM     31  H4  UNL     1      59.370  22.751  16.532  1.00  0.00     0.218 HD
ENDBRANCH  25  30
BRANCH  28  32
HETATM   32  N4  UNL     1      55.154  20.199  14.858  1.00  0.00    -0.110 N 
HETATM   33  O6  UNL     1      53.919  20.272  14.725  1.00  0.00    -0.532 OA
HETATM   34  O7  UNL     1      55.842  19.498  13.892  1.00  0.00    -0.532 OA
ENDBRANCH  28  32
ENDBRANCH  12  23
ENDBRANCH   8  12
BRANCH  10  35
HETATM   35  C15 UNL     1      50.269  17.700  18.266  1.00  0.00     0.178 C 
BRANCH  35  36
HETATM   36  C16 UNL     1      50.227  16.508  19.176  1.00  0.00     0.073 C 
BRANCH  36  37
HETATM   37  C17 UNL     1      49.408  16.585  20.378  1.00  0.00    -0.056 A 
HETATM   38  C18 UNL     1      49.096  17.736  21.062  1.00  0.00     0.009 A 
HETATM   39  C19 UNL     1      48.345  17.705  22.223  1.00  0.00     0.036 A 
HETATM   40  C20 UNL     1      47.867  16.536  22.766  1.00  0.00     0.102 A 
HETATM   41  C21 UNL     1      48.177  15.368  22.083  1.00  0.00     0.036 A 
HETATM   42  C22 UNL     1      48.920  15.394  20.931  1.00  0.00     0.009 A 
BRANCH  40  43
HETATM   43  N6  UNL     1      47.085  16.519  23.956  1.00  0.00    -0.116 N 
HETATM   44  O8  UNL     1      46.201  15.656  24.112  1.00  0.00    -0.532 OA
HETATM   45  O9  UNL     1      47.293  17.444  24.928  1.00  0.00    -0.532 OA
ENDBRANCH  40  43
ENDBRANCH  36  37
ENDBRANCH  35  36
BRANCH  35  46
HETATM   46  C23 UNL     1      50.205  17.260  16.849  1.00  0.00     0.263 C 
HETATM   47  O10 UNL     1      49.814  16.057  16.638  1.00  0.00    -0.269 OA
HETATM   48  N7  UNL     1      50.522  17.988  15.714  1.00  0.00    -0.236 N 
ATOM     49  H7  UNL     1      49.778  18.089  15.023  1.00  0.00     0.197 HD
BRANCH  48  50
HETATM   50  O11 UNL     1      51.598  18.531  15.436  1.00  0.00    -0.287 OA
ATOM     51  H11 UNL     1      51.790  19.103  14.702  1.00  0.00     0.244 HD
ENDBRANCH  48  50
ENDBRANCH  35  46
ENDBRANCH  10  35
TORSDOF 13
ENDMDL
MODEL 3
REMARK VINA RESULT: -10.814491453      0.770      1.900
REMARK  13 active torsions:
REMARK  status: ('A' for Active; 'I' for Inactive)
REMARK       I    between atoms: N1_1  and  C1_5 
REMARK       I    between atoms: C1_5  and  N2_6 
REMARK       I    between atoms: C1_5  and  N5_33 
REMARK       I    between atoms: N2_6  and  C2_8 
REMARK    1  A    between atoms: C2_8  and  C3_10 
REMARK    2  A    between atoms: C3_10  and  O2_11 
REMARK    3  A    between atoms: C3_10  and  C4_13 
REMARK    4  A    between atoms: C3_10  and  N3_21 
REMARK    5  A    between atoms: C8_17  and  O3_18 
REMARK    6  A    between atoms: C11_23  and  O4_24 
REMARK    7  A    between atoms: C13_28  and  N4_29 
REMARK    8  A    between atoms: N5_33  and  C15_35 
REMARK    9  A    between atoms: C15_35  and  C16_36 
REMARK   10  A    between atoms: C15_35  and  C23_46 
REMARK   11  A    between atoms: C16_36  and  C17_37 
REMARK   12  A    between atoms: C20_40  and  N6_41 
REMARK       I    between atoms: C23_46  and  N7_48 
REMARK   13  A    between atoms: N7_48  and  O11_50 
ROOT
HETATM    1  N1  UNL     1      53.182  17.331  17.406  1.00  0.00    -0.041 N 
ATOM      2  H11 UNL     1      52.615  16.483  17.411  1.00  0.00     0.279 HD
ATOM      3  H12 UNL     1      54.190  17.172  17.418  1.00  0.00     0.279 HD
ATOM      4  H13 UNL     1      53.173  17.847  16.526  1.00  0.00     0.279 HD
HETATM    5  C1  UNL     1      52.665  18.063  18.548  1.00  0.00     0.385 C 
HETATM    6  N2  UNL     1      53.492  19.298  18.541  1.00  0.00    -0.313 N 
ATOM      7  H2  UNL     1      53.327  19.999  17.819  1.00  0.00     0.166 HD
HETATM    8  C2  UNL     1      54.494  19.529  19.495  1.00  0.00     0.282 C 
HETATM    9  O1  UNL     1      54.673  18.643  20.375  1.00  0.00    -0.267 OA
HETATM   10  N5  UNL     1      51.356  18.426  18.630  1.00  0.00    -0.367 N 
ATOM     11  H5  UNL     1      51.188  19.399  18.887  1.00  0.00     0.157 HD
ENDROOT
BRANCH   8  12
HETATM   12  C3  UNL     1      55.347  20.722  19.547  1.00  0.00     0.250 C 
BRANCH  12  13
HETATM   13  O2  UNL     1      56.354  20.523  20.482  1.00  0.00    -0.359 OA
ATOM     14  H2  UNL     1      55.992  20.084  21.243  1.00  0.00     0.213 HD
ENDBRANCH  12  13
BRANCH  12  15
HETATM   15  C4  UNL     1      54.681  21.986  19.866  1.00  0.00     0.009 A 
HETATM   16  C5  UNL     1      54.418  23.008  18.994  1.00  0.00     0.013 A 
HETATM   17  C6  UNL     1      53.800  24.139  19.455  1.00  0.00     0.003 A 
HETATM   18  C7  UNL     1      53.421  24.300  20.778  1.00  0.00     0.036 A 
HETATM   19  C8  UNL     1      53.684  23.272  21.657  1.00  0.00     0.066 A 
HETATM   20  C9  UNL     1      54.303  22.137  21.212  1.00  0.00     0.049 A 
BRANCH  19  21
HETATM   21  O3  UNL     1      53.303  23.433  22.991  1.00  0.00    -0.361 OA
ATOM     22  H3  UNL     1      52.609  22.879  23.329  1.00  0.00     0.217 HD
ENDBRANCH  19  21
ENDBRANCH  12  15
BRANCH  12  23
HETATM   23  N3  UNL     1      55.960  20.861  18.238  1.00  0.00    -0.317 N 
HETATM   24  C10 UNL     1      55.319  20.406  17.153  1.00  0.00     0.135 A 
HETATM   25  C11 UNL     1      55.858  20.506  15.879  1.00  0.00     0.134 A 
HETATM   26  C12 UNL     1      57.096  21.100  15.737  1.00  0.00     0.240 A 
HETATM   27  O5  UNL     1      57.641  21.222  14.622  1.00  0.00    -0.283 OA
HETATM   28  C13 UNL     1      57.755  21.567  16.834  1.00  0.00     0.171 A 
HETATM   29  C14 UNL     1      57.159  21.434  18.086  1.00  0.00     0.134 A 
BRANCH  25  30
HETATM   30  O4  UNL     1      55.163  20.023  14.785  1.00  0.00    -0.356 OA
ATOM     31  H4  UNL     1      55.207  20.474  13.951  1.00  0.00     0.218 HD
ENDBRANCH  25  30
BRANCH  28  32
HETATM   32  N4  UNL     1      59.028  22.190  16.794  1.00  0.00    -0.110 N 
HETATM   33  O6  UNL     1      60.058  21.568  17.108  1.00  0.00    -0.532 OA
HETATM   34  O7  UNL     1      59.190  23.499  16.397  1.00  0.00    -0.532 OA
ENDBRANCH  28  32
ENDBRANCH  12  23
ENDBRANCH   8  12
BRANCH  10  35
HETATM   35  C15 UNL     1      50.204  17.657  18.411  1.00  0.00     0.178 C 
BRANCH  35  36
HETATM   36  C16 UNL     1      50.186  16.482  19.343  1.00  0.00     0.073 C 
BRANCH  36  37
HETATM   37  C17 UNL     1      49.349  16.558  20.533  1.00  0.00    -0.056 A 
HETATM   38  C18 UNL     1      49.021  17.709  21.209  1.00  0.00     0.009 A 
HETATM   39  C19 UNL     1      48.254  17.677  22.360  1.00  0.00     0.036 A 
HETATM   40  C20 UNL     1      47.776  16.507  22.900  1.00  0.00     0.102 A 
HETATM   41  C21 UNL     1      48.102  15.338  22.225  1.00  0.00     0.036 A 
HETATM   42  C22 UNL     1      48.861  15.365  21.083  1.00  0.00     0.009 A 
BRANCH  40  43
HETATM   43  N6  UNL     1      46.978  16.488  24.079  1.00  0.00    -0.116 N 
HETATM   44  O8  UNL     1      46.118  15.602  24.240  1.00  0.00    -0.532 OA
HETATM   45  O9  UNL     1      47.142  17.438  25.035  1.00  0.00    -0.532 OA
ENDBRANCH  40  43
ENDBRANCH  36  37
ENDBRANCH  35  36
BRANCH  35  46
HETATM   46  C23 UNL     1      50.081  17.193  17.005  1.00  0.00     0.263 C 
HETATM   47  O10 UNL     1      49.676  15.989  16.831  1.00  0.00    -0.269 OA
HETATM   48  N7  UNL     1      50.356  17.899  15.846  1.00  0.00    -0.236 N 
ATOM     49  H7  UNL     1      49.586  17.991  15.183  1.00  0.00     0.197 HD
BRANCH  48  50
HETATM   50  O11 UNL     1      51.423  18.431  15.515  1.00  0.00    -0.287 OA
ATOM     51  H11 UNL     1      52.203  18.550  16.043  1.00  0.00     0.244 HD
ENDBRANCH  48  50
ENDBRANCH  35  46
ENDBRANCH  10  35
TORSDOF 13
ENDMDL
MODEL 4
REMARK VINA RESULT: -10.386976245      2.057      4.341
REMARK  13 active torsions:
REMARK  status: ('A' for Active; 'I' for Inactive)
REMARK       I    between atoms: N1_1  and  C1_5 
REMARK       I    between atoms: C1_5  and  N2_6 
REMARK       I    between atoms: C1_5  and  N5_33 
REMARK       I    between atoms: N2_6  and  C2_8 
REMARK    1  A    between atoms: C2_8  and  C3_10 
REMARK    2  A    between atoms: C3_10  and  O2_11 
REMARK    3  A    between atoms: C3_10  and  C4_13 
REMARK    4  A    between atoms: C3_10  and  N3_21 
REMARK    5  A    between atoms: C8_17  and  O3_18 
REMARK    6  A    between atoms: C11_23  and  O4_24 
REMARK    7  A    between atoms: C13_28  and  N4_29 
REMARK    8  A    between atoms: N5_33  and  C15_35 
REMARK    9  A    between atoms: C15_35  and  C16_36 
REMARK   10  A    between atoms: C15_35  and  C23_46 
REMARK   11  A    between atoms: C16_36  and  C17_37 
REMARK   12  A    between atoms: C20_40  and  N6_41 
REMARK       I    between atoms: C23_46  and  N7_48 
REMARK   13  A    between atoms: N7_48  and  O11_50 
ROOT
HETATM    1  N1  UNL     1      53.525  17.597  17.791  1.00  0.00    -0.041 N 
ATOM      2  H11 UNL     1      52.988  16.758  18.009  1.00  0.00     0.279 HD
ATOM      3  H12 UNL     1      54.525  17.529  17.985  1.00  0.00     0.279 HD
ATOM      4  H13 UNL     1      53.630  17.794  16.796  1.00  0.00     0.279 HD
HETATM    5  C1  UNL     1      52.826  18.623  18.546  1.00  0.00     0.385 C 
HETATM    6  N2  UNL     1      53.609  19.846  18.229  1.00  0.00    -0.313 N 
ATOM      7  H2  UNL     1      53.530  20.256  17.299  1.00  0.00     0.166 HD
HETATM    8  C2  UNL     1      54.454  20.453  19.170  1.00  0.00     0.282 C 
HETATM    9  O1  UNL     1      54.528  19.922  20.312  1.00  0.00    -0.267 OA
HETATM   10  N5  UNL     1      51.509  18.892  18.332  1.00  0.00    -0.367 N 
ATOM     11  H5  UNL     1      51.277  19.880  18.224  1.00  0.00     0.157 HD
ENDROOT
BRANCH   8  12
HETATM   12  C3  UNL     1      55.255  21.659  18.926  1.00  0.00     0.250 C 
BRANCH  12  13
HETATM   13  O2  UNL     1      55.495  21.779  17.564  1.00  0.00    -0.359 OA
ATOM     14  H2  UNL     1      56.406  22.011  17.426  1.00  0.00     0.213 HD
ENDBRANCH  12  13
BRANCH  12  15
HETATM   15  C4  UNL     1      56.543  21.736  19.617  1.00  0.00     0.009 A 
HETATM   16  C5  UNL     1      56.814  22.453  20.752  1.00  0.00     0.013 A 
HETATM   17  C6  UNL     1      58.081  22.435  21.268  1.00  0.00     0.003 A 
HETATM   18  C7  UNL     1      59.116  21.718  20.690  1.00  0.00     0.036 A 
HETATM   19  C8  UNL     1      58.846  20.997  19.548  1.00  0.00     0.066 A 
HETATM   20  C9  UNL     1      57.584  21.004  19.020  1.00  0.00     0.049 A 
BRANCH  19  21
HETATM   21  O3  UNL     1      59.888  20.273  18.964  1.00  0.00    -0.361 OA
ATOM     22  H3  UNL     1      59.665  19.526  18.420  1.00  0.00     0.217 HD
ENDBRANCH  19  21
ENDBRANCH  12  15
BRANCH  12  23
HETATM   23  N3  UNL     1      54.454  22.792  19.351  1.00  0.00    -0.317 N 
HETATM   24  C10 UNL     1      54.321  23.852  18.542  1.00  0.00     0.135 A 
HETATM   25  C11 UNL     1      53.573  24.965  18.897  1.00  0.00     0.134 A 
HETATM   26  C12 UNL     1      52.946  24.967  20.127  1.00  0.00     0.240 A 
HETATM   27  O5  UNL     1      52.259  25.934  20.512  1.00  0.00    -0.283 OA
HETATM   28  C13 UNL     1      53.075  23.894  20.956  1.00  0.00     0.171 A 
HETATM   29  C14 UNL     1      53.842  22.808  20.540  1.00  0.00     0.134 A 
BRANCH  25  30
HETATM   30  O4  UNL     1      53.461  26.038  18.032  1.00  0.00    -0.356 OA
ATOM     31  H4  UNL     1      53.296  26.911  18.367  1.00  0.00     0.218 HD
ENDBRANCH  25  30
BRANCH  28  32
HETATM   32  N4  UNL     1      52.474  23.800  22.237  1.00  0.00    -0.110 N 
HETATM   33  O6  UNL     1      52.953  23.068  23.120  1.00  0.00    -0.532 OA
HETATM   34  O7  UNL     1      51.345  24.517  22.570  1.00  0.00    -0.532 OA
ENDBRANCH  28  32
ENDBRANCH  12  23
ENDBRANCH   8  12
BRANCH  10  35
HETATM   35  C15 UNL     1      50.424  18.008  18.240  1.00  0.00     0.178 C 
BRANCH  35  36
HETATM   36  C16 UNL     1      50.579  16.897  19.236  1.00  0.00     0.073 C 
BRANCH  36  37
HETATM   37  C17 UNL     1      49.646  16.836  20.352  1.00  0.00    -0.056 A 
HETATM   38  C18 UNL     1      49.204  17.911  21.087  1.00  0.00     0.009 A 
HETATM   39  C19 UNL     1      48.349  17.748  22.162  1.00  0.00     0.036 A 
HETATM   40  C20 UNL     1      47.889  16.517  22.565  1.00  0.00     0.102 A 
HETATM   41  C21 UNL     1      48.330  15.425  21.830  1.00  0.00     0.036 A 
HETATM   42  C22 UNL     1      49.177  15.581  20.762  1.00  0.00     0.009 A 
BRANCH  40  43
HETATM   43  N6  UNL     1      47.000  16.365  23.666  1.00  0.00    -0.116 N 
HETATM   44  O8  UNL     1      46.431  15.275  23.865  1.00  0.00    -0.532 OA
HETATM   45  O9  UNL     1      46.761  17.405  24.505  1.00  0.00    -0.532 OA
ENDBRANCH  40  43
ENDBRANCH  36  37
ENDBRANCH  35  36
BRANCH  35  46
HETATM   46  C23 UNL     1      50.254  17.447  16.875  1.00  0.00     0.263 C 
HETATM   47  O10 UNL     1      49.720  16.284  16.794  1.00  0.00    -0.269 OA
HETATM   48  N7  UNL     1      50.608  18.022  15.665  1.00  0.00    -0.236 N 
ATOM     49  H7  UNL     1      49.854  18.144  14.989  1.00  0.00     0.197 HD
BRANCH  48  50
HETATM   50  O11 UNL     1      51.728  18.406  15.305  1.00  0.00    -0.287 OA
ATOM     51  H11 UNL     1      51.990  18.711  14.445  1.00  0.00     0.244 HD
ENDBRANCH  48  50
ENDBRANCH  35  46
ENDBRANCH  10  35
TORSDOF 13
ENDMDL
MODEL 5
REMARK VINA RESULT: -9.986709072      1.976      4.147
REMARK  13 active torsions:
REMARK  status: ('A' for Active; 'I' for Inactive)
REMARK       I    between atoms: N1_1  and  C1_5 
REMARK       I    between atoms: C1_5  and  N2_6 
REMARK       I    between atoms: C1_5  and  N5_33 
REMARK       I    between atoms: N2_6  and  C2_8 
REMARK    1  A    between atoms: C2_8  and  C3_10 
REMARK    2  A    between atoms: C3_10  and  O2_11 
REMARK    3  A    between atoms: C3_10  and  C4_13 
REMARK    4  A    between atoms: C3_10  and  N3_21 
REMARK    5  A    between atoms: C8_17  and  O3_18 
REMARK    6  A    between atoms: C11_23  and  O4_24 
REMARK    7  A    between atoms: C13_28  and  N4_29 
REMARK    8  A    between atoms: N5_33  and  C15_35 
REMARK    9  A    between atoms: C15_35  and  C16_36 
REMARK   10  A    between atoms: C15_35  and  C23_46 
REMARK   11  A    between atoms: C16_36  and  C17_37 
REMARK   12  A    between atoms: C20_40  and  N6_41 
REMARK       I    between atoms: C23_46  and  N7_48 
REMARK   13  A    between atoms: N7_48  and  O11_50 
ROOT
HETATM    1  N1  UNL     1      53.356  17.520  17.431  1.00  0.00    -0.041 N 
ATOM      2  H11 UNL     1      52.832  16.657  17.572  1.00  0.00     0.279 HD
ATOM      3  H12 UNL     1      54.370  17.421  17.491  1.00  0.00     0.279 HD
ATOM      4  H13 UNL     1      53.348  17.876  16.475  1.00  0.00     0.279 HD
HETATM    5  C1  UNL     1      52.770  18.409  18.419  1.00  0.00     0.385 C 
HETATM    6  N2  UNL     1      53.535  19.668  18.213  1.00  0.00    -0.313 N 
ATOM      7  H2  UNL     1      53.355  20.224  17.378  1.00  0.00     0.166 HD
HETATM    8  C2  UNL     1      54.495  20.113  19.134  1.00  0.00     0.282 C 
HETATM    9  O1  UNL     1      54.692  19.404  20.158  1.00  0.00    -0.267 OA
HETATM   10  N5  UNL     1      51.442  18.710  18.409  1.00  0.00    -0.367 N 
ATOM     11  H5  UNL     1      51.219  19.702  18.489  1.00  0.00     0.157 HD
ENDROOT
BRANCH   8  12
HETATM   12  C3  UNL     1      55.285  21.343  18.995  1.00  0.00     0.250 C 
BRANCH  12  13
HETATM   13  O2  UNL     1      55.381  21.674  17.650  1.00  0.00    -0.359 OA
ATOM     14  H2  UNL     1      54.599  21.376  17.198  1.00  0.00     0.213 HD
ENDBRANCH  12  13
BRANCH  12  15
HETATM   15  C4  UNL     1      56.640  21.312  19.547  1.00  0.00     0.009 A 
HETATM   16  C5  UNL     1      57.201  20.290  20.266  1.00  0.00     0.013 A 
HETATM   17  C6  UNL     1      58.482  20.423  20.730  1.00  0.00     0.003 A 
HETATM   18  C7  UNL     1      59.247  21.556  20.506  1.00  0.00     0.036 A 
HETATM   19  C8  UNL     1      58.684  22.585  19.784  1.00  0.00     0.066 A 
HETATM   20  C9  UNL     1      57.406  22.468  19.313  1.00  0.00     0.049 A 
BRANCH  19  21
HETATM   21  O3  UNL     1      59.454  23.728  19.556  1.00  0.00    -0.361 OA
ATOM     22  H3  UNL     1      59.102  24.567  19.828  1.00  0.00     0.217 HD
ENDBRANCH  19  21
ENDBRANCH  12  15
BRANCH  12  23
HETATM   23  N3  UNL     1      54.552  22.396  19.674  1.00  0.00    -0.317 N 
HETATM   24  C10 UNL     1      54.250  22.264  20.972  1.00  0.00     0.135 A 
HETATM   25  C11 UNL     1      53.547  23.235  21.671  1.00  0.00     0.134 A 
HETATM   26  C12 UNL     1      53.154  24.372  20.995  1.00  0.00     0.240 A 
HETATM   27  O5  UNL     1      52.519  25.285  21.560  1.00  0.00    -0.283 OA
HETATM   28  C13 UNL     1      53.458  24.515  19.675  1.00  0.00     0.171 A 
HETATM   29  C14 UNL     1      54.165  23.503  19.031  1.00  0.00     0.134 A 
BRANCH  25  30
HETATM   30  O4  UNL     1      53.256  23.059  23.011  1.00  0.00    -0.356 OA
ATOM     31  H4  UNL     1      53.732  22.419  23.527  1.00  0.00     0.218 HD
ENDBRANCH  25  30
BRANCH  28  32
HETATM   32  N4  UNL     1      53.099  25.642  18.893  1.00  0.00    -0.110 N 
HETATM   33  O6  UNL     1      52.056  26.280  19.126  1.00  0.00    -0.532 OA
HETATM   34  O7  UNL     1      53.882  26.093  17.854  1.00  0.00    -0.532 OA
ENDBRANCH  28  32
ENDBRANCH  12  23
ENDBRANCH   8  12
BRANCH  10  35
HETATM   35  C15 UNL     1      50.337  17.852  18.303  1.00  0.00     0.178 C 
BRANCH  35  36
HETATM   36  C16 UNL     1      50.458  16.734  19.294  1.00  0.00     0.073 C 
BRANCH  36  37
HETATM   37  C17 UNL     1      49.544  16.713  20.428  1.00  0.00    -0.056 A 
HETATM   38  C18 UNL     1      49.148  17.810  21.156  1.00  0.00     0.009 A 
HETATM   39  C19 UNL     1      48.307  17.686  22.249  1.00  0.00     0.036 A 
HETATM   40  C20 UNL     1      47.819  16.473  22.675  1.00  0.00     0.102 A 
HETATM   41  C21 UNL     1      48.214  15.360  21.946  1.00  0.00     0.036 A 
HETATM   42  C22 UNL     1      49.046  15.478  20.862  1.00  0.00     0.009 A 
BRANCH  40  43
HETATM   43  N6  UNL     1      46.946  16.361  23.794  1.00  0.00    -0.116 N 
HETATM   44  O8  UNL     1      46.350  15.291  24.018  1.00  0.00    -0.532 OA
HETATM   45  O9  UNL     1      46.751  17.419  24.623  1.00  0.00    -0.532 OA
ENDBRANCH  40  43
ENDBRANCH  36  37
ENDBRANCH  35  36
BRANCH  35  46
HETATM   46  C23 UNL     1      50.164  17.303  16.934  1.00  0.00     0.263 C 
HETATM   47  O10 UNL     1      49.731  16.099  16.849  1.00  0.00    -0.269 OA
HETATM   48  N7  UNL     1      50.420  17.929  15.724  1.00  0.00    -0.236 N 
ATOM     49  H7  UNL     1      49.632  17.995  15.079  1.00  0.00     0.197 HD
BRANCH  48  50
HETATM   50  O11 UNL     1      51.487  18.416  15.331  1.00  0.00    -0.287 OA
ATOM     51  H11 UNL     1      52.231  17.961  14.955  1.00  0.00     0.244 HD
ENDBRANCH  48  50
ENDBRANCH  35  46
ENDBRANCH  10  35
TORSDOF 13
ENDMDL
