MODEL 1
REMARK VINA RESULT: -8.179124932      0.000      0.000
REMARK  15 active torsions:
REMARK  status: ('A' for Active; 'I' for Inactive)
REMARK    1  A    between atoms: O1_2  and  C2_3 
REMARK    2  A    between atoms: C2_3  and  C3_5 
REMARK    3  A    between atoms: C3_5  and  N1_6 
REMARK    4  A    between atoms: C3_5  and  C17_43 
REMARK       I    between atoms: N1_6  and  C4_8 
REMARK    5  A    between atoms: C4_8  and  C5_10 
REMARK    6  A    between atoms: C8_13  and  N2_14 
REMARK    7  A    between atoms: N2_14  and  S1_16 
REMARK    8  A    between atoms: S1_16  and  N3_18 
REMARK    9  A    between atoms: S1_16  and  S2_22 
REMARK   10  A    between atoms: N3_18  and  O5_20 
REMARK   11  A    between atoms: S2_22  and  C9_23 
REMARK   12  A    between atoms: C9_23  and  C10_24 
REMARK       I    between atoms: C10_24  and  N4_26 
REMARK   13  A    between atoms: C11_27  and  N5_28 
REMARK   14  A    between atoms: C12_34  and  N7_35 
REMARK   15  A    between atoms: C13_38  and  C14_39 
ROOT
HETATM    1  N2  UNL     1      52.264  17.467  18.392  1.00  0.00    -0.290 N 
ATOM      2  H2  UNL     1      52.720  16.714  18.908  1.00  0.00     0.178 HD
ENDROOT
BRANCH   1   3
HETATM    3  C8  UNL     1      53.089  18.297  17.610  1.00  0.00     0.055 A 
HETATM    4  C7  UNL     1      52.850  18.284  16.245  1.00  0.00     0.032 A 
HETATM    5  C6  UNL     1      53.648  19.053  15.389  1.00  0.00     0.019 A 
HETATM    6  C5  UNL     1      54.668  19.828  15.866  1.00  0.00     0.033 A 
HETATM    7  C16 UNL     1      54.872  19.815  17.226  1.00  0.00     0.034 A 
HETATM    8  C13 UNL     1      54.102  19.065  18.110  1.00  0.00     0.037 A 
BRANCH   6   9
HETATM    9  C4  UNL     1      55.536  20.620  15.005  1.00  0.00     0.252 C 
HETATM   10  N1  UNL     1      55.601  22.009  15.160  1.00  0.00    -0.334 N 
ATOM     11  H1  UNL     1      55.025  22.435  15.886  1.00  0.00     0.164 HD
HETATM   12  O3  UNL     1      56.215  20.046  14.136  1.00  0.00    -0.268 OA
BRANCH  10  13
HETATM   13  C3  UNL     1      56.433  22.884  14.356  1.00  0.00     0.286 C 
BRANCH  13  14
HETATM   14  C2  UNL     1      57.668  23.219  15.100  1.00  0.00     0.292 C 
HETATM   15  O2  UNL     1      58.638  23.731  14.493  1.00  0.00    -0.262 OA
BRANCH  14  16
HETATM   16  O1  UNL     1      57.814  22.988  16.472  1.00  0.00    -0.324 OA
HETATM   17  C1  UNL     1      59.057  22.582  16.986  1.00  0.00     0.213 C 
ENDBRANCH  14  16
ENDBRANCH  13  14
BRANCH  13  18
HETATM   18  C17 UNL     1      55.716  24.093  13.918  1.00  0.00     0.206 C 
HETATM   19  O8  UNL     1      55.488  25.043  14.712  1.00  0.00    -0.646 OA
HETATM   20  O9  UNL     1      55.262  24.238  12.616  1.00  0.00    -0.646 OA
ENDBRANCH  13  18
ENDBRANCH  10  13
ENDBRANCH   6   9
BRANCH   8  21
HETATM   21  C14 UNL     1      54.359  19.179  19.530  1.00  0.00     0.158 C 
HETATM   22  C15 UNL     1      54.722  20.467  20.131  1.00  0.00     0.097 C 
HETATM   23  O7  UNL     1      54.274  18.172  20.267  1.00  0.00    -0.293 OA
ENDBRANCH   8  21
ENDBRANCH   1   3
BRANCH   1  24
HETATM   24  S1  UNL     1      50.599  17.603  18.552  1.00  0.00     0.187 S 
HETATM   25  O4  UNL     1      50.034  18.951  18.341  1.00  0.00    -0.215 OA
BRANCH  24  26
HETATM   26  N3  UNL     1      49.937  16.704  17.450  1.00  0.00    -0.202 N 
ATOM     27  H3  UNL     1      49.865  15.695  17.581  1.00  0.00     0.206 HD
BRANCH  26  28
HETATM   28  O5  UNL     1      49.458  17.288  16.315  1.00  0.00    -0.281 OA
ATOM     29  H5  UNL     1      49.207  16.738  15.581  1.00  0.00     0.245 HD
ENDBRANCH  26  28
ENDBRANCH  24  26
BRANCH  24  30
HETATM   30  S2  UNL     1      50.099  17.293  20.482  1.00  0.00    -0.026 SA
BRANCH  30  31
HETATM   31  C9  UNL     1      48.550  16.621  20.859  1.00  0.00     0.194 C 
BRANCH  31  32
HETATM   32  C10 UNL     1      48.126  16.892  22.231  1.00  0.00     0.243 C 
HETATM   33  O6  UNL     1      47.986  18.096  22.564  1.00  0.00    -0.272 OA
HETATM   34  N4  UNL     1      47.855  15.848  23.201  1.00  0.00    -0.230 N 
HETATM   35  C11 UNL     1      48.086  14.576  22.974  1.00  0.00     0.195 A 
HETATM   36  C12 UNL     1      47.268  16.201  24.357  1.00  0.00     0.170 A 
HETATM   37  N6  UNL     1      47.669  13.708  24.002  1.00  0.00    -0.295 N 
HETATM   38  S3  UNL     1      47.032  14.717  25.132  1.00  0.00     0.025 SA
ATOM     39  H6  UNL     1      47.744  12.691  24.037  1.00  0.00     0.177 HD
BRANCH  35  40
HETATM   40  N5  UNL     1      48.631  13.984  21.991  1.00  0.00    -0.370 N 
ATOM     41  H52 UNL     1      49.274  13.240  22.263  1.00  0.00     0.159 HD
ATOM     42  H51 UNL     1      48.544  14.128  20.985  1.00  0.00     0.159 HD
ENDBRANCH  35  40
BRANCH  36  43
HETATM   43  N7  UNL     1      46.947  17.413  24.770  1.00  0.00    -0.378 N 
ATOM     44  H72 UNL     1      47.297  18.314  24.447  1.00  0.00     0.158 HD
ATOM     45  H71 UNL     1      46.290  17.674  25.505  1.00  0.00     0.158 HD
ENDBRANCH  36  43
ENDBRANCH  31  32
ENDBRANCH  30  31
ENDBRANCH  24  30
ENDBRANCH   1  24
TORSDOF 15
ENDMDL
MODEL 2
REMARK VINA RESULT: -8.067383033      1.156      1.562
REMARK  15 active torsions:
REMARK  status: ('A' for Active; 'I' for Inactive)
REMARK    1  A    between atoms: O1_2  and  C2_3 
REMARK    2  A    between atoms: C2_3  and  C3_5 
REMARK    3  A    between atoms: C3_5  and  N1_6 
REMARK    4  A    between atoms: C3_5  and  C17_43 
REMARK       I    between atoms: N1_6  and  C4_8 
REMARK    5  A    between atoms: C4_8  and  C5_10 
REMARK    6  A    between atoms: C8_13  and  N2_14 
REMARK    7  A    between atoms: N2_14  and  S1_16 
REMARK    8  A    between atoms: S1_16  and  N3_18 
REMARK    9  A    between atoms: S1_16  and  S2_22 
REMARK   10  A    between atoms: N3_18  and  O5_20 
REMARK   11  A    between atoms: S2_22  and  C9_23 
REMARK   12  A    between atoms: C9_23  and  C10_24 
REMARK       I    between atoms: C10_24  and  N4_26 
REMARK   13  A    between atoms: C11_27  and  N5_28 
REMARK   14  A    between atoms: C12_34  and  N7_35 
REMARK   15  A    between atoms: C13_38  and  C14_39 
ROOT
HETATM    1  N2  UNL     1      52.249  17.501  18.376  1.00  0.00    -0.290 N 
ATOM      2  H2  UNL     1      52.680  16.708  18.851  1.00  0.00     0.178 HD
ENDROOT
BRANCH   1   3
HETATM    3  C8  UNL     1      53.097  18.326  17.613  1.00  0.00     0.055 A 
HETATM    4  C7  UNL     1      52.886  18.318  16.243  1.00  0.00     0.032 A 
HETATM    5  C6  UNL     1      53.707  19.083  15.406  1.00  0.00     0.019 A 
HETATM    6  C5  UNL     1      54.722  19.850  15.905  1.00  0.00     0.033 A 
HETATM    7  C16 UNL     1      54.898  19.833  17.270  1.00  0.00     0.034 A 
HETATM    8  C13 UNL     1      54.104  19.087  18.136  1.00  0.00     0.037 A 
BRANCH   6   9
HETATM    9  C4  UNL     1      55.614  20.637  15.065  1.00  0.00     0.252 C 
HETATM   10  N1  UNL     1      56.915  20.922  15.495  1.00  0.00    -0.334 N 
ATOM     11  H1  UNL     1      57.205  20.562  16.404  1.00  0.00     0.164 HD
HETATM   12  O3  UNL     1      55.205  21.050  13.966  1.00  0.00    -0.268 OA
BRANCH  10  13
HETATM   13  C3  UNL     1      57.878  21.695  14.733  1.00  0.00     0.286 C 
BRANCH  13  14
HETATM   14  C2  UNL     1      59.163  20.963  14.668  1.00  0.00     0.292 C 
HETATM   15  O2  UNL     1      59.991  21.245  13.771  1.00  0.00    -0.262 OA
BRANCH  14  16
HETATM   16  O1  UNL     1      59.509  19.952  15.571  1.00  0.00    -0.324 OA
HETATM   17  C1  UNL     1      60.601  20.130  16.437  1.00  0.00     0.213 C 
ENDBRANCH  14  16
ENDBRANCH  13  14
BRANCH  13  18
HETATM   18  C17 UNL     1      58.052  23.055  15.267  1.00  0.00     0.206 C 
HETATM   19  O8  UNL     1      57.511  24.049  14.715  1.00  0.00    -0.646 OA
HETATM   20  O9  UNL     1      58.816  23.302  16.396  1.00  0.00    -0.646 OA
ENDBRANCH  13  18
ENDBRANCH  10  13
ENDBRANCH   6   9
BRANCH   8  21
HETATM   21  C14 UNL     1      54.332  19.196  19.561  1.00  0.00     0.158 C 
HETATM   22  C15 UNL     1      54.683  20.482  20.173  1.00  0.00     0.097 C 
HETATM   23  O7  UNL     1      54.232  18.186  20.293  1.00  0.00    -0.293 OA
ENDBRANCH   8  21
ENDBRANCH   1   3
BRANCH   1  24
HETATM   24  S1  UNL     1      50.595  17.703  18.575  1.00  0.00     0.187 S 
HETATM   25  O4  UNL     1      50.090  19.085  18.450  1.00  0.00    -0.215 OA
BRANCH  24  26
HETATM   26  N3  UNL     1      49.874  16.899  17.436  1.00  0.00    -0.202 N 
ATOM     27  H3  UNL     1      49.708  15.898  17.538  1.00  0.00     0.206 HD
BRANCH  26  28
HETATM   28  O5  UNL     1      49.473  17.555  16.310  1.00  0.00    -0.281 OA
ATOM     29  H5  UNL     1      49.786  17.256  15.464  1.00  0.00     0.245 HD
ENDBRANCH  26  28
ENDBRANCH  24  26
BRANCH  24  30
HETATM   30  S2  UNL     1      50.112  17.307  20.493  1.00  0.00    -0.026 SA
BRANCH  30  31
HETATM   31  C9  UNL     1      48.559  16.636  20.856  1.00  0.00     0.194 C 
BRANCH  31  32
HETATM   32  C10 UNL     1      48.127  16.899  22.226  1.00  0.00     0.243 C 
HETATM   33  O6  UNL     1      47.981  18.101  22.563  1.00  0.00    -0.272 OA
HETATM   34  N4  UNL     1      47.853  15.850  23.190  1.00  0.00    -0.230 N 
HETATM   35  C11 UNL     1      48.089  14.580  22.958  1.00  0.00     0.195 A 
HETATM   36  C12 UNL     1      47.258  16.196  24.344  1.00  0.00     0.170 A 
HETATM   37  N6  UNL     1      47.669  13.705  23.980  1.00  0.00    -0.295 N 
HETATM   38  S3  UNL     1      47.022  14.707  25.110  1.00  0.00     0.025 SA
ATOM     39  H6  UNL     1      47.747  12.689  24.011  1.00  0.00     0.177 HD
BRANCH  35  40
HETATM   40  N5  UNL     1      48.642  13.994  21.976  1.00  0.00    -0.370 N 
ATOM     41  H52 UNL     1      48.019  13.366  21.467  1.00  0.00     0.159 HD
ATOM     42  H51 UNL     1      49.595  14.035  21.616  1.00  0.00     0.159 HD
ENDBRANCH  35  40
BRANCH  36  43
HETATM   43  N7  UNL     1      46.931  17.405  24.761  1.00  0.00    -0.378 N 
ATOM     44  H72 UNL     1      46.629  17.703  25.688  1.00  0.00     0.158 HD
ATOM     45  H71 UNL     1      46.910  18.272  24.223  1.00  0.00     0.158 HD
ENDBRANCH  36  43
ENDBRANCH  31  32
ENDBRANCH  30  31
ENDBRANCH  24  30
ENDBRANCH   1  24
TORSDOF 15
ENDMDL
MODEL 3
REMARK VINA RESULT: -7.905134116      2.828      4.502
REMARK  15 active torsions:
REMARK  status: ('A' for Active; 'I' for Inactive)
REMARK    1  A    between atoms: O1_2  and  C2_3 
REMARK    2  A    between atoms: C2_3  and  C3_5 
REMARK    3  A    between atoms: C3_5  and  N1_6 
REMARK    4  A    between atoms: C3_5  and  C17_43 
REMARK       I    between atoms: N1_6  and  C4_8 
REMARK    5  A    between atoms: C4_8  and  C5_10 
REMARK    6  A    between atoms: C8_13  and  N2_14 
REMARK    7  A    between atoms: N2_14  and  S1_16 
REMARK    8  A    between atoms: S1_16  and  N3_18 
REMARK    9  A    between atoms: S1_16  and  S2_22 
REMARK   10  A    between atoms: N3_18  and  O5_20 
REMARK   11  A    between atoms: S2_22  and  C9_23 
REMARK   12  A    between atoms: C9_23  and  C10_24 
REMARK       I    between atoms: C10_24  and  N4_26 
REMARK   13  A    between atoms: C11_27  and  N5_28 
REMARK   14  A    between atoms: C12_34  and  N7_35 
REMARK   15  A    between atoms: C13_38  and  C14_39 
ROOT
HETATM    1  N2  UNL     1      52.195  17.360  17.465  1.00  0.00    -0.290 N 
ATOM      2  H2  UNL     1      52.470  16.486  17.018  1.00  0.00     0.178 HD
ENDROOT
BRANCH   1   3
HETATM    3  C8  UNL     1      53.226  18.249  17.823  1.00  0.00     0.055 A 
HETATM    4  C7  UNL     1      53.477  18.378  19.179  1.00  0.00     0.032 A 
HETATM    5  C6  UNL     1      54.462  19.268  19.624  1.00  0.00     0.019 A 
HETATM    6  C5  UNL     1      55.194  20.021  18.751  1.00  0.00     0.033 A 
HETATM    7  C16 UNL     1      54.916  19.863  17.412  1.00  0.00     0.034 A 
HETATM    8  C13 UNL     1      53.946  18.990  16.929  1.00  0.00     0.037 A 
BRANCH   6   9
HETATM    9  C4  UNL     1      56.207  20.977  19.177  1.00  0.00     0.252 C 
HETATM   10  N1  UNL     1      56.844  20.821  20.413  1.00  0.00    -0.334 N 
ATOM     11  H1  UNL     1      56.574  20.026  20.992  1.00  0.00     0.164 HD
HETATM   12  O3  UNL     1      56.496  21.928  18.430  1.00  0.00    -0.268 OA
BRANCH  10  13
HETATM   13  C3  UNL     1      57.864  21.716  20.927  1.00  0.00     0.286 C 
BRANCH  13  14
HETATM   14  C2  UNL     1      59.067  20.938  21.299  1.00  0.00     0.292 C 
HETATM   15  O2  UNL     1      58.937  19.841  21.890  1.00  0.00    -0.262 OA
BRANCH  14  16
HETATM   16  O1  UNL     1      60.368  21.370  21.020  1.00  0.00    -0.324 OA
HETATM   17  C1  UNL     1      60.582  22.377  20.065  1.00  0.00     0.213 C 
ENDBRANCH  14  16
ENDBRANCH  13  14
BRANCH  13  18
HETATM   18  C17 UNL     1      57.378  22.536  22.048  1.00  0.00     0.206 C 
HETATM   19  O8  UNL     1      56.164  22.854  22.148  1.00  0.00    -0.646 OA
HETATM   20  O9  UNL     1      58.232  22.993  23.040  1.00  0.00    -0.646 OA
ENDBRANCH  13  18
ENDBRANCH  10  13
ENDBRANCH   6   9
BRANCH   8  21
HETATM   21  C14 UNL     1      53.783  18.850  15.498  1.00  0.00     0.158 C 
HETATM   22  C15 UNL     1      54.063  19.970  14.593  1.00  0.00     0.097 C 
HETATM   23  O7  UNL     1      53.397  17.764  15.012  1.00  0.00    -0.293 OA
ENDBRANCH   8  21
ENDBRANCH   1   3
BRANCH   1  24
HETATM   24  S1  UNL     1      50.552  17.608  17.707  1.00  0.00     0.187 S 
HETATM   25  O4  UNL     1      50.179  18.854  18.406  1.00  0.00    -0.215 OA
BRANCH  24  26
HETATM   26  N3  UNL     1      49.870  17.709  16.297  1.00  0.00    -0.202 N 
ATOM     27  H3  UNL     1      48.875  17.513  16.190  1.00  0.00     0.206 HD
BRANCH  26  28
HETATM   28  O5  UNL     1      50.625  18.061  15.217  1.00  0.00    -0.281 OA
ATOM     29  H5  UNL     1      50.355  17.779  14.351  1.00  0.00     0.245 HD
ENDBRANCH  26  28
ENDBRANCH  24  26
BRANCH  24  30
HETATM   30  S2  UNL     1      49.868  16.234  19.015  1.00  0.00    -0.026 SA
BRANCH  30  31
HETATM   31  C9  UNL     1      49.166  16.758  20.507  1.00  0.00     0.194 C 
BRANCH  31  32
HETATM   32  C10 UNL     1      48.788  15.652  21.383  1.00  0.00     0.243 C 
HETATM   33  O6  UNL     1      49.045  14.488  20.985  1.00  0.00    -0.272 OA
HETATM   34  N4  UNL     1      48.153  15.840  22.674  1.00  0.00    -0.230 N 
HETATM   35  C11 UNL     1      47.748  17.008  23.114  1.00  0.00     0.195 A 
HETATM   36  C12 UNL     1      48.048  14.773  23.484  1.00  0.00     0.170 A 
HETATM   37  N6  UNL     1      47.241  17.001  24.429  1.00  0.00    -0.295 N 
HETATM   38  S3  UNL     1      47.373  15.429  24.889  1.00  0.00     0.025 SA
ATOM     39  H6  UNL     1      46.878  17.786  24.968  1.00  0.00     0.177 HD
BRANCH  35  40
HETATM   40  N5  UNL     1      47.720  18.151  22.559  1.00  0.00    -0.370 N 
ATOM     41  H52 UNL     1      48.060  18.906  23.154  1.00  0.00     0.159 HD
ATOM     42  H51 UNL     1      47.411  18.443  21.633  1.00  0.00     0.159 HD
ENDBRANCH  35  40
BRANCH  36  43
HETATM   43  N7  UNL     1      48.400  13.526  23.237  1.00  0.00    -0.378 N 
ATOM     44  H72 UNL     1      49.070  13.172  22.554  1.00  0.00     0.158 HD
ATOM     45  H71 UNL     1      48.056  12.674  23.682  1.00  0.00     0.158 HD
ENDBRANCH  36  43
ENDBRANCH  31  32
ENDBRANCH  30  31
ENDBRANCH  24  30
ENDBRANCH   1  24
TORSDOF 15
ENDMDL
MODEL 4
REMARK VINA RESULT: -7.822175106      2.704      4.255
REMARK  15 active torsions:
REMARK  status: ('A' for Active; 'I' for Inactive)
REMARK    1  A    between atoms: O1_2  and  C2_3 
REMARK    2  A    between atoms: C2_3  and  C3_5 
REMARK    3  A    between atoms: C3_5  and  N1_6 
REMARK    4  A    between atoms: C3_5  and  C17_43 
REMARK       I    between atoms: N1_6  and  C4_8 
REMARK    5  A    between atoms: C4_8  and  C5_10 
REMARK    6  A    between atoms: C8_13  and  N2_14 
REMARK    7  A    between atoms: N2_14  and  S1_16 
REMARK    8  A    between atoms: S1_16  and  N3_18 
REMARK    9  A    between atoms: S1_16  and  S2_22 
REMARK   10  A    between atoms: N3_18  and  O5_20 
REMARK   11  A    between atoms: S2_22  and  C9_23 
REMARK   12  A    between atoms: C9_23  and  C10_24 
REMARK       I    between atoms: C10_24  and  N4_26 
REMARK   13  A    between atoms: C11_27  and  N5_28 
REMARK   14  A    between atoms: C12_34  and  N7_35 
REMARK   15  A    between atoms: C13_38  and  C14_39 
ROOT
HETATM    1  N2  UNL     1      52.061  17.249  17.852  1.00  0.00    -0.290 N 
ATOM      2  H2  UNL     1      52.306  16.404  17.336  1.00  0.00     0.178 HD
ENDROOT
BRANCH   1   3
HETATM    3  C8  UNL     1      53.105  18.146  18.145  1.00  0.00     0.055 A 
HETATM    4  C7  UNL     1      53.420  18.300  19.485  1.00  0.00     0.032 A 
HETATM    5  C6  UNL     1      54.423  19.199  19.867  1.00  0.00     0.019 A 
HETATM    6  C5  UNL     1      55.111  19.938  18.947  1.00  0.00     0.033 A 
HETATM    7  C16 UNL     1      54.770  19.755  17.626  1.00  0.00     0.034 A 
HETATM    8  C13 UNL     1      53.781  18.872  17.205  1.00  0.00     0.037 A 
BRANCH   6   9
HETATM    9  C4  UNL     1      56.140  20.903  19.307  1.00  0.00     0.252 C 
HETATM   10  N1  UNL     1      56.845  20.763  20.508  1.00  0.00    -0.334 N 
ATOM     11  H1  UNL     1      56.611  19.973  21.108  1.00  0.00     0.164 HD
HETATM   12  O3  UNL     1      56.383  21.848  18.536  1.00  0.00    -0.268 OA
BRANCH  10  13
HETATM   13  C3  UNL     1      57.887  21.668  20.956  1.00  0.00     0.286 C 
BRANCH  13  14
HETATM   14  C2  UNL     1      59.099  20.895  21.309  1.00  0.00     0.292 C 
HETATM   15  O2  UNL     1      58.987  19.833  21.966  1.00  0.00    -0.262 OA
BRANCH  14  16
HETATM   16  O1  UNL     1      60.388  21.295  20.944  1.00  0.00    -0.324 OA
HETATM   17  C1  UNL     1      60.562  22.328  20.008  1.00  0.00     0.213 C 
ENDBRANCH  14  16
ENDBRANCH  13  14
BRANCH  13  18
HETATM   18  C17 UNL     1      57.444  22.526  22.067  1.00  0.00     0.206 C 
HETATM   19  O8  UNL     1      56.238  22.861  22.195  1.00  0.00    -0.646 OA
HETATM   20  O9  UNL     1      58.333  23.001  23.019  1.00  0.00    -0.646 OA
ENDBRANCH  13  18
ENDBRANCH  10  13
ENDBRANCH   6   9
BRANCH   8  21
HETATM   21  C14 UNL     1      53.550  18.706  15.786  1.00  0.00     0.158 C 
HETATM   22  C15 UNL     1      53.747  19.821  14.853  1.00  0.00     0.097 C 
HETATM   23  O7  UNL     1      53.176  17.601  15.334  1.00  0.00    -0.293 OA
ENDBRANCH   8  21
ENDBRANCH   1   3
BRANCH   1  24
HETATM   24  S1  UNL     1      50.448  17.442  18.276  1.00  0.00     0.187 S 
HETATM   25  O4  UNL     1      50.098  18.717  18.935  1.00  0.00    -0.215 OA
BRANCH  24  26
HETATM   26  N3  UNL     1      49.600  17.418  16.956  1.00  0.00    -0.202 N 
ATOM     27  H3  UNL     1      48.627  17.111  16.973  1.00  0.00     0.206 HD
BRANCH  26  28
HETATM   28  O5  UNL     1      50.179  17.813  15.786  1.00  0.00    -0.281 OA
ATOM     29  H5  UNL     1      50.843  17.260  15.389  1.00  0.00     0.245 HD
ENDBRANCH  26  28
ENDBRANCH  24  26
BRANCH  24  30
HETATM   30  S2  UNL     1      49.993  16.133  19.741  1.00  0.00    -0.026 SA
BRANCH  30  31
HETATM   31  C9  UNL     1      48.378  16.078  20.359  1.00  0.00     0.194 C 
BRANCH  31  32
HETATM   32  C10 UNL     1      48.272  16.569  21.731  1.00  0.00     0.243 C 
HETATM   33  O6  UNL     1      48.393  17.806  21.911  1.00  0.00    -0.272 OA
HETATM   34  N4  UNL     1      48.026  15.703  22.869  1.00  0.00    -0.230 N 
HETATM   35  C11 UNL     1      48.001  14.394  22.786  1.00  0.00     0.195 A 
HETATM   36  C12 UNL     1      47.733  16.281  24.046  1.00  0.00     0.170 A 
HETATM   37  N6  UNL     1      47.652  13.732  23.980  1.00  0.00    -0.295 N 
HETATM   38  S3  UNL     1      47.412  14.957  25.049  1.00  0.00     0.025 SA
ATOM     39  H6  UNL     1      47.569  12.729  24.143  1.00  0.00     0.177 HD
BRANCH  35  40
HETATM   40  N5  UNL     1      48.247  13.609  21.817  1.00  0.00    -0.370 N 
ATOM     41  H52 UNL     1      49.160  13.157  21.874  1.00  0.00     0.159 HD
ATOM     42  H51 UNL     1      47.698  13.360  20.995  1.00  0.00     0.159 HD
ENDBRANCH  35  40
BRANCH  36  43
HETATM   43  N7  UNL     1      47.696  17.568  24.334  1.00  0.00    -0.378 N 
ATOM     44  H72 UNL     1      48.470  18.212  24.495  1.00  0.00     0.158 HD
ATOM     45  H71 UNL     1      46.875  18.161  24.461  1.00  0.00     0.158 HD
ENDBRANCH  36  43
ENDBRANCH  31  32
ENDBRANCH  30  31
ENDBRANCH  24  30
ENDBRANCH   1  24
TORSDOF 15
ENDMDL
MODEL 5
REMARK VINA RESULT: -7.772855142      0.926      1.514
REMARK  15 active torsions:
REMARK  status: ('A' for Active; 'I' for Inactive)
REMARK    1  A    between atoms: O1_2  and  C2_3 
REMARK    2  A    between atoms: C2_3  and  C3_5 
REMARK    3  A    between atoms: C3_5  and  N1_6 
REMARK    4  A    between atoms: C3_5  and  C17_43 
REMARK       I    between atoms: N1_6  and  C4_8 
REMARK    5  A    between atoms: C4_8  and  C5_10 
REMARK    6  A    between atoms: C8_13  and  N2_14 
REMARK    7  A    between atoms: N2_14  and  S1_16 
REMARK    8  A    between atoms: S1_16  and  N3_18 
REMARK    9  A    between atoms: S1_16  and  S2_22 
REMARK   10  A    between atoms: N3_18  and  O5_20 
REMARK   11  A    between atoms: S2_22  and  C9_23 
REMARK   12  A    between atoms: C9_23  and  C10_24 
REMARK       I    between atoms: C10_24  and  N4_26 
REMARK   13  A    between atoms: C11_27  and  N5_28 
REMARK   14  A    between atoms: C12_34  and  N7_35 
REMARK   15  A    between atoms: C13_38  and  C14_39 
ROOT
HETATM    1  N2  UNL     1      52.330  17.433  18.044  1.00  0.00    -0.290 N 
ATOM      2  H2  UNL     1      52.783  16.566  18.337  1.00  0.00     0.178 HD
ENDROOT
BRANCH   1   3
HETATM    3  C8  UNL     1      53.101  18.333  17.286  1.00  0.00     0.055 A 
HETATM    4  C7  UNL     1      52.839  18.366  15.925  1.00  0.00     0.032 A 
HETATM    5  C6  UNL     1      53.585  19.208  15.091  1.00  0.00     0.019 A 
HETATM    6  C5  UNL     1      54.575  20.010  15.584  1.00  0.00     0.033 A 
HETATM    7  C16 UNL     1      54.803  19.950  16.940  1.00  0.00     0.034 A 
HETATM    8  C13 UNL     1      54.085  19.128  17.802  1.00  0.00     0.037 A 
BRANCH   6   9
HETATM    9  C4  UNL     1      55.389  20.878  14.745  1.00  0.00     0.252 C 
HETATM   10  N1  UNL     1      55.260  22.268  14.837  1.00  0.00    -0.334 N 
ATOM     11  H1  UNL     1      54.584  22.640  15.504  1.00  0.00     0.164 HD
HETATM   12  O3  UNL     1      56.197  20.368  13.949  1.00  0.00    -0.268 OA
BRANCH  10  13
HETATM   13  C3  UNL     1      56.024  23.216  14.048  1.00  0.00     0.286 C 
BRANCH  13  14
HETATM   14  C2  UNL     1      57.225  23.638  14.803  1.00  0.00     0.292 C 
HETATM   15  O2  UNL     1      57.961  24.541  14.342  1.00  0.00    -0.262 OA
BRANCH  14  16
HETATM   16  O1  UNL     1      57.591  23.070  16.028  1.00  0.00    -0.324 OA
HETATM   17  C1  UNL     1      58.788  22.343  16.133  1.00  0.00     0.213 C 
ENDBRANCH  14  16
ENDBRANCH  13  14
BRANCH  13  18
HETATM   18  C17 UNL     1      55.216  24.369  13.621  1.00  0.00     0.206 C 
HETATM   19  O8  UNL     1      54.586  25.072  14.453  1.00  0.00    -0.646 OA
HETATM   20  O9  UNL     1      55.112  24.730  12.286  1.00  0.00    -0.646 OA
ENDBRANCH  13  18
ENDBRANCH  10  13
ENDBRANCH   6   9
BRANCH   8  21
HETATM   21  C14 UNL     1      54.361  19.194  19.221  1.00  0.00     0.158 C 
HETATM   22  C15 UNL     1      54.677  20.471  19.871  1.00  0.00     0.097 C 
HETATM   23  O7  UNL     1      54.334  18.155  19.917  1.00  0.00    -0.293 OA
ENDBRANCH   8  21
ENDBRANCH   1   3
BRANCH   1  24
HETATM   24  S1  UNL     1      50.733  17.654  18.513  1.00  0.00     0.187 S 
HETATM   25  O4  UNL     1      50.208  19.030  18.398  1.00  0.00    -0.215 OA
BRANCH  24  26
HETATM   26  N3  UNL     1      49.832  16.790  17.563  1.00  0.00    -0.202 N 
ATOM     27  H3  UNL     1      49.546  15.850  17.837  1.00  0.00     0.206 HD
BRANCH  26  28
HETATM   28  O5  UNL     1      49.435  17.312  16.367  1.00  0.00    -0.281 OA
ATOM     29  H5  UNL     1      49.029  16.741  15.725  1.00  0.00     0.245 HD
ENDBRANCH  26  28
ENDBRANCH  24  26
BRANCH  24  30
HETATM   30  S2  UNL     1      50.590  17.370  20.504  1.00  0.00    -0.026 SA
BRANCH  30  31
HETATM   31  C9  UNL     1      49.025  17.253  21.234  1.00  0.00     0.194 C 
BRANCH  31  32
HETATM   32  C10 UNL     1      48.644  15.880  21.556  1.00  0.00     0.243 C 
HETATM   33  O6  UNL     1      48.864  15.001  20.685  1.00  0.00    -0.272 OA
HETATM   34  N4  UNL     1      48.046  15.495  22.821  1.00  0.00    -0.230 N 
HETATM   35  C11 UNL     1      47.679  16.361  23.736  1.00  0.00     0.195 A 
HETATM   36  C12 UNL     1      47.937  14.184  23.092  1.00  0.00     0.170 A 
HETATM   37  N6  UNL     1      47.205  15.789  24.934  1.00  0.00    -0.295 N 
HETATM   38  S3  UNL     1      47.313  14.172  24.664  1.00  0.00     0.025 SA
ATOM     39  H6  UNL     1      46.874  16.267  25.771  1.00  0.00     0.177 HD
BRANCH  35  40
HETATM   40  N5  UNL     1      47.663  17.632  23.732  1.00  0.00    -0.370 N 
ATOM     41  H52 UNL     1      48.408  18.055  24.286  1.00  0.00     0.159 HD
ATOM     42  H51 UNL     1      47.034  18.297  23.283  1.00  0.00     0.159 HD
ENDBRANCH  35  40
BRANCH  36  43
HETATM   43  N7  UNL     1      48.255  13.163  22.318  1.00  0.00    -0.378 N 
ATOM     44  H72 UNL     1      48.394  13.144  21.308  1.00  0.00     0.158 HD
ATOM     45  H71 UNL     1      48.412  12.193  22.589  1.00  0.00     0.158 HD
ENDBRANCH  36  43
ENDBRANCH  31  32
ENDBRANCH  30  31
ENDBRANCH  24  30
ENDBRANCH   1  24
TORSDOF 15
ENDMDL
