MODEL 1
REMARK VINA RESULT: -5.805356136      0.000      0.000
REMARK  4 active torsions:
REMARK  status: ('A' for Active; 'I' for Inactive)
REMARK    1  A    between atoms: C2_2  and  C4_4 
REMARK    2  A    between atoms: C2_2  and  C7_12 
REMARK    3  A    between atoms: C4_4  and  C5_5 
REMARK       I    between atoms: C5_5  and  N1_7 
REMARK    4  A    between atoms: C7_12  and  C10_15 
ROOT
HETATM    1  C1  UNL     1      26.324  15.702  11.552  1.00  0.00     0.016 C 
HETATM    2  C2  UNL     1      24.906  15.079  11.195  1.00  0.00    -0.024 C 
HETATM    3  C3  UNL     1      24.948  13.702  11.788  1.00  0.00     0.016 C 
ENDROOT
BRANCH   2   4
HETATM    4  C4  UNL     1      23.984  16.014  11.869  1.00  0.00     0.113 C 
BRANCH   4   5
HETATM    5  C5  UNL     1      23.502  15.768  13.205  1.00  0.00     0.224 C 
HETATM    6  O1  UNL     1      24.096  16.149  14.231  1.00  0.00    -0.273 OA
HETATM    7  N1  UNL     1      22.285  15.054  13.386  1.00  0.00    -0.304 N 
HETATM    8  C6  UNL     1      21.131  15.550  13.371  1.00  0.00     0.203 C 
ATOM      9  H1  UNL     1      22.356  14.049  13.541  1.00  0.00     0.171 HD
HETATM   10  N2  UNL     1      20.007  14.718  13.566  1.00  0.00    -0.066 NA
HETATM   11  N3  UNL     1      20.935  16.933  13.162  1.00  0.00    -0.066 NA
ENDBRANCH   4   5
ENDBRANCH   2   4
BRANCH   2  12
HETATM   12  C7  UNL     1      24.977  15.082   9.700  1.00  0.00     0.058 C 
HETATM   13  C8  UNL     1      25.453  13.691   9.259  1.00  0.00     0.025 C 
HETATM   14  C9  UNL     1      26.140  16.004   9.303  1.00  0.00     0.025 C 
BRANCH  12  15
HETATM   15  C10 UNL     1      23.825  15.476   8.877  1.00  0.00     0.395 C 
HETATM   16  F1  UNL     1      24.151  15.001   7.551  1.00  0.00    -0.170 F 
HETATM   17  F2  UNL     1      22.635  14.892   9.132  1.00  0.00    -0.170 F 
HETATM   18  F3  UNL     1      23.729  16.851   8.606  1.00  0.00    -0.170 F 
ENDBRANCH  12  15
ENDBRANCH   2  12
TORSDOF 4
ENDMDL
MODEL 2
REMARK VINA RESULT: -5.783680703      1.086      1.538
REMARK  4 active torsions:
REMARK  status: ('A' for Active; 'I' for Inactive)
REMARK    1  A    between atoms: C2_2  and  C4_4 
REMARK    2  A    between atoms: C2_2  and  C7_12 
REMARK    3  A    between atoms: C4_4  and  C5_5 
REMARK       I    between atoms: C5_5  and  N1_7 
REMARK    4  A    between atoms: C7_12  and  C10_15 
ROOT
HETATM    1  C1  UNL     1      26.504  15.297  11.389  1.00  0.00     0.016 C 
HETATM    2  C2  UNL     1      24.969  15.001  11.099  1.00  0.00    -0.024 C 
HETATM    3  C3  UNL     1      24.925  13.529  10.813  1.00  0.00     0.016 C 
ENDROOT
BRANCH   2   4
HETATM    4  C4  UNL     1      24.336  15.403  12.370  1.00  0.00     0.113 C 
BRANCH   4   5
HETATM    5  C5  UNL     1      23.743  14.435  13.258  1.00  0.00     0.224 C 
HETATM    6  O1  UNL     1      24.403  13.724  14.040  1.00  0.00    -0.273 OA
HETATM    7  N1  UNL     1      22.331  14.264  13.259  1.00  0.00    -0.304 N 
HETATM    8  C6  UNL     1      21.507  14.946  13.920  1.00  0.00     0.203 C 
ATOM      9  H1  UNL     1      21.953  13.522  12.671  1.00  0.00     0.171 HD
HETATM   10  N2  UNL     1      20.127  14.663  13.824  1.00  0.00    -0.066 NA
HETATM   11  N3  UNL     1      21.938  15.995  14.760  1.00  0.00    -0.066 NA
ENDBRANCH   4   5
ENDBRANCH   2   4
BRANCH   2  12
HETATM   12  C7  UNL     1      24.756  15.846   9.883  1.00  0.00     0.058 C 
HETATM   13  C8  UNL     1      26.076  15.869   9.101  1.00  0.00     0.025 C 
HETATM   14  C9  UNL     1      24.594  17.297  10.361  1.00  0.00     0.025 C 
BRANCH  12  15
HETATM   15  C10 UNL     1      23.652  15.583   8.948  1.00  0.00     0.395 C 
HETATM   16  F1  UNL     1      23.322  16.882   8.406  1.00  0.00    -0.170 F 
HETATM   17  F2  UNL     1      23.915  14.846   7.849  1.00  0.00    -0.170 F 
HETATM   18  F3  UNL     1      22.423  15.272   9.552  1.00  0.00    -0.170 F 
ENDBRANCH  12  15
ENDBRANCH   2  12
TORSDOF 4
ENDMDL
MODEL 3
REMARK VINA RESULT: -5.740216079      1.083      1.234
REMARK  4 active torsions:
REMARK  status: ('A' for Active; 'I' for Inactive)
REMARK    1  A    between atoms: C2_2  and  C4_4 
REMARK    2  A    between atoms: C2_2  and  C7_12 
REMARK    3  A    between atoms: C4_4  and  C5_5 
REMARK       I    between atoms: C5_5  and  N1_7 
REMARK    4  A    between atoms: C7_12  and  C10_15 
ROOT
HETATM    1  C1  UNL     1      25.219  16.144  11.830  1.00  0.00     0.016 C 
HETATM    2  C2  UNL     1      24.329  14.991  11.193  1.00  0.00    -0.024 C 
HETATM    3  C3  UNL     1      24.843  13.734  11.829  1.00  0.00     0.016 C 
ENDROOT
BRANCH   2   4
HETATM    4  C4  UNL     1      22.971  15.387  11.617  1.00  0.00     0.113 C 
BRANCH   4   5
HETATM    5  C5  UNL     1      22.738  16.070  12.865  1.00  0.00     0.224 C 
HETATM    6  O1  UNL     1      22.604  17.305  12.958  1.00  0.00    -0.273 OA
HETATM    7  N1  UNL     1      22.653  15.314  14.066  1.00  0.00    -0.304 N 
HETATM    8  C6  UNL     1      21.620  14.754  14.513  1.00  0.00     0.203 C 
ATOM      9  H1  UNL     1      23.506  15.218  14.616  1.00  0.00     0.171 HD
HETATM   10  N2  UNL     1      21.681  14.034  15.725  1.00  0.00    -0.066 NA
HETATM   11  N3  UNL     1      20.392  14.832  13.820  1.00  0.00    -0.066 NA
ENDBRANCH   4   5
ENDBRANCH   2   4
BRANCH   2  12
HETATM   12  C7  UNL     1      24.706  15.123   9.751  1.00  0.00     0.058 C 
HETATM   13  C8  UNL     1      25.420  13.827   9.343  1.00  0.00     0.025 C 
HETATM   14  C9  UNL     1      25.811  16.186   9.666  1.00  0.00     0.025 C 
BRANCH  12  15
HETATM   15  C10 UNL     1      23.710  15.463   8.725  1.00  0.00     0.395 C 
HETATM   16  F1  UNL     1      24.320  15.049   7.481  1.00  0.00    -0.170 F 
HETATM   17  F2  UNL     1      22.538  14.795   8.733  1.00  0.00    -0.170 F 
HETATM   18  F3  UNL     1      23.573  16.836   8.462  1.00  0.00    -0.170 F 
ENDBRANCH  12  15
ENDBRANCH   2  12
TORSDOF 4
ENDMDL
MODEL 4
REMARK VINA RESULT: -5.696736337      1.459      1.786
REMARK  4 active torsions:
REMARK  status: ('A' for Active; 'I' for Inactive)
REMARK    1  A    between atoms: C2_2  and  C4_4 
REMARK    2  A    between atoms: C2_2  and  C7_12 
REMARK    3  A    between atoms: C4_4  and  C5_5 
REMARK       I    between atoms: C5_5  and  N1_7 
REMARK    4  A    between atoms: C7_12  and  C10_15 
ROOT
HETATM    1  C1  UNL     1      26.086  15.517  11.760  1.00  0.00     0.016 C 
HETATM    2  C2  UNL     1      24.573  15.342  11.305  1.00  0.00    -0.024 C 
HETATM    3  C3  UNL     1      24.168  14.014  11.874  1.00  0.00     0.016 C 
ENDROOT
BRANCH   2   4
HETATM    4  C4  UNL     1      23.927  16.508  11.939  1.00  0.00     0.113 C 
BRANCH   4   5
HETATM    5  C5  UNL     1      22.636  16.406  12.571  1.00  0.00     0.224 C 
HETATM    6  O1  UNL     1      21.650  15.865  12.036  1.00  0.00    -0.273 OA
HETATM    7  N1  UNL     1      22.454  16.945  13.874  1.00  0.00    -0.304 N 
HETATM    8  C6  UNL     1      22.708  16.358  14.957  1.00  0.00     0.203 C 
ATOM      9  H1  UNL     1      22.084  17.893  13.937  1.00  0.00     0.171 HD
HETATM   10  N2  UNL     1      22.477  17.018  16.183  1.00  0.00    -0.066 NA
HETATM   11  N3  UNL     1      23.224  15.045  14.968  1.00  0.00    -0.066 NA
ENDBRANCH   4   5
ENDBRANCH   2   4
BRANCH   2  12
HETATM   12  C7  UNL     1      24.737  15.324   9.818  1.00  0.00     0.058 C 
HETATM   13  C8  UNL     1      25.268  13.936   9.431  1.00  0.00     0.025 C 
HETATM   14  C9  UNL     1      25.904  16.264   9.478  1.00  0.00     0.025 C 
BRANCH  12  15
HETATM   15  C10 UNL     1      23.631  15.679   8.919  1.00  0.00     0.395 C 
HETATM   16  F1  UNL     1      23.998  15.095   7.648  1.00  0.00    -0.170 F 
HETATM   17  F2  UNL     1      22.416  15.145   9.166  1.00  0.00    -0.170 F 
HETATM   18  F3  UNL     1      23.584  17.031   8.539  1.00  0.00    -0.170 F 
ENDBRANCH  12  15
ENDBRANCH   2  12
TORSDOF 4
ENDMDL
MODEL 5
REMARK VINA RESULT: -5.534633384      2.155      2.788
REMARK  4 active torsions:
REMARK  status: ('A' for Active; 'I' for Inactive)
REMARK    1  A    between atoms: C2_2  and  C4_4 
REMARK    2  A    between atoms: C2_2  and  C7_12 
REMARK    3  A    between atoms: C4_4  and  C5_5 
REMARK       I    between atoms: C5_5  and  N1_7 
REMARK    4  A    between atoms: C7_12  and  C10_15 
ROOT
HETATM    1  C1  UNL     1      23.355  15.150   9.622  1.00  0.00     0.016 C 
HETATM    2  C2  UNL     1      24.350  15.283  10.854  1.00  0.00    -0.024 C 
HETATM    3  C3  UNL     1      24.255  16.727  11.251  1.00  0.00     0.016 C 
ENDROOT
BRANCH   2   4
HETATM    4  C4  UNL     1      23.762  14.337  11.822  1.00  0.00     0.113 C 
BRANCH   4   5
HETATM    5  C5  UNL     1      23.354  14.758  13.140  1.00  0.00     0.224 C 
HETATM    6  O1  UNL     1      24.087  15.405  13.912  1.00  0.00    -0.273 OA
HETATM    7  N1  UNL     1      22.051  14.429  13.603  1.00  0.00    -0.304 N 
HETATM    8  C6  UNL     1      21.003  15.087  13.384  1.00  0.00     0.203 C 
ATOM      9  H1  UNL     1      21.958  13.583  14.165  1.00  0.00     0.171 HD
HETATM   10  N2  UNL     1      19.771  14.641  13.910  1.00  0.00    -0.066 NA
HETATM   11  N3  UNL     1      21.034  16.271  12.616  1.00  0.00    -0.066 NA
ENDBRANCH   4   5
ENDBRANCH   2   4
BRANCH   2  12
HETATM   12  C7  UNL     1      25.646  14.934  10.195  1.00  0.00     0.058 C 
HETATM   13  C8  UNL     1      25.616  15.527   8.779  1.00  0.00     0.025 C 
HETATM   14  C9  UNL     1      25.639  13.418   9.951  1.00  0.00     0.025 C 
BRANCH  12  15
HETATM   15  C10 UNL     1      26.937  15.256  10.820  1.00  0.00     0.395 C 
HETATM   16  F1  UNL     1      27.748  14.080  10.598  1.00  0.00    -0.170 F 
HETATM   17  F2  UNL     1      27.674  16.248  10.277  1.00  0.00    -0.170 F 
HETATM   18  F3  UNL     1      26.932  15.264  12.224  1.00  0.00    -0.170 F 
ENDBRANCH  12  15
ENDBRANCH   2  12
TORSDOF 4
ENDMDL
