MODEL 1
REMARK VINA RESULT: -5.130339890      0.000      0.000
REMARK  2 active torsions:
REMARK  status: ('A' for Active; 'I' for Inactive)
REMARK       I    between atoms: N1_2  and  C2_4 
REMARK    1  A    between atoms: C2_4  and  C3_6 
REMARK    2  A    between atoms: C3_6  and  C4_7 
ROOT
HETATM    1  C4  UNL     1      25.841  14.648  10.366  1.00  0.00     0.080 C 
HETATM    2 CL1  UNL     1      25.441  12.912  10.254  1.00  0.00    -0.115 Cl
HETATM    3  C5  UNL     1      25.680  15.198   8.963  1.00  0.00     0.029 C 
HETATM    4  C6  UNL     1      24.274  15.338   8.506  1.00  0.00     0.002 C 
HETATM    5  C7  UNL     1      23.264  15.276   9.636  1.00  0.00     0.003 C 
HETATM    6  C8  UNL     1      23.861  16.140  10.731  1.00  0.00     0.044 C 
HETATM    7  C9  UNL     1      24.937  15.255  11.364  1.00  0.00     0.135 C 
HETATM    8 CL2  UNL     1      25.760  16.327  12.547  1.00  0.00    -0.100 Cl
HETATM    9 CL3  UNL     1      24.015  14.069  12.334  1.00  0.00    -0.100 Cl
ENDROOT
BRANCH   1  10
HETATM   10  C3  UNL     1      27.305  14.803  10.675  1.00  0.00     0.131 C 
BRANCH  10  11
HETATM   11  C2  UNL     1      27.955  13.674  11.335  1.00  0.00     0.219 C 
HETATM   12  N1  UNL     1      28.788  12.829  10.584  1.00  0.00    -0.365 N 
HETATM   13  C1  UNL     1      29.466  11.692  11.167  1.00  0.00     0.149 C 
ATOM     14  H1  UNL     1      28.919  13.024   9.592  1.00  0.00     0.161 HD
HETATM   15  O1  UNL     1      27.802  13.425  12.540  1.00  0.00    -0.274 OA
ENDBRANCH  10  11
ENDBRANCH   1  10
TORSDOF 2
ENDMDL
MODEL 2
REMARK VINA RESULT: -5.108360149      3.193      4.755
REMARK  2 active torsions:
REMARK  status: ('A' for Active; 'I' for Inactive)
REMARK       I    between atoms: N1_2  and  C2_4 
REMARK    1  A    between atoms: C2_4  and  C3_6 
REMARK    2  A    between atoms: C3_6  and  C4_7 
ROOT
HETATM    1  C4  UNL     1      23.905  15.494  10.753  1.00  0.00     0.080 C 
HETATM    2 CL1  UNL     1      24.437  17.197  10.756  1.00  0.00    -0.115 Cl
HETATM    3  C5  UNL     1      23.054  15.331   9.509  1.00  0.00     0.029 C 
HETATM    4  C6  UNL     1      23.813  15.314   8.233  1.00  0.00     0.002 C 
HETATM    5  C7  UNL     1      25.299  15.076   8.418  1.00  0.00     0.003 C 
HETATM    6  C8  UNL     1      25.383  13.955   9.437  1.00  0.00     0.044 C 
HETATM    7  C9  UNL     1      25.113  14.643  10.777  1.00  0.00     0.135 C 
HETATM    8 CL2  UNL     1      25.044  13.300  11.966  1.00  0.00    -0.100 Cl
HETATM    9 CL3  UNL     1      26.625  15.532  11.126  1.00  0.00    -0.100 Cl
ENDROOT
BRANCH   1  10
HETATM   10  C3  UNL     1      22.958  15.265  11.899  1.00  0.00     0.131 C 
BRANCH  10  11
HETATM   11  C2  UNL     1      23.113  16.142  13.057  1.00  0.00     0.219 C 
HETATM   12  N1  UNL     1      22.122  17.100  13.326  1.00  0.00    -0.365 N 
HETATM   13  C1  UNL     1      22.204  18.004  14.452  1.00  0.00     0.149 C 
ATOM     14  H1  UNL     1      21.315  17.161  12.705  1.00  0.00     0.161 HD
HETATM   15  O1  UNL     1      24.089  16.080  13.819  1.00  0.00    -0.274 OA
ENDBRANCH  10  11
ENDBRANCH   1  10
TORSDOF 2
ENDMDL
MODEL 3
REMARK VINA RESULT: -4.887372060      3.712      5.026
REMARK  2 active torsions:
REMARK  status: ('A' for Active; 'I' for Inactive)
REMARK       I    between atoms: N1_2  and  C2_4 
REMARK    1  A    between atoms: C2_4  and  C3_6 
REMARK    2  A    between atoms: C3_6  and  C4_7 
ROOT
HETATM    1  C4  UNL     1      23.793  15.655  11.065  1.00  0.00     0.080 C 
HETATM    2 CL1  UNL     1      22.371  15.053  10.171  1.00  0.00    -0.115 Cl
HETATM    3  C5  UNL     1      24.569  14.420  11.481  1.00  0.00     0.029 C 
HETATM    4  C6  UNL     1      25.291  13.737  10.377  1.00  0.00     0.002 C 
HETATM    5  C7  UNL     1      25.439  14.593   9.134  1.00  0.00     0.003 C 
HETATM    6  C8  UNL     1      25.842  15.960   9.654  1.00  0.00     0.044 C 
HETATM    7  C9  UNL     1      24.535  16.566  10.170  1.00  0.00     0.135 C 
HETATM    8 CL2  UNL     1      25.030  18.111  10.939  1.00  0.00    -0.100 Cl
HETATM    9 CL3  UNL     1      23.646  17.019   8.686  1.00  0.00    -0.100 Cl
ENDROOT
BRANCH   1  10
HETATM   10  C3  UNL     1      23.343  16.279  12.357  1.00  0.00     0.131 C 
BRANCH  10  11
HETATM   11  C2  UNL     1      21.998  15.933  12.814  1.00  0.00     0.219 C 
HETATM   12  N1  UNL     1      21.802  14.735  13.518  1.00  0.00    -0.365 N 
HETATM   13  C1  UNL     1      20.502  14.325  14.002  1.00  0.00     0.149 C 
ATOM     14  H1  UNL     1      22.605  14.131  13.694  1.00  0.00     0.161 HD
HETATM   15  O1  UNL     1      21.014  16.658  12.605  1.00  0.00    -0.274 OA
ENDBRANCH  10  11
ENDBRANCH   1  10
TORSDOF 2
ENDMDL
MODEL 4
REMARK VINA RESULT: -4.857021912      1.097      1.138
REMARK  2 active torsions:
REMARK  status: ('A' for Active; 'I' for Inactive)
REMARK       I    between atoms: N1_2  and  C2_4 
REMARK    1  A    between atoms: C2_4  and  C3_6 
REMARK    2  A    between atoms: C3_6  and  C4_7 
ROOT
HETATM    1  C4  UNL     1      25.493  15.175  10.227  1.00  0.00     0.080 C 
HETATM    2 CL1  UNL     1      24.906  13.673  10.991  1.00  0.00    -0.115 Cl
HETATM    3  C5  UNL     1      25.585  14.872   8.744  1.00  0.00     0.029 C 
HETATM    4  C6  UNL     1      24.279  14.779   8.044  1.00  0.00     0.002 C 
HETATM    5  C7  UNL     1      23.129  15.374   8.834  1.00  0.00     0.003 C 
HETATM    6  C8  UNL     1      23.675  16.679   9.382  1.00  0.00     0.044 C 
HETATM    7  C9  UNL     1      24.544  16.255  10.567  1.00  0.00     0.135 C 
HETATM    8 CL2  UNL     1      25.327  17.775  11.118  1.00  0.00    -0.100 Cl
HETATM    9 CL3  UNL     1      23.368  15.819  11.842  1.00  0.00    -0.100 Cl
ENDROOT
BRANCH   1  10
HETATM   10  C3  UNL     1      26.912  15.432  10.656  1.00  0.00     0.131 C 
BRANCH  10  11
HETATM   11  C2  UNL     1      27.591  14.338  11.346  1.00  0.00     0.219 C 
HETATM   12  N1  UNL     1      28.261  13.363  10.591  1.00  0.00    -0.365 N 
HETATM   13  C1  UNL     1      28.957  12.252  11.201  1.00  0.00     0.149 C 
ATOM     14  H1  UNL     1      28.257  13.441   9.574  1.00  0.00     0.161 HD
HETATM   15  O1  UNL     1      27.603  14.232  12.582  1.00  0.00    -0.274 OA
ENDBRANCH  10  11
ENDBRANCH   1  10
TORSDOF 2
ENDMDL
MODEL 5
REMARK VINA RESULT: -4.852467034      1.203      1.224
REMARK  2 active torsions:
REMARK  status: ('A' for Active; 'I' for Inactive)
REMARK       I    between atoms: N1_2  and  C2_4 
REMARK    1  A    between atoms: C2_4  and  C3_6 
REMARK    2  A    between atoms: C3_6  and  C4_7 
ROOT
HETATM    1  C4  UNL     1      25.721  14.799  10.302  1.00  0.00     0.080 C 
HETATM    2 CL1  UNL     1      25.457  13.035  10.293  1.00  0.00    -0.115 Cl
HETATM    3  C5  UNL     1      25.609  15.239   8.856  1.00  0.00     0.029 C 
HETATM    4  C6  UNL     1      24.228  15.238   8.310  1.00  0.00     0.002 C 
HETATM    5  C7  UNL     1      23.156  15.174   9.381  1.00  0.00     0.003 C 
HETATM    6  C8  UNL     1      23.617  16.154  10.443  1.00  0.00     0.044 C 
HETATM    7  C9  UNL     1      24.713  15.401  11.199  1.00  0.00     0.135 C 
HETATM    8 CL2  UNL     1      25.379  16.611  12.347  1.00  0.00    -0.100 Cl
HETATM    9 CL3  UNL     1      23.822  14.215  12.198  1.00  0.00    -0.100 Cl
ENDROOT
BRANCH   1  10
HETATM   10  C3  UNL     1      27.147  15.089  10.683  1.00  0.00     0.131 C 
BRANCH  10  11
HETATM   11  C2  UNL     1      27.845  14.048  11.434  1.00  0.00     0.219 C 
HETATM   12  N1  UNL     1      27.576  13.895  12.803  1.00  0.00    -0.365 N 
HETATM   13  C1  UNL     1      28.226  12.889  13.613  1.00  0.00     0.149 C 
ATOM     14  H1  UNL     1      26.898  14.517  13.243  1.00  0.00     0.161 HD
HETATM   15  O1  UNL     1      28.673  13.286  10.911  1.00  0.00    -0.274 OA
ENDBRANCH  10  11
ENDBRANCH   1  10
TORSDOF 2
ENDMDL
