MODEL 1
REMARK VINA RESULT: -5.739362421      0.000      0.000
REMARK  2 active torsions:
REMARK  status: ('A' for Active; 'I' for Inactive)
REMARK    1  A    between atoms: C2_2  and  C3_3 
REMARK    2  A    between atoms: C2_2  and  S1_11 
ROOT
HETATM    1  C1  UNL     1      25.199  15.309  13.636  1.00  0.00     0.033 C 
HETATM    2  C2  UNL     1      24.370  15.281  12.629  1.00  0.00     0.013 C 
ENDROOT
BRANCH   2   3
HETATM    3  C3  UNL     1      22.948  15.320  12.909  1.00  0.00     0.089 A 
HETATM    4  N1  UNL     1      22.114  16.320  12.539  1.00  0.00    -0.359 N 
HETATM    5  C4  UNL     1      20.870  16.063  12.949  1.00  0.00     0.134 A 
ATOM      6  H1  UNL     1      22.396  17.152  12.022  1.00  0.00     0.165 HD
HETATM    7  C5  UNL     1      20.883  14.855  13.609  1.00  0.00     0.172 A 
HETATM    8  F1  UNL     1      19.831  14.205  14.192  1.00  0.00    -0.201 F 
HETATM    9  C6  UNL     1      22.175  14.400  13.581  1.00  0.00     0.184 A 
HETATM   10  F2  UNL     1      22.642  13.246  14.113  1.00  0.00    -0.200 F 
ENDBRANCH   2   3
BRANCH   2  11
HETATM   11  S1  UNL     1      24.925  15.206  11.049  1.00  0.00    -0.167 SA
HETATM   12  C7  UNL     1      25.044  16.658  10.131  1.00  0.00     0.070 C 
HETATM   13  C8  UNL     1      23.884  16.745   9.181  1.00  0.00     0.011 C 
HETATM   14  C9  UNL     1      23.460  15.343   8.763  1.00  0.00     0.020 C 
HETATM   15  C10 UNL     1      24.590  14.663   8.064  1.00  0.00     0.114 C 
HETATM   16  N2  UNL     1      25.426  13.862   8.881  1.00  0.00    -0.413 N 
HETATM   17  C11 UNL     1      25.015  13.709  10.233  1.00  0.00     0.183 C 
ATOM     18  H2  UNL     1      26.273  13.421   8.521  1.00  0.00     0.153 HD
ENDBRANCH   2  11
TORSDOF 2
ENDMDL
MODEL 2
REMARK VINA RESULT: -5.658355114      3.915      5.710
REMARK  2 active torsions:
REMARK  status: ('A' for Active; 'I' for Inactive)
REMARK    1  A    between atoms: C2_2  and  C3_3 
REMARK    2  A    between atoms: C2_2  and  S1_11 
ROOT
HETATM    1  C1  UNL     1      25.989  14.174  12.604  1.00  0.00     0.033 C 
HETATM    2  C2  UNL     1      26.661  14.115  11.487  1.00  0.00     0.013 C 
ENDROOT
BRANCH   2   3
HETATM    3  C3  UNL     1      27.976  13.506  11.509  1.00  0.00     0.089 A 
HETATM    4  N1  UNL     1      29.034  13.973  12.213  1.00  0.00    -0.359 N 
HETATM    5  C4  UNL     1      30.101  13.195  12.021  1.00  0.00     0.134 A 
ATOM      6  H1  UNL     1      29.018  14.802  12.806  1.00  0.00     0.165 HD
HETATM    7  C5  UNL     1      29.737  12.182  11.163  1.00  0.00     0.172 A 
HETATM    8  F1  UNL     1      30.512  11.158  10.694  1.00  0.00    -0.201 F 
HETATM    9  C6  UNL     1      28.418  12.381  10.850  1.00  0.00     0.184 A 
HETATM   10  F2  UNL     1      27.651  11.617  10.034  1.00  0.00    -0.200 F 
ENDBRANCH   2   3
BRANCH   2  11
HETATM   11  S1  UNL     1      26.027  14.721  10.059  1.00  0.00    -0.167 SA
HETATM   12  C7  UNL     1      25.910  16.426   9.848  1.00  0.00     0.070 C 
HETATM   13  C8  UNL     1      24.489  16.860  10.068  1.00  0.00     0.011 C 
HETATM   14  C9  UNL     1      23.543  15.743   9.644  1.00  0.00     0.020 C 
HETATM   15  C10 UNL     1      23.727  15.454   8.191  1.00  0.00     0.114 C 
HETATM   16  N2  UNL     1      24.640  14.414   7.882  1.00  0.00    -0.413 N 
HETATM   17  C11 UNL     1      25.170  13.701   8.990  1.00  0.00     0.183 C 
ATOM     18  H2  UNL     1      24.900  14.191   6.921  1.00  0.00     0.153 HD
ENDBRANCH   2  11
TORSDOF 2
ENDMDL
MODEL 3
REMARK VINA RESULT: -5.484113360      1.774      2.180
REMARK  2 active torsions:
REMARK  status: ('A' for Active; 'I' for Inactive)
REMARK    1  A    between atoms: C2_2  and  C3_3 
REMARK    2  A    between atoms: C2_2  and  S1_11 
ROOT
HETATM    1  C1  UNL     1      26.962  15.037  12.776  1.00  0.00     0.033 C 
HETATM    2  C2  UNL     1      25.853  14.688  12.184  1.00  0.00     0.013 C 
ENDROOT
BRANCH   2   3
HETATM    3  C3  UNL     1      24.798  14.107  12.991  1.00  0.00     0.089 A 
HETATM    4  N1  UNL     1      24.948  13.038  13.808  1.00  0.00    -0.359 N 
HETATM    5  C4  UNL     1      23.792  12.745  14.407  1.00  0.00     0.134 A 
ATOM      6  H1  UNL     1      25.821  12.529  13.946  1.00  0.00     0.165 HD
HETATM    7  C5  UNL     1      22.849  13.648  13.972  1.00  0.00     0.172 A 
HETATM    8  F1  UNL     1      21.531  13.722  14.325  1.00  0.00    -0.201 F 
HETATM    9  C6  UNL     1      23.480  14.489  13.094  1.00  0.00     0.184 A 
HETATM   10  F2  UNL     1      22.927  15.530  12.425  1.00  0.00    -0.200 F 
ENDBRANCH   2   3
BRANCH   2  11
HETATM   11  S1  UNL     1      25.643  14.907  10.536  1.00  0.00    -0.167 SA
HETATM   12  C7  UNL     1      25.606  16.506   9.899  1.00  0.00     0.070 C 
HETATM   13  C8  UNL     1      24.184  16.899   9.616  1.00  0.00     0.011 C 
HETATM   14  C9  UNL     1      23.379  15.662   9.234  1.00  0.00     0.020 C 
HETATM   15  C10 UNL     1      23.953  15.052   7.998  1.00  0.00     0.114 C 
HETATM   16  N2  UNL     1      24.905  14.022   8.205  1.00  0.00    -0.413 N 
HETATM   17  C11 UNL     1      25.102  13.619   9.554  1.00  0.00     0.183 C 
ATOM     18  H2  UNL     1      25.417  13.596   7.433  1.00  0.00     0.153 HD
ENDBRANCH   2  11
TORSDOF 2
ENDMDL
MODEL 4
REMARK VINA RESULT: -5.448204047      3.207      4.494
REMARK  2 active torsions:
REMARK  status: ('A' for Active; 'I' for Inactive)
REMARK    1  A    between atoms: C2_2  and  C3_3 
REMARK    2  A    between atoms: C2_2  and  S1_11 
ROOT
HETATM    1  C1  UNL     1      23.757  14.136  12.850  1.00  0.00     0.033 C 
HETATM    2  C2  UNL     1      24.627  14.294  11.891  1.00  0.00     0.013 C 
ENDROOT
BRANCH   2   3
HETATM    3  C3  UNL     1      24.485  15.442  11.017  1.00  0.00     0.089 A 
HETATM    4  N1  UNL     1      24.932  16.688  11.296  1.00  0.00    -0.359 N 
HETATM    5  C4  UNL     1      24.644  17.522  10.295  1.00  0.00     0.134 A 
ATOM      6  H1  UNL     1      25.421  16.953  12.152  1.00  0.00     0.165 HD
HETATM    7  C5  UNL     1      23.985  16.803   9.324  1.00  0.00     0.172 A 
HETATM    8  F1  UNL     1      23.505  17.254   8.125  1.00  0.00    -0.201 F 
HETATM    9  C6  UNL     1      23.889  15.514   9.778  1.00  0.00     0.184 A 
HETATM   10  F2  UNL     1      23.314  14.467   9.139  1.00  0.00    -0.200 F 
ENDBRANCH   2   3
BRANCH   2  11
HETATM   11  S1  UNL     1      25.884  13.207  11.671  1.00  0.00    -0.167 SA
HETATM   12  C7  UNL     1      27.078  13.042  12.901  1.00  0.00     0.070 C 
HETATM   13  C8  UNL     1      28.321  13.779  12.492  1.00  0.00     0.011 C 
HETATM   14  C9  UNL     1      28.453  13.753  10.975  1.00  0.00     0.020 C 
HETATM   15  C10 UNL     1      28.568  12.341  10.504  1.00  0.00     0.114 C 
HETATM   16  N2  UNL     1      27.352  11.719  10.126  1.00  0.00    -0.413 N 
HETATM   17  C11 UNL     1      26.200  12.550  10.127  1.00  0.00     0.183 C 
ATOM     18  H2  UNL     1      27.307  10.733   9.868  1.00  0.00     0.153 HD
ENDBRANCH   2  11
TORSDOF 2
ENDMDL
MODEL 5
REMARK VINA RESULT: -5.379651278      3.139      5.533
REMARK  2 active torsions:
REMARK  status: ('A' for Active; 'I' for Inactive)
REMARK    1  A    between atoms: C2_2  and  C3_3 
REMARK    2  A    between atoms: C2_2  and  S1_11 
ROOT
HETATM    1  C1  UNL     1      24.213  14.784   8.149  1.00  0.00     0.033 C 
HETATM    2  C2  UNL     1      24.649  14.924   9.371  1.00  0.00     0.013 C 
ENDROOT
BRANCH   2   3
HETATM    3  C3  UNL     1      25.753  14.092   9.807  1.00  0.00     0.089 A 
HETATM    4  N1  UNL     1      25.727  12.740   9.865  1.00  0.00    -0.359 N 
HETATM    5  C4  UNL     1      26.894  12.271  10.310  1.00  0.00     0.134 A 
ATOM      6  H1  UNL     1      24.929  12.161   9.605  1.00  0.00     0.165 HD
HETATM    7  C5  UNL     1      27.717  13.348  10.554  1.00  0.00     0.172 A 
HETATM    8  F1  UNL     1      29.003  13.335  11.019  1.00  0.00    -0.201 F 
HETATM    9  C6  UNL     1      27.002  14.474  10.240  1.00  0.00     0.184 A 
HETATM   10  F2  UNL     1      27.426  15.758  10.329  1.00  0.00    -0.200 F 
ENDBRANCH   2   3
BRANCH   2  11
HETATM   11  S1  UNL     1      23.958  16.039  10.415  1.00  0.00    -0.167 SA
HETATM   12  C7  UNL     1      24.567  17.650  10.446  1.00  0.00     0.070 C 
HETATM   13  C8  UNL     1      25.446  17.828  11.651  1.00  0.00     0.011 C 
HETATM   14  C9  UNL     1      24.949  16.936  12.782  1.00  0.00     0.020 C 
HETATM   15  C10 UNL     1      23.556  17.325  13.154  1.00  0.00     0.114 C 
HETATM   16  N2  UNL     1      22.523  16.601  12.508  1.00  0.00    -0.413 N 
HETATM   17  C11 UNL     1      22.939  15.521  11.684  1.00  0.00     0.183 C 
ATOM     18  H2  UNL     1      21.539  16.841  12.628  1.00  0.00     0.153 HD
ENDBRANCH   2  11
TORSDOF 2
ENDMDL
