MODEL 1
REMARK VINA RESULT: -6.181986640      0.000      0.000
REMARK  2 active torsions:
REMARK  status: ('A' for Active; 'I' for Inactive)
REMARK       I    between atoms: C1_2  and  N2_4 
REMARK    1  A    between atoms: N2_4  and  C2_6 
REMARK    2  A    between atoms: C6_11  and  C7_12 
ROOT
HETATM    1  C2  UNL     1      24.166  14.523  10.963  1.00  0.00     0.097 C 
HETATM    2  C3  UNL     1      23.159  15.497  10.332  1.00  0.00     0.063 C 
HETATM    3  C4  UNL     1      24.027  16.574   9.691  1.00  0.00     0.172 C 
HETATM    4  F1  UNL     1      23.480  16.843   8.456  1.00  0.00    -0.249 F 
HETATM    5  C5  UNL     1      25.406  15.976   9.513  1.00  0.00     0.048 C 
HETATM    6  C6  UNL     1      25.246  14.545   9.905  1.00  0.00     0.044 C 
ENDROOT
BRANCH   6   7
HETATM    7  C7  UNL     1      26.493  13.886  10.273  1.00  0.00    -0.052 A 
HETATM    8  C8  UNL     1      27.513  14.541  10.907  1.00  0.00     0.011 A 
HETATM    9  C9  UNL     1      28.702  13.903  11.259  1.00  0.00     0.043 A 
HETATM   10  C10 UNL     1      28.870  12.578  10.968  1.00  0.00     0.116 A 
HETATM   11  F2  UNL     1      30.033  11.927  11.306  1.00  0.00    -0.206 F 
HETATM   12  C11 UNL     1      27.860  11.887  10.329  1.00  0.00     0.043 A 
HETATM   13  C12 UNL     1      26.680  12.547   9.987  1.00  0.00     0.011 A 
ENDBRANCH   6   7
BRANCH   1  14
HETATM   14  N2  UNL     1      24.562  14.992  12.246  1.00  0.00    -0.340 N 
HETATM   15  C1  UNL     1      24.818  14.097  13.319  1.00  0.00     0.329 C 
HETATM   16  N1  UNL     1      25.217  14.562  14.613  1.00  0.00    -0.040 NA
HETATM   17  O1  UNL     1      24.692  12.875  13.127  1.00  0.00    -0.251 OA
ATOM     18  H2  UNL     1      24.666  15.995  12.399  1.00  0.00     0.164 HD
ENDBRANCH   1  14
TORSDOF 2
ENDMDL
MODEL 2
REMARK VINA RESULT: -5.904952139      2.736      4.982
REMARK  2 active torsions:
REMARK  status: ('A' for Active; 'I' for Inactive)
REMARK       I    between atoms: C1_2  and  N2_4 
REMARK    1  A    between atoms: N2_4  and  C2_6 
REMARK    2  A    between atoms: C6_11  and  C7_12 
ROOT
HETATM    1  C2  UNL     1      26.430  14.023  12.596  1.00  0.00     0.097 C 
HETATM    2  C3  UNL     1      26.389  13.474  14.030  1.00  0.00     0.063 C 
HETATM    3  C4  UNL     1      24.943  13.674  14.469  1.00  0.00     0.172 C 
HETATM    4  F1  UNL     1      24.564  12.526  15.129  1.00  0.00    -0.249 F 
HETATM    5  C5  UNL     1      24.119  13.827  13.209  1.00  0.00     0.048 C 
HETATM    6  C6  UNL     1      25.080  13.555  12.100  1.00  0.00     0.044 C 
ENDROOT
BRANCH   6   7
HETATM    7  C7  UNL     1      24.667  14.094  10.809  1.00  0.00    -0.052 A 
HETATM    8  C8  UNL     1      25.310  13.781   9.643  1.00  0.00     0.011 A 
HETATM    9  C9  UNL     1      24.908  14.298   8.411  1.00  0.00     0.043 A 
HETATM   10  C10 UNL     1      23.838  15.146   8.351  1.00  0.00     0.116 A 
HETATM   11  F2  UNL     1      23.422  15.668   7.148  1.00  0.00    -0.206 F 
HETATM   12  C11 UNL     1      23.167  15.482   9.509  1.00  0.00     0.043 A 
HETATM   13  C12 UNL     1      23.588  14.952  10.730  1.00  0.00     0.011 A 
ENDBRANCH   6   7
BRANCH   1  14
HETATM   14  N2  UNL     1      26.613  15.433  12.617  1.00  0.00    -0.340 N 
HETATM   15  C1  UNL     1      27.581  16.070  11.794  1.00  0.00     0.329 C 
HETATM   16  N1  UNL     1      27.771  17.489  11.810  1.00  0.00    -0.040 NA
HETATM   17  O1  UNL     1      28.280  15.374  11.038  1.00  0.00    -0.251 OA
ATOM     18  H2  UNL     1      26.036  16.001  13.237  1.00  0.00     0.164 HD
ENDBRANCH   1  14
TORSDOF 2
ENDMDL
MODEL 3
REMARK VINA RESULT: -5.882641096      2.846      3.866
REMARK  2 active torsions:
REMARK  status: ('A' for Active; 'I' for Inactive)
REMARK       I    between atoms: C1_2  and  N2_4 
REMARK    1  A    between atoms: N2_4  and  C2_6 
REMARK    2  A    between atoms: C6_11  and  C7_12 
ROOT
HETATM    1  C2  UNL     1      23.788  16.200  12.048  1.00  0.00     0.097 C 
HETATM    2  C3  UNL     1      22.661  16.531  13.038  1.00  0.00     0.063 C 
HETATM    3  C4  UNL     1      22.140  15.170  13.485  1.00  0.00     0.172 C 
HETATM    4  F1  UNL     1      21.946  15.247  14.847  1.00  0.00    -0.249 F 
HETATM    5  C5  UNL     1      23.231  14.164  13.187  1.00  0.00     0.048 C 
HETATM    6  C6  UNL     1      24.386  14.991  12.732  1.00  0.00     0.044 C 
ENDROOT
BRANCH   6   7
HETATM    7  C7  UNL     1      25.373  14.255  11.948  1.00  0.00    -0.052 A 
HETATM    8  C8  UNL     1      25.077  13.083  11.308  1.00  0.00     0.011 A 
HETATM    9  C9  UNL     1      26.024  12.387  10.557  1.00  0.00     0.043 A 
HETATM   10  C10 UNL     1      27.295  12.879  10.448  1.00  0.00     0.116 A 
HETATM   11  F2  UNL     1      28.246  12.211   9.713  1.00  0.00    -0.206 F 
HETATM   12  C11 UNL     1      27.626  14.059  11.082  1.00  0.00     0.043 A 
HETATM   13  C12 UNL     1      26.661  14.738  11.827  1.00  0.00     0.011 A 
ENDBRANCH   6   7
BRANCH   1  14
HETATM   14  N2  UNL     1      23.249  15.961  10.754  1.00  0.00    -0.340 N 
HETATM   15  C1  UNL     1      23.904  16.418   9.579  1.00  0.00     0.329 C 
HETATM   16  N1  UNL     1      23.367  16.181   8.273  1.00  0.00    -0.040 NA
HETATM   17  O1  UNL     1      24.975  17.039   9.689  1.00  0.00    -0.251 OA
ATOM     18  H2  UNL     1      22.371  15.450  10.668  1.00  0.00     0.164 HD
ENDBRANCH   1  14
TORSDOF 2
ENDMDL
MODEL 4
REMARK VINA RESULT: -5.877902452      2.740      4.953
REMARK  2 active torsions:
REMARK  status: ('A' for Active; 'I' for Inactive)
REMARK       I    between atoms: C1_2  and  N2_4 
REMARK    1  A    between atoms: N2_4  and  C2_6 
REMARK    2  A    between atoms: C6_11  and  C7_12 
ROOT
HETATM    1  C2  UNL     1      26.396  14.063  12.542  1.00  0.00     0.097 C 
HETATM    2  C3  UNL     1      26.380  13.495  13.970  1.00  0.00     0.063 C 
HETATM    3  C4  UNL     1      24.945  13.704  14.441  1.00  0.00     0.172 C 
HETATM    4  F1  UNL     1      24.569  12.550  15.094  1.00  0.00    -0.249 F 
HETATM    5  C5  UNL     1      24.097  13.880  13.201  1.00  0.00     0.048 C 
HETATM    6  C6  UNL     1      25.032  13.613  12.069  1.00  0.00     0.044 C 
ENDROOT
BRANCH   6   7
HETATM    7  C7  UNL     1      24.598  14.172  10.793  1.00  0.00    -0.052 A 
HETATM    8  C8  UNL     1      23.503  14.984  10.681  1.00  0.00     0.011 A 
HETATM    9  C9  UNL     1      23.096  15.519   9.458  1.00  0.00     0.043 A 
HETATM   10  C10 UNL     1      23.805  15.231   8.326  1.00  0.00     0.116 A 
HETATM   11  F2  UNL     1      23.424  15.746   7.109  1.00  0.00    -0.206 F 
HETATM   12  C11 UNL     1      24.915  14.416   8.405  1.00  0.00     0.043 A 
HETATM   13  C12 UNL     1      25.303  13.892   9.639  1.00  0.00     0.011 A 
ENDBRANCH   6   7
BRANCH   1  14
HETATM   14  N2  UNL     1      26.593  15.470  12.577  1.00  0.00    -0.340 N 
HETATM   15  C1  UNL     1      27.577  16.105  11.771  1.00  0.00     0.329 C 
HETATM   16  N1  UNL     1      27.781  17.521  11.801  1.00  0.00    -0.040 NA
HETATM   17  O1  UNL     1      28.279  15.408  11.018  1.00  0.00    -0.251 OA
ATOM     18  H2  UNL     1      26.014  16.039  13.195  1.00  0.00     0.164 HD
ENDBRANCH   1  14
TORSDOF 2
ENDMDL
MODEL 5
REMARK VINA RESULT: -5.873314807      1.378      4.881
REMARK  2 active torsions:
REMARK  status: ('A' for Active; 'I' for Inactive)
REMARK       I    between atoms: C1_2  and  N2_4 
REMARK    1  A    between atoms: N2_4  and  C2_6 
REMARK    2  A    between atoms: C6_11  and  C7_12 
ROOT
HETATM    1  C2  UNL     1      27.519  13.657  12.278  1.00  0.00     0.097 C 
HETATM    2  C3  UNL     1      28.736  12.736  12.461  1.00  0.00     0.063 C 
HETATM    3  C4  UNL     1      28.747  11.874  11.204  1.00  0.00     0.172 C 
HETATM    4  F1  UNL     1      30.059  11.793  10.790  1.00  0.00    -0.249 F 
HETATM    5  C5  UNL     1      27.933  12.607  10.161  1.00  0.00     0.048 C 
HETATM    6  C6  UNL     1      27.616  13.922  10.792  1.00  0.00     0.044 C 
ENDROOT
BRANCH   6   7
HETATM    7  C7  UNL     1      26.469  14.604  10.203  1.00  0.00    -0.052 A 
HETATM    8  C8  UNL     1      25.604  13.981   9.346  1.00  0.00     0.011 A 
HETATM    9  C9  UNL     1      24.507  14.639   8.790  1.00  0.00     0.043 A 
HETATM   10  C10 UNL     1      24.274  15.949   9.102  1.00  0.00     0.116 A 
HETATM   11  F2  UNL     1      23.199  16.619   8.566  1.00  0.00    -0.206 F 
HETATM   12  C11 UNL     1      25.128  16.606   9.964  1.00  0.00     0.043 A 
HETATM   13  C12 UNL     1      26.220  15.928  10.508  1.00  0.00     0.011 A 
ENDBRANCH   6   7
BRANCH   1  14
HETATM   14  N2  UNL     1      26.335  12.994  12.700  1.00  0.00    -0.340 N 
HETATM   15  C1  UNL     1      25.368  13.644  13.514  1.00  0.00     0.329 C 
HETATM   16  N1  UNL     1      24.173  12.982  13.943  1.00  0.00    -0.040 NA
HETATM   17  O1  UNL     1      25.565  14.821  13.861  1.00  0.00    -0.251 OA
ATOM     18  H2  UNL     1      26.175  12.028  12.413  1.00  0.00     0.164 HD
ENDBRANCH   1  14
TORSDOF 2
ENDMDL
