MODEL 1
REMARK VINA RESULT: -5.519722402      0.000      0.000
REMARK  2 active torsions:
REMARK  status: ('A' for Active; 'I' for Inactive)
REMARK       I    between atoms: C1_2  and  N2_4 
REMARK    1  A    between atoms: N2_4  and  C2_6 
REMARK    2  A    between atoms: C2_6  and  C3_8 
ROOT
HETATM    1  C3  UNL     1      24.008  14.901  10.988  1.00  0.00     0.014 A 
HETATM    2  C4  UNL     1      24.684  13.878  11.630  1.00  0.00     0.013 A 
HETATM    3  C5  UNL     1      25.564  13.050  10.961  1.00  0.00     0.001 A 
HETATM    4  C6  UNL     1      25.731  13.302   9.613  1.00  0.00     0.003 A 
HETATM    5  C7  UNL     1      25.060  14.320   8.964  1.00  0.00     0.043 A 
HETATM    6  C8  UNL     1      24.189  15.132   9.650  1.00  0.00     0.125 A 
HETATM    7  F1  UNL     1      23.508  16.148   9.042  1.00  0.00    -0.205 F 
ENDROOT
BRANCH   1   8
HETATM    8  C2  UNL     1      23.083  15.744  11.773  1.00  0.00     0.194 C 
HETATM    9 BR1  UNL     1      24.171  17.155  12.577  1.00  0.00    -0.063 Br
BRANCH   8  10
HETATM   10  N2  UNL     1      22.441  15.059  12.844  1.00  0.00    -0.327 N 
HETATM   11  C1  UNL     1      21.110  15.279  13.287  1.00  0.00     0.329 C 
HETATM   12  N1  UNL     1      20.493  14.601  14.336  1.00  0.00    -0.040 NA
HETATM   13  O1  UNL     1      20.450  16.174  12.655  1.00  0.00    -0.251 OA
ATOM     14  H2  UNL     1      22.984  14.350  13.336  1.00  0.00     0.165 HD
ENDBRANCH   8  10
ENDBRANCH   1   8
TORSDOF 2
ENDMDL
MODEL 2
REMARK VINA RESULT: -5.135480920      3.790      4.900
REMARK  2 active torsions:
REMARK  status: ('A' for Active; 'I' for Inactive)
REMARK       I    between atoms: C1_2  and  N2_4 
REMARK    1  A    between atoms: N2_4  and  C2_6 
REMARK    2  A    between atoms: C2_6  and  C3_8 
ROOT
HETATM    1  C3  UNL     1      24.617  15.165  10.662  1.00  0.00     0.014 A 
HETATM    2  C4  UNL     1      24.146  14.164  11.494  1.00  0.00     0.013 A 
HETATM    3  C5  UNL     1      23.466  14.441  12.662  1.00  0.00     0.001 A 
HETATM    4  C6  UNL     1      23.281  15.778  12.955  1.00  0.00     0.003 A 
HETATM    5  C7  UNL     1      23.747  16.786  12.132  1.00  0.00     0.043 A 
HETATM    6  C8  UNL     1      24.421  16.485  10.973  1.00  0.00     0.125 A 
HETATM    7  F1  UNL     1      24.896  17.453  10.135  1.00  0.00    -0.205 F 
ENDROOT
BRANCH   1   8
HETATM    8  C2  UNL     1      25.336  14.787   9.428  1.00  0.00     0.194 C 
HETATM    9 BR1  UNL     1      24.048  14.953   7.967  1.00  0.00    -0.063 Br
BRANCH   8  10
HETATM   10  N2  UNL     1      25.800  13.440   9.417  1.00  0.00    -0.327 N 
HETATM   11  C1  UNL     1      27.004  12.975  10.008  1.00  0.00     0.329 C 
HETATM   12  N1  UNL     1      27.446  11.654   9.990  1.00  0.00    -0.040 NA
HETATM   13  O1  UNL     1      27.717  13.859  10.594  1.00  0.00    -0.251 OA
ATOM     14  H2  UNL     1      25.217  12.750   8.944  1.00  0.00     0.165 HD
ENDBRANCH   8  10
ENDBRANCH   1   8
TORSDOF 2
ENDMDL
MODEL 3
REMARK VINA RESULT: -5.122049407      3.151      3.693
REMARK  2 active torsions:
REMARK  status: ('A' for Active; 'I' for Inactive)
REMARK       I    between atoms: C1_2  and  N2_4 
REMARK    1  A    between atoms: N2_4  and  C2_6 
REMARK    2  A    between atoms: C2_6  and  C3_8 
ROOT
HETATM    1  C3  UNL     1      24.621  14.912  10.510  1.00  0.00     0.014 A 
HETATM    2  C4  UNL     1      25.331  14.345   9.465  1.00  0.00     0.013 A 
HETATM    3  C5  UNL     1      25.983  13.135   9.594  1.00  0.00     0.001 A 
HETATM    4  C6  UNL     1      25.886  12.521  10.827  1.00  0.00     0.003 A 
HETATM    5  C7  UNL     1      25.180  13.078  11.876  1.00  0.00     0.043 A 
HETATM    6  C8  UNL     1      24.539  14.283  11.725  1.00  0.00     0.125 A 
HETATM    7  F1  UNL     1      23.832  14.865  12.738  1.00  0.00    -0.205 F 
ENDROOT
BRANCH   1   8
HETATM    8  C2  UNL     1      23.950  16.210  10.293  1.00  0.00     0.194 C 
HETATM    9 BR1  UNL     1      23.322  16.203   8.442  1.00  0.00    -0.063 Br
BRANCH   8  10
HETATM   10  N2  UNL     1      24.810  17.338  10.431  1.00  0.00    -0.327 N 
HETATM   11  C1  UNL     1      24.848  18.217  11.545  1.00  0.00     0.329 C 
HETATM   12  N1  UNL     1      25.694  19.317  11.668  1.00  0.00    -0.040 NA
HETATM   13  O1  UNL     1      24.030  17.955  12.493  1.00  0.00    -0.251 OA
ATOM     14  H2  UNL     1      25.453  17.530   9.664  1.00  0.00     0.165 HD
ENDBRANCH   8  10
ENDBRANCH   1   8
TORSDOF 2
ENDMDL
MODEL 4
REMARK VINA RESULT: -4.998651470      3.342      3.831
REMARK  2 active torsions:
REMARK  status: ('A' for Active; 'I' for Inactive)
REMARK       I    between atoms: C1_2  and  N2_4 
REMARK    1  A    between atoms: N2_4  and  C2_6 
REMARK    2  A    between atoms: C2_6  and  C3_8 
ROOT
HETATM    1  C3  UNL     1      25.168  14.601  10.287  1.00  0.00     0.014 A 
HETATM    2  C4  UNL     1      24.906  14.100   9.023  1.00  0.00     0.013 A 
HETATM    3  C5  UNL     1      24.163  14.803   8.096  1.00  0.00     0.001 A 
HETATM    4  C6  UNL     1      23.694  16.037   8.503  1.00  0.00     0.003 A 
HETATM    5  C7  UNL     1      23.949  16.546   9.762  1.00  0.00     0.043 A 
HETATM    6  C8  UNL     1      24.692  15.828  10.668  1.00  0.00     0.125 A 
HETATM    7  F1  UNL     1      24.965  16.297  11.921  1.00  0.00    -0.205 F 
ENDROOT
BRANCH   1   8
HETATM    8  C2  UNL     1      25.972  13.788  11.222  1.00  0.00     0.194 C 
HETATM    9 BR1  UNL     1      26.859  12.421  10.142  1.00  0.00    -0.063 Br
BRANCH   8  10
HETATM   10  N2  UNL     1      25.201  13.100  12.203  1.00  0.00    -0.327 N 
HETATM   11  C1  UNL     1      25.230  13.347  13.601  1.00  0.00     0.329 C 
HETATM   12  N1  UNL     1      24.471  12.667  14.550  1.00  0.00    -0.040 NA
HETATM   13  O1  UNL     1      26.024  14.271  13.989  1.00  0.00    -0.251 OA
ATOM     14  H2  UNL     1      24.574  12.366  11.873  1.00  0.00     0.165 HD
ENDBRANCH   8  10
ENDBRANCH   1   8
TORSDOF 2
ENDMDL
MODEL 5
REMARK VINA RESULT: -4.994638789      1.418      1.947
REMARK  2 active torsions:
REMARK  status: ('A' for Active; 'I' for Inactive)
REMARK       I    between atoms: C1_2  and  N2_4 
REMARK    1  A    between atoms: N2_4  and  C2_6 
REMARK    2  A    between atoms: C2_6  and  C3_8 
ROOT
HETATM    1  C3  UNL     1      24.151  14.809  11.161  1.00  0.00     0.014 A 
HETATM    2  C4  UNL     1      24.304  15.100   9.817  1.00  0.00     0.013 A 
HETATM    3  C5  UNL     1      25.102  14.336   8.989  1.00  0.00     0.001 A 
HETATM    4  C6  UNL     1      25.740  13.263   9.580  1.00  0.00     0.003 A 
HETATM    5  C7  UNL     1      25.594  12.965  10.921  1.00  0.00     0.043 A 
HETATM    6  C8  UNL     1      24.794  13.739  11.726  1.00  0.00     0.125 A 
HETATM    7  F1  UNL     1      24.625  13.475  13.055  1.00  0.00    -0.205 F 
ENDROOT
BRANCH   1   8
HETATM    8  C2  UNL     1      23.279  15.674  11.982  1.00  0.00     0.194 C 
HETATM    9 BR1  UNL     1      24.454  16.629  13.217  1.00  0.00    -0.063 Br
BRANCH   8  10
HETATM   10  N2  UNL     1      22.337  14.961  12.779  1.00  0.00    -0.327 N 
HETATM   11  C1  UNL     1      21.041  15.416  13.134  1.00  0.00     0.329 C 
HETATM   12  N1  UNL     1      20.129  14.708  13.914  1.00  0.00    -0.040 NA
HETATM   13  O1  UNL     1      20.711  16.569  12.690  1.00  0.00    -0.251 OA
ATOM     14  H2  UNL     1      22.620  14.044  13.124  1.00  0.00     0.165 HD
ENDBRANCH   8  10
ENDBRANCH   1   8
TORSDOF 2
ENDMDL
