MODEL 1
REMARK VINA RESULT: -4.916210487      0.000      0.000
REMARK  1 active torsions:
REMARK  status: ('A' for Active; 'I' for Inactive)
REMARK    1  A    between atoms: N1_1  and  C1_5 
ROOT
HETATM    1  C1  UNL     1      24.101  13.490  10.560  1.00  0.00     0.124 C 
HETATM    2  C2  UNL     1      24.067  12.430  11.617  1.00  0.00     0.043 C 
HETATM    3  C3  UNL     1      23.595  13.227  12.841  1.00  0.00    -0.007 C 
HETATM    4  C4  UNL     1      22.083  13.488  12.776  1.00  0.00     0.010 C 
HETATM    5  C5  UNL     1      22.443  14.611  11.795  1.00  0.00    -0.007 C 
HETATM    6  C6  UNL     1      22.703  14.038  10.406  1.00  0.00     0.043 C 
HETATM    7  C7  UNL     1      23.779  14.669  12.493  1.00  0.00    -0.004 C 
HETATM    8  C8  UNL     1      24.751  14.650  11.335  1.00  0.00     0.044 C 
ENDROOT
BRANCH   1   9
HETATM    9  N1  UNL     1      24.763  13.165   9.366  1.00  0.00    -0.070 N 
ATOM     10  H13 UNL     1      25.762  13.060   9.545  1.00  0.00     0.275 HD
ATOM     11  H12 UNL     1      24.523  12.212   9.089  1.00  0.00     0.275 HD
ATOM     12  H11 UNL     1      24.620  13.797   8.578  1.00  0.00     0.275 HD
ENDBRANCH   1   9
TORSDOF 1
ENDMDL
MODEL 2
REMARK VINA RESULT: -4.725402876      0.484      1.787
REMARK  1 active torsions:
REMARK  status: ('A' for Active; 'I' for Inactive)
REMARK    1  A    between atoms: N1_1  and  C1_5 
ROOT
HETATM    1  C1  UNL     1      24.265  13.490  10.635  1.00  0.00     0.124 C 
HETATM    2  C2  UNL     1      24.968  14.566  11.402  1.00  0.00     0.043 C 
HETATM    3  C3  UNL     1      23.940  14.893  12.494  1.00  0.00    -0.007 C 
HETATM    4  C4  UNL     1      23.954  13.824  13.598  1.00  0.00     0.010 C 
HETATM    5  C5  UNL     1      23.117  12.983  12.625  1.00  0.00    -0.007 C 
HETATM    6  C6  UNL     1      24.015  12.336  11.576  1.00  0.00     0.043 C 
HETATM    7  C7  UNL     1      22.648  14.293  12.039  1.00  0.00    -0.004 C 
HETATM    8  C8  UNL     1      22.843  14.073  10.556  1.00  0.00     0.044 C 
ENDROOT
BRANCH   1   9
HETATM    9  N1  UNL     1      24.809  13.151   9.387  1.00  0.00    -0.070 N 
ATOM     10  H13 UNL     1      24.322  13.662   8.651  1.00  0.00     0.275 HD
ATOM     11  H12 UNL     1      25.745  13.548   9.302  1.00  0.00     0.275 HD
ATOM     12  H11 UNL     1      24.836  12.158   9.156  1.00  0.00     0.275 HD
ENDBRANCH   1   9
TORSDOF 1
ENDMDL
MODEL 3
REMARK VINA RESULT: -4.719958866      0.540      1.850
REMARK  1 active torsions:
REMARK  status: ('A' for Active; 'I' for Inactive)
REMARK    1  A    between atoms: N1_1  and  C1_5 
ROOT
HETATM    1  C1  UNL     1      24.206  13.595  10.633  1.00  0.00     0.124 C 
HETATM    2  C2  UNL     1      22.779  14.041  10.557  1.00  0.00     0.043 C 
HETATM    3  C3  UNL     1      22.321  13.870  12.012  1.00  0.00    -0.007 C 
HETATM    4  C4  UNL     1      22.840  15.020  12.889  1.00  0.00     0.010 C 
HETATM    5  C5  UNL     1      24.171  14.256  12.890  1.00  0.00    -0.007 C 
HETATM    6  C6  UNL     1      24.929  14.510  11.591  1.00  0.00     0.043 C 
HETATM    7  C7  UNL     1      23.351  13.008  12.671  1.00  0.00    -0.004 C 
HETATM    8  C8  UNL     1      24.071  12.345  11.520  1.00  0.00     0.044 C 
ENDROOT
BRANCH   1   9
HETATM    9  N1  UNL     1      24.855  13.357   9.412  1.00  0.00    -0.070 N 
ATOM     10  H13 UNL     1      24.195  13.477   8.643  1.00  0.00     0.275 HD
ATOM     11  H12 UNL     1      25.508  14.117   9.217  1.00  0.00     0.275 HD
ATOM     12  H11 UNL     1      25.334  12.461   9.317  1.00  0.00     0.275 HD
ENDBRANCH   1   9
TORSDOF 1
ENDMDL
MODEL 4
REMARK VINA RESULT: -4.474006370      1.809      2.928
REMARK  1 active torsions:
REMARK  status: ('A' for Active; 'I' for Inactive)
REMARK    1  A    between atoms: N1_1  and  C1_5 
ROOT
HETATM    1  C1  UNL     1      22.668  13.690  12.281  1.00  0.00     0.124 C 
HETATM    2  C2  UNL     1      22.152  14.130  10.947  1.00  0.00     0.043 C 
HETATM    3  C3  UNL     1      23.448  14.538  10.231  1.00  0.00    -0.007 C 
HETATM    4  C4  UNL     1      24.218  13.300   9.746  1.00  0.00     0.010 C 
HETATM    5  C5  UNL     1      24.692  13.176  11.199  1.00  0.00    -0.007 C 
HETATM    6  C6  UNL     1      23.608  12.531  12.057  1.00  0.00     0.043 C 
HETATM    7  C7  UNL     1      24.487  14.667  11.299  1.00  0.00    -0.004 C 
HETATM    8  C8  UNL     1      23.691  14.801  12.577  1.00  0.00     0.044 C 
ENDROOT
BRANCH   1   9
HETATM    9  N1  UNL     1      21.714  13.513  13.295  1.00  0.00    -0.070 N 
ATOM     10  H13 UNL     1      21.030  12.813  13.004  1.00  0.00     0.275 HD
ATOM     11  H12 UNL     1      22.143  13.035  14.089  1.00  0.00     0.275 HD
ATOM     12  H11 UNL     1      21.231  14.351  13.619  1.00  0.00     0.275 HD
ENDBRANCH   1   9
TORSDOF 1
ENDMDL
MODEL 5
REMARK VINA RESULT: -4.423142959      1.625      2.617
REMARK  1 active torsions:
REMARK  status: ('A' for Active; 'I' for Inactive)
REMARK    1  A    between atoms: N1_1  and  C1_5 
ROOT
HETATM    1  C1  UNL     1      23.876  12.816  12.224  1.00  0.00     0.124 C 
HETATM    2  C2  UNL     1      22.563  13.473  11.935  1.00  0.00     0.043 C 
HETATM    3  C3  UNL     1      22.969  14.544  10.912  1.00  0.00    -0.007 C 
HETATM    4  C4  UNL     1      23.186  13.921   9.524  1.00  0.00     0.010 C 
HETATM    5  C5  UNL     1      24.550  13.480  10.070  1.00  0.00    -0.007 C 
HETATM    6  C6  UNL     1      24.397  12.232  10.933  1.00  0.00     0.043 C 
HETATM    7  C7  UNL     1      24.456  14.661  11.005  1.00  0.00    -0.004 C 
HETATM    8  C8  UNL     1      24.795  14.044  12.343  1.00  0.00     0.044 C 
ENDROOT
BRANCH   1   9
HETATM    9  N1  UNL     1      23.920  11.965  13.338  1.00  0.00    -0.070 N 
ATOM     10  H13 UNL     1      23.315  11.159  13.178  1.00  0.00     0.275 HD
ATOM     11  H12 UNL     1      24.831  11.507  13.385  1.00  0.00     0.275 HD
ATOM     12  H11 UNL     1      23.701  12.384  14.242  1.00  0.00     0.275 HD
ENDBRANCH   1   9
TORSDOF 1
ENDMDL
