MODEL 1
REMARK VINA RESULT: -4.490601918      0.000      0.000
REMARK  1 active torsions:
REMARK  status: ('A' for Active; 'I' for Inactive)
REMARK    1  A    between atoms: C7_7  and  O1_8 
ROOT
HETATM    1  C1  UNL     1      25.449  13.189  12.297  1.00  0.00     0.012 C 
HETATM    2  C2  UNL     1      24.145  12.649  11.758  1.00  0.00     0.011 C 
HETATM    3  C3  UNL     1      23.007  13.173  12.622  1.00  0.00     0.007 C 
HETATM    4  C4  UNL     1      22.120  13.957  11.697  1.00  0.00     0.007 C 
HETATM    5  C5  UNL     1      23.116  14.430  10.628  1.00  0.00     0.011 C 
HETATM    6  C6  UNL     1      22.360  14.937   9.442  1.00  0.00     0.012 C 
HETATM    7  C7  UNL     1      23.859  13.139  10.352  1.00  0.00     0.125 C 
ENDROOT
BRANCH   7   8
HETATM    8  O1  UNL     1      24.986  13.309   9.593  1.00  0.00    -0.395 OA
ATOM      9  H1  UNL     1      25.106  14.201   9.288  1.00  0.00     0.210 HD
ENDBRANCH   7   8
TORSDOF 1
ENDMDL
MODEL 2
REMARK VINA RESULT: -4.393727710      1.071      2.742
REMARK  1 active torsions:
REMARK  status: ('A' for Active; 'I' for Inactive)
REMARK    1  A    between atoms: C7_7  and  O1_8 
ROOT
HETATM    1  C1  UNL     1      22.991  13.984   9.126  1.00  0.00     0.012 C 
HETATM    2  C2  UNL     1      23.194  14.609  10.486  1.00  0.00     0.011 C 
HETATM    3  C3  UNL     1      21.866  14.600  11.230  1.00  0.00     0.007 C 
HETATM    4  C4  UNL     1      22.100  13.789  12.472  1.00  0.00     0.007 C 
HETATM    5  C5  UNL     1      23.217  12.837  12.024  1.00  0.00     0.011 C 
HETATM    6  C6  UNL     1      23.819  12.184  13.227  1.00  0.00     0.012 C 
HETATM    7  C7  UNL     1      24.157  13.813  11.344  1.00  0.00     0.125 C 
ENDROOT
BRANCH   7   8
HETATM    8  O1  UNL     1      25.152  13.204  10.628  1.00  0.00    -0.395 OA
ATOM      9  H1  UNL     1      26.010  13.586  10.770  1.00  0.00     0.210 HD
ENDBRANCH   7   8
TORSDOF 1
ENDMDL
MODEL 3
REMARK VINA RESULT: -4.381483931      1.195      2.686
REMARK  1 active torsions:
REMARK  status: ('A' for Active; 'I' for Inactive)
REMARK    1  A    between atoms: C7_7  and  O1_8 
ROOT
HETATM    1  C1  UNL     1      24.321  13.200   9.434  1.00  0.00     0.012 C 
HETATM    2  C2  UNL     1      24.054  14.166  10.565  1.00  0.00     0.011 C 
HETATM    3  C3  UNL     1      22.560  14.452  10.617  1.00  0.00     0.007 C 
HETATM    4  C4  UNL     1      22.107  14.007  11.979  1.00  0.00     0.007 C 
HETATM    5  C5  UNL     1      23.116  12.897  12.301  1.00  0.00     0.011 C 
HETATM    6  C6  UNL     1      23.036  12.568  13.758  1.00  0.00     0.012 C 
HETATM    7  C7  UNL     1      24.413  13.580  11.916  1.00  0.00     0.125 C 
ENDROOT
BRANCH   7   8
HETATM    8  O1  UNL     1      25.485  12.731  11.876  1.00  0.00    -0.395 OA
ATOM      9  H1  UNL     1      25.614  12.244  12.681  1.00  0.00     0.210 HD
ENDBRANCH   7   8
TORSDOF 1
ENDMDL
MODEL 4
REMARK VINA RESULT: -4.278777237      1.197      1.404
REMARK  1 active torsions:
REMARK  status: ('A' for Active; 'I' for Inactive)
REMARK    1  A    between atoms: C7_7  and  O1_8 
ROOT
HETATM    1  C1  UNL     1      24.308  14.539  13.255  1.00  0.00     0.012 C 
HETATM    2  C2  UNL     1      23.282  13.667  12.570  1.00  0.00     0.011 C 
HETATM    3  C3  UNL     1      22.028  14.493  12.323  1.00  0.00     0.007 C 
HETATM    4  C4  UNL     1      21.824  14.491  10.835  1.00  0.00     0.007 C 
HETATM    5  C5  UNL     1      23.261  14.328  10.319  1.00  0.00     0.011 C 
HETATM    6  C6  UNL     1      23.224  13.961   8.869  1.00  0.00     0.012 C 
HETATM    7  C7  UNL     1      23.748  13.199  11.205  1.00  0.00     0.125 C 
ENDROOT
BRANCH   7   8
HETATM    8  O1  UNL     1      25.098  12.991  11.131  1.00  0.00    -0.395 OA
ATOM      9  H1  UNL     1      25.381  12.186  11.550  1.00  0.00     0.210 HD
ENDBRANCH   7   8
TORSDOF 1
ENDMDL
MODEL 5
REMARK VINA RESULT: -4.246518356      1.638      2.537
REMARK  1 active torsions:
REMARK  status: ('A' for Active; 'I' for Inactive)
REMARK    1  A    between atoms: C7_7  and  O1_8 
ROOT
HETATM    1  C1  UNL     1      24.572  12.673  10.222  1.00  0.00     0.012 C 
HETATM    2  C2  UNL     1      24.072  14.095  10.324  1.00  0.00     0.011 C 
HETATM    3  C3  UNL     1      22.724  14.189   9.625  1.00  0.00     0.007 C 
HETATM    4  C4  UNL     1      21.748  14.637  10.676  1.00  0.00     0.007 C 
HETATM    5  C5  UNL     1      22.386  14.081  11.957  1.00  0.00     0.011 C 
HETATM    6  C6  UNL     1      21.738  14.718  13.144  1.00  0.00     0.012 C 
HETATM    7  C7  UNL     1      23.825  14.514  11.760  1.00  0.00     0.125 C 
ENDROOT
BRANCH   7   8
HETATM    8  O1  UNL     1      24.693  13.945  12.652  1.00  0.00    -0.395 OA
ATOM      9  H1  UNL     1      25.224  13.253  12.276  1.00  0.00     0.210 HD
ENDBRANCH   7   8
TORSDOF 1
ENDMDL
