MODEL 1
REMARK VINA RESULT: -4.771915103      0.000      0.000
REMARK  3 active torsions:
REMARK  status: ('A' for Active; 'I' for Inactive)
REMARK    1  A    between atoms: C3_3  and  S1_6 
REMARK    2  A    between atoms: S1_6  and  C6_7 
REMARK    3  A    between atoms: C6_7  and  C7_8 
ROOT
HETATM    1  C1  UNL     1     -66.003  31.954 -44.989  1.00  0.00     0.013 C 
HETATM    2  C2  UNL     1     -66.121  33.145 -45.141  1.00  0.00    -0.097 C 
HETATM    3  C3  UNL     1     -66.261  34.605 -45.341  1.00  0.00     0.063 C 
HETATM    4  C4  UNL     1     -66.007  34.856 -46.827  1.00  0.00     0.040 C 
HETATM    5  C5  UNL     1     -67.670  34.978 -44.975  1.00  0.00     0.040 C 
ENDROOT
BRANCH   3   6
HETATM    6  S1  UNL     1     -65.009  35.504 -44.436  1.00  0.00    -0.146 SA
BRANCH   6   7
HETATM    7  C6  UNL     1     -64.479  37.032 -45.234  1.00  0.00     0.085 C 
BRANCH   7   8
HETATM    8  C7  UNL     1     -63.443  37.656 -44.285  1.00  0.00     0.034 C 
HETATM    9  C8  UNL     1     -64.069  37.471 -42.894  1.00  0.00     0.016 C 
HETATM   10  C9  UNL     1     -63.043  38.059 -41.943  1.00  0.00     0.045 C 
HETATM   11  C10 UNL     1     -63.005  39.532 -42.193  1.00  0.00     0.060 C 
HETATM   12  N1  UNL     1     -63.015  39.963 -43.512  1.00  0.00    -0.382 N 
HETATM   13  C11 UNL     1     -63.168  39.080 -44.574  1.00  0.00     0.065 C 
ATOM     14  H1  UNL     1     -62.906  40.958 -43.708  1.00  0.00     0.164 HD
ENDBRANCH   7   8
ENDBRANCH   6   7
ENDBRANCH   3   6
TORSDOF 3
ENDMDL
MODEL 2
REMARK VINA RESULT: -4.699082090      0.379      1.733
REMARK  3 active torsions:
REMARK  status: ('A' for Active; 'I' for Inactive)
REMARK    1  A    between atoms: C3_3  and  S1_6 
REMARK    2  A    between atoms: S1_6  and  C6_7 
REMARK    3  A    between atoms: C6_7  and  C7_8 
ROOT
HETATM    1  C1  UNL     1     -66.002  35.279 -48.061  1.00  0.00     0.013 C 
HETATM    2  C2  UNL     1     -66.079  34.995 -46.892  1.00  0.00    -0.097 C 
HETATM    3  C3  UNL     1     -66.187  34.652 -45.455  1.00  0.00     0.063 C 
HETATM    4  C4  UNL     1     -67.598  35.056 -45.027  1.00  0.00     0.040 C 
HETATM    5  C5  UNL     1     -66.001  33.166 -45.330  1.00  0.00     0.040 C 
ENDROOT
BRANCH   3   6
HETATM    6  S1  UNL     1     -65.046  35.616 -44.473  1.00  0.00    -0.146 SA
BRANCH   6   7
HETATM    7  C6  UNL     1     -64.397  37.072 -45.317  1.00  0.00     0.085 C 
BRANCH   7   8
HETATM    8  C7  UNL     1     -63.384  37.696 -44.345  1.00  0.00     0.034 C 
HETATM    9  C8  UNL     1     -64.021  37.471 -42.965  1.00  0.00     0.016 C 
HETATM   10  C9  UNL     1     -63.016  38.059 -41.991  1.00  0.00     0.045 C 
HETATM   11  C10 UNL     1     -63.003  39.537 -42.212  1.00  0.00     0.060 C 
HETATM   12  N1  UNL     1     -63.007  39.994 -43.522  1.00  0.00    -0.382 N 
HETATM   13  C11 UNL     1     -63.132  39.130 -44.603  1.00  0.00     0.065 C 
ATOM     14  H1  UNL     1     -62.914  40.995 -43.696  1.00  0.00     0.164 HD
ENDBRANCH   7   8
ENDBRANCH   6   7
ENDBRANCH   3   6
TORSDOF 3
ENDMDL
MODEL 3
REMARK VINA RESULT: -4.528614696      1.480      2.589
REMARK  3 active torsions:
REMARK  status: ('A' for Active; 'I' for Inactive)
REMARK    1  A    between atoms: C3_3  and  S1_6 
REMARK    2  A    between atoms: S1_6  and  C6_7 
REMARK    3  A    between atoms: C6_7  and  C7_8 
ROOT
HETATM    1  C1  UNL     1     -65.299  36.883 -47.075  1.00  0.00     0.013 C 
HETATM    2  C2  UNL     1     -65.514  36.141 -46.148  1.00  0.00    -0.097 C 
HETATM    3  C3  UNL     1     -65.790  35.239 -45.006  1.00  0.00     0.063 C 
HETATM    4  C4  UNL     1     -67.080  35.749 -44.365  1.00  0.00     0.040 C 
HETATM    5  C5  UNL     1     -65.985  33.856 -45.561  1.00  0.00     0.040 C 
ENDROOT
BRANCH   3   6
HETATM    6  S1  UNL     1     -64.507  35.355 -43.768  1.00  0.00    -0.146 SA
BRANCH   6   7
HETATM    7  C6  UNL     1     -63.536  36.872 -43.853  1.00  0.00     0.085 C 
BRANCH   7   8
HETATM    8  C7  UNL     1     -64.212  37.851 -42.880  1.00  0.00     0.034 C 
HETATM    9  C8  UNL     1     -64.837  38.907 -43.804  1.00  0.00     0.016 C 
HETATM   10  C9  UNL     1     -65.533  39.866 -42.856  1.00  0.00     0.045 C 
HETATM   11  C10 UNL     1     -64.466  40.567 -42.079  1.00  0.00     0.060 C 
HETATM   12  N1  UNL     1     -63.410  39.805 -41.599  1.00  0.00    -0.382 N 
HETATM   13  C11 UNL     1     -63.271  38.459 -41.914  1.00  0.00     0.065 C 
ATOM     14  H1  UNL     1     -62.715  40.246 -40.997  1.00  0.00     0.164 HD
ENDBRANCH   7   8
ENDBRANCH   6   7
ENDBRANCH   3   6
TORSDOF 3
ENDMDL
MODEL 4
REMARK VINA RESULT: -4.517732305      1.425      2.408
REMARK  3 active torsions:
REMARK  status: ('A' for Active; 'I' for Inactive)
REMARK    1  A    between atoms: C3_3  and  S1_6 
REMARK    2  A    between atoms: S1_6  and  C6_7 
REMARK    3  A    between atoms: C6_7  and  C7_8 
ROOT
HETATM    1  C1  UNL     1     -68.157  36.001 -43.958  1.00  0.00     0.013 C 
HETATM    2  C2  UNL     1     -67.095  35.690 -44.437  1.00  0.00    -0.097 C 
HETATM    3  C3  UNL     1     -65.795  35.295 -45.027  1.00  0.00     0.063 C 
HETATM    4  C4  UNL     1     -65.952  33.837 -45.459  1.00  0.00     0.040 C 
HETATM    5  C5  UNL     1     -65.553  36.177 -46.219  1.00  0.00     0.040 C 
ENDROOT
BRANCH   3   6
HETATM    6  S1  UNL     1     -64.491  35.342 -43.806  1.00  0.00    -0.146 SA
BRANCH   6   7
HETATM    7  C6  UNL     1     -63.503  36.851 -43.843  1.00  0.00     0.085 C 
BRANCH   7   8
HETATM    8  C7  UNL     1     -64.189  37.818 -42.865  1.00  0.00     0.034 C 
HETATM    9  C8  UNL     1     -64.848  38.856 -43.785  1.00  0.00     0.016 C 
HETATM   10  C9  UNL     1     -65.553  39.804 -42.832  1.00  0.00     0.045 C 
HETATM   11  C10 UNL     1     -64.492  40.531 -42.070  1.00  0.00     0.060 C 
HETATM   12  N1  UNL     1     -63.414  39.794 -41.601  1.00  0.00    -0.382 N 
HETATM   13  C11 UNL     1     -63.250  38.449 -41.913  1.00  0.00     0.065 C 
ATOM     14  H1  UNL     1     -62.722  40.252 -41.009  1.00  0.00     0.164 HD
ENDBRANCH   7   8
ENDBRANCH   6   7
ENDBRANCH   3   6
TORSDOF 3
ENDMDL
MODEL 5
REMARK VINA RESULT: -4.505175892      1.710      2.697
REMARK  3 active torsions:
REMARK  status: ('A' for Active; 'I' for Inactive)
REMARK    1  A    between atoms: C3_3  and  S1_6 
REMARK    2  A    between atoms: S1_6  and  C6_7 
REMARK    3  A    between atoms: C6_7  and  C7_8 
ROOT
HETATM    1  C1  UNL     1     -66.652  37.129 -42.132  1.00  0.00     0.013 C 
HETATM    2  C2  UNL     1     -66.146  36.636 -43.109  1.00  0.00    -0.097 C 
HETATM    3  C3  UNL     1     -65.514  36.024 -44.301  1.00  0.00     0.063 C 
HETATM    4  C4  UNL     1     -64.314  35.232 -43.784  1.00  0.00     0.040 C 
HETATM    5  C5  UNL     1     -66.526  35.105 -44.926  1.00  0.00     0.040 C 
ENDROOT
BRANCH   3   6
HETATM    6  S1  UNL     1     -64.880  37.274 -45.409  1.00  0.00    -0.146 SA
BRANCH   6   7
HETATM    7  C6  UNL     1     -63.181  37.770 -45.064  1.00  0.00     0.085 C 
BRANCH   7   8
HETATM    8  C7  UNL     1     -63.285  39.104 -44.307  1.00  0.00     0.034 C 
HETATM    9  C8  UNL     1     -63.003  38.715 -42.848  1.00  0.00     0.016 C 
HETATM   10  C9  UNL     1     -63.076  40.029 -42.092  1.00  0.00     0.045 C 
HETATM   11  C10 UNL     1     -64.498  40.485 -42.138  1.00  0.00     0.060 C 
HETATM   12  N1  UNL     1     -65.174  40.372 -43.345  1.00  0.00    -0.382 N 
HETATM   13  C11 UNL     1     -64.604  39.758 -44.453  1.00  0.00     0.065 C 
ATOM     14  H1  UNL     1     -66.117  40.753 -43.421  1.00  0.00     0.164 HD
ENDBRANCH   7   8
ENDBRANCH   6   7
ENDBRANCH   3   6
TORSDOF 3
ENDMDL
