MODEL 1
REMARK VINA RESULT: -4.660253012      0.000      0.000
REMARK  2 active torsions:
REMARK  status: ('A' for Active; 'I' for Inactive)
REMARK    1  A    between atoms: C2_2  and  C3_3 
REMARK    2  A    between atoms: C3_3  and  N1_4 
ROOT
HETATM    1  N1  UNL     1     -66.105  36.250 -44.382  1.00  0.00     0.116 N 
HETATM    2  C4  UNL     1     -64.964  36.966 -44.158  1.00  0.00     0.229 C 
HETATM    3  C5  UNL     1     -63.662  36.349 -43.809  1.00  0.00     0.036 C 
HETATM    4  C6  UNL     1     -63.051  37.292 -42.774  1.00  0.00     0.002 C 
HETATM    5  C7  UNL     1     -64.078  38.423 -42.628  1.00  0.00     0.007 C 
HETATM    6  C8  UNL     1     -65.294  37.579 -42.760  1.00  0.00     0.022 C 
HETATM    7  C9  UNL     1     -66.558  38.232 -43.116  1.00  0.00     0.064 C 
HETATM    8  C10 UNL     1     -67.211  37.110 -43.896  1.00  0.00     0.243 C 
HETATM    9  C11 UNL     1     -67.972  37.741 -45.017  1.00  0.00     0.066 C 
HETATM   10  C12 UNL     1     -68.075  36.287 -43.098  1.00  0.00     0.101 C 
HETATM   11  N2  UNL     1     -68.766  35.628 -42.441  1.00  0.00    -0.195 NA
ENDROOT
BRANCH   1  12
HETATM   12  C3  UNL     1     -66.547  35.687 -45.566  1.00  0.00     0.275 C 
BRANCH  12  13
HETATM   13  C2  UNL     1     -65.958  34.488 -46.174  1.00  0.00     0.026 C 
HETATM   14  C1  UNL     1     -65.931  33.255 -45.327  1.00  0.00     0.007 C 
ENDBRANCH  12  13
ENDBRANCH   1  12
TORSDOF 2
ENDMDL
MODEL 2
REMARK VINA RESULT: -4.564479255      1.699      4.415
REMARK  2 active torsions:
REMARK  status: ('A' for Active; 'I' for Inactive)
REMARK    1  A    between atoms: C2_2  and  C3_3 
REMARK    2  A    between atoms: C3_3  and  N1_4 
ROOT
HETATM    1  N1  UNL     1     -65.472  37.444 -44.456  1.00  0.00     0.116 N 
HETATM    2  C4  UNL     1     -65.571  36.858 -45.686  1.00  0.00     0.229 C 
HETATM    3  C5  UNL     1     -66.628  37.189 -46.671  1.00  0.00     0.036 C 
HETATM    4  C6  UNL     1     -66.995  35.851 -47.309  1.00  0.00     0.002 C 
HETATM    5  C7  UNL     1     -66.070  34.832 -46.631  1.00  0.00     0.007 C 
HETATM    6  C8  UNL     1     -66.091  35.444 -45.277  1.00  0.00     0.022 C 
HETATM    7  C9  UNL     1     -65.019  35.094 -44.339  1.00  0.00     0.064 C 
HETATM    8  C10 UNL     1     -64.930  36.391 -43.562  1.00  0.00     0.243 C 
HETATM    9  C11 UNL     1     -63.488  36.611 -43.240  1.00  0.00     0.066 C 
HETATM   10  C12 UNL     1     -65.723  36.396 -42.366  1.00  0.00     0.101 C 
HETATM   11  N2  UNL     1     -66.371  36.389 -41.405  1.00  0.00    -0.195 NA
ENDROOT
BRANCH   1  12
HETATM   12  C3  UNL     1     -64.820  38.614 -44.112  1.00  0.00     0.275 C 
BRANCH  12  13
HETATM   13  C2  UNL     1     -65.496  39.803 -43.579  1.00  0.00     0.026 C 
HETATM   14  C1  UNL     1     -64.855  40.460 -42.398  1.00  0.00     0.007 C 
ENDBRANCH  12  13
ENDBRANCH   1  12
TORSDOF 2
ENDMDL
MODEL 3
REMARK VINA RESULT: -4.526164608      2.666      4.720
REMARK  2 active torsions:
REMARK  status: ('A' for Active; 'I' for Inactive)
REMARK    1  A    between atoms: C2_2  and  C3_3 
REMARK    2  A    between atoms: C3_3  and  N1_4 
ROOT
HETATM    1  N1  UNL     1     -64.520  39.091 -43.478  1.00  0.00     0.116 N 
HETATM    2  C4  UNL     1     -63.949  39.223 -44.711  1.00  0.00     0.229 C 
HETATM    3  C5  UNL     1     -64.591  39.934 -45.842  1.00  0.00     0.036 C 
HETATM    4  C6  UNL     1     -64.244  39.097 -47.072  1.00  0.00     0.002 C 
HETATM    5  C7  UNL     1     -63.381  37.950 -46.530  1.00  0.00     0.007 C 
HETATM    6  C8  UNL     1     -64.113  37.766 -45.250  1.00  0.00     0.022 C 
HETATM    7  C9  UNL     1     -63.433  37.066 -44.155  1.00  0.00     0.064 C 
HETATM    8  C10 UNL     1     -64.063  37.773 -42.973  1.00  0.00     0.243 C 
HETATM    9  C11 UNL     1     -63.004  37.905 -41.926  1.00  0.00     0.066 C 
HETATM   10  C12 UNL     1     -65.213  37.093 -42.447  1.00  0.00     0.101 C 
HETATM   11  N2  UNL     1     -66.142  36.537 -42.034  1.00  0.00    -0.195 NA
ENDROOT
BRANCH   1  12
HETATM   12  C3  UNL     1     -64.455  39.958 -42.403  1.00  0.00     0.275 C 
BRANCH  12  13
HETATM   13  C2  UNL     1     -65.483  40.960 -42.094  1.00  0.00     0.026 C 
HETATM   14  C1  UNL     1     -66.905  40.526 -42.254  1.00  0.00     0.007 C 
ENDBRANCH  12  13
ENDBRANCH   1  12
TORSDOF 2
ENDMDL
MODEL 4
REMARK VINA RESULT: -4.502133503      2.560      4.296
REMARK  2 active torsions:
REMARK  status: ('A' for Active; 'I' for Inactive)
REMARK    1  A    between atoms: C2_2  and  C3_3 
REMARK    2  A    between atoms: C3_3  and  N1_4 
ROOT
HETATM    1  N1  UNL     1     -66.207  38.729 -43.077  1.00  0.00     0.116 N 
HETATM    2  C4  UNL     1     -65.500  37.732 -43.686  1.00  0.00     0.229 C 
HETATM    3  C5  UNL     1     -65.213  36.422 -43.053  1.00  0.00     0.036 C 
HETATM    4  C6  UNL     1     -63.787  36.088 -43.484  1.00  0.00     0.002 C 
HETATM    5  C7  UNL     1     -63.367  37.261 -44.379  1.00  0.00     0.007 C 
HETATM    6  C8  UNL     1     -64.058  38.328 -43.610  1.00  0.00     0.022 C 
HETATM    7  C9  UNL     1     -64.330  39.604 -44.281  1.00  0.00     0.064 C 
HETATM    8  C10 UNL     1     -65.612  39.993 -43.576  1.00  0.00     0.243 C 
HETATM    9  C11 UNL     1     -66.483  40.665 -44.588  1.00  0.00     0.066 C 
HETATM   10  C12 UNL     1     -65.404  40.846 -42.441  1.00  0.00     0.101 C 
HETATM   11  N2  UNL     1     -65.222  41.531 -41.524  1.00  0.00    -0.195 NA
ENDROOT
BRANCH   1  12
HETATM   12  C3  UNL     1     -67.575  38.926 -43.061  1.00  0.00     0.275 C 
BRANCH  12  13
HETATM   13  C2  UNL     1     -68.425  38.690 -41.888  1.00  0.00     0.026 C 
HETATM   14  C1  UNL     1     -68.570  39.830 -40.930  1.00  0.00     0.007 C 
ENDBRANCH  12  13
ENDBRANCH   1  12
TORSDOF 2
ENDMDL
MODEL 5
REMARK VINA RESULT: -4.447705733      1.935      2.616
REMARK  2 active torsions:
REMARK  status: ('A' for Active; 'I' for Inactive)
REMARK    1  A    between atoms: C2_2  and  C3_3 
REMARK    2  A    between atoms: C3_3  and  N1_4 
ROOT
HETATM    1  N1  UNL     1     -65.919  34.959 -45.284  1.00  0.00     0.116 N 
HETATM    2  C4  UNL     1     -64.907  35.678 -44.716  1.00  0.00     0.229 C 
HETATM    3  C5  UNL     1     -64.628  35.697 -43.260  1.00  0.00     0.036 C 
HETATM    4  C6  UNL     1     -64.239  37.143 -42.960  1.00  0.00     0.002 C 
HETATM    5  C7  UNL     1     -64.305  37.852 -44.318  1.00  0.00     0.007 C 
HETATM    6  C8  UNL     1     -65.487  37.122 -44.844  1.00  0.00     0.022 C 
HETATM    7  C9  UNL     1     -65.717  37.123 -46.293  1.00  0.00     0.064 C 
HETATM    8  C10 UNL     1     -66.369  35.764 -46.446  1.00  0.00     0.243 C 
HETATM    9  C11 UNL     1     -65.897  35.195 -47.745  1.00  0.00     0.066 C 
HETATM   10  C12 UNL     1     -67.803  35.812 -46.405  1.00  0.00     0.101 C 
HETATM   11  N2  UNL     1     -68.960  35.863 -46.366  1.00  0.00    -0.195 NA
ENDROOT
BRANCH   1  12
HETATM   12  C3  UNL     1     -65.905  33.643 -45.709  1.00  0.00     0.275 C 
BRANCH  12  13
HETATM   13  C2  UNL     1     -66.566  32.544 -44.996  1.00  0.00     0.026 C 
HETATM   14  C1  UNL     1     -65.812  31.254 -44.914  1.00  0.00     0.007 C 
ENDBRANCH  12  13
ENDBRANCH   1  12
TORSDOF 2
ENDMDL
