MODEL 1
REMARK VINA RESULT: -4.698202908      0.000      0.000
REMARK  4 active torsions:
REMARK  status: ('A' for Active; 'I' for Inactive)
REMARK    1  A    between atoms: N1_1  and  C1_5 
REMARK    2  A    between atoms: C1_5  and  C2_6 
REMARK    3  A    between atoms: C5_9  and  O1_10 
REMARK    4  A    between atoms: O1_10  and  C6_11 
ROOT
HETATM    1  C2  UNL     1     -64.854  37.303 -43.802  1.00  0.00    -0.013 A 
HETATM    2  C3  UNL     1     -65.830  37.637 -44.885  1.00  0.00     0.014 C 
HETATM    3  C4  UNL     1     -65.274  37.197 -46.244  1.00  0.00     0.033 C 
HETATM    4  C5  UNL     1     -64.036  38.037 -46.474  1.00  0.00     0.122 C 
HETATM    5  C10 UNL     1     -63.003  37.855 -45.422  1.00  0.00     0.037 C 
HETATM    6  C11 UNL     1     -63.454  37.318 -44.133  1.00  0.00    -0.001 A 
HETATM    7  C12 UNL     1     -64.023  38.363 -43.159  1.00  0.00     0.017 A 
ENDROOT
BRANCH   1   8
HETATM    8  C1  UNL     1     -65.343  36.213 -42.852  1.00  0.00     0.239 C 
BRANCH   8   9
HETATM    9  N1  UNL     1     -65.593  36.793 -41.567  1.00  0.00    -0.079 N 
ATOM     10  H13 UNL     1     -64.741  37.139 -41.124  1.00  0.00     0.274 HD
ATOM     11  H12 UNL     1     -66.092  37.680 -41.632  1.00  0.00     0.274 HD
ATOM     12  H11 UNL     1     -66.084  36.114 -40.986  1.00  0.00     0.274 HD
ENDBRANCH   8   9
ENDBRANCH   1   8
BRANCH   4  13
HETATM   13  O1  UNL     1     -63.462  37.818 -47.702  1.00  0.00    -0.381 OA
BRANCH  13  14
HETATM   14  C6  UNL     1     -64.338  37.622 -48.733  1.00  0.00     0.122 C 
HETATM   15  C7  UNL     1     -63.909  36.392 -49.545  1.00  0.00     0.032 C 
HETATM   16  C8  UNL     1     -64.262  37.160 -50.790  1.00  0.00     0.005 C 
HETATM   17  C9  UNL     1     -64.090  38.439 -49.980  1.00  0.00     0.032 C 
ENDBRANCH  13  14
ENDBRANCH   4  13
TORSDOF 4
ENDMDL
MODEL 2
REMARK VINA RESULT: -4.551317618      1.154      1.537
REMARK  4 active torsions:
REMARK  status: ('A' for Active; 'I' for Inactive)
REMARK    1  A    between atoms: N1_1  and  C1_5 
REMARK    2  A    between atoms: C1_5  and  C2_6 
REMARK    3  A    between atoms: C5_9  and  O1_10 
REMARK    4  A    between atoms: O1_10  and  C6_11 
ROOT
HETATM    1  C2  UNL     1     -63.860  37.543 -44.439  1.00  0.00    -0.013 A 
HETATM    2  C3  UNL     1     -65.319  37.401 -44.736  1.00  0.00     0.014 C 
HETATM    3  C4  UNL     1     -65.521  37.082 -46.222  1.00  0.00     0.033 C 
HETATM    4  C5  UNL     1     -65.022  38.295 -46.975  1.00  0.00     0.122 C 
HETATM    5  C10 UNL     1     -63.591  38.597 -46.713  1.00  0.00     0.037 C 
HETATM    6  C11 UNL     1     -63.008  38.044 -45.485  1.00  0.00    -0.001 A 
HETATM    7  C12 UNL     1     -63.246  38.886 -44.220  1.00  0.00     0.017 A 
ENDROOT
BRANCH   1   8
HETATM    8  C1  UNL     1     -63.305  36.435 -43.547  1.00  0.00     0.239 C 
BRANCH   8   9
HETATM    9  N1  UNL     1     -64.392  35.642 -43.060  1.00  0.00    -0.079 N 
ATOM     10  H13 UNL     1     -64.127  34.668 -42.912  1.00  0.00     0.274 HD
ATOM     11  H12 UNL     1     -64.639  35.871 -42.097  1.00  0.00     0.274 HD
ATOM     12  H11 UNL     1     -65.184  35.736 -43.696  1.00  0.00     0.274 HD
ENDBRANCH   8   9
ENDBRANCH   1   8
BRANCH   4  13
HETATM   13  O1  UNL     1     -65.214  38.199 -48.331  1.00  0.00    -0.381 OA
BRANCH  13  14
HETATM   14  C6  UNL     1     -64.138  37.753 -49.046  1.00  0.00     0.122 C 
HETATM   15  C7  UNL     1     -64.201  38.311 -50.473  1.00  0.00     0.032 C 
HETATM   16  C8  UNL     1     -63.744  36.963 -50.962  1.00  0.00     0.005 C 
HETATM   17  C9  UNL     1     -64.270  36.377 -49.658  1.00  0.00     0.032 C 
ENDBRANCH  13  14
ENDBRANCH   4  13
TORSDOF 4
ENDMDL
MODEL 3
REMARK VINA RESULT: -4.525859434      0.633      1.662
REMARK  4 active torsions:
REMARK  status: ('A' for Active; 'I' for Inactive)
REMARK    1  A    between atoms: N1_1  and  C1_5 
REMARK    2  A    between atoms: C1_5  and  C2_6 
REMARK    3  A    between atoms: C5_9  and  O1_10 
REMARK    4  A    between atoms: O1_10  and  C6_11 
ROOT
HETATM    1  C2  UNL     1     -64.716  37.266 -44.007  1.00  0.00    -0.013 A 
HETATM    2  C3  UNL     1     -63.247  37.381 -44.267  1.00  0.00     0.014 C 
HETATM    3  C4  UNL     1     -63.003  38.235 -45.517  1.00  0.00     0.033 C 
HETATM    4  C5  UNL     1     -63.608  37.461 -46.668  1.00  0.00     0.122 C 
HETATM    5  C10 UNL     1     -65.063  37.210 -46.503  1.00  0.00     0.037 C 
HETATM    6  C11 UNL     1     -65.602  37.291 -45.141  1.00  0.00    -0.001 A 
HETATM    7  C12 UNL     1     -65.455  36.005 -44.310  1.00  0.00     0.017 A 
ENDROOT
BRANCH   1   8
HETATM    8  C1  UNL     1     -65.172  37.984 -42.739  1.00  0.00     0.239 C 
BRANCH   8   9
HETATM    9  N1  UNL     1     -65.059  37.086 -41.630  1.00  0.00    -0.079 N 
ATOM     10  H13 UNL     1     -65.957  36.682 -41.364  1.00  0.00     0.274 HD
ATOM     11  H12 UNL     1     -64.580  36.221 -41.877  1.00  0.00     0.274 HD
ATOM     12  H11 UNL     1     -64.607  37.572 -40.855  1.00  0.00     0.274 HD
ENDBRANCH   8   9
ENDBRANCH   1   8
BRANCH   4  13
HETATM   13  O1  UNL     1     -63.396  38.060 -47.885  1.00  0.00    -0.381 OA
BRANCH  13  14
HETATM   14  C6  UNL     1     -64.272  37.708 -48.873  1.00  0.00     0.122 C 
HETATM   15  C7  UNL     1     -63.753  36.460 -49.600  1.00  0.00     0.032 C 
HETATM   16  C8  UNL     1     -64.200  37.094 -50.891  1.00  0.00     0.005 C 
HETATM   17  C9  UNL     1     -64.126  38.443 -50.186  1.00  0.00     0.032 C 
ENDBRANCH  13  14
ENDBRANCH   4  13
TORSDOF 4
ENDMDL
MODEL 4
REMARK VINA RESULT: -4.497499704      0.835      1.829
REMARK  4 active torsions:
REMARK  status: ('A' for Active; 'I' for Inactive)
REMARK    1  A    between atoms: N1_1  and  C1_5 
REMARK    2  A    between atoms: C1_5  and  C2_6 
REMARK    3  A    between atoms: C5_9  and  O1_10 
REMARK    4  A    between atoms: O1_10  and  C6_11 
ROOT
HETATM    1  C2  UNL     1     -64.296  37.069 -43.678  1.00  0.00    -0.013 A 
HETATM    2  C3  UNL     1     -63.182  37.727 -44.428  1.00  0.00     0.014 C 
HETATM    3  C4  UNL     1     -63.741  38.487 -45.636  1.00  0.00     0.033 C 
HETATM    4  C5  UNL     1     -64.337  37.433 -46.544  1.00  0.00     0.122 C 
HETATM    5  C10 UNL     1     -65.419  36.647 -45.896  1.00  0.00     0.037 C 
HETATM    6  C11 UNL     1     -65.445  36.637 -44.429  1.00  0.00    -0.001 A 
HETATM    7  C12 UNL     1     -64.523  35.596 -43.772  1.00  0.00     0.017 A 
ENDROOT
BRANCH   1   8
HETATM    8  C1  UNL     1     -64.540  37.665 -42.294  1.00  0.00     0.239 C 
BRANCH   8   9
HETATM    9  N1  UNL     1     -65.462  36.831 -41.584  1.00  0.00    -0.079 N 
ATOM     10  H13 UNL     1     -65.319  35.840 -41.778  1.00  0.00     0.274 HD
ATOM     11  H12 UNL     1     -65.272  36.809 -40.582  1.00  0.00     0.274 HD
ATOM     12  H11 UNL     1     -66.413  37.135 -41.792  1.00  0.00     0.274 HD
ENDBRANCH   8   9
ENDBRANCH   1   8
BRANCH   4  13
HETATM   13  O1  UNL     1     -64.811  37.950 -47.724  1.00  0.00    -0.381 OA
BRANCH  13  14
HETATM   14  C6  UNL     1     -64.001  37.773 -48.810  1.00  0.00     0.122 C 
HETATM   15  C7  UNL     1     -64.683  38.346 -50.060  1.00  0.00     0.032 C 
HETATM   16  C8  UNL     1     -64.179  37.146 -50.817  1.00  0.00     0.005 C 
HETATM   17  C9  UNL     1     -64.074  36.421 -49.482  1.00  0.00     0.032 C 
ENDBRANCH  13  14
ENDBRANCH   4  13
TORSDOF 4
ENDMDL
MODEL 5
REMARK VINA RESULT: -4.450935277      3.462      5.409
REMARK  4 active torsions:
REMARK  status: ('A' for Active; 'I' for Inactive)
REMARK    1  A    between atoms: N1_1  and  C1_5 
REMARK    2  A    between atoms: C1_5  and  C2_6 
REMARK    3  A    between atoms: C5_9  and  O1_10 
REMARK    4  A    between atoms: O1_10  and  C6_11 
ROOT
HETATM    1  C2  UNL     1     -65.877  34.148 -45.305  1.00  0.00    -0.013 A 
HETATM    2  C3  UNL     1     -64.585  34.319 -44.572  1.00  0.00     0.014 C 
HETATM    3  C4  UNL     1     -64.749  35.359 -43.458  1.00  0.00     0.033 C 
HETATM    4  C5  UNL     1     -65.048  36.667 -44.158  1.00  0.00     0.122 C 
HETATM    5  C10 UNL     1     -66.279  36.617 -44.988  1.00  0.00     0.037 C 
HETATM    6  C11 UNL     1     -66.748  35.289 -45.403  1.00  0.00    -0.001 A 
HETATM    7  C12 UNL     1     -66.072  34.730 -46.666  1.00  0.00     0.017 A 
ENDROOT
BRANCH   1   8
HETATM    8  C1  UNL     1     -66.525  32.782 -45.097  1.00  0.00     0.239 C 
BRANCH   8   9
HETATM    9  N1  UNL     1     -65.498  31.807 -44.884  1.00  0.00    -0.079 N 
ATOM     10  H13 UNL     1     -65.261  31.300 -45.737  1.00  0.00     0.274 HD
ATOM     11  H12 UNL     1     -64.588  32.233 -44.713  1.00  0.00     0.274 HD
ATOM     12  H11 UNL     1     -65.783  31.185 -44.128  1.00  0.00     0.274 HD
ENDBRANCH   8   9
ENDBRANCH   1   8
BRANCH   4  13
HETATM   13  O1  UNL     1     -65.141  37.728 -43.291  1.00  0.00    -0.381 OA
BRANCH  13  14
HETATM   14  C6  UNL     1     -64.113  38.627 -43.352  1.00  0.00     0.122 C 
HETATM   15  C7  UNL     1     -63.175  38.416 -42.155  1.00  0.00     0.032 C 
HETATM   16  C8  UNL     1     -63.074  39.914 -42.042  1.00  0.00     0.005 C 
HETATM   17  C9  UNL     1     -64.397  40.002 -42.793  1.00  0.00     0.032 C 
ENDBRANCH  13  14
ENDBRANCH   4  13
TORSDOF 4
ENDMDL
