MODEL 1
REMARK VINA RESULT: -4.416903191      0.000      0.000
REMARK  4 active torsions:
REMARK  status: ('A' for Active; 'I' for Inactive)
REMARK    1  A    between atoms: C2_2  and  O1_3 
REMARK    2  A    between atoms: C2_2  and  C9_14 
REMARK    3  A    between atoms: O1_3  and  C3_4 
REMARK    4  A    between atoms: C8_9  and  N1_10 
ROOT
HETATM    1  C3  UNL     1     -65.295  36.655 -43.659  1.00  0.00     0.159 C 
HETATM    2  C4  UNL     1     -63.909  36.041 -43.875  1.00  0.00     0.034 C 
HETATM    3  C5  UNL     1     -63.004  37.222 -44.247  1.00  0.00     0.003 C 
HETATM    4  C6  UNL     1     -63.124  38.337 -43.234  1.00  0.00     0.002 C 
HETATM    5  C7  UNL     1     -63.806  37.795 -41.999  1.00  0.00     0.035 C 
HETATM    6  C8  UNL     1     -65.242  37.424 -42.384  1.00  0.00     0.212 C 
ENDROOT
BRANCH   1   7
HETATM    7  O1  UNL     1     -66.303  35.665 -43.668  1.00  0.00    -0.348 OA
BRANCH   7   8
HETATM    8  C2  UNL     1     -67.293  35.605 -44.634  1.00  0.00     0.046 C 
HETATM    9  C1  UNL     1     -68.534  35.386 -44.261  1.00  0.00     0.047 C 
BRANCH   8  10
HETATM   10  C9  UNL     1     -66.993  35.781 -46.075  1.00  0.00     0.004 A 
HETATM   11  C10 UNL     1     -66.058  34.780 -46.733  1.00  0.00     0.022 C 
HETATM   12  C11 UNL     1     -66.901  37.199 -46.653  1.00  0.00     0.017 A 
HETATM   13  C12 UNL     1     -68.104  36.361 -46.876  1.00  0.00     0.017 A 
ENDBRANCH   8  10
ENDBRANCH   7   8
ENDBRANCH   1   7
BRANCH   6  14
HETATM   14  N1  UNL     1     -65.848  36.721 -41.270  1.00  0.00    -0.073 N 
ATOM     15  H13 UNL     1     -66.252  37.378 -40.602  1.00  0.00     0.274 HD
ATOM     16  H12 UNL     1     -66.698  36.238 -41.564  1.00  0.00     0.274 HD
ATOM     17  H11 UNL     1     -65.207  36.078 -40.805  1.00  0.00     0.274 HD
ENDBRANCH   6  14
TORSDOF 4
ENDMDL
MODEL 2
REMARK VINA RESULT: -4.400968446      3.040      4.197
REMARK  4 active torsions:
REMARK  status: ('A' for Active; 'I' for Inactive)
REMARK    1  A    between atoms: C2_2  and  O1_3 
REMARK    2  A    between atoms: C2_2  and  C9_14 
REMARK    3  A    between atoms: O1_3  and  C3_4 
REMARK    4  A    between atoms: C8_9  and  N1_10 
ROOT
HETATM    1  C3  UNL     1     -65.347  38.388 -43.069  1.00  0.00     0.159 C 
HETATM    2  C4  UNL     1     -65.456  36.987 -42.462  1.00  0.00     0.034 C 
HETATM    3  C5  UNL     1     -64.572  36.100 -43.348  1.00  0.00     0.003 C 
HETATM    4  C6  UNL     1     -63.188  36.692 -43.498  1.00  0.00     0.002 C 
HETATM    5  C7  UNL     1     -63.005  37.760 -42.445  1.00  0.00     0.035 C 
HETATM    6  C8  UNL     1     -63.982  38.898 -42.759  1.00  0.00     0.212 C 
ENDROOT
BRANCH   1   7
HETATM    7  O1  UNL     1     -66.376  39.235 -42.595  1.00  0.00    -0.348 OA
BRANCH   7   8
HETATM    8  C2  UNL     1     -67.677  39.174 -43.062  1.00  0.00     0.046 C 
HETATM    9  C1  UNL     1     -67.884  39.000 -44.349  1.00  0.00     0.047 C 
BRANCH   8  10
HETATM   10  C9  UNL     1     -68.843  39.298 -42.155  1.00  0.00     0.004 A 
HETATM   11  C10 UNL     1     -69.956  38.273 -42.284  1.00  0.00     0.022 C 
HETATM   12  C11 UNL     1     -69.321  40.696 -41.739  1.00  0.00     0.017 A 
HETATM   13  C12 UNL     1     -68.528  39.852 -40.811  1.00  0.00     0.017 A 
ENDBRANCH   8  10
ENDBRANCH   7   8
ENDBRANCH   1   7
BRANCH   6  14
HETATM   14  N1  UNL     1     -63.962  39.837 -41.655  1.00  0.00    -0.073 N 
ATOM     15  H13 UNL     1     -64.736  40.499 -41.726  1.00  0.00     0.274 HD
ATOM     16  H12 UNL     1     -64.217  39.376 -40.781  1.00  0.00     0.274 HD
ATOM     17  H11 UNL     1     -63.072  40.328 -41.561  1.00  0.00     0.274 HD
ENDBRANCH   6  14
TORSDOF 4
ENDMDL
MODEL 3
REMARK VINA RESULT: -4.374369550      0.812      2.238
REMARK  4 active torsions:
REMARK  status: ('A' for Active; 'I' for Inactive)
REMARK    1  A    between atoms: C2_2  and  O1_3 
REMARK    2  A    between atoms: C2_2  and  C9_14 
REMARK    3  A    between atoms: O1_3  and  C3_4 
REMARK    4  A    between atoms: C8_9  and  N1_10 
ROOT
HETATM    1  C3  UNL     1     -65.300  36.582 -43.625  1.00  0.00     0.159 C 
HETATM    2  C4  UNL     1     -63.914  35.961 -43.815  1.00  0.00     0.034 C 
HETATM    3  C5  UNL     1     -63.003  37.131 -44.208  1.00  0.00     0.003 C 
HETATM    4  C6  UNL     1     -63.130  38.270 -43.221  1.00  0.00     0.002 C 
HETATM    5  C7  UNL     1     -63.822  37.757 -41.980  1.00  0.00     0.035 C 
HETATM    6  C8  UNL     1     -65.256  37.379 -42.368  1.00  0.00     0.212 C 
ENDROOT
BRANCH   1   7
HETATM    7  O1  UNL     1     -66.310  35.593 -43.619  1.00  0.00    -0.348 OA
BRANCH   7   8
HETATM    8  C2  UNL     1     -67.390  35.614 -44.484  1.00  0.00     0.046 C 
HETATM    9  C1  UNL     1     -67.167  35.615 -45.780  1.00  0.00     0.047 C 
BRANCH   8  10
HETATM   10  C9  UNL     1     -68.789  35.637 -43.993  1.00  0.00     0.004 A 
HETATM   11  C10 UNL     1     -69.150  36.659 -42.928  1.00  0.00     0.022 C 
HETATM   12  C11 UNL     1     -69.567  34.319 -43.889  1.00  0.00     0.017 A 
HETATM   13  C12 UNL     1     -69.810  35.263 -45.007  1.00  0.00     0.017 A 
ENDBRANCH   8  10
ENDBRANCH   7   8
ENDBRANCH   1   7
BRANCH   6  14
HETATM   14  N1  UNL     1     -65.872  36.703 -41.243  1.00  0.00    -0.073 N 
ATOM     15  H13 UNL     1     -66.783  36.323 -41.502  1.00  0.00     0.274 HD
ATOM     16  H12 UNL     1     -65.382  35.834 -41.029  1.00  0.00     0.274 HD
ATOM     17  H11 UNL     1     -65.948  37.292 -40.413  1.00  0.00     0.274 HD
ENDBRANCH   6  14
TORSDOF 4
ENDMDL
MODEL 4
REMARK VINA RESULT: -4.297369556      4.271      5.290
REMARK  4 active torsions:
REMARK  status: ('A' for Active; 'I' for Inactive)
REMARK    1  A    between atoms: C2_2  and  O1_3 
REMARK    2  A    between atoms: C2_2  and  C9_14 
REMARK    3  A    between atoms: O1_3  and  C3_4 
REMARK    4  A    between atoms: C8_9  and  N1_10 
ROOT
HETATM    1  C3  UNL     1     -64.082  38.410 -47.042  1.00  0.00     0.159 C 
HETATM    2  C4  UNL     1     -63.003  38.210 -45.975  1.00  0.00     0.034 C 
HETATM    3  C5  UNL     1     -63.534  38.934 -44.731  1.00  0.00     0.003 C 
HETATM    4  C6  UNL     1     -64.939  38.482 -44.400  1.00  0.00     0.002 C 
HETATM    5  C7  UNL     1     -65.230  37.212 -45.167  1.00  0.00     0.035 C 
HETATM    6  C8  UNL     1     -65.245  37.562 -46.659  1.00  0.00     0.212 C 
ENDROOT
BRANCH   1   7
HETATM    7  O1  UNL     1     -63.588  38.120 -48.335  1.00  0.00    -0.348 OA
BRANCH   7   8
HETATM    8  C2  UNL     1     -63.958  38.835 -49.461  1.00  0.00     0.046 C 
HETATM    9  C1  UNL     1     -64.164  40.129 -49.354  1.00  0.00     0.047 C 
BRANCH   8  10
HETATM   10  C9  UNL     1     -64.130  38.183 -50.782  1.00  0.00     0.004 A 
HETATM   11  C10 UNL     1     -63.753  38.978 -52.020  1.00  0.00     0.022 C 
HETATM   12  C11 UNL     1     -65.300  37.213 -50.990  1.00  0.00     0.017 A 
HETATM   13  C12 UNL     1     -63.920  36.711 -50.781  1.00  0.00     0.017 A 
ENDBRANCH   8  10
ENDBRANCH   7   8
ENDBRANCH   1   7
BRANCH   6  14
HETATM   14  N1  UNL     1     -65.325  36.328 -47.417  1.00  0.00    -0.073 N 
ATOM     15  H13 UNL     1     -64.397  35.932 -47.566  1.00  0.00     0.274 HD
ATOM     16  H12 UNL     1     -65.737  35.583 -46.855  1.00  0.00     0.274 HD
ATOM     17  H11 UNL     1     -65.821  36.433 -48.302  1.00  0.00     0.274 HD
ENDBRANCH   6  14
TORSDOF 4
ENDMDL
MODEL 5
REMARK VINA RESULT: -4.282646572      1.287      1.941
REMARK  4 active torsions:
REMARK  status: ('A' for Active; 'I' for Inactive)
REMARK    1  A    between atoms: C2_2  and  O1_3 
REMARK    2  A    between atoms: C2_2  and  C9_14 
REMARK    3  A    between atoms: O1_3  and  C3_4 
REMARK    4  A    between atoms: C8_9  and  N1_10 
ROOT
HETATM    1  C3  UNL     1     -65.368  36.979 -43.706  1.00  0.00     0.159 C 
HETATM    2  C4  UNL     1     -64.004  36.567 -43.147  1.00  0.00     0.034 C 
HETATM    3  C5  UNL     1     -63.004  37.543 -43.778  1.00  0.00     0.003 C 
HETATM    4  C6  UNL     1     -63.441  38.976 -43.571  1.00  0.00     0.002 C 
HETATM    5  C7  UNL     1     -64.512  39.003 -42.506  1.00  0.00     0.035 C 
HETATM    6  C8  UNL     1     -65.739  38.268 -43.058  1.00  0.00     0.212 C 
ENDROOT
BRANCH   1   7
HETATM    7  O1  UNL     1     -66.333  35.964 -43.509  1.00  0.00    -0.348 OA
BRANCH   7   8
HETATM    8  C2  UNL     1     -66.989  35.336 -44.554  1.00  0.00     0.046 C 
HETATM    9  C1  UNL     1     -68.270  35.569 -44.733  1.00  0.00     0.047 C 
BRANCH   8  10
HETATM   10  C9  UNL     1     -66.289  34.408 -45.475  1.00  0.00     0.004 A 
HETATM   11  C10 UNL     1     -66.092  34.852 -46.914  1.00  0.00     0.022 C 
HETATM   12  C11 UNL     1     -66.484  32.896 -45.305  1.00  0.00     0.017 A 
HETATM   13  C12 UNL     1     -65.246  33.564 -44.834  1.00  0.00     0.017 A 
ENDBRANCH   8  10
ENDBRANCH   7   8
ENDBRANCH   1   7
BRANCH   6  14
HETATM   14  N1  UNL     1     -66.701  38.112 -41.985  1.00  0.00    -0.073 N 
ATOM     15  H13 UNL     1     -67.467  37.501 -42.270  1.00  0.00     0.274 HD
ATOM     16  H12 UNL     1     -66.312  37.550 -41.228  1.00  0.00     0.274 HD
ATOM     17  H11 UNL     1     -67.057  39.001 -41.633  1.00  0.00     0.274 HD
ENDBRANCH   6  14
TORSDOF 4
ENDMDL
