MODEL 1
REMARK VINA RESULT: -6.797629248      0.000      0.000
REMARK  14 active torsions:
REMARK  status: ('A' for Active; 'I' for Inactive)
REMARK    1  A    between atoms: C2_2  and  C3_3 
REMARK    2  A    between atoms: C3_3  and  C5_5 
REMARK    3  A    between atoms: C3_3  and  N1_7 
REMARK       I    between atoms: N1_7  and  C7_9 
REMARK    4  A    between atoms: C7_9  and  C8_11 
REMARK    5  A    between atoms: C8_11  and  C9_12 
REMARK    6  A    between atoms: C8_11  and  N2_16 
REMARK    7  A    between atoms: C9_12  and  C10_13 
REMARK    8  A    between atoms: N2_16  and  C13_18 
REMARK    9  A    between atoms: C13_18  and  N3_20 
REMARK   10  A    between atoms: N3_20  and  C14_21 
REMARK   11  A    between atoms: N3_20  and  N4_24 
REMARK   12  A    between atoms: C14_21  and  C15_22 
REMARK   13  A    between atoms: N4_24  and  C16_26 
REMARK   14  A    between atoms: C16_26  and  C17_27 
ROOT
HETATM    1  C8  UNL     1      22.141  19.146  26.958  1.00  0.00     0.176 C 
ENDROOT
BRANCH   1   2
HETATM    2  C7  UNL     1      23.248  20.135  27.166  1.00  0.00     0.241 C 
HETATM    3  N1  UNL     1      23.115  21.527  26.996  1.00  0.00    -0.350 N 
ATOM      4  H1  UNL     1      22.209  21.901  26.714  1.00  0.00     0.163 HD
HETATM    5  O1  UNL     1      24.395  19.682  27.526  1.00  0.00    -0.271 OA
BRANCH   3   6
HETATM    6  C3  UNL     1      24.211  22.445  27.206  1.00  0.00     0.028 C 
HETATM    7  C4  UNL     1      24.999  22.553  25.932  1.00  0.00     0.038 C 
BRANCH   6   8
HETATM    8  C2  UNL     1      23.665  23.834  27.542  1.00  0.00     0.026 C 
HETATM    9  C1  UNL     1      22.789  24.312  26.434  1.00  0.00     0.007 C 
ENDBRANCH   6   8
BRANCH   6  10
HETATM   10  C5  UNL     1      25.077  22.021  28.386  1.00  0.00     0.026 C 
HETATM   11  C6  UNL     1      26.473  22.514  28.205  1.00  0.00     0.007 C 
ENDBRANCH   6  10
ENDBRANCH   3   6
ENDBRANCH   1   2
BRANCH   1  12
HETATM   12  C9  UNL     1      22.221  18.098  28.082  1.00  0.00     0.039 C 
BRANCH  12  13
HETATM   13  C10 UNL     1      21.681  18.559  29.386  1.00  0.00    -0.012 A 
HETATM   14  C11 UNL     1      22.426  18.073  30.621  1.00  0.00     0.005 A 
HETATM   15  C12 UNL     1      21.078  17.493  30.288  1.00  0.00     0.005 A 
ENDBRANCH  12  13
ENDBRANCH   1  12
BRANCH   1  16
HETATM   16  N2  UNL     1      20.888  19.830  27.204  1.00  0.00    -0.353 N 
ATOM     17  H2  UNL     1      20.831  20.413  28.038  1.00  0.00     0.162 HD
BRANCH  16  18
HETATM   18  C13 UNL     1      19.736  19.757  26.387  1.00  0.00     0.189 C 
HETATM   19  S1  UNL     1      19.848  20.176  24.832  1.00  0.00    -0.039 SA
BRANCH  18  20
HETATM   20  N3  UNL     1      18.465  19.366  26.917  1.00  0.00    -0.267 N 
BRANCH  20  21
HETATM   21  C14 UNL     1      18.319  18.130  27.620  1.00  0.00     0.166 C 
BRANCH  21  22
HETATM   22  C15 UNL     1      18.790  16.888  26.972  1.00  0.00     0.136 C 
HETATM   23 CL1  UNL     1      19.103  15.517  28.018  1.00  0.00    -0.129 Cl
ENDBRANCH  21  22
ENDBRANCH  20  21
BRANCH  20  24
HETATM   24  N4  UNL     1      17.388  20.209  26.664  1.00  0.00    -0.310 N 
ATOM     25  H4  UNL     1      17.487  21.221  26.733  1.00  0.00     0.186 HD
BRANCH  24  26
HETATM   26  C16 UNL     1      16.156  19.623  26.308  1.00  0.00     0.095 C 
BRANCH  26  27
HETATM   27  C17 UNL     1      15.023  20.039  27.237  1.00  0.00     0.160 C 
HETATM   28 CL2  UNL     1      14.055  18.655  27.776  1.00  0.00    -0.125 Cl
ENDBRANCH  26  27
ENDBRANCH  24  26
ENDBRANCH  20  24
ENDBRANCH  18  20
ENDBRANCH  16  18
ENDBRANCH   1  16
TORSDOF 14
ENDMDL
MODEL 2
REMARK VINA RESULT: -6.649506152      1.528      1.817
REMARK  14 active torsions:
REMARK  status: ('A' for Active; 'I' for Inactive)
REMARK    1  A    between atoms: C2_2  and  C3_3 
REMARK    2  A    between atoms: C3_3  and  C5_5 
REMARK    3  A    between atoms: C3_3  and  N1_7 
REMARK       I    between atoms: N1_7  and  C7_9 
REMARK    4  A    between atoms: C7_9  and  C8_11 
REMARK    5  A    between atoms: C8_11  and  C9_12 
REMARK    6  A    between atoms: C8_11  and  N2_16 
REMARK    7  A    between atoms: C9_12  and  C10_13 
REMARK    8  A    between atoms: N2_16  and  C13_18 
REMARK    9  A    between atoms: C13_18  and  N3_20 
REMARK   10  A    between atoms: N3_20  and  C14_21 
REMARK   11  A    between atoms: N3_20  and  N4_24 
REMARK   12  A    between atoms: C14_21  and  C15_22 
REMARK   13  A    between atoms: N4_24  and  C16_26 
REMARK   14  A    between atoms: C16_26  and  C17_27 
ROOT
HETATM    1  C8  UNL     1      22.454  19.937  27.179  1.00  0.00     0.176 C 
ENDROOT
BRANCH   1   2
HETATM    2  C7  UNL     1      23.012  21.238  26.687  1.00  0.00     0.241 C 
HETATM    3  N1  UNL     1      23.471  22.274  27.523  1.00  0.00    -0.350 N 
ATOM      4  H1  UNL     1      23.429  22.144  28.534  1.00  0.00     0.163 HD
HETATM    5  O1  UNL     1      23.078  21.419  25.417  1.00  0.00    -0.271 OA
BRANCH   3   6
HETATM    6  C3  UNL     1      24.001  23.515  27.005  1.00  0.00     0.028 C 
HETATM    7  C4  UNL     1      22.901  24.247  26.291  1.00  0.00     0.038 C 
BRANCH   6   8
HETATM    8  C2  UNL     1      24.480  24.396  28.161  1.00  0.00     0.026 C 
HETATM    9  C1  UNL     1      23.550  25.550  28.332  1.00  0.00     0.007 C 
ENDBRANCH   6   8
BRANCH   6  10
HETATM   10  C5  UNL     1      25.212  23.276  26.110  1.00  0.00     0.026 C 
HETATM   11  C6  UNL     1      26.438  23.093  26.939  1.00  0.00     0.007 C 
ENDBRANCH   6  10
ENDBRANCH   3   6
ENDBRANCH   1   2
BRANCH   1  12
HETATM   12  C9  UNL     1      22.932  19.730  28.627  1.00  0.00     0.039 C 
BRANCH  12  13
HETATM   13  C10 UNL     1      22.759  18.346  29.135  1.00  0.00    -0.012 A 
HETATM   14  C11 UNL     1      21.832  18.190  30.332  1.00  0.00     0.005 A 
HETATM   15  C12 UNL     1      23.320  18.054  30.519  1.00  0.00     0.005 A 
ENDBRANCH  12  13
ENDBRANCH   1  12
BRANCH   1  16
HETATM   16  N2  UNL     1      21.019  20.091  27.302  1.00  0.00    -0.353 N 
ATOM     17  H2  UNL     1      20.671  20.582  28.126  1.00  0.00     0.162 HD
BRANCH  16  18
HETATM   18  C13 UNL     1      20.058  19.620  26.378  1.00  0.00     0.189 C 
HETATM   19  S1  UNL     1      20.558  18.883  25.032  1.00  0.00    -0.039 SA
BRANCH  18  20
HETATM   20  N3  UNL     1      18.656  19.823  26.585  1.00  0.00    -0.267 N 
BRANCH  20  21
HETATM   21  C14 UNL     1      17.926  18.991  27.489  1.00  0.00     0.166 C 
BRANCH  21  22
HETATM   22  C15 UNL     1      18.050  17.523  27.355  1.00  0.00     0.136 C 
HETATM   23 CL1  UNL     1      19.159  16.718  28.447  1.00  0.00    -0.129 Cl
ENDBRANCH  21  22
ENDBRANCH  20  21
BRANCH  20  24
HETATM   24  N4  UNL     1      18.043  20.817  25.830  1.00  0.00    -0.310 N 
ATOM     25  H4  UNL     1      18.572  21.620  25.490  1.00  0.00     0.186 HD
BRANCH  24  26
HETATM   26  C16 UNL     1      16.669  20.682  25.546  1.00  0.00     0.095 C 
BRANCH  26  27
HETATM   27  C17 UNL     1      15.952  22.024  25.479  1.00  0.00     0.160 C 
HETATM   28 CL2  UNL     1      14.227  21.847  25.116  1.00  0.00    -0.125 Cl
ENDBRANCH  26  27
ENDBRANCH  24  26
ENDBRANCH  20  24
ENDBRANCH  18  20
ENDBRANCH  16  18
ENDBRANCH   1  16
TORSDOF 14
ENDMDL
MODEL 3
REMARK VINA RESULT: -6.633790871      1.151      1.520
REMARK  14 active torsions:
REMARK  status: ('A' for Active; 'I' for Inactive)
REMARK    1  A    between atoms: C2_2  and  C3_3 
REMARK    2  A    between atoms: C3_3  and  C5_5 
REMARK    3  A    between atoms: C3_3  and  N1_7 
REMARK       I    between atoms: N1_7  and  C7_9 
REMARK    4  A    between atoms: C7_9  and  C8_11 
REMARK    5  A    between atoms: C8_11  and  C9_12 
REMARK    6  A    between atoms: C8_11  and  N2_16 
REMARK    7  A    between atoms: C9_12  and  C10_13 
REMARK    8  A    between atoms: N2_16  and  C13_18 
REMARK    9  A    between atoms: C13_18  and  N3_20 
REMARK   10  A    between atoms: N3_20  and  C14_21 
REMARK   11  A    between atoms: N3_20  and  N4_24 
REMARK   12  A    between atoms: C14_21  and  C15_22 
REMARK   13  A    between atoms: N4_24  and  C16_26 
REMARK   14  A    between atoms: C16_26  and  C17_27 
ROOT
HETATM    1  C8  UNL     1      22.416  19.912  27.091  1.00  0.00     0.176 C 
ENDROOT
BRANCH   1   2
HETATM    2  C7  UNL     1      23.012  21.219  26.660  1.00  0.00     0.241 C 
HETATM    3  N1  UNL     1      23.501  22.200  27.544  1.00  0.00    -0.350 N 
ATOM      4  H1  UNL     1      23.455  22.023  28.548  1.00  0.00     0.163 HD
HETATM    5  O1  UNL     1      23.082  21.458  25.401  1.00  0.00    -0.271 OA
BRANCH   3   6
HETATM    6  C3  UNL     1      24.067  23.448  27.085  1.00  0.00     0.028 C 
HETATM    7  C4  UNL     1      22.983  24.254  26.427  1.00  0.00     0.038 C 
BRANCH   6   8
HETATM    8  C2  UNL     1      24.591  24.249  28.278  1.00  0.00     0.026 C 
HETATM    9  C1  UNL     1      23.700  25.418  28.531  1.00  0.00     0.007 C 
ENDBRANCH   6   8
BRANCH   6  10
HETATM   10  C5  UNL     1      25.256  23.217  26.160  1.00  0.00     0.026 C 
HETATM   11  C6  UNL     1      26.515  23.117  26.953  1.00  0.00     0.007 C 
ENDBRANCH   6  10
ENDBRANCH   3   6
ENDBRANCH   1   2
BRANCH   1  12
HETATM   12  C9  UNL     1      22.728  19.716  28.585  1.00  0.00     0.039 C 
BRANCH  12  13
HETATM   13  C10 UNL     1      22.581  18.317  29.060  1.00  0.00    -0.012 A 
HETATM   14  C11 UNL     1      21.505  18.083  30.111  1.00  0.00     0.005 A 
HETATM   15  C12 UNL     1      22.956  18.048  30.510  1.00  0.00     0.005 A 
ENDBRANCH  12  13
ENDBRANCH   1  12
BRANCH   1  16
HETATM   16  N2  UNL     1      20.975  20.050  27.048  1.00  0.00    -0.353 N 
ATOM     17  H2  UNL     1      20.552  20.730  27.679  1.00  0.00     0.162 HD
BRANCH  16  18
HETATM   18  C13 UNL     1      20.103  19.321  26.207  1.00  0.00     0.189 C 
HETATM   19  S1  UNL     1      20.379  19.303  24.616  1.00  0.00    -0.039 SA
BRANCH  18  20
HETATM   20  N3  UNL     1      18.957  18.638  26.727  1.00  0.00    -0.267 N 
BRANCH  20  21
HETATM   21  C14 UNL     1      18.812  17.227  26.559  1.00  0.00     0.166 C 
BRANCH  21  22
HETATM   22  C15 UNL     1      19.723  16.329  27.302  1.00  0.00     0.136 C 
HETATM   23 CL1  UNL     1      19.094  15.595  28.763  1.00  0.00    -0.129 Cl
ENDBRANCH  21  22
ENDBRANCH  20  21
BRANCH  20  24
HETATM   24  N4  UNL     1      17.981  19.418  27.339  1.00  0.00    -0.310 N 
ATOM     25  H4  UNL     1      18.122  20.417  27.482  1.00  0.00     0.186 HD
BRANCH  24  26
HETATM   26  C16 UNL     1      16.793  18.786  27.757  1.00  0.00     0.095 C 
BRANCH  26  27
HETATM   27  C17 UNL     1      15.545  19.493  27.244  1.00  0.00     0.160 C 
HETATM   28 CL2  UNL     1      14.054  18.702  27.787  1.00  0.00    -0.125 Cl
ENDBRANCH  26  27
ENDBRANCH  24  26
ENDBRANCH  20  24
ENDBRANCH  18  20
ENDBRANCH  16  18
ENDBRANCH   1  16
TORSDOF 14
ENDMDL
MODEL 4
REMARK VINA RESULT: -6.606465777      3.214      6.631
REMARK  14 active torsions:
REMARK  status: ('A' for Active; 'I' for Inactive)
REMARK    1  A    between atoms: C2_2  and  C3_3 
REMARK    2  A    between atoms: C3_3  and  C5_5 
REMARK    3  A    between atoms: C3_3  and  N1_7 
REMARK       I    between atoms: N1_7  and  C7_9 
REMARK    4  A    between atoms: C7_9  and  C8_11 
REMARK    5  A    between atoms: C8_11  and  C9_12 
REMARK    6  A    between atoms: C8_11  and  N2_16 
REMARK    7  A    between atoms: C9_12  and  C10_13 
REMARK    8  A    between atoms: N2_16  and  C13_18 
REMARK    9  A    between atoms: C13_18  and  N3_20 
REMARK   10  A    between atoms: N3_20  and  C14_21 
REMARK   11  A    between atoms: N3_20  and  N4_24 
REMARK   12  A    between atoms: C14_21  and  C15_22 
REMARK   13  A    between atoms: N4_24  and  C16_26 
REMARK   14  A    between atoms: C16_26  and  C17_27 
ROOT
HETATM    1  C8  UNL     1      19.242  20.017  25.197  1.00  0.00     0.176 C 
ENDROOT
BRANCH   1   2
HETATM    2  C7  UNL     1      19.744  18.804  25.920  1.00  0.00     0.241 C 
HETATM    3  N1  UNL     1      19.922  18.727  27.316  1.00  0.00    -0.350 N 
ATOM      4  H1  UNL     1      19.697  19.543  27.885  1.00  0.00     0.163 HD
HETATM    5  O1  UNL     1      20.029  17.765  25.222  1.00  0.00    -0.271 OA
BRANCH   3   6
HETATM    6  C3  UNL     1      20.410  17.536  27.973  1.00  0.00     0.028 C 
HETATM    7  C4  UNL     1      21.886  17.417  27.717  1.00  0.00     0.038 C 
BRANCH   6   8
HETATM    8  C2  UNL     1      20.202  17.657  29.484  1.00  0.00     0.026 C 
HETATM    9  C1  UNL     1      21.500  17.972  30.147  1.00  0.00     0.007 C 
ENDBRANCH   6   8
BRANCH   6  10
HETATM   10  C5  UNL     1      19.645  16.296  27.526  1.00  0.00     0.026 C 
HETATM   11  C6  UNL     1      19.125  15.555  28.711  1.00  0.00     0.007 C 
ENDBRANCH   6  10
ENDBRANCH   3   6
ENDBRANCH   1   2
BRANCH   1  12
HETATM   12  C9  UNL     1      18.020  20.556  25.960  1.00  0.00     0.039 C 
BRANCH  12  13
HETATM   13  C10 UNL     1      16.864  19.624  25.998  1.00  0.00    -0.012 A 
HETATM   14  C11 UNL     1      15.557  20.210  26.511  1.00  0.00     0.005 A 
HETATM   15  C12 UNL     1      16.334  19.253  27.375  1.00  0.00     0.005 A 
ENDBRANCH  12  13
ENDBRANCH   1  12
BRANCH   1  16
HETATM   16  N2  UNL     1      20.236  21.060  25.343  1.00  0.00    -0.353 N 
ATOM     17  H2  UNL     1      20.051  21.787  26.033  1.00  0.00     0.162 HD
BRANCH  16  18
HETATM   18  C13 UNL     1      21.442  21.158  24.611  1.00  0.00     0.189 C 
HETATM   19  S1  UNL     1      21.484  20.614  23.091  1.00  0.00    -0.039 SA
BRANCH  18  20
HETATM   20  N3  UNL     1      22.636  21.683  25.200  1.00  0.00    -0.267 N 
BRANCH  20  21
HETATM   21  C14 UNL     1      23.426  20.880  26.080  1.00  0.00     0.166 C 
BRANCH  21  22
HETATM   22  C15 UNL     1      23.052  20.818  27.509  1.00  0.00     0.136 C 
HETATM   23 CL1  UNL     1      24.308  20.351  28.638  1.00  0.00    -0.129 Cl
ENDBRANCH  21  22
ENDBRANCH  20  21
BRANCH  20  24
HETATM   24  N4  UNL     1      22.947  23.009  24.923  1.00  0.00    -0.310 N 
ATOM     25  H4  UNL     1      23.338  23.280  24.021  1.00  0.00     0.186 HD
BRANCH  24  26
HETATM   26  C16 UNL     1      22.706  23.970  25.926  1.00  0.00     0.095 C 
BRANCH  26  27
HETATM   27  C17 UNL     1      23.993  24.563  26.487  1.00  0.00     0.160 C 
HETATM   28 CL2  UNL     1      24.187  24.229  28.217  1.00  0.00    -0.125 Cl
ENDBRANCH  26  27
ENDBRANCH  24  26
ENDBRANCH  20  24
ENDBRANCH  18  20
ENDBRANCH  16  18
ENDBRANCH   1  16
TORSDOF 14
ENDMDL
MODEL 5
REMARK VINA RESULT: -6.557557338      1.554      2.999
REMARK  14 active torsions:
REMARK  status: ('A' for Active; 'I' for Inactive)
REMARK    1  A    between atoms: C2_2  and  C3_3 
REMARK    2  A    between atoms: C3_3  and  C5_5 
REMARK    3  A    between atoms: C3_3  and  N1_7 
REMARK       I    between atoms: N1_7  and  C7_9 
REMARK    4  A    between atoms: C7_9  and  C8_11 
REMARK    5  A    between atoms: C8_11  and  C9_12 
REMARK    6  A    between atoms: C8_11  and  N2_16 
REMARK    7  A    between atoms: C9_12  and  C10_13 
REMARK    8  A    between atoms: N2_16  and  C13_18 
REMARK    9  A    between atoms: C13_18  and  N3_20 
REMARK   10  A    between atoms: N3_20  and  C14_21 
REMARK   11  A    between atoms: N3_20  and  N4_24 
REMARK   12  A    between atoms: C14_21  and  C15_22 
REMARK   13  A    between atoms: N4_24  and  C16_26 
REMARK   14  A    between atoms: C16_26  and  C17_27 
ROOT
HETATM    1  C8  UNL     1      22.409  19.859  27.039  1.00  0.00     0.176 C 
ENDROOT
BRANCH   1   2
HETATM    2  C7  UNL     1      23.006  21.175  26.637  1.00  0.00     0.241 C 
HETATM    3  N1  UNL     1      23.485  22.141  27.543  1.00  0.00    -0.350 N 
ATOM      4  H1  UNL     1      23.430  21.946  28.542  1.00  0.00     0.163 HD
HETATM    5  O1  UNL     1      23.087  21.436  25.382  1.00  0.00    -0.271 OA
BRANCH   3   6
HETATM    6  C3  UNL     1      24.052  23.398  27.111  1.00  0.00     0.028 C 
HETATM    7  C4  UNL     1      22.975  24.209  26.448  1.00  0.00     0.038 C 
BRANCH   6   8
HETATM    8  C2  UNL     1      24.553  24.184  28.324  1.00  0.00     0.026 C 
HETATM    9  C1  UNL     1      23.708  25.397  28.522  1.00  0.00     0.007 C 
ENDBRANCH   6   8
BRANCH   6  10
HETATM   10  C5  UNL     1      25.257  23.186  26.202  1.00  0.00     0.026 C 
HETATM   11  C6  UNL     1      26.496  23.025  27.017  1.00  0.00     0.007 C 
ENDBRANCH   6  10
ENDBRANCH   3   6
ENDBRANCH   1   2
BRANCH   1  12
HETATM   12  C9  UNL     1      22.617  19.685  28.553  1.00  0.00     0.039 C 
BRANCH  12  13
HETATM   13  C10 UNL     1      22.493  18.284  29.029  1.00  0.00    -0.012 A 
HETATM   14  C11 UNL     1      21.326  18.002  29.964  1.00  0.00     0.005 A 
HETATM   15  C12 UNL     1      22.727  18.046  30.513  1.00  0.00     0.005 A 
ENDBRANCH  12  13
ENDBRANCH   1  12
BRANCH   1  16
HETATM   16  N2  UNL     1      20.972  19.964  26.892  1.00  0.00    -0.353 N 
ATOM     17  H2  UNL     1      20.483  20.596  27.525  1.00  0.00     0.162 HD
BRANCH  16  18
HETATM   18  C13 UNL     1      20.188  19.264  25.945  1.00  0.00     0.189 C 
HETATM   19  S1  UNL     1      20.926  18.450  24.763  1.00  0.00    -0.039 SA
BRANCH  18  20
HETATM   20  N3  UNL     1      18.758  19.300  25.984  1.00  0.00    -0.267 N 
BRANCH  20  21
HETATM   21  C14 UNL     1      18.056  20.534  25.814  1.00  0.00     0.166 C 
BRANCH  21  22
HETATM   22  C15 UNL     1      16.582  20.500  25.711  1.00  0.00     0.136 C 
HETATM   23 CL1  UNL     1      15.794  21.958  25.141  1.00  0.00    -0.129 Cl
ENDBRANCH  21  22
ENDBRANCH  20  21
BRANCH  20  24
HETATM   24  N4  UNL     1      18.103  18.103  26.251  1.00  0.00    -0.310 N 
ATOM     25  H4  UNL     1      17.475  17.684  25.565  1.00  0.00     0.186 HD
BRANCH  24  26
HETATM   26  C16 UNL     1      18.331  17.485  27.497  1.00  0.00     0.095 C 
BRANCH  26  27
HETATM   27  C17 UNL     1      19.046  16.146  27.361  1.00  0.00     0.160 C 
HETATM   28 CL2  UNL     1      19.072  15.242  28.885  1.00  0.00    -0.125 Cl
ENDBRANCH  26  27
ENDBRANCH  24  26
ENDBRANCH  20  24
ENDBRANCH  18  20
ENDBRANCH  16  18
ENDBRANCH   1  16
TORSDOF 14
ENDMDL
