MODEL 1
REMARK VINA RESULT: -8.431157476      0.000      0.000
REMARK  11 active torsions:
REMARK  status: ('A' for Active; 'I' for Inactive)
REMARK       I    between atoms: N1_2  and  C2_4 
REMARK    1  A    between atoms: C2_4  and  C3_6 
REMARK    2  A    between atoms: C3_6  and  C4_7 
REMARK    3  A    between atoms: C4_7  and  C5_8 
REMARK       I    between atoms: C5_8  and  N2_10 
REMARK    4  A    between atoms: N2_10  and  C6_12 
REMARK    5  A    between atoms: C6_12  and  C7_13 
REMARK    6  A    between atoms: C6_12  and  C14_20 
REMARK    7  A    between atoms: C7_13  and  C8_14 
REMARK    8  A    between atoms: C14_20  and  C15_21 
REMARK    9  A    between atoms: C14_20  and  N3_25 
REMARK   10  A    between atoms: C15_21  and  C16_22 
REMARK       I    between atoms: N3_25  and  C19_26 
REMARK   11  A    between atoms: C19_26  and  C20_28 
ROOT
HETATM    1  C6  UNL     1      22.232  19.173  25.995  1.00  0.00     0.049 C 
ENDROOT
BRANCH   1   2
HETATM    2  N2  UNL     1      21.625  19.961  25.025  1.00  0.00    -0.328 N 
HETATM    3  C5  UNL     1      21.163  19.422  23.749  1.00  0.00     0.222 C 
HETATM    4  O2  UNL     1      21.329  18.150  23.614  1.00  0.00    -0.273 OA
ATOM      5  H2  UNL     1      21.497  20.956  25.212  1.00  0.00     0.168 HD
BRANCH   3   6
HETATM    6  C4  UNL     1      20.572  20.145  22.648  1.00  0.00     0.112 C 
BRANCH   6   7
HETATM    7  C3  UNL     1      21.493  20.707  21.606  1.00  0.00     0.112 C 
BRANCH   7   8
HETATM    8  C2  UNL     1      21.625  19.809  20.439  1.00  0.00     0.217 C 
HETATM    9  N1  UNL     1      20.535  19.295  19.696  1.00  0.00    -0.365 N 
HETATM   10  C1  UNL     1      20.735  18.414  18.585  1.00  0.00     0.149 C 
ATOM     11  H1  UNL     1      19.585  19.558  19.958  1.00  0.00     0.161 HD
HETATM   12  O1  UNL     1      22.797  19.497  20.107  1.00  0.00    -0.274 OA
ENDBRANCH   7   8
ENDBRANCH   6   7
ENDBRANCH   3   6
ENDBRANCH   1   2
BRANCH   1  13
HETATM   13  C7  UNL     1      23.562  19.739  26.520  1.00  0.00     0.065 C 
BRANCH  13  14
HETATM   14  C8  UNL     1      23.505  21.133  27.017  1.00  0.00    -0.009 C 
HETATM   15  C9  UNL     1      24.596  21.218  28.107  1.00  0.00     0.005 C 
HETATM   16  C10 UNL     1      25.074  22.608  28.328  1.00  0.00     0.000 C 
HETATM   17  C11 UNL     1      24.042  23.647  27.944  1.00  0.00     0.000 C 
HETATM   18  C12 UNL     1      23.777  23.526  26.472  1.00  0.00     0.000 C 
HETATM   19  C13 UNL     1      24.120  22.118  25.994  1.00  0.00     0.005 C 
ENDBRANCH  13  14
ENDBRANCH   1  13
BRANCH   1  20
HETATM   20  C14 UNL     1      21.457  18.522  27.089  1.00  0.00     0.111 C 
BRANCH  20  21
HETATM   21  C15 UNL     1      22.136  17.907  28.225  1.00  0.00     0.079 C 
BRANCH  21  22
HETATM   22  C16 UNL     1      21.854  18.351  29.618  1.00  0.00    -0.016 C 
HETATM   23  C17 UNL     1      20.839  17.445  30.295  1.00  0.00     0.010 C 
HETATM   24  C18 UNL     1      23.155  18.346  30.426  1.00  0.00     0.010 C 
ENDBRANCH  21  22
ENDBRANCH  20  21
BRANCH  20  25
HETATM   25  N3  UNL     1      20.152  18.239  26.757  1.00  0.00    -0.372 NA
HETATM   26  C19 UNL     1      18.852  17.954  26.425  1.00  0.00     0.305 C 
HETATM   27  O3  UNL     1      18.391  16.917  25.861  1.00  0.00    -0.256 OA
BRANCH  26  28
HETATM   28  C20 UNL     1      17.758  18.963  26.738  1.00  0.00     0.233 C 
HETATM   29 CL1  UNL     1      18.220  20.442  25.838  1.00  0.00    -0.119 Cl
ENDBRANCH  26  28
ENDBRANCH  20  25
ENDBRANCH   1  20
TORSDOF 11
ENDMDL
MODEL 2
REMARK VINA RESULT: -8.368271766      1.105      1.109
REMARK  11 active torsions:
REMARK  status: ('A' for Active; 'I' for Inactive)
REMARK       I    between atoms: N1_2  and  C2_4 
REMARK    1  A    between atoms: C2_4  and  C3_6 
REMARK    2  A    between atoms: C3_6  and  C4_7 
REMARK    3  A    between atoms: C4_7  and  C5_8 
REMARK       I    between atoms: C5_8  and  N2_10 
REMARK    4  A    between atoms: N2_10  and  C6_12 
REMARK    5  A    between atoms: C6_12  and  C7_13 
REMARK    6  A    between atoms: C6_12  and  C14_20 
REMARK    7  A    between atoms: C7_13  and  C8_14 
REMARK    8  A    between atoms: C14_20  and  C15_21 
REMARK    9  A    between atoms: C14_20  and  N3_25 
REMARK   10  A    between atoms: C15_21  and  C16_22 
REMARK       I    between atoms: N3_25  and  C19_26 
REMARK   11  A    between atoms: C19_26  and  C20_28 
ROOT
HETATM    1  C6  UNL     1      22.134  19.419  26.057  1.00  0.00     0.049 C 
ENDROOT
BRANCH   1   2
HETATM    2  N2  UNL     1      21.538  20.124  25.018  1.00  0.00    -0.328 N 
HETATM    3  C5  UNL     1      21.072  19.477  23.794  1.00  0.00     0.222 C 
HETATM    4  O2  UNL     1      21.222  18.196  23.776  1.00  0.00    -0.273 OA
ATOM      5  H2  UNL     1      21.423  21.133  25.113  1.00  0.00     0.168 HD
BRANCH   3   6
HETATM    6  C4  UNL     1      20.493  20.104  22.630  1.00  0.00     0.112 C 
BRANCH   6   7
HETATM    7  C3  UNL     1      21.426  20.693  21.616  1.00  0.00     0.112 C 
BRANCH   7   8
HETATM    8  C2  UNL     1      21.599  19.812  20.442  1.00  0.00     0.217 C 
HETATM    9  N1  UNL     1      20.534  19.280  19.674  1.00  0.00    -0.365 N 
HETATM   10  C1  UNL     1      20.773  18.417  18.558  1.00  0.00     0.149 C 
ATOM     11  H1  UNL     1      19.574  19.518  19.924  1.00  0.00     0.161 HD
HETATM   12  O1  UNL     1      22.783  19.532  20.125  1.00  0.00    -0.274 OA
ENDBRANCH   7   8
ENDBRANCH   6   7
ENDBRANCH   3   6
ENDBRANCH   1   2
BRANCH   1  13
HETATM   13  C7  UNL     1      23.526  19.941  26.450  1.00  0.00     0.065 C 
BRANCH  13  14
HETATM   14  C8  UNL     1      23.552  21.301  27.033  1.00  0.00    -0.009 C 
HETATM   15  C9  UNL     1      24.662  21.258  28.107  1.00  0.00     0.005 C 
HETATM   16  C10 UNL     1      25.218  22.605  28.405  1.00  0.00     0.000 C 
HETATM   17  C11 UNL     1      24.239  23.719  28.105  1.00  0.00     0.000 C 
HETATM   18  C12 UNL     1      23.947  23.706  26.633  1.00  0.00     0.000 C 
HETATM   19  C13 UNL     1      24.206  22.314  26.062  1.00  0.00     0.005 C 
ENDBRANCH  13  14
ENDBRANCH   1  13
BRANCH   1  20
HETATM   20  C14 UNL     1      21.368  18.977  27.257  1.00  0.00     0.111 C 
BRANCH  20  21
HETATM   21  C15 UNL     1      21.983  18.114  28.261  1.00  0.00     0.079 C 
BRANCH  21  22
HETATM   22  C16 UNL     1      21.726  18.323  29.712  1.00  0.00    -0.016 C 
HETATM   23  C17 UNL     1      20.782  17.269  30.267  1.00  0.00     0.010 C 
HETATM   24  C18 UNL     1      23.051  18.267  30.476  1.00  0.00     0.010 C 
ENDBRANCH  21  22
ENDBRANCH  20  21
BRANCH  20  25
HETATM   25  N3  UNL     1      20.006  19.134  27.140  1.00  0.00    -0.372 NA
HETATM   26  C19 UNL     1      18.649  19.294  27.021  1.00  0.00     0.305 C 
HETATM   27  O3  UNL     1      18.012  20.243  26.476  1.00  0.00    -0.256 OA
BRANCH  26  28
HETATM   28  C20 UNL     1      17.715  18.238  27.593  1.00  0.00     0.233 C 
HETATM   29 CL1  UNL     1      18.531  16.675  27.271  1.00  0.00    -0.119 Cl
ENDBRANCH  26  28
ENDBRANCH  20  25
ENDBRANCH   1  20
TORSDOF 11
ENDMDL
MODEL 3
REMARK VINA RESULT: -8.310717908      2.600      5.941
REMARK  11 active torsions:
REMARK  status: ('A' for Active; 'I' for Inactive)
REMARK       I    between atoms: N1_2  and  C2_4 
REMARK    1  A    between atoms: C2_4  and  C3_6 
REMARK    2  A    between atoms: C3_6  and  C4_7 
REMARK    3  A    between atoms: C4_7  and  C5_8 
REMARK       I    between atoms: C5_8  and  N2_10 
REMARK    4  A    between atoms: N2_10  and  C6_12 
REMARK    5  A    between atoms: C6_12  and  C7_13 
REMARK    6  A    between atoms: C6_12  and  C14_20 
REMARK    7  A    between atoms: C7_13  and  C8_14 
REMARK    8  A    between atoms: C14_20  and  C15_21 
REMARK    9  A    between atoms: C14_20  and  N3_25 
REMARK   10  A    between atoms: C15_21  and  C16_22 
REMARK       I    between atoms: N3_25  and  C19_26 
REMARK   11  A    between atoms: C19_26  and  C20_28 
ROOT
HETATM    1  C6  UNL     1      21.480  20.167  26.187  1.00  0.00     0.049 C 
ENDROOT
BRANCH   1   2
HETATM    2  N2  UNL     1      20.260  19.566  26.471  1.00  0.00    -0.328 N 
HETATM    3  C5  UNL     1      20.055  18.123  26.384  1.00  0.00     0.222 C 
HETATM    4  O2  UNL     1      21.109  17.452  26.062  1.00  0.00    -0.273 OA
ATOM      5  H2  UNL     1      19.476  20.156  26.750  1.00  0.00     0.168 HD
BRANCH   3   6
HETATM    6  C4  UNL     1      18.830  17.391  26.598  1.00  0.00     0.112 C 
BRANCH   6   7
HETATM    7  C3  UNL     1      18.032  17.706  27.827  1.00  0.00     0.112 C 
BRANCH   7   8
HETATM    8  C2  UNL     1      17.006  18.741  27.574  1.00  0.00     0.217 C 
HETATM    9  N1  UNL     1      16.480  19.052  26.297  1.00  0.00    -0.365 N 
HETATM   10  C1  UNL     1      15.500  20.081  26.121  1.00  0.00     0.149 C 
ATOM     11  H1  UNL     1      16.808  18.532  25.483  1.00  0.00     0.161 HD
HETATM   12  O1  UNL     1      16.591  19.371  28.579  1.00  0.00    -0.274 OA
ENDBRANCH   7   8
ENDBRANCH   6   7
ENDBRANCH   3   6
ENDBRANCH   1   2
BRANCH   1  13
HETATM   13  C7  UNL     1      21.425  21.182  25.033  1.00  0.00     0.065 C 
BRANCH  13  14
HETATM   14  C8  UNL     1      21.918  20.686  23.729  1.00  0.00    -0.009 C 
HETATM   15  C9  UNL     1      22.994  19.635  24.077  1.00  0.00     0.005 C 
HETATM   16  C10 UNL     1      23.205  18.651  22.982  1.00  0.00     0.000 C 
HETATM   17  C11 UNL     1      22.830  19.201  21.624  1.00  0.00     0.000 C 
HETATM   18  C12 UNL     1      21.362  19.509  21.630  1.00  0.00     0.000 C 
HETATM   19  C13 UNL     1      20.884  19.748  23.059  1.00  0.00     0.005 C 
ENDBRANCH  13  14
ENDBRANCH   1  13
BRANCH   1  20
HETATM   20  C14 UNL     1      22.408  20.626  27.260  1.00  0.00     0.111 C 
BRANCH  20  21
HETATM   21  C15 UNL     1      23.095  21.909  27.159  1.00  0.00     0.079 C 
BRANCH  21  22
HETATM   22  C16 UNL     1      24.566  21.975  26.939  1.00  0.00    -0.016 C 
HETATM   23  C17 UNL     1      24.923  23.000  25.874  1.00  0.00     0.010 C 
HETATM   24  C18 UNL     1      25.261  22.347  28.251  1.00  0.00     0.010 C 
ENDBRANCH  21  22
ENDBRANCH  20  21
BRANCH  20  25
HETATM   25  N3  UNL     1      22.820  19.622  28.108  1.00  0.00    -0.372 NA
HETATM   26  C19 UNL     1      23.233  18.622  28.950  1.00  0.00     0.305 C 
HETATM   27  O3  UNL     1      24.071  17.698  28.726  1.00  0.00    -0.256 OA
BRANCH  26  28
HETATM   28  C20 UNL     1      22.657  18.538  30.356  1.00  0.00     0.233 C 
HETATM   29 CL1  UNL     1      21.015  17.853  30.143  1.00  0.00    -0.119 Cl
ENDBRANCH  26  28
ENDBRANCH  20  25
ENDBRANCH   1  20
TORSDOF 11
ENDMDL
MODEL 4
REMARK VINA RESULT: -8.301302482      1.286      1.693
REMARK  11 active torsions:
REMARK  status: ('A' for Active; 'I' for Inactive)
REMARK       I    between atoms: N1_2  and  C2_4 
REMARK    1  A    between atoms: C2_4  and  C3_6 
REMARK    2  A    between atoms: C3_6  and  C4_7 
REMARK    3  A    between atoms: C4_7  and  C5_8 
REMARK       I    between atoms: C5_8  and  N2_10 
REMARK    4  A    between atoms: N2_10  and  C6_12 
REMARK    5  A    between atoms: C6_12  and  C7_13 
REMARK    6  A    between atoms: C6_12  and  C14_20 
REMARK    7  A    between atoms: C7_13  and  C8_14 
REMARK    8  A    between atoms: C14_20  and  C15_21 
REMARK    9  A    between atoms: C14_20  and  N3_25 
REMARK   10  A    between atoms: C15_21  and  C16_22 
REMARK       I    between atoms: N3_25  and  C19_26 
REMARK   11  A    between atoms: C19_26  and  C20_28 
ROOT
HETATM    1  C6  UNL     1      21.980  19.868  26.114  1.00  0.00     0.049 C 
ENDROOT
BRANCH   1   2
HETATM    2  N2  UNL     1      21.634  19.940  24.770  1.00  0.00    -0.328 N 
HETATM    3  C5  UNL     1      22.440  19.330  23.716  1.00  0.00     0.222 C 
HETATM    4  O2  UNL     1      23.476  18.688  24.139  1.00  0.00    -0.273 OA
ATOM      5  H2  UNL     1      20.783  20.438  24.510  1.00  0.00     0.168 HD
BRANCH   3   6
HETATM    6  C4  UNL     1      22.216  19.383  22.291  1.00  0.00     0.112 C 
BRANCH   6   7
HETATM    7  C3  UNL     1      22.917  18.372  21.435  1.00  0.00     0.112 C 
BRANCH   7   8
HETATM    8  C2  UNL     1      21.972  17.427  20.803  1.00  0.00     0.217 C 
HETATM    9  N1  UNL     1      21.329  17.646  19.560  1.00  0.00    -0.365 N 
HETATM   10  C1  UNL     1      20.410  16.695  19.014  1.00  0.00     0.149 C 
ATOM     11  H1  UNL     1      21.526  18.503  19.042  1.00  0.00     0.161 HD
HETATM   12  O1  UNL     1      21.741  16.365  21.434  1.00  0.00    -0.274 OA
ENDBRANCH   7   8
ENDBRANCH   6   7
ENDBRANCH   3   6
ENDBRANCH   1   2
BRANCH   1  13
HETATM   13  C7  UNL     1      22.184  21.238  26.782  1.00  0.00     0.065 C 
BRANCH  13  14
HETATM   14  C8  UNL     1      23.589  21.691  26.884  1.00  0.00    -0.009 C 
HETATM   15  C9  UNL     1      23.507  23.219  27.091  1.00  0.00     0.005 C 
HETATM   16  C10 UNL     1      24.719  23.771  27.754  1.00  0.00     0.000 C 
HETATM   17  C11 UNL     1      25.946  22.914  27.531  1.00  0.00     0.000 C 
HETATM   18  C12 UNL     1      25.703  21.572  28.156  1.00  0.00     0.000 C 
HETATM   19  C13 UNL     1      24.204  21.304  28.252  1.00  0.00     0.005 C 
ENDBRANCH  13  14
ENDBRANCH   1  13
BRANCH   1  20
HETATM   20  C14 UNL     1      21.334  18.905  27.051  1.00  0.00     0.111 C 
BRANCH  20  21
HETATM   21  C15 UNL     1      22.119  18.200  28.059  1.00  0.00     0.079 C 
BRANCH  21  22
HETATM   22  C16 UNL     1      21.906  18.451  29.510  1.00  0.00    -0.016 C 
HETATM   23  C17 UNL     1      20.831  17.540  30.080  1.00  0.00     0.010 C 
HETATM   24  C18 UNL     1      23.217  18.219  30.265  1.00  0.00     0.010 C 
ENDBRANCH  21  22
ENDBRANCH  20  21
BRANCH  20  25
HETATM   25  N3  UNL     1      20.085  18.489  26.650  1.00  0.00    -0.372 NA
HETATM   26  C19 UNL     1      18.842  18.071  26.250  1.00  0.00     0.305 C 
HETATM   27  O3  UNL     1      18.499  16.940  25.795  1.00  0.00    -0.256 OA
BRANCH  26  28
HETATM   28  C20 UNL     1      17.664  19.031  26.331  1.00  0.00     0.233 C 
HETATM   29 CL1  UNL     1      18.336  20.628  25.872  1.00  0.00    -0.119 Cl
ENDBRANCH  26  28
ENDBRANCH  20  25
ENDBRANCH   1  20
TORSDOF 11
ENDMDL
MODEL 5
REMARK VINA RESULT: -8.293520879      3.237      6.445
REMARK  11 active torsions:
REMARK  status: ('A' for Active; 'I' for Inactive)
REMARK       I    between atoms: N1_2  and  C2_4 
REMARK    1  A    between atoms: C2_4  and  C3_6 
REMARK    2  A    between atoms: C3_6  and  C4_7 
REMARK    3  A    between atoms: C4_7  and  C5_8 
REMARK       I    between atoms: C5_8  and  N2_10 
REMARK    4  A    between atoms: N2_10  and  C6_12 
REMARK    5  A    between atoms: C6_12  and  C7_13 
REMARK    6  A    between atoms: C6_12  and  C14_20 
REMARK    7  A    between atoms: C7_13  and  C8_14 
REMARK    8  A    between atoms: C14_20  and  C15_21 
REMARK    9  A    between atoms: C14_20  and  N3_25 
REMARK   10  A    between atoms: C15_21  and  C16_22 
REMARK       I    between atoms: N3_25  and  C19_26 
REMARK   11  A    between atoms: C19_26  and  C20_28 
ROOT
HETATM    1  C6  UNL     1      19.806  20.412  25.942  1.00  0.00     0.049 C 
ENDROOT
BRANCH   1   2
HETATM    2  N2  UNL     1      18.639  20.679  25.236  1.00  0.00    -0.328 N 
HETATM    3  C5  UNL     1      17.311  20.493  25.814  1.00  0.00     0.222 C 
HETATM    4  O2  UNL     1      17.312  20.100  27.042  1.00  0.00    -0.273 OA
ATOM      5  H2  UNL     1      18.713  21.018  24.277  1.00  0.00     0.168 HD
BRANCH   3   6
HETATM    6  C4  UNL     1      16.034  20.681  25.168  1.00  0.00     0.112 C 
BRANCH   6   7
HETATM    7  C3  UNL     1      14.873  21.096  26.021  1.00  0.00     0.112 C 
BRANCH   7   8
HETATM    8  C2  UNL     1      14.823  22.560  26.218  1.00  0.00     0.217 C 
HETATM    9  N1  UNL     1      14.845  23.200  27.481  1.00  0.00    -0.365 N 
HETATM   10  C1  UNL     1      14.775  24.625  27.601  1.00  0.00     0.149 C 
ATOM     11  H1  UNL     1      14.912  22.632  28.326  1.00  0.00     0.161 HD
HETATM   12  O1  UNL     1      14.755  23.261  25.177  1.00  0.00    -0.274 OA
ENDBRANCH   7   8
ENDBRANCH   6   7
ENDBRANCH   3   6
ENDBRANCH   1   2
BRANCH   1  13
HETATM   13  C7  UNL     1      19.905  18.970  26.466  1.00  0.00     0.065 C 
BRANCH  13  14
HETATM   14  C8  UNL     1      20.487  18.826  27.820  1.00  0.00    -0.009 C 
HETATM   15  C9  UNL     1      19.564  17.828  28.552  1.00  0.00     0.005 C 
HETATM   16  C10 UNL     1      20.249  17.137  29.677  1.00  0.00     0.000 C 
HETATM   17  C11 UNL     1      21.402  17.941  30.238  1.00  0.00     0.000 C 
HETATM   18  C12 UNL     1      22.432  18.102  29.158  1.00  0.00     0.000 C 
HETATM   19  C13 UNL     1      21.776  17.970  27.787  1.00  0.00     0.005 C 
ENDBRANCH  13  14
ENDBRANCH   1  13
BRANCH   1  20
HETATM   20  C14 UNL     1      21.137  20.912  25.494  1.00  0.00     0.111 C 
BRANCH  20  21
HETATM   21  C15 UNL     1      21.982  21.697  26.388  1.00  0.00     0.079 C 
BRANCH  21  22
HETATM   22  C16 UNL     1      23.458  21.508  26.411  1.00  0.00    -0.016 C 
HETATM   23  C17 UNL     1      24.186  22.753  25.933  1.00  0.00     0.010 C 
HETATM   24  C18 UNL     1      23.907  21.176  27.837  1.00  0.00     0.010 C 
ENDBRANCH  21  22
ENDBRANCH  20  21
BRANCH  20  25
HETATM   25  N3  UNL     1      21.311  20.891  24.129  1.00  0.00    -0.372 NA
HETATM   26  C19 UNL     1      21.486  20.872  22.769  1.00  0.00     0.305 C 
HETATM   27  O3  UNL     1      21.907  21.799  22.015  1.00  0.00    -0.256 OA
BRANCH  26  28
HETATM   28  C20 UNL     1      21.153  19.611  21.986  1.00  0.00     0.233 C 
HETATM   29 CL1  UNL     1      21.636  18.259  23.058  1.00  0.00    -0.119 Cl
ENDBRANCH  26  28
ENDBRANCH  20  25
ENDBRANCH   1  20
TORSDOF 11
ENDMDL
