MODEL 1
REMARK VINA RESULT: -8.377795064      0.000      0.000
REMARK  6 active torsions:
REMARK  status: ('A' for Active; 'I' for Inactive)
REMARK    1  A    between atoms: C1_4  and  N2_5 
REMARK    2  A    between atoms: C1_4  and  C8_17 
REMARK    3  A    between atoms: N2_5  and  C2_7 
REMARK    4  A    between atoms: C2_7  and  C3_8 
REMARK    5  A    between atoms: C3_8  and  N3_9 
REMARK    6  A    between atoms: N3_9  and  N4_11 
ROOT
HETATM    1  N2  UNL     1      45.360 -47.526  66.810  1.00  0.00    -0.374 N 
ATOM      2  H2  UNL     1      45.866 -48.403  66.688  1.00  0.00     0.161 HD
ENDROOT
BRANCH   1   3
HETATM    3  C1  UNL     1      45.707 -46.644  67.864  1.00  0.00     0.105 C 
HETATM    4  N1  UNL     1      46.650 -45.776  67.715  1.00  0.00    -0.385 N 
ATOM      5  H12 UNL     1      47.136 -45.746  66.819  1.00  0.00     0.157 HD
ATOM      6  H11 UNL     1      46.900 -45.142  68.473  1.00  0.00     0.157 HD
BRANCH   3   7
HETATM    7  C8  UNL     1      45.014 -46.686  69.144  1.00  0.00     0.007 A 
HETATM    8  C9  UNL     1      45.700 -46.990  70.312  1.00  0.00     0.015 A 
HETATM    9  C10 UNL     1      45.066 -47.036  71.538  1.00  0.00     0.001 A 
HETATM   10  C11 UNL     1      43.714 -46.778  71.643  1.00  0.00     0.000 A 
HETATM   11  C12 UNL     1      43.041 -46.477  70.476  1.00  0.00     0.001 A 
HETATM   12  C13 UNL     1      43.668 -46.430  69.249  1.00  0.00     0.015 A 
ENDBRANCH   3   7
ENDBRANCH   1   3
BRANCH   1  13
HETATM   13  C2  UNL     1      44.285 -47.175  65.910  1.00  0.00     0.142 C 
BRANCH  13  14
HETATM   14  C3  UNL     1      44.783 -46.189  64.844  1.00  0.00     0.158 C 
BRANCH  14  15
HETATM   15  N3  UNL     1      46.084 -46.545  64.380  1.00  0.00    -0.337 N 
ATOM     16  H3  UNL     1      46.581 -47.355  64.751  1.00  0.00     0.180 HD
BRANCH  15  17
HETATM   17  N4  UNL     1      46.624 -45.763  63.433  1.00  0.00    -0.328 N 
HETATM   18  C4  UNL     1      45.998 -45.697  62.164  1.00  0.00     0.168 C 
HETATM   19  C5  UNL     1      46.898 -44.834  61.268  1.00  0.00     0.189 C 
HETATM   20  O1  UNL     1      48.229 -44.992  61.563  1.00  0.00    -0.388 OA
HETATM   21  C6  UNL     1      48.596 -44.591  62.822  1.00  0.00     0.189 C 
HETATM   22  C7  UNL     1      47.421 -44.666  63.806  1.00  0.00     0.168 C 
ENDBRANCH  15  17
ENDBRANCH  14  15
ENDBRANCH  13  14
ENDBRANCH   1  13
TORSDOF 6
ENDMDL
MODEL 2
REMARK VINA RESULT: -8.306909198      1.087      1.619
REMARK  6 active torsions:
REMARK  status: ('A' for Active; 'I' for Inactive)
REMARK    1  A    between atoms: C1_4  and  N2_5 
REMARK    2  A    between atoms: C1_4  and  C8_17 
REMARK    3  A    between atoms: N2_5  and  C2_7 
REMARK    4  A    between atoms: C2_7  and  C3_8 
REMARK    5  A    between atoms: C3_8  and  N3_9 
REMARK    6  A    between atoms: N3_9  and  N4_11 
ROOT
HETATM    1  N2  UNL     1      44.606 -46.512  66.455  1.00  0.00    -0.374 N 
ATOM      2  H2  UNL     1      43.605 -46.632  66.614  1.00  0.00     0.161 HD
ENDROOT
BRANCH   1   3
HETATM    3  C1  UNL     1      45.488 -46.362  67.555  1.00  0.00     0.105 C 
HETATM    4  N1  UNL     1      46.732 -46.080  67.369  1.00  0.00    -0.385 N 
ATOM      5  H12 UNL     1      47.061 -45.969  66.410  1.00  0.00     0.157 HD
ATOM      6  H11 UNL     1      47.367 -45.972  68.161  1.00  0.00     0.157 HD
BRANCH   3   7
HETATM    7  C8  UNL     1      45.020 -46.519  68.925  1.00  0.00     0.007 A 
HETATM    8  C9  UNL     1      43.674 -46.377  69.235  1.00  0.00     0.015 A 
HETATM    9  C10 UNL     1      43.205 -46.521  70.526  1.00  0.00     0.001 A 
HETATM   10  C11 UNL     1      44.069 -46.815  71.562  1.00  0.00     0.000 A 
HETATM   11  C12 UNL     1      45.405 -46.954  71.243  1.00  0.00     0.001 A 
HETATM   12  C13 UNL     1      45.879 -46.811  69.957  1.00  0.00     0.015 A 
ENDBRANCH   3   7
ENDBRANCH   1   3
BRANCH   1  13
HETATM   13  C2  UNL     1      45.132 -46.493  65.109  1.00  0.00     0.142 C 
BRANCH  13  14
HETATM   14  C3  UNL     1      44.957 -45.100  64.488  1.00  0.00     0.158 C 
BRANCH  14  15
HETATM   15  N3  UNL     1      46.211 -44.557  64.078  1.00  0.00    -0.337 N 
ATOM     16  H3  UNL     1      46.583 -43.701  64.489  1.00  0.00     0.180 HD
BRANCH  15  17
HETATM   17  N4  UNL     1      46.878 -45.227  63.126  1.00  0.00    -0.328 N 
HETATM   18  C4  UNL     1      46.400 -45.175  61.793  1.00  0.00     0.168 C 
HETATM   19  C5  UNL     1      47.282 -46.121  60.966  1.00  0.00     0.189 C 
HETATM   20  O1  UNL     1      47.694 -47.211  61.689  1.00  0.00    -0.388 OA
HETATM   21  C6  UNL     1      48.496 -46.926  62.765  1.00  0.00     0.189 C 
HETATM   22  C7  UNL     1      48.244 -45.510  63.299  1.00  0.00     0.168 C 
ENDBRANCH  15  17
ENDBRANCH  14  15
ENDBRANCH  13  14
ENDBRANCH   1  13
TORSDOF 6
ENDMDL
MODEL 3
REMARK VINA RESULT: -8.260653844      0.891      1.147
REMARK  6 active torsions:
REMARK  status: ('A' for Active; 'I' for Inactive)
REMARK    1  A    between atoms: C1_4  and  N2_5 
REMARK    2  A    between atoms: C1_4  and  C8_17 
REMARK    3  A    between atoms: N2_5  and  C2_7 
REMARK    4  A    between atoms: C2_7  and  C3_8 
REMARK    5  A    between atoms: C3_8  and  N3_9 
REMARK    6  A    between atoms: N3_9  and  N4_11 
ROOT
HETATM    1  N2  UNL     1      45.346 -47.367  66.639  1.00  0.00    -0.374 N 
ATOM      2  H2  UNL     1      45.620 -48.345  66.545  1.00  0.00     0.161 HD
ENDROOT
BRANCH   1   3
HETATM    3  C1  UNL     1      45.782 -46.609  67.755  1.00  0.00     0.105 C 
HETATM    4  N1  UNL     1      46.817 -45.845  67.670  1.00  0.00    -0.385 N 
ATOM      5  H12 UNL     1      47.311 -45.804  66.778  1.00  0.00     0.157 HD
ATOM      6  H11 UNL     1      47.131 -45.300  68.473  1.00  0.00     0.157 HD
BRANCH   3   7
HETATM    7  C8  UNL     1      45.078 -46.667  69.028  1.00  0.00     0.007 A 
HETATM    8  C9  UNL     1      45.765 -46.930  70.206  1.00  0.00     0.015 A 
HETATM    9  C10 UNL     1      45.121 -46.990  71.426  1.00  0.00     0.001 A 
HETATM   10  C11 UNL     1      43.758 -46.788  71.516  1.00  0.00     0.000 A 
HETATM   11  C12 UNL     1      43.085 -46.527  70.339  1.00  0.00     0.001 A 
HETATM   12  C13 UNL     1      43.722 -46.467  69.118  1.00  0.00     0.015 A 
ENDBRANCH   3   7
ENDBRANCH   1   3
BRANCH   1  13
HETATM   13  C2  UNL     1      44.512 -46.746  65.635  1.00  0.00     0.142 C 
BRANCH  13  14
HETATM   14  C3  UNL     1      45.346 -45.796  64.763  1.00  0.00     0.158 C 
BRANCH  14  15
HETATM   15  N3  UNL     1      46.129 -46.520  63.816  1.00  0.00    -0.337 N 
ATOM     16  H3  UNL     1      45.852 -47.445  63.488  1.00  0.00     0.180 HD
BRANCH  15  17
HETATM   17  N4  UNL     1      47.249 -45.925  63.376  1.00  0.00    -0.328 N 
HETATM   18  C4  UNL     1      47.447 -44.551  63.656  1.00  0.00     0.168 C 
HETATM   19  C5  UNL     1      48.734 -44.130  62.932  1.00  0.00     0.189 C 
HETATM   20  O1  UNL     1      48.906 -44.799  61.747  1.00  0.00    -0.388 OA
HETATM   21  C6  UNL     1      49.065 -46.157  61.864  1.00  0.00     0.189 C 
HETATM   22  C7  UNL     1      48.400 -46.697  63.137  1.00  0.00     0.168 C 
ENDBRANCH  15  17
ENDBRANCH  14  15
ENDBRANCH  13  14
ENDBRANCH   1  13
TORSDOF 6
ENDMDL
MODEL 4
REMARK VINA RESULT: -8.162715869      1.420      2.129
REMARK  6 active torsions:
REMARK  status: ('A' for Active; 'I' for Inactive)
REMARK    1  A    between atoms: C1_4  and  N2_5 
REMARK    2  A    between atoms: C1_4  and  C8_17 
REMARK    3  A    between atoms: N2_5  and  C2_7 
REMARK    4  A    between atoms: C2_7  and  C3_8 
REMARK    5  A    between atoms: C3_8  and  N3_9 
REMARK    6  A    between atoms: N3_9  and  N4_11 
ROOT
HETATM    1  N2  UNL     1      46.247 -45.936  66.917  1.00  0.00    -0.374 N 
ATOM      2  H2  UNL     1      46.676 -45.216  67.499  1.00  0.00     0.161 HD
ENDROOT
BRANCH   1   3
HETATM    3  C1  UNL     1      45.154 -46.693  67.409  1.00  0.00     0.105 C 
HETATM    4  N1  UNL     1      44.404 -47.368  66.606  1.00  0.00    -0.385 N 
ATOM      5  H12 UNL     1      44.621 -47.340  65.610  1.00  0.00     0.157 HD
ATOM      6  H11 UNL     1      43.618 -47.913  66.961  1.00  0.00     0.157 HD
BRANCH   3   7
HETATM    7  C8  UNL     1      44.844 -46.734  68.831  1.00  0.00     0.007 A 
HETATM    8  C9  UNL     1      43.558 -46.470  69.285  1.00  0.00     0.015 A 
HETATM    9  C10 UNL     1      43.238 -46.503  70.627  1.00  0.00     0.001 A 
HETATM   10  C11 UNL     1      44.197 -46.804  71.574  1.00  0.00     0.000 A 
HETATM   11  C12 UNL     1      45.472 -47.066  71.113  1.00  0.00     0.001 A 
HETATM   12  C13 UNL     1      45.798 -47.034  69.774  1.00  0.00     0.015 A 
ENDBRANCH   3   7
ENDBRANCH   1   3
BRANCH   1  13
HETATM   13  C2  UNL     1      46.750 -46.188  65.585  1.00  0.00     0.142 C 
BRANCH  13  14
HETATM   14  C3  UNL     1      46.413 -45.013  64.657  1.00  0.00     0.158 C 
BRANCH  14  15
HETATM   15  N3  UNL     1      47.536 -44.649  63.857  1.00  0.00    -0.337 N 
ATOM     16  H3  UNL     1      48.073 -43.803  64.043  1.00  0.00     0.180 HD
BRANCH  15  17
HETATM   17  N4  UNL     1      47.852 -45.474  62.847  1.00  0.00    -0.328 N 
HETATM   18  C4  UNL     1      47.167 -45.338  61.614  1.00  0.00     0.168 C 
HETATM   19  C5  UNL     1      47.649 -46.479  60.708  1.00  0.00     0.189 C 
HETATM   20  O1  UNL     1      47.926 -47.622  61.415  1.00  0.00    -0.388 OA
HETATM   21  C6  UNL     1      48.952 -47.511  62.319  1.00  0.00     0.189 C 
HETATM   22  C7  UNL     1      49.127 -46.066  62.802  1.00  0.00     0.168 C 
ENDBRANCH  15  17
ENDBRANCH  14  15
ENDBRANCH  13  14
ENDBRANCH   1  13
TORSDOF 6
ENDMDL
MODEL 5
REMARK VINA RESULT: -8.160691836      1.388      1.787
REMARK  6 active torsions:
REMARK  status: ('A' for Active; 'I' for Inactive)
REMARK    1  A    between atoms: C1_4  and  N2_5 
REMARK    2  A    between atoms: C1_4  and  C8_17 
REMARK    3  A    between atoms: N2_5  and  C2_7 
REMARK    4  A    between atoms: C2_7  and  C3_8 
REMARK    5  A    between atoms: C3_8  and  N3_9 
REMARK    6  A    between atoms: N3_9  and  N4_11 
ROOT
HETATM    1  N2  UNL     1      46.349 -46.103  66.913  1.00  0.00    -0.374 N 
ATOM      2  H2  UNL     1      46.946 -45.577  67.551  1.00  0.00     0.161 HD
ENDROOT
BRANCH   1   3
HETATM    3  C1  UNL     1      45.149 -46.694  67.384  1.00  0.00     0.105 C 
HETATM    4  N1  UNL     1      44.305 -47.220  66.563  1.00  0.00    -0.385 N 
ATOM      5  H12 UNL     1      44.528 -47.196  65.567  1.00  0.00     0.157 HD
ATOM      6  H11 UNL     1      43.443 -47.644  66.901  1.00  0.00     0.157 HD
BRANCH   3   7
HETATM    7  C8  UNL     1      44.831 -46.728  68.805  1.00  0.00     0.007 A 
HETATM    8  C9  UNL     1      45.816 -47.005  69.745  1.00  0.00     0.015 A 
HETATM    9  C10 UNL     1      45.540 -47.043  71.097  1.00  0.00     0.001 A 
HETATM   10  C11 UNL     1      44.263 -46.805  71.564  1.00  0.00     0.000 A 
HETATM   11  C12 UNL     1      43.292 -46.531  70.622  1.00  0.00     0.001 A 
HETATM   12  C13 UNL     1      43.561 -46.492  69.270  1.00  0.00     0.015 A 
ENDBRANCH   3   7
ENDBRANCH   1   3
BRANCH   1  13
HETATM   13  C2  UNL     1      46.721 -46.251  65.524  1.00  0.00     0.142 C 
BRANCH  13  14
HETATM   14  C3  UNL     1      46.398 -44.966  64.747  1.00  0.00     0.158 C 
BRANCH  14  15
HETATM   15  N3  UNL     1      47.490 -44.579  63.915  1.00  0.00    -0.337 N 
ATOM     16  H3  UNL     1      48.022 -43.727  64.094  1.00  0.00     0.180 HD
BRANCH  15  17
HETATM   17  N4  UNL     1      47.784 -45.388  62.886  1.00  0.00    -0.328 N 
HETATM   18  C4  UNL     1      47.049 -45.257  61.683  1.00  0.00     0.168 C 
HETATM   19  C5  UNL     1      47.520 -46.380  60.748  1.00  0.00     0.189 C 
HETATM   20  O1  UNL     1      47.849 -47.522  61.433  1.00  0.00    -0.388 OA
HETATM   21  C6  UNL     1      48.907 -47.396  62.298  1.00  0.00     0.189 C 
HETATM   22  C7  UNL     1      49.069 -45.951  62.787  1.00  0.00     0.168 C 
ENDBRANCH  15  17
ENDBRANCH  14  15
ENDBRANCH  13  14
ENDBRANCH   1  13
TORSDOF 6
ENDMDL
