MODEL 1
REMARK VINA RESULT: -7.021819350      0.000      0.000
REMARK  6 active torsions:
REMARK  status: ('A' for Active; 'I' for Inactive)
REMARK    1  A    between atoms: N1_2  and  C2_4 
REMARK    2  A    between atoms: C4_6  and  C5_7 
REMARK    3  A    between atoms: C5_7  and  N2_8 
REMARK    4  A    between atoms: N2_8  and  C6_11 
REMARK    5  A    between atoms: C6_11  and  C7_12 
REMARK    6  A    between atoms: C12_17  and  O1_18 
ROOT
HETATM    1  N2  UNL     1      46.525 -47.036  66.742  1.00  0.00    -0.066 N 
ATOM      2  H21 UNL     1      46.901 -47.695  66.061  1.00  0.00     0.277 HD
ATOM      3  H22 UNL     1      47.258 -47.116  67.447  1.00  0.00     0.277 HD
ENDROOT
BRANCH   1   4
HETATM    4  C5  UNL     1      45.249 -47.451  67.244  1.00  0.00     0.291 C 
BRANCH   4   5
HETATM    5  C4  UNL     1      44.943 -46.798  68.522  1.00  0.00     0.055 A 
HETATM    6  C3  UNL     1      45.729 -46.383  69.557  1.00  0.00     0.077 A 
HETATM    7  C2  UNL     1      44.913 -45.802  70.514  1.00  0.00     0.117 A 
HETATM    8  N4  UNL     1      43.644 -45.886  70.019  1.00  0.00    -0.286 N 
HETATM    9  N3  UNL     1      43.632 -46.460  68.867  1.00  0.00    -0.302 N 
ATOM     10  H4  UNL     1      42.814 -45.539  70.499  1.00  0.00     0.188 HD
ATOM     11  H3  UNL     1      42.804 -46.639  68.300  1.00  0.00     0.186 HD
BRANCH   7  12
HETATM   12  N1  UNL     1      45.203 -45.287  71.655  1.00  0.00    -0.380 N 
HETATM   13  C1  UNL     1      46.087 -44.252  71.956  1.00  0.00     0.147 C 
ATOM     14  H1  UNL     1      44.718 -45.694  72.454  1.00  0.00     0.160 HD
ENDBRANCH   7  12
ENDBRANCH   4   5
ENDBRANCH   1   4
BRANCH   1  15
HETATM   15  C6  UNL     1      46.434 -45.714  66.214  1.00  0.00     0.274 C 
BRANCH  15  16
HETATM   16  C7  UNL     1      45.891 -45.691  64.854  1.00  0.00     0.001 A 
HETATM   17  C8  UNL     1      44.673 -45.089  64.535  1.00  0.00     0.011 A 
HETATM   18  C9  UNL     1      44.265 -44.942  63.214  1.00  0.00     0.001 A 
HETATM   19  C10 UNL     1      45.082 -45.404  62.213  1.00  0.00     0.003 A 
HETATM   20  C11 UNL     1      46.306 -46.010  62.533  1.00  0.00     0.037 A 
HETATM   21  C12 UNL     1      46.735 -46.167  63.833  1.00  0.00     0.076 A 
BRANCH  21  22
HETATM   22  O1  UNL     1      47.940 -46.773  64.122  1.00  0.00    -0.355 OA
HETATM   23  C13 UNL     1      48.853 -47.000  63.103  1.00  0.00     0.210 C 
ENDBRANCH  21  22
ENDBRANCH  15  16
ENDBRANCH   1  15
TORSDOF 6
ENDMDL
MODEL 2
REMARK VINA RESULT: -6.869267276      1.920      3.438
REMARK  6 active torsions:
REMARK  status: ('A' for Active; 'I' for Inactive)
REMARK    1  A    between atoms: N1_2  and  C2_4 
REMARK    2  A    between atoms: C4_6  and  C5_7 
REMARK    3  A    between atoms: C5_7  and  N2_8 
REMARK    4  A    between atoms: N2_8  and  C6_11 
REMARK    5  A    between atoms: C6_11  and  C7_12 
REMARK    6  A    between atoms: C12_17  and  O1_18 
ROOT
HETATM    1  N2  UNL     1      45.948 -46.635  63.720  1.00  0.00    -0.066 N 
ATOM      2  H21 UNL     1      45.759 -47.574  63.369  1.00  0.00     0.277 HD
ATOM      3  H22 UNL     1      46.799 -46.841  64.243  1.00  0.00     0.277 HD
ENDROOT
BRANCH   1   4
HETATM    4  C5  UNL     1      44.898 -46.156  64.569  1.00  0.00     0.291 C 
BRANCH   4   5
HETATM    5  C4  UNL     1      45.254 -46.298  65.985  1.00  0.00     0.055 A 
HETATM    6  C3  UNL     1      44.640 -46.920  67.032  1.00  0.00     0.077 A 
HETATM    7  C2  UNL     1      45.434 -46.761  68.156  1.00  0.00     0.117 A 
HETATM    8  N4  UNL     1      46.516 -46.038  67.745  1.00  0.00    -0.286 N 
HETATM    9  N3  UNL     1      46.436 -45.755  66.493  1.00  0.00    -0.302 N 
ATOM     10  H4  UNL     1      47.286 -45.758  68.352  1.00  0.00     0.188 HD
ATOM     11  H3  UNL     1      47.123 -45.223  65.958  1.00  0.00     0.186 HD
BRANCH   7  12
HETATM   12  N1  UNL     1      45.256 -47.159  69.365  1.00  0.00    -0.380 N 
HETATM   13  C1  UNL     1      45.924 -46.775  70.527  1.00  0.00     0.147 C 
ATOM     14  H1  UNL     1      44.522 -47.854  69.493  1.00  0.00     0.160 HD
ENDBRANCH   7  12
ENDBRANCH   4   5
ENDBRANCH   1   4
BRANCH   1  15
HETATM   15  C6  UNL     1      46.182 -45.706  62.663  1.00  0.00     0.274 C 
BRANCH  15  16
HETATM   16  C7  UNL     1      47.605 -45.415  62.477  1.00  0.00     0.001 A 
HETATM   17  C8  UNL     1      48.199 -44.227  62.906  1.00  0.00     0.011 A 
HETATM   18  C9  UNL     1      49.577 -44.051  62.860  1.00  0.00     0.001 A 
HETATM   19  C10 UNL     1      50.359 -45.071  62.380  1.00  0.00     0.003 A 
HETATM   20  C11 UNL     1      49.764 -46.266  61.948  1.00  0.00     0.037 A 
HETATM   21  C12 UNL     1      48.401 -46.466  61.983  1.00  0.00     0.076 A 
BRANCH  21  22
HETATM   22  O1  UNL     1      47.839 -47.648  61.546  1.00  0.00    -0.355 OA
HETATM   23  C13 UNL     1      48.588 -48.514  60.763  1.00  0.00     0.210 C 
ENDBRANCH  21  22
ENDBRANCH  15  16
ENDBRANCH   1  15
TORSDOF 6
ENDMDL
MODEL 3
REMARK VINA RESULT: -6.804323390      1.635      2.811
REMARK  6 active torsions:
REMARK  status: ('A' for Active; 'I' for Inactive)
REMARK    1  A    between atoms: N1_2  and  C2_4 
REMARK    2  A    between atoms: C4_6  and  C5_7 
REMARK    3  A    between atoms: C5_7  and  N2_8 
REMARK    4  A    between atoms: N2_8  and  C6_11 
REMARK    5  A    between atoms: C6_11  and  C7_12 
REMARK    6  A    between atoms: C12_17  and  O1_18 
ROOT
HETATM    1  N2  UNL     1      46.859 -46.409  65.564  1.00  0.00    -0.066 N 
ATOM      2  H21 UNL     1      47.126 -47.262  65.072  1.00  0.00     0.277 HD
ATOM      3  H22 UNL     1      47.508 -46.481  66.347  1.00  0.00     0.277 HD
ENDROOT
BRANCH   1   4
HETATM    4  C5  UNL     1      45.492 -46.442  65.993  1.00  0.00     0.291 C 
BRANCH   4   5
HETATM    5  C4  UNL     1      45.394 -46.401  67.456  1.00  0.00     0.055 A 
HETATM    6  C3  UNL     1      44.433 -46.821  68.328  1.00  0.00     0.077 A 
HETATM    7  C2  UNL     1      44.869 -46.555  69.615  1.00  0.00     0.117 A 
HETATM    8  N4  UNL     1      46.096 -45.974  69.477  1.00  0.00    -0.286 N 
HETATM    9  N3  UNL     1      46.423 -45.871  68.237  1.00  0.00    -0.302 N 
ATOM     10  H4  UNL     1      46.677 -45.662  70.254  1.00  0.00     0.188 HD
ATOM     11  H3  UNL     1      47.291 -45.469  67.882  1.00  0.00     0.186 HD
BRANCH   7  12
HETATM   12  N1  UNL     1      44.298 -46.761  70.748  1.00  0.00    -0.380 N 
HETATM   13  C1  UNL     1      44.735 -46.426  72.028  1.00  0.00     0.147 C 
ATOM     14  H1  UNL     1      43.397 -47.236  70.703  1.00  0.00     0.160 HD
ENDBRANCH   7  12
ENDBRANCH   4   5
ENDBRANCH   1   4
BRANCH   1  15
HETATM   15  C6  UNL     1      47.096 -45.242  64.779  1.00  0.00     0.274 C 
BRANCH  15  16
HETATM   16  C7  UNL     1      47.364 -45.556  63.375  1.00  0.00     0.001 A 
HETATM   17  C8  UNL     1      48.394 -46.409  62.972  1.00  0.00     0.011 A 
HETATM   18  C9  UNL     1      48.521 -46.813  61.648  1.00  0.00     0.001 A 
HETATM   19  C10 UNL     1      47.611 -46.358  60.727  1.00  0.00     0.003 A 
HETATM   20  C11 UNL     1      46.577 -45.500  61.129  1.00  0.00     0.037 A 
HETATM   21  C12 UNL     1      46.428 -45.084  62.435  1.00  0.00     0.076 A 
BRANCH  21  22
HETATM   22  O1  UNL     1      45.406 -44.235  62.805  1.00  0.00    -0.355 OA
HETATM   23  C13 UNL     1      44.135 -44.747  63.019  1.00  0.00     0.210 C 
ENDBRANCH  21  22
ENDBRANCH  15  16
ENDBRANCH   1  15
TORSDOF 6
ENDMDL
MODEL 4
REMARK VINA RESULT: -6.786483663      1.879      3.351
REMARK  6 active torsions:
REMARK  status: ('A' for Active; 'I' for Inactive)
REMARK    1  A    between atoms: N1_2  and  C2_4 
REMARK    2  A    between atoms: C4_6  and  C5_7 
REMARK    3  A    between atoms: C5_7  and  N2_8 
REMARK    4  A    between atoms: N2_8  and  C6_11 
REMARK    5  A    between atoms: C6_11  and  C7_12 
REMARK    6  A    between atoms: C12_17  and  O1_18 
ROOT
HETATM    1  N2  UNL     1      46.878 -46.416  64.742  1.00  0.00    -0.066 N 
ATOM      2  H21 UNL     1      47.301 -47.341  64.810  1.00  0.00     0.277 HD
ATOM      3  H22 UNL     1      47.508 -45.918  65.370  1.00  0.00     0.277 HD
ENDROOT
BRANCH   1   4
HETATM    4  C5  UNL     1      45.526 -46.406  65.218  1.00  0.00     0.291 C 
BRANCH   4   5
HETATM    5  C4  UNL     1      45.480 -46.389  66.685  1.00  0.00     0.055 A 
HETATM    6  C3  UNL     1      44.542 -46.806  67.582  1.00  0.00     0.077 A 
HETATM    7  C2  UNL     1      45.028 -46.570  68.858  1.00  0.00     0.117 A 
HETATM    8  N4  UNL     1      46.261 -46.011  68.686  1.00  0.00    -0.286 N 
HETATM    9  N3  UNL     1      46.547 -45.893  67.437  1.00  0.00    -0.302 N 
ATOM     10  H4  UNL     1      46.875 -45.724  69.448  1.00  0.00     0.188 HD
ATOM     11  H3  UNL     1      47.410 -45.502  67.059  1.00  0.00     0.186 HD
BRANCH   7  12
HETATM   12  N1  UNL     1      44.493 -46.785  70.006  1.00  0.00    -0.380 N 
HETATM   13  C1  UNL     1      43.194 -46.519  70.437  1.00  0.00     0.147 C 
ATOM     14  H1  UNL     1      45.106 -47.210  70.702  1.00  0.00     0.160 HD
ENDBRANCH   7  12
ENDBRANCH   4   5
ENDBRANCH   1   4
BRANCH   1  15
HETATM   15  C6  UNL     1      46.930 -45.900  63.413  1.00  0.00     0.274 C 
BRANCH  15  16
HETATM   16  C7  UNL     1      48.282 -45.496  63.022  1.00  0.00     0.001 A 
HETATM   17  C8  UNL     1      48.679 -44.161  62.936  1.00  0.00     0.011 A 
HETATM   18  C9  UNL     1      50.008 -43.815  62.720  1.00  0.00     0.001 A 
HETATM   19  C10 UNL     1      50.939 -44.814  62.589  1.00  0.00     0.003 A 
HETATM   20  C11 UNL     1      50.542 -46.157  62.675  1.00  0.00     0.037 A 
HETATM   21  C12 UNL     1      49.232 -46.527  62.888  1.00  0.00     0.076 A 
BRANCH  21  22
HETATM   22  O1  UNL     1      48.865 -47.854  62.962  1.00  0.00    -0.355 OA
HETATM   23  C13 UNL     1      49.844 -48.829  63.087  1.00  0.00     0.210 C 
ENDBRANCH  21  22
ENDBRANCH  15  16
ENDBRANCH   1  15
TORSDOF 6
ENDMDL
MODEL 5
REMARK VINA RESULT: -6.754357067      3.791      7.671
REMARK  6 active torsions:
REMARK  status: ('A' for Active; 'I' for Inactive)
REMARK    1  A    between atoms: N1_2  and  C2_4 
REMARK    2  A    between atoms: C4_6  and  C5_7 
REMARK    3  A    between atoms: C5_7  and  N2_8 
REMARK    4  A    between atoms: N2_8  and  C6_11 
REMARK    5  A    between atoms: C6_11  and  C7_12 
REMARK    6  A    between atoms: C12_17  and  O1_18 
ROOT
HETATM    1  N2  UNL     1      48.227 -46.216  63.663  1.00  0.00    -0.066 N 
ATOM      2  H21 UNL     1      49.183 -46.147  64.014  1.00  0.00     0.277 HD
ATOM      3  H22 UNL     1      48.044 -47.185  63.923  1.00  0.00     0.277 HD
ENDROOT
BRANCH   1   4
HETATM    4  C5  UNL     1      48.159 -46.018  62.246  1.00  0.00     0.291 C 
BRANCH   4   5
HETATM    5  C4  UNL     1      48.403 -47.271  61.522  1.00  0.00     0.055 A 
HETATM    6  C3  UNL     1      48.439 -47.576  60.193  1.00  0.00     0.077 A 
HETATM    7  C2  UNL     1      48.740 -48.923  60.067  1.00  0.00     0.117 A 
HETATM    8  N4  UNL     1      48.876 -49.393  61.341  1.00  0.00    -0.286 N 
HETATM    9  N3  UNL     1      48.685 -48.457  62.203  1.00  0.00    -0.302 N 
ATOM     10  H4  UNL     1      49.101 -50.359  61.578  1.00  0.00     0.188 HD
ATOM     11  H3  UNL     1      48.731 -48.564  63.216  1.00  0.00     0.186 HD
BRANCH   7  12
HETATM   12  N1  UNL     1      48.864 -49.654  59.017  1.00  0.00    -0.380 N 
HETATM   13  C1  UNL     1      49.089 -51.026  58.920  1.00  0.00     0.147 C 
ATOM     14  H1  UNL     1      48.787 -49.159  58.129  1.00  0.00     0.160 HD
ENDBRANCH   7  12
ENDBRANCH   4   5
ENDBRANCH   1   4
BRANCH   1  15
HETATM   15  C6  UNL     1      47.347 -45.309  64.325  1.00  0.00     0.274 C 
BRANCH  15  16
HETATM   16  C7  UNL     1      46.462 -45.982  65.277  1.00  0.00     0.001 A 
HETATM   17  C8  UNL     1      46.676 -45.962  66.656  1.00  0.00     0.011 A 
HETATM   18  C9  UNL     1      45.733 -46.472  67.541  1.00  0.00     0.001 A 
HETATM   19  C10 UNL     1      44.573 -47.003  67.038  1.00  0.00     0.003 A 
HETATM   20  C11 UNL     1      44.355 -47.025  65.652  1.00  0.00     0.037 A 
HETATM   21  C12 UNL     1      45.274 -46.527  64.754  1.00  0.00     0.076 A 
BRANCH  21  22
HETATM   22  O1  UNL     1      45.039 -46.565  63.395  1.00  0.00    -0.355 OA
HETATM   23  C13 UNL     1      44.275 -45.570  62.803  1.00  0.00     0.210 C 
ENDBRANCH  21  22
ENDBRANCH  15  16
ENDBRANCH   1  15
TORSDOF 6
ENDMDL
