MODEL 1
REMARK VINA RESULT: -8.435734221      0.000      0.000
REMARK  6 active torsions:
REMARK  status: ('A' for Active; 'I' for Inactive)
REMARK    1  A    between atoms: N1_1  and  N2_4 
REMARK    2  A    between atoms: N3_6  and  C1_8 
REMARK    3  A    between atoms: N5_14  and  C5_16 
REMARK    4  A    between atoms: C5_16  and  C6_17 
REMARK    5  A    between atoms: C6_17  and  O1_18 
REMARK    6  A    between atoms: O1_18  and  C7_19 
ROOT
HETATM    1  C1  UNL     1      47.926 -44.438  62.768  1.00  0.00     0.054 A 
HETATM    2  C2  UNL     1      47.273 -44.904  61.645  1.00  0.00     0.048 A 
HETATM    3  C3  UNL     1      46.133 -45.659  61.866  1.00  0.00     0.092 A 
HETATM    4  N4  UNL     1      45.677 -45.931  63.102  1.00  0.00    -0.352 N 
ATOM      5  H4  UNL     1      44.832 -46.493  63.205  1.00  0.00     0.166 HD
HETATM    6  C4  UNL     1      46.302 -45.483  64.209  1.00  0.00     0.102 A 
HETATM    7  N5  UNL     1      45.845 -45.757  65.363  1.00  0.00    -0.374 N 
ATOM      8  H5  UNL     1      46.327 -45.414  66.194  1.00  0.00     0.161 HD
HETATM    9  C13 UNL     1      47.452 -44.721  64.030  1.00  0.00     0.079 A 
ENDROOT
BRANCH   7  10
HETATM   10  C5  UNL     1      44.649 -46.552  65.506  1.00  0.00     0.148 C 
BRANCH  10  11
HETATM   11  C6  UNL     1      44.706 -47.477  66.683  1.00  0.00     0.195 C 
BRANCH  11  12
HETATM   12  O1  UNL     1      45.569 -47.019  67.698  1.00  0.00    -0.350 OA
BRANCH  12  13
HETATM   13  C7  UNL     1      45.051 -46.892  68.978  1.00  0.00     0.068 A 
HETATM   14  C8  UNL     1      45.819 -47.113  70.120  1.00  0.00     0.037 A 
HETATM   15  C9  UNL     1      45.249 -46.972  71.382  1.00  0.00     0.003 A 
HETATM   16  C10 UNL     1      43.936 -46.615  71.535  1.00  0.00     0.000 A 
HETATM   17  C11 UNL     1      43.194 -46.402  70.405  1.00  0.00     0.003 A 
HETATM   18  C12 UNL     1      43.733 -46.535  69.143  1.00  0.00     0.037 A 
ENDBRANCH  12  13
ENDBRANCH  11  12
ENDBRANCH  10  11
ENDBRANCH   7  10
BRANCH   1  19
HETATM   19  N3  UNL     1      49.093 -43.663  62.597  1.00  0.00    -0.287 N 
HETATM   20  N2  UNL     1      50.261 -44.124  62.566  1.00  0.00    -0.249 N 
ATOM     21  H2  UNL     1      51.032 -43.468  62.438  1.00  0.00     0.207 HD
ATOM     22  H3  UNL     1      48.980 -42.654  62.491  1.00  0.00     0.188 HD
BRANCH  20  23
HETATM   23  N1  UNL     1      50.565 -45.471  62.695  1.00  0.00    -0.331 N 
ATOM     24  H12 UNL     1      50.956 -45.774  63.587  1.00  0.00     0.178 HD
ATOM     25  H11 UNL     1      50.420 -46.160  61.957  1.00  0.00     0.178 HD
ENDBRANCH  20  23
ENDBRANCH   1  19
TORSDOF 6
ENDMDL
MODEL 2
REMARK VINA RESULT: -8.407802167      0.054      1.084
REMARK  6 active torsions:
REMARK  status: ('A' for Active; 'I' for Inactive)
REMARK    1  A    between atoms: N1_1  and  N2_4 
REMARK    2  A    between atoms: N3_6  and  C1_8 
REMARK    3  A    between atoms: N5_14  and  C5_16 
REMARK    4  A    between atoms: C5_16  and  C6_17 
REMARK    5  A    between atoms: C6_17  and  O1_18 
REMARK    6  A    between atoms: O1_18  and  C7_19 
ROOT
HETATM    1  C1  UNL     1      47.907 -44.451  62.744  1.00  0.00     0.054 A 
HETATM    2  C2  UNL     1      47.239 -44.920  61.632  1.00  0.00     0.048 A 
HETATM    3  C3  UNL     1      46.091 -45.657  61.870  1.00  0.00     0.092 A 
HETATM    4  N4  UNL     1      45.641 -45.909  63.113  1.00  0.00    -0.352 N 
ATOM      5  H4  UNL     1      44.789 -46.458  63.228  1.00  0.00     0.166 HD
HETATM    6  C4  UNL     1      46.281 -45.458  64.210  1.00  0.00     0.102 A 
HETATM    7  N5  UNL     1      45.829 -45.713  65.370  1.00  0.00    -0.374 N 
ATOM      8  H5  UNL     1      46.322 -45.367  66.193  1.00  0.00     0.161 HD
HETATM    9  C13 UNL     1      47.439 -44.713  64.013  1.00  0.00     0.079 A 
ENDROOT
BRANCH   7  10
HETATM   10  C5  UNL     1      44.624 -46.489  65.530  1.00  0.00     0.148 C 
BRANCH  10  11
HETATM   11  C6  UNL     1      44.702 -47.449  66.678  1.00  0.00     0.195 C 
BRANCH  11  12
HETATM   12  O1  UNL     1      45.553 -47.002  67.709  1.00  0.00    -0.350 OA
BRANCH  12  13
HETATM   13  C7  UNL     1      45.013 -46.865  68.978  1.00  0.00     0.068 A 
HETATM   14  C8  UNL     1      43.677 -46.529  69.190  1.00  0.00     0.037 A 
HETATM   15  C9  UNL     1      43.186 -46.404  70.486  1.00  0.00     0.003 A 
HETATM   16  C10 UNL     1      43.990 -46.605  71.576  1.00  0.00     0.000 A 
HETATM   17  C11 UNL     1      45.300 -46.934  71.353  1.00  0.00     0.003 A 
HETATM   18  C12 UNL     1      45.813 -47.065  70.080  1.00  0.00     0.037 A 
ENDBRANCH  12  13
ENDBRANCH  11  12
ENDBRANCH  10  11
ENDBRANCH   7  10
BRANCH   1  19
HETATM   19  N3  UNL     1      49.084 -43.694  62.556  1.00  0.00    -0.287 N 
HETATM   20  N2  UNL     1      50.245 -44.170  62.528  1.00  0.00    -0.249 N 
ATOM     21  H2  UNL     1      51.024 -43.527  62.387  1.00  0.00     0.207 HD
ATOM     22  H3  UNL     1      48.983 -42.686  62.434  1.00  0.00     0.188 HD
BRANCH  20  23
HETATM   23  N1  UNL     1      50.532 -45.519  62.678  1.00  0.00    -0.331 N 
ATOM     24  H12 UNL     1      49.997 -46.031  63.380  1.00  0.00     0.178 HD
ATOM     25  H11 UNL     1      51.238 -46.014  62.134  1.00  0.00     0.178 HD
ENDBRANCH  20  23
ENDBRANCH   1  19
TORSDOF 6
ENDMDL
MODEL 3
REMARK VINA RESULT: -8.088977958      1.620      2.095
REMARK  6 active torsions:
REMARK  status: ('A' for Active; 'I' for Inactive)
REMARK    1  A    between atoms: N1_1  and  N2_4 
REMARK    2  A    between atoms: N3_6  and  C1_8 
REMARK    3  A    between atoms: N5_14  and  C5_16 
REMARK    4  A    between atoms: C5_16  and  C6_17 
REMARK    5  A    between atoms: C6_17  and  O1_18 
REMARK    6  A    between atoms: O1_18  and  C7_19 
ROOT
HETATM    1  C1  UNL     1      47.884 -46.193  61.890  1.00  0.00     0.054 A 
HETATM    2  C2  UNL     1      46.737 -45.693  61.309  1.00  0.00     0.048 A 
HETATM    3  C3  UNL     1      45.688 -45.407  62.167  1.00  0.00     0.092 A 
HETATM    4  N4  UNL     1      45.770 -45.602  63.495  1.00  0.00    -0.352 N 
ATOM      5  H4  UNL     1      44.965 -45.374  64.080  1.00  0.00     0.166 HD
HETATM    6  C4  UNL     1      46.883 -46.090  64.079  1.00  0.00     0.102 A 
HETATM    7  N5  UNL     1      46.927 -46.263  65.337  1.00  0.00    -0.374 N 
ATOM      8  H5  UNL     1      47.775 -46.633  65.768  1.00  0.00     0.161 HD
HETATM    9  C13 UNL     1      47.960 -46.391  63.251  1.00  0.00     0.079 A 
ENDROOT
BRANCH   7  10
HETATM   10  C5  UNL     1      45.788 -45.939  66.161  1.00  0.00     0.148 C 
BRANCH  10  11
HETATM   11  C6  UNL     1      45.329 -47.095  66.995  1.00  0.00     0.195 C 
BRANCH  11  12
HETATM   12  O1  UNL     1      44.186 -46.798  67.763  1.00  0.00    -0.350 OA
BRANCH  12  13
HETATM   13  C7  UNL     1      44.322 -46.772  69.142  1.00  0.00     0.068 A 
HETATM   14  C8  UNL     1      43.273 -46.422  69.990  1.00  0.00     0.037 A 
HETATM   15  C9  UNL     1      43.464 -46.412  71.369  1.00  0.00     0.003 A 
HETATM   16  C10 UNL     1      44.671 -46.743  71.924  1.00  0.00     0.000 A 
HETATM   17  C11 UNL     1      45.692 -47.086  71.079  1.00  0.00     0.003 A 
HETATM   18  C12 UNL     1      45.531 -47.103  69.710  1.00  0.00     0.037 A 
ENDBRANCH  12  13
ENDBRANCH  11  12
ENDBRANCH  10  11
ENDBRANCH   7  10
BRANCH   1  19
HETATM   19  N3  UNL     1      48.983 -46.501  61.059  1.00  0.00    -0.287 N 
HETATM   20  N2  UNL     1      49.319 -47.662  60.717  1.00  0.00    -0.249 N 
ATOM     21  H2  UNL     1      50.134 -47.766  60.112  1.00  0.00     0.207 HD
ATOM     22  H3  UNL     1      49.545 -45.724  60.711  1.00  0.00     0.188 HD
BRANCH  20  23
HETATM   23  N1  UNL     1      48.649 -48.810  61.111  1.00  0.00    -0.331 N 
ATOM     24  H12 UNL     1      48.172 -48.781  62.012  1.00  0.00     0.178 HD
ATOM     25  H11 UNL     1      48.611 -49.665  60.557  1.00  0.00     0.178 HD
ENDBRANCH  20  23
ENDBRANCH   1  19
TORSDOF 6
ENDMDL
MODEL 4
REMARK VINA RESULT: -8.050053124      1.657      1.859
REMARK  6 active torsions:
REMARK  status: ('A' for Active; 'I' for Inactive)
REMARK    1  A    between atoms: N1_1  and  N2_4 
REMARK    2  A    between atoms: N3_6  and  C1_8 
REMARK    3  A    between atoms: N5_14  and  C5_16 
REMARK    4  A    between atoms: C5_16  and  C6_17 
REMARK    5  A    between atoms: C6_17  and  O1_18 
REMARK    6  A    between atoms: O1_18  and  C7_19 
ROOT
HETATM    1  C1  UNL     1      47.977 -46.221  61.942  1.00  0.00     0.054 A 
HETATM    2  C2  UNL     1      46.813 -45.722  61.392  1.00  0.00     0.048 A 
HETATM    3  C3  UNL     1      45.793 -45.423  62.279  1.00  0.00     0.092 A 
HETATM    4  N4  UNL     1      45.916 -45.606  63.606  1.00  0.00    -0.352 N 
ATOM      5  H4  UNL     1      45.131 -45.368  64.213  1.00  0.00     0.166 HD
HETATM    6  C4  UNL     1      47.045 -46.091  64.160  1.00  0.00     0.102 A 
HETATM    7  N5  UNL     1      47.128 -46.251  65.418  1.00  0.00    -0.374 N 
ATOM      8  H5  UNL     1      47.988 -46.620  65.826  1.00  0.00     0.161 HD
HETATM    9  C13 UNL     1      48.094 -46.404  63.302  1.00  0.00     0.079 A 
ENDROOT
BRANCH   7  10
HETATM   10  C5  UNL     1      46.017 -45.915  66.273  1.00  0.00     0.148 C 
BRANCH  10  11
HETATM   11  C6  UNL     1      45.324 -47.123  66.825  1.00  0.00     0.195 C 
BRANCH  11  12
HETATM   12  O1  UNL     1      44.204 -46.799  67.617  1.00  0.00    -0.350 OA
BRANCH  12  13
HETATM   13  C7  UNL     1      44.365 -46.797  68.994  1.00  0.00     0.068 A 
HETATM   14  C8  UNL     1      45.562 -47.165  69.607  1.00  0.00     0.037 A 
HETATM   15  C9  UNL     1      45.670 -47.145  70.995  1.00  0.00     0.003 A 
HETATM   16  C10 UNL     1      44.619 -46.767  71.786  1.00  0.00     0.000 A 
HETATM   17  C11 UNL     1      43.450 -46.408  71.171  1.00  0.00     0.003 A 
HETATM   18  C12 UNL     1      43.315 -46.420  69.798  1.00  0.00     0.037 A 
ENDBRANCH  12  13
ENDBRANCH  11  12
ENDBRANCH  10  11
ENDBRANCH   7  10
BRANCH   1  19
HETATM   19  N3  UNL     1      49.048 -46.541  61.080  1.00  0.00    -0.287 N 
HETATM   20  N2  UNL     1      49.347 -47.703  60.710  1.00  0.00    -0.249 N 
ATOM     21  H2  UNL     1      50.145 -47.817  60.085  1.00  0.00     0.207 HD
ATOM     22  H3  UNL     1      49.622 -45.772  60.732  1.00  0.00     0.188 HD
BRANCH  20  23
HETATM   23  N1  UNL     1      48.657 -48.841  61.100  1.00  0.00    -0.331 N 
ATOM     24  H12 UNL     1      47.965 -49.210  60.447  1.00  0.00     0.178 HD
ATOM     25  H11 UNL     1      48.804 -49.318  61.989  1.00  0.00     0.178 HD
ENDBRANCH  20  23
ENDBRANCH   1  19
TORSDOF 6
ENDMDL
MODEL 5
REMARK VINA RESULT: -7.871482891      1.385      1.728
REMARK  6 active torsions:
REMARK  status: ('A' for Active; 'I' for Inactive)
REMARK    1  A    between atoms: N1_1  and  N2_4 
REMARK    2  A    between atoms: N3_6  and  C1_8 
REMARK    3  A    between atoms: N5_14  and  C5_16 
REMARK    4  A    between atoms: C5_16  and  C6_17 
REMARK    5  A    between atoms: C6_17  and  O1_18 
REMARK    6  A    between atoms: O1_18  and  C7_19 
ROOT
HETATM    1  C1  UNL     1      47.730 -45.717  61.908  1.00  0.00     0.054 A 
HETATM    2  C2  UNL     1      48.349 -44.647  62.522  1.00  0.00     0.048 A 
HETATM    3  C3  UNL     1      47.861 -44.287  63.767  1.00  0.00     0.092 A 
HETATM    4  N4  UNL     1      46.841 -44.936  64.357  1.00  0.00    -0.352 N 
ATOM      5  H4  UNL     1      46.523 -44.627  65.276  1.00  0.00     0.166 HD
HETATM    6  C4  UNL     1      46.225 -45.983  63.771  1.00  0.00     0.102 A 
HETATM    7  N5  UNL     1      45.264 -46.574  64.355  1.00  0.00    -0.374 N 
ATOM      8  H5  UNL     1      44.805 -47.364  63.902  1.00  0.00     0.161 HD
HETATM    9  C13 UNL     1      46.685 -46.376  62.518  1.00  0.00     0.079 A 
ENDROOT
BRANCH   7  10
HETATM   10  C5  UNL     1      44.816 -46.135  65.655  1.00  0.00     0.148 C 
BRANCH  10  11
HETATM   11  C6  UNL     1      44.752 -47.252  66.652  1.00  0.00     0.195 C 
BRANCH  11  12
HETATM   12  O1  UNL     1      45.620 -47.061  67.745  1.00  0.00    -0.350 OA
BRANCH  12  13
HETATM   13  C7  UNL     1      45.055 -46.923  69.003  1.00  0.00     0.068 A 
HETATM   14  C8  UNL     1      45.774 -47.158  70.174  1.00  0.00     0.037 A 
HETATM   15  C9  UNL     1      45.158 -47.004  71.413  1.00  0.00     0.003 A 
HETATM   16  C10 UNL     1      43.847 -46.623  71.515  1.00  0.00     0.000 A 
HETATM   17  C11 UNL     1      43.153 -46.396  70.356  1.00  0.00     0.003 A 
HETATM   18  C12 UNL     1      43.739 -46.541  69.116  1.00  0.00     0.037 A 
ENDBRANCH  12  13
ENDBRANCH  11  12
ENDBRANCH  10  11
ENDBRANCH   7  10
BRANCH   1  19
HETATM   19  N3  UNL     1      48.189 -46.124  60.637  1.00  0.00    -0.287 N 
HETATM   20  N2  UNL     1      49.096 -46.970  60.439  1.00  0.00    -0.249 N 
ATOM     21  H2  UNL     1      49.348 -47.186  59.475  1.00  0.00     0.207 HD
ATOM     22  H3  UNL     1      47.752 -45.699  59.818  1.00  0.00     0.188 HD
BRANCH  20  23
HETATM   23  N1  UNL     1      49.775 -47.627  61.454  1.00  0.00    -0.331 N 
ATOM     24  H12 UNL     1      50.618 -48.137  61.191  1.00  0.00     0.178 HD
ATOM     25  H11 UNL     1      49.479 -47.627  62.430  1.00  0.00     0.178 HD
ENDBRANCH  20  23
ENDBRANCH   1  19
TORSDOF 6
ENDMDL
