MODEL 1
REMARK VINA RESULT: -6.272424476      0.000      0.000
REMARK  4 active torsions:
REMARK  status: ('A' for Active; 'I' for Inactive)
REMARK    1  A    between atoms: N1_1  and  C1_5 
REMARK    2  A    between atoms: C1_5  and  C2_6 
REMARK    3  A    between atoms: C1_5  and  C5_9 
REMARK    4  A    between atoms: C1_5  and  C8_12 
ROOT
HETATM    1  C1  UNL     1      -8.529 -31.901  16.447  1.00  0.00     0.136 C 
ENDROOT
BRANCH   1   2
HETATM    2  N1  UNL     1      -8.365 -33.318  16.033  1.00  0.00    -0.069 N 
ATOM      3  H13 UNL     1      -7.715 -33.452  15.259  1.00  0.00     0.275 HD
ATOM      4  H12 UNL     1      -7.859 -33.891  16.708  1.00  0.00     0.275 HD
ATOM      5  H11 UNL     1      -9.312 -33.642  15.841  1.00  0.00     0.275 HD
ENDBRANCH   1   2
BRANCH   1   6
HETATM    6  C2  UNL     1      -7.709 -31.114  15.452  1.00  0.00     0.022 A 
HETATM    7  C3  UNL     1      -8.191 -30.959  14.056  1.00  0.00     0.007 A 
HETATM    8  C4  UNL     1      -8.181 -29.769  14.937  1.00  0.00     0.007 A 
ENDBRANCH   1   6
BRANCH   1   9
HETATM    9  C5  UNL     1      -7.871 -31.856  17.786  1.00  0.00     0.022 A 
HETATM   10  C6  UNL     1      -7.786 -32.952  18.745  1.00  0.00     0.007 A 
HETATM   11  C7  UNL     1      -6.522 -32.366  18.066  1.00  0.00     0.007 A 
ENDBRANCH   1   9
BRANCH   1  12
HETATM   12  C8  UNL     1      -9.945 -31.590  16.329  1.00  0.00     0.042 A 
HETATM   13  C9  UNL     1     -11.092 -32.387  16.752  1.00  0.00     0.029 A 
HETATM   14  C10 UNL     1     -10.874 -30.952  17.279  1.00  0.00     0.089 A 
HETATM   15 CL1  UNL     1     -10.608 -30.656  18.968  1.00  0.00    -0.125 Cl
ENDBRANCH   1  12
TORSDOF 4
ENDMDL
MODEL 2
REMARK VINA RESULT: -6.047996993      1.544      3.744
REMARK  4 active torsions:
REMARK  status: ('A' for Active; 'I' for Inactive)
REMARK    1  A    between atoms: N1_1  and  C1_5 
REMARK    2  A    between atoms: C1_5  and  C2_6 
REMARK    3  A    between atoms: C1_5  and  C5_9 
REMARK    4  A    between atoms: C1_5  and  C8_12 
ROOT
HETATM    1  C1  UNL     1      -8.584 -31.959  16.589  1.00  0.00     0.136 C 
ENDROOT
BRANCH   1   2
HETATM    2  N1  UNL     1      -8.860 -33.399  16.356  1.00  0.00    -0.069 N 
ATOM      3  H13 UNL     1      -9.852 -33.634  16.333  1.00  0.00     0.275 HD
ATOM      4  H12 UNL     1      -8.646 -33.715  15.410  1.00  0.00     0.275 HD
ATOM      5  H11 UNL     1      -8.335 -33.884  17.083  1.00  0.00     0.275 HD
ENDBRANCH   1   2
BRANCH   1   6
HETATM    6  C2  UNL     1      -8.078 -31.891  18.010  1.00  0.00     0.022 A 
HETATM    7  C3  UNL     1      -7.886 -33.143  18.786  1.00  0.00     0.007 A 
HETATM    8  C4  UNL     1      -6.688 -32.377  18.371  1.00  0.00     0.007 A 
ENDBRANCH   1   6
BRANCH   1   9
HETATM    9  C5  UNL     1      -9.938 -31.334  16.508  1.00  0.00     0.022 A 
HETATM   10  C6  UNL     1     -11.215 -32.007  16.713  1.00  0.00     0.007 A 
HETATM   11  C7  UNL     1     -10.720 -30.895  17.673  1.00  0.00     0.007 A 
ENDBRANCH   1   9
BRANCH   1  12
HETATM   12  C8  UNL     1      -7.553 -31.568  15.641  1.00  0.00     0.042 A 
HETATM   13  C9  UNL     1      -7.569 -31.667  14.185  1.00  0.00     0.029 A 
HETATM   14  C10 UNL     1      -7.356 -30.312  14.895  1.00  0.00     0.089 A 
HETATM   15 CL1  UNL     1      -8.494 -29.018  14.699  1.00  0.00    -0.125 Cl
ENDBRANCH   1  12
TORSDOF 4
ENDMDL
MODEL 3
REMARK VINA RESULT: -5.984107721      1.408      1.735
REMARK  4 active torsions:
REMARK  status: ('A' for Active; 'I' for Inactive)
REMARK    1  A    between atoms: N1_1  and  C1_5 
REMARK    2  A    between atoms: C1_5  and  C2_6 
REMARK    3  A    between atoms: C1_5  and  C5_9 
REMARK    4  A    between atoms: C1_5  and  C8_12 
ROOT
HETATM    1  C1  UNL     1      -9.051 -31.400  16.561  1.00  0.00     0.136 C 
ENDROOT
BRANCH   1   2
HETATM    2  N1  UNL     1      -9.832 -32.653  16.392  1.00  0.00    -0.069 N 
ATOM      3  H13 UNL     1     -10.377 -32.690  15.531  1.00  0.00     0.275 HD
ATOM      4  H12 UNL     1      -9.261 -33.475  16.201  1.00  0.00     0.275 HD
ATOM      5  H11 UNL     1     -10.392 -32.724  17.240  1.00  0.00     0.275 HD
ENDBRANCH   1   2
BRANCH   1   6
HETATM    6  C2  UNL     1      -9.277 -30.633  15.280  1.00  0.00     0.022 A 
HETATM    7  C3  UNL     1      -8.350 -29.536  14.903  1.00  0.00     0.007 A 
HETATM    8  C4  UNL     1      -8.336 -30.781  14.101  1.00  0.00     0.007 A 
ENDBRANCH   1   6
BRANCH   1   9
HETATM    9  C5  UNL     1      -7.639 -31.882  16.615  1.00  0.00     0.022 A 
HETATM   10  C6  UNL     1      -6.878 -32.197  17.818  1.00  0.00     0.007 A 
HETATM   11  C7  UNL     1      -7.247 -33.289  16.781  1.00  0.00     0.007 A 
ENDBRANCH   1   9
BRANCH   1  12
HETATM   12  C8  UNL     1      -9.618 -30.702  17.703  1.00  0.00     0.042 A 
HETATM   13  C9  UNL     1     -10.931 -30.873  18.317  1.00  0.00     0.029 A 
HETATM   14  C10 UNL     1      -9.635 -31.052  19.136  1.00  0.00     0.089 A 
HETATM   15 CL1  UNL     1      -9.237 -32.584  19.847  1.00  0.00    -0.125 Cl
ENDBRANCH   1  12
TORSDOF 4
ENDMDL
MODEL 4
REMARK VINA RESULT: -5.954799051      1.452      3.680
REMARK  4 active torsions:
REMARK  status: ('A' for Active; 'I' for Inactive)
REMARK    1  A    between atoms: N1_1  and  C1_5 
REMARK    2  A    between atoms: C1_5  and  C2_6 
REMARK    3  A    between atoms: C1_5  and  C5_9 
REMARK    4  A    between atoms: C1_5  and  C8_12 
ROOT
HETATM    1  C1  UNL     1      -9.047 -32.038  17.202  1.00  0.00     0.136 C 
ENDROOT
BRANCH   1   2
HETATM    2  N1  UNL     1      -9.735 -32.964  16.267  1.00  0.00    -0.069 N 
ATOM      3  H13 UNL     1     -10.132 -33.789  16.716  1.00  0.00     0.275 HD
ATOM      4  H12 UNL     1     -10.612 -32.602  15.895  1.00  0.00     0.275 HD
ATOM      5  H11 UNL     1      -9.038 -33.176  15.554  1.00  0.00     0.275 HD
ENDBRANCH   1   2
BRANCH   1   6
HETATM    6  C2  UNL     1     -10.088 -31.703  18.243  1.00  0.00     0.022 A 
HETATM    7  C3  UNL     1     -10.218 -30.307  18.735  1.00  0.00     0.007 A 
HETATM    8  C4  UNL     1     -11.303 -30.865  17.895  1.00  0.00     0.007 A 
ENDBRANCH   1   6
BRANCH   1   9
HETATM    9  C5  UNL     1      -8.777 -30.836  16.357  1.00  0.00     0.022 A 
HETATM   10  C6  UNL     1      -7.714 -30.695  15.369  1.00  0.00     0.007 A 
HETATM   11  C7  UNL     1      -9.209 -30.690  14.960  1.00  0.00     0.007 A 
ENDBRANCH   1   9
BRANCH   1  12
HETATM   12  C8  UNL     1      -7.936 -32.774  17.782  1.00  0.00     0.042 A 
HETATM   13  C9  UNL     1      -6.797 -32.261  18.537  1.00  0.00     0.029 A 
HETATM   14  C10 UNL     1      -7.745 -33.321  19.138  1.00  0.00     0.089 A 
HETATM   15 CL1  UNL     1      -8.688 -32.971  20.553  1.00  0.00    -0.125 Cl
ENDBRANCH   1  12
TORSDOF 4
ENDMDL
MODEL 5
REMARK VINA RESULT: -5.842181064      2.035      3.640
REMARK  4 active torsions:
REMARK  status: ('A' for Active; 'I' for Inactive)
REMARK    1  A    between atoms: N1_1  and  C1_5 
REMARK    2  A    between atoms: C1_5  and  C2_6 
REMARK    3  A    between atoms: C1_5  and  C5_9 
REMARK    4  A    between atoms: C1_5  and  C8_12 
ROOT
HETATM    1  C1  UNL     1      -9.146 -31.725  16.797  1.00  0.00     0.136 C 
ENDROOT
BRANCH   1   2
HETATM    2  N1  UNL     1      -9.407 -33.106  16.314  1.00  0.00    -0.069 N 
ATOM      3  H13 UNL     1     -10.115 -33.163  15.583  1.00  0.00     0.275 HD
ATOM      4  H12 UNL     1      -8.644 -33.505  15.768  1.00  0.00     0.275 HD
ATOM      5  H11 UNL     1      -9.636 -33.634  17.156  1.00  0.00     0.275 HD
ENDBRANCH   1   2
BRANCH   1   6
HETATM    6  C2  UNL     1      -7.717 -31.755  17.286  1.00  0.00     0.022 A 
HETATM    7  C3  UNL     1      -7.363 -32.556  18.485  1.00  0.00     0.007 A 
HETATM    8  C4  UNL     1      -6.872 -33.008  17.163  1.00  0.00     0.007 A 
ENDBRANCH   1   6
BRANCH   1   9
HETATM    9  C5  UNL     1     -10.071 -31.588  17.960  1.00  0.00     0.022 A 
HETATM   10  C6  UNL     1     -10.245 -30.403  18.792  1.00  0.00     0.007 A 
HETATM   11  C7  UNL     1     -11.391 -30.944  17.899  1.00  0.00     0.007 A 
ENDBRANCH   1   9
BRANCH   1  12
HETATM   12  C8  UNL     1      -9.294 -30.844  15.650  1.00  0.00     0.042 A 
HETATM   13  C9  UNL     1      -8.468 -29.705  15.262  1.00  0.00     0.029 A 
HETATM   14  C10 UNL     1      -8.689 -30.898  14.307  1.00  0.00     0.089 A 
HETATM   15 CL1  UNL     1      -7.357 -31.886  13.796  1.00  0.00    -0.125 Cl
ENDBRANCH   1  12
TORSDOF 4
ENDMDL
