MODEL 1
REMARK VINA RESULT: -5.438862673      0.000      0.000
REMARK  3 active torsions:
REMARK  status: ('A' for Active; 'I' for Inactive)
REMARK    1  A    between atoms: C1_2  and  C2_3 
REMARK    2  A    between atoms: C2_3  and  N1_4 
REMARK    3  A    between atoms: N1_4  and  C3_7 
ROOT
HETATM    1  N1  UNL     1      -8.341 -33.116  17.135  1.00  0.00    -0.070 N 
ATOM      2  H11 UNL     1      -7.502 -33.593  16.805  1.00  0.00     0.277 HD
ATOM      3  H12 UNL     1      -8.933 -33.925  17.317  1.00  0.00     0.277 HD
ENDROOT
BRANCH   1   4
HETATM    4  C2  UNL     1      -8.900 -32.296  16.106  1.00  0.00     0.243 C 
BRANCH   4   5
HETATM    5  C1  UNL     1      -7.941 -31.866  15.029  1.00  0.00     0.112 C 
HETATM    6 BR1  UNL     1      -8.041 -29.956  14.729  1.00  0.00    -0.095 Br
ENDBRANCH   4   5
ENDBRANCH   1   4
BRANCH   1   7
HETATM    7  C3  UNL     1      -8.069 -32.379  18.371  1.00  0.00     0.186 C 
HETATM    8  C4  UNL     1      -9.223 -31.417  18.528  1.00  0.00     0.033 C 
HETATM    9  C5  UNL     1      -9.844 -31.638  19.866  1.00  0.00     0.002 C 
HETATM   10  C6  UNL     1      -8.879 -32.507  20.623  1.00  0.00     0.002 C 
HETATM   11  C7  UNL     1      -8.150 -33.304  19.568  1.00  0.00     0.033 C 
ENDBRANCH   1   7
TORSDOF 3
ENDMDL
MODEL 2
REMARK VINA RESULT: -5.370452603      1.247      1.592
REMARK  3 active torsions:
REMARK  status: ('A' for Active; 'I' for Inactive)
REMARK    1  A    between atoms: C1_2  and  C2_3 
REMARK    2  A    between atoms: C2_3  and  N1_4 
REMARK    3  A    between atoms: N1_4  and  C3_7 
ROOT
HETATM    1  N1  UNL     1     -10.273 -31.504  17.581  1.00  0.00    -0.070 N 
ATOM      2  H11 UNL     1     -11.030 -32.093  17.927  1.00  0.00     0.277 HD
ATOM      3  H12 UNL     1     -10.736 -30.597  17.619  1.00  0.00     0.277 HD
ENDROOT
BRANCH   1   4
HETATM    4  C2  UNL     1      -9.931 -31.848  16.236  1.00  0.00     0.243 C 
BRANCH   4   5
HETATM    5  C1  UNL     1      -9.234 -30.770  15.451  1.00  0.00     0.112 C 
HETATM    6 BR1  UNL     1      -7.718 -31.484  14.481  1.00  0.00    -0.095 Br
ENDBRANCH   4   5
ENDBRANCH   1   4
BRANCH   1   7
HETATM    7  C3  UNL     1      -9.125 -31.542  18.491  1.00  0.00     0.186 C 
HETATM    8  C4  UNL     1      -9.713 -31.501  19.881  1.00  0.00     0.033 C 
HETATM    9  C5  UNL     1      -9.203 -32.676  20.645  1.00  0.00     0.002 C 
HETATM   10  C6  UNL     1      -8.082 -33.242  19.819  1.00  0.00     0.002 C 
HETATM   11  C7  UNL     1      -8.415 -32.876  18.393  1.00  0.00     0.033 C 
ENDBRANCH   1   7
TORSDOF 3
ENDMDL
MODEL 3
REMARK VINA RESULT: -5.276973234      0.773      1.533
REMARK  3 active torsions:
REMARK  status: ('A' for Active; 'I' for Inactive)
REMARK    1  A    between atoms: C1_2  and  C2_3 
REMARK    2  A    between atoms: C2_3  and  N1_4 
REMARK    3  A    between atoms: N1_4  and  C3_7 
ROOT
HETATM    1  N1  UNL     1      -7.714 -32.099  16.847  1.00  0.00    -0.070 N 
ATOM      2  H11 UNL     1      -7.596 -31.086  16.819  1.00  0.00     0.277 HD
ATOM      3  H12 UNL     1      -6.800 -32.363  17.214  1.00  0.00     0.277 HD
ENDROOT
BRANCH   1   4
HETATM    4  C2  UNL     1      -7.907 -32.626  15.532  1.00  0.00     0.243 C 
BRANCH   4   5
HETATM    5  C1  UNL     1      -7.542 -31.700  14.405  1.00  0.00     0.112 C 
HETATM    6 BR1  UNL     1      -8.119 -29.890  14.775  1.00  0.00    -0.095 Br
ENDBRANCH   4   5
ENDBRANCH   1   4
BRANCH   1   7
HETATM    7  C3  UNL     1      -8.779 -32.475  17.778  1.00  0.00     0.186 C 
HETATM    8  C4  UNL     1      -8.074 -32.996  19.008  1.00  0.00     0.033 C 
HETATM    9  C5  UNL     1      -8.555 -32.224  20.191  1.00  0.00     0.002 C 
HETATM   10  C6  UNL     1      -9.760 -31.462  19.716  1.00  0.00     0.002 C 
HETATM   11  C7  UNL     1      -9.539 -31.247  18.238  1.00  0.00     0.033 C 
ENDBRANCH   1   7
TORSDOF 3
ENDMDL
MODEL 4
REMARK VINA RESULT: -5.143811281      2.590      4.417
REMARK  3 active torsions:
REMARK  status: ('A' for Active; 'I' for Inactive)
REMARK    1  A    between atoms: C1_2  and  C2_3 
REMARK    2  A    between atoms: C2_3  and  N1_4 
REMARK    3  A    between atoms: N1_4  and  C3_7 
ROOT
HETATM    1  N1  UNL     1      -9.109 -32.265  17.589  1.00  0.00    -0.070 N 
ATOM      2  H11 UNL     1      -9.376 -33.165  17.987  1.00  0.00     0.277 HD
ATOM      3  H12 UNL     1      -8.153 -32.205  17.941  1.00  0.00     0.277 HD
ENDROOT
BRANCH   1   4
HETATM    4  C2  UNL     1      -9.916 -31.211  18.122  1.00  0.00     0.243 C 
BRANCH   4   5
HETATM    5  C1  UNL     1      -9.922 -31.099  19.623  1.00  0.00     0.112 C 
HETATM    6 BR1  UNL     1      -8.972 -32.577  20.436  1.00  0.00    -0.095 Br
ENDBRANCH   4   5
ENDBRANCH   1   4
BRANCH   1   7
HETATM    7  C3  UNL     1      -9.125 -32.315  16.126  1.00  0.00     0.186 C 
HETATM    8  C4  UNL     1      -9.488 -30.918  15.680  1.00  0.00     0.033 C 
HETATM    9  C5  UNL     1      -8.431 -30.430  14.747  1.00  0.00     0.002 C 
HETATM   10  C6  UNL     1      -7.607 -31.638  14.400  1.00  0.00     0.002 C 
HETATM   11  C7  UNL     1      -7.730 -32.560  15.589  1.00  0.00     0.033 C 
ENDBRANCH   1   7
TORSDOF 3
ENDMDL
MODEL 5
REMARK VINA RESULT: -5.141477757      1.312      2.010
REMARK  3 active torsions:
REMARK  status: ('A' for Active; 'I' for Inactive)
REMARK    1  A    between atoms: C1_2  and  C2_3 
REMARK    2  A    between atoms: C2_3  and  N1_4 
REMARK    3  A    between atoms: N1_4  and  C3_7 
ROOT
HETATM    1  N1  UNL     1      -7.949 -31.970  16.784  1.00  0.00    -0.070 N 
ATOM      2  H11 UNL     1      -7.841 -30.960  16.692  1.00  0.00     0.277 HD
ATOM      3  H12 UNL     1      -7.115 -32.178  17.332  1.00  0.00     0.277 HD
ENDROOT
BRANCH   1   4
HETATM    4  C2  UNL     1      -7.893 -32.608  15.505  1.00  0.00     0.243 C 
BRANCH   4   5
HETATM    5  C1  UNL     1      -7.521 -31.715  14.354  1.00  0.00     0.112 C 
HETATM    6 BR1  UNL     1      -7.959 -29.868  14.734  1.00  0.00    -0.095 Br
ENDBRANCH   4   5
ENDBRANCH   1   4
BRANCH   1   7
HETATM    7  C3  UNL     1      -9.163 -32.298  17.535  1.00  0.00     0.186 C 
HETATM    8  C4  UNL     1      -9.020 -31.587  18.860  1.00  0.00     0.033 C 
HETATM    9  C5  UNL     1     -10.218 -30.723  19.065  1.00  0.00     0.002 C 
HETATM   10  C6  UNL     1     -11.209 -31.149  18.018  1.00  0.00     0.002 C 
HETATM   11  C7  UNL     1     -10.378 -31.680  16.875  1.00  0.00     0.033 C 
ENDBRANCH   1   7
TORSDOF 3
ENDMDL
