MODEL 1
REMARK VINA RESULT: -7.389471141      0.000      0.000
REMARK  4 active torsions:
REMARK  status: ('A' for Active; 'I' for Inactive)
REMARK    1  A    between atoms: N1_1  and  C1_5 
REMARK    2  A    between atoms: C1_5  and  C2_6 
REMARK    3  A    between atoms: C5_11  and  C6_12 
REMARK    4  A    between atoms: C6_12  and  C7_13 
ROOT
HETATM    1  C2  UNL     1       1.687  37.766 102.748  1.00  0.00    -0.010 A 
HETATM    2  C3  UNL     1       1.520  39.117 103.083  1.00  0.00     0.097 A 
HETATM    3  N2  UNL     1       0.276  39.508 102.769  1.00  0.00    -0.374 N 
ATOM      4  H2  UNL     1      -0.105  40.443 102.909  1.00  0.00     0.164 HD
HETATM    5  C4  UNL     1      -0.375  38.484 102.249  1.00  0.00     0.095 A 
HETATM    6  C5  UNL     1       0.475  37.378 102.221  1.00  0.00    -0.029 A 
ENDROOT
BRANCH   6   7
HETATM    7  C6  UNL     1       0.122  36.031 101.741  1.00  0.00     0.077 C 
BRANCH   7   8
HETATM    8  C7  UNL     1      -0.128  35.013 102.735  1.00  0.00    -0.044 A 
HETATM    9  C8  UNL     1      -1.323  34.834 103.349  1.00  0.00     0.013 A 
HETATM   10  C9  UNL     1      -2.611  35.308 103.425  1.00  0.00     0.032 A 
HETATM   11  C11 UNL     1      -1.242  33.790 104.236  1.00  0.00     0.111 A 
HETATM   12  C10 UNL     1      -3.303  34.561 104.345  1.00  0.00     0.090 A 
HETATM   13  N3  UNL     1      -2.445  33.645 104.823  1.00  0.00    -0.352 N 
ATOM     14  H3  UNL     1      -2.671  32.942 105.528  1.00  0.00     0.166 HD
HETATM   15  N4  UNL     1      -0.050  33.277 104.231  1.00  0.00    -0.372 N 
HETATM   16  C12 UNL     1       0.763  33.990 103.291  1.00  0.00     0.156 A 
ATOM     17  H4  UNL     1       0.259  32.491 104.804  1.00  0.00     0.161 HD
ENDBRANCH   7   8
ENDBRANCH   6   7
BRANCH   1  18
HETATM   18  C1  UNL     1       2.948  37.003 102.929  1.00  0.00     0.270 C 
BRANCH  18  19
HETATM   19  N1  UNL     1       2.917  36.425 104.282  1.00  0.00    -0.075 N 
ATOM     20  H13 UNL     1       3.539  36.902 104.935  1.00  0.00     0.274 HD
ATOM     21  H12 UNL     1       2.043  36.608 104.775  1.00  0.00     0.274 HD
ATOM     22  H11 UNL     1       3.123  35.430 104.191  1.00  0.00     0.274 HD
ENDBRANCH  18  19
ENDBRANCH   1  18
TORSDOF 4
ENDMDL
MODEL 2
REMARK VINA RESULT: -7.341355236      1.043      2.246
REMARK  4 active torsions:
REMARK  status: ('A' for Active; 'I' for Inactive)
REMARK    1  A    between atoms: N1_1  and  C1_5 
REMARK    2  A    between atoms: C1_5  and  C2_6 
REMARK    3  A    between atoms: C5_11  and  C6_12 
REMARK    4  A    between atoms: C6_12  and  C7_13 
ROOT
HETATM    1  C2  UNL     1      -0.220  38.433 102.368  1.00  0.00    -0.010 A 
HETATM    2  C3  UNL     1       0.706  39.449 102.643  1.00  0.00     0.097 A 
HETATM    3  N2  UNL     1       1.951  38.969 102.515  1.00  0.00    -0.374 N 
ATOM      4  H2  UNL     1       2.809  39.501 102.660  1.00  0.00     0.164 HD
HETATM    5  C4  UNL     1       1.886  37.697 102.171  1.00  0.00     0.095 A 
HETATM    6  C5  UNL     1       0.544  37.327 102.069  1.00  0.00    -0.029 A 
ENDROOT
BRANCH   6   7
HETATM    7  C6  UNL     1       0.043  35.997 101.680  1.00  0.00     0.077 C 
BRANCH   7   8
HETATM    8  C7  UNL     1      -0.152  35.025 102.730  1.00  0.00    -0.044 A 
HETATM    9  C8  UNL     1      -1.345  34.789 103.331  1.00  0.00     0.013 A 
HETATM   10  C9  UNL     1      -2.668  35.164 103.350  1.00  0.00     0.032 A 
HETATM   11  C11 UNL     1      -1.206  33.811 104.282  1.00  0.00     0.111 A 
HETATM   12  C10 UNL     1      -3.322  34.422 104.301  1.00  0.00     0.090 A 
HETATM   13  N3  UNL     1      -2.407  33.607 104.853  1.00  0.00    -0.352 N 
ATOM     14  H3  UNL     1      -2.596  32.933 105.595  1.00  0.00     0.166 HD
HETATM   15  N4  UNL     1       0.023  33.394 104.333  1.00  0.00    -0.372 N 
HETATM   16  C12 UNL     1       0.801  34.111 103.366  1.00  0.00     0.156 A 
ATOM     17  H4  UNL     1       0.378  32.672 104.960  1.00  0.00     0.161 HD
ENDBRANCH   7   8
ENDBRANCH   6   7
BRANCH   1  18
HETATM   18  C1  UNL     1      -1.695  38.595 102.439  1.00  0.00     0.270 C 
BRANCH  18  19
HETATM   19  N1  UNL     1      -2.009  39.948 101.953  1.00  0.00    -0.075 N 
ATOM     20  H13 UNL     1      -2.607  40.473 102.591  1.00  0.00     0.274 HD
ATOM     21  H12 UNL     1      -1.206  40.578 101.978  1.00  0.00     0.274 HD
ATOM     22  H11 UNL     1      -2.410  39.850 101.021  1.00  0.00     0.274 HD
ENDBRANCH  18  19
ENDBRANCH   1  18
TORSDOF 4
ENDMDL
MODEL 3
REMARK VINA RESULT: -7.288626922      1.772      2.974
REMARK  4 active torsions:
REMARK  status: ('A' for Active; 'I' for Inactive)
REMARK    1  A    between atoms: N1_1  and  C1_5 
REMARK    2  A    between atoms: C1_5  and  C2_6 
REMARK    3  A    between atoms: C5_11  and  C6_12 
REMARK    4  A    between atoms: C6_12  and  C7_13 
ROOT
HETATM    1  C2  UNL     1       1.789  36.407 102.895  1.00  0.00    -0.010 A 
HETATM    2  C3  UNL     1       2.592  36.491 104.041  1.00  0.00     0.097 A 
HETATM    3  N2  UNL     1       2.832  35.259 104.512  1.00  0.00    -0.374 N 
ATOM      4  H2  UNL     1       3.390  35.038 105.337  1.00  0.00     0.164 HD
HETATM    5  C4  UNL     1       2.230  34.379 103.735  1.00  0.00     0.095 A 
HETATM    6  C5  UNL     1       1.568  35.060 102.712  1.00  0.00    -0.029 A 
ENDROOT
BRANCH   6   7
HETATM    7  C6  UNL     1       0.799  34.441 101.619  1.00  0.00     0.077 C 
BRANCH   7   8
HETATM    8  C7  UNL     1      -0.621  34.702 101.571  1.00  0.00    -0.044 A 
HETATM    9  C8  UNL     1      -1.464  34.490 102.612  1.00  0.00     0.013 A 
HETATM   10  C9  UNL     1      -1.529  34.052 103.913  1.00  0.00     0.032 A 
HETATM   11  C11 UNL     1      -2.743  34.836 102.255  1.00  0.00     0.111 A 
HETATM   12  C10 UNL     1      -2.830  34.131 104.341  1.00  0.00     0.090 A 
HETATM   13  N3  UNL     1      -3.547  34.612 103.311  1.00  0.00    -0.352 N 
ATOM     14  H3  UNL     1      -4.553  34.781 103.327  1.00  0.00     0.166 HD
HETATM   15  N4  UNL     1      -2.777  35.265 101.031  1.00  0.00    -0.372 N 
HETATM   16  C12 UNL     1      -1.453  35.225 100.484  1.00  0.00     0.156 A 
ATOM     17  H4  UNL     1      -3.612  35.581 100.536  1.00  0.00     0.161 HD
ENDBRANCH   7   8
ENDBRANCH   6   7
BRANCH   1  18
HETATM   18  C1  UNL     1       1.300  37.577 102.121  1.00  0.00     0.270 C 
BRANCH  18  19
HETATM   19  N1  UNL     1       2.472  38.408 101.800  1.00  0.00    -0.075 N 
ATOM     20  H13 UNL     1       2.415  39.348 102.193  1.00  0.00     0.274 HD
ATOM     21  H12 UNL     1       3.317  38.112 102.289  1.00  0.00     0.274 HD
ATOM     22  H11 UNL     1       2.576  38.405 100.786  1.00  0.00     0.274 HD
ENDBRANCH  18  19
ENDBRANCH   1  18
TORSDOF 4
ENDMDL
MODEL 4
REMARK VINA RESULT: -7.255501832      1.699      4.568
REMARK  4 active torsions:
REMARK  status: ('A' for Active; 'I' for Inactive)
REMARK    1  A    between atoms: N1_1  and  C1_5 
REMARK    2  A    between atoms: C1_5  and  C2_6 
REMARK    3  A    between atoms: C5_11  and  C6_12 
REMARK    4  A    between atoms: C6_12  and  C7_13 
ROOT
HETATM    1  C2  UNL     1      -1.806  34.494 102.710  1.00  0.00    -0.010 A 
HETATM    2  C3  UNL     1      -3.039  34.870 102.159  1.00  0.00     0.097 A 
HETATM    3  N2  UNL     1      -2.869  35.222 100.876  1.00  0.00    -0.374 N 
ATOM      4  H2  UNL     1      -3.606  35.537 100.245  1.00  0.00     0.164 HD
HETATM    5  C4  UNL     1      -1.594  35.093 100.563  1.00  0.00     0.095 A 
HETATM    6  C5  UNL     1      -0.899  34.639 101.685  1.00  0.00    -0.029 A 
ENDROOT
BRANCH   6   7
HETATM    7  C6  UNL     1       0.543  34.342 101.744  1.00  0.00     0.077 C 
BRANCH   7   8
HETATM    8  C7  UNL     1       1.354  35.148 102.627  1.00  0.00    -0.044 A 
HETATM    9  C8  UNL     1       1.278  36.500 102.699  1.00  0.00     0.013 A 
HETATM   10  C9  UNL     1       0.635  37.601 102.186  1.00  0.00     0.032 A 
HETATM   11  C11 UNL     1       2.171  36.970 103.628  1.00  0.00     0.111 A 
HETATM   12  C10 UNL     1       1.131  38.725 102.797  1.00  0.00     0.090 A 
HETATM   13  N3  UNL     1       2.065  38.311 103.670  1.00  0.00    -0.352 N 
ATOM     14  H3  UNL     1       2.613  38.923 104.275  1.00  0.00     0.166 HD
HETATM   15  N4  UNL     1       2.828  35.989 104.168  1.00  0.00    -0.372 N 
HETATM   16  C12 UNL     1       2.381  34.754 103.596  1.00  0.00     0.156 A 
ATOM     17  H4  UNL     1       3.548  36.083 104.885  1.00  0.00     0.161 HD
ENDBRANCH   7   8
ENDBRANCH   6   7
BRANCH   1  18
HETATM   18  C1  UNL     1      -1.608  34.070 104.120  1.00  0.00     0.270 C 
BRANCH  18  19
HETATM   19  N1  UNL     1      -2.050  35.183 104.976  1.00  0.00    -0.075 N 
ATOM     20  H13 UNL     1      -1.896  36.098 104.553  1.00  0.00     0.274 HD
ATOM     21  H12 UNL     1      -3.065  35.245 105.057  1.00  0.00     0.274 HD
ATOM     22  H11 UNL     1      -1.583  35.076 105.876  1.00  0.00     0.274 HD
ENDBRANCH  18  19
ENDBRANCH   1  18
TORSDOF 4
ENDMDL
MODEL 5
REMARK VINA RESULT: -7.183230661      1.419      5.100
REMARK  4 active torsions:
REMARK  status: ('A' for Active; 'I' for Inactive)
REMARK    1  A    between atoms: N1_1  and  C1_5 
REMARK    2  A    between atoms: C1_5  and  C2_6 
REMARK    3  A    between atoms: C5_11  and  C6_12 
REMARK    4  A    between atoms: C6_12  and  C7_13 
ROOT
HETATM    1  C2  UNL     1      -0.057  33.910 103.273  1.00  0.00    -0.010 A 
HETATM    2  C3  UNL     1       0.930  33.107 103.863  1.00  0.00     0.097 A 
HETATM    3  N2  UNL     1       2.056  33.176 103.139  1.00  0.00    -0.374 N 
ATOM      4  H2  UNL     1       2.926  32.687 103.348  1.00  0.00     0.164 HD
HETATM    5  C4  UNL     1       1.856  33.980 102.112  1.00  0.00     0.095 A 
HETATM    6  C5  UNL     1       0.546  34.459 102.164  1.00  0.00    -0.029 A 
ENDROOT
BRANCH   6   7
HETATM    7  C6  UNL     1      -0.065  35.406 101.215  1.00  0.00     0.077 C 
BRANCH   7   8
HETATM    8  C7  UNL     1      -0.432  36.710 101.717  1.00  0.00    -0.044 A 
HETATM    9  C8  UNL     1       0.465  37.660 102.080  1.00  0.00     0.013 A 
HETATM   10  C9  UNL     1       1.808  37.933 102.183  1.00  0.00     0.032 A 
HETATM   11  C11 UNL     1      -0.193  38.784 102.511  1.00  0.00     0.111 A 
HETATM   12  C10 UNL     1       1.963  39.206 102.669  1.00  0.00     0.090 A 
HETATM   13  N3  UNL     1       0.729  39.701 102.860  1.00  0.00    -0.352 N 
ATOM     14  H3  UNL     1       0.520  40.633 103.218  1.00  0.00     0.166 HD
HETATM   15  N4  UNL     1      -1.479  38.615 102.447  1.00  0.00    -0.372 N 
HETATM   16  C12 UNL     1      -1.754  37.302 101.943  1.00  0.00     0.156 A 
ATOM     17  H4  UNL     1      -2.181  39.306 102.713  1.00  0.00     0.161 HD
ENDBRANCH   7   8
ENDBRANCH   6   7
BRANCH   1  18
HETATM   18  C1  UNL     1      -1.443  34.055 103.787  1.00  0.00     0.270 C 
BRANCH  18  19
HETATM   19  N1  UNL     1      -1.364  34.063 105.257  1.00  0.00    -0.075 N 
ATOM     20  H13 UNL     1      -1.193  34.992 105.643  1.00  0.00     0.274 HD
ATOM     21  H12 UNL     1      -2.265  33.898 105.707  1.00  0.00     0.274 HD
ATOM     22  H11 UNL     1      -0.654  33.383 105.526  1.00  0.00     0.274 HD
ENDBRANCH  18  19
ENDBRANCH   1  18
TORSDOF 4
ENDMDL
