MODEL 1
REMARK VINA RESULT: -6.612520103      0.000      0.000
REMARK  6 active torsions:
REMARK  status: ('A' for Active; 'I' for Inactive)
REMARK    1  A    between atoms: C5_5  and  C6_6 
REMARK    2  A    between atoms: C6_6  and  C7_7 
REMARK    3  A    between atoms: C7_7  and  N1_8 
REMARK    4  A    between atoms: N1_8  and  C10_11 
REMARK    5  A    between atoms: C10_11  and  N2_12 
REMARK    6  A    between atoms: N2_12  and  N3_13 
ROOT
HETATM    1  C6  UNL     1      -0.244  35.784 101.077  1.00  0.00     0.087 C 
ENDROOT
BRANCH   1   2
HETATM    2  C5  UNL     1      -0.764  35.122  99.883  1.00  0.00     0.034 C 
HETATM    3  C4  UNL     1       0.091  34.608  99.013  1.00  0.00     0.027 C 
HETATM    4  C3  UNL     1      -0.178  33.896  97.742  1.00  0.00     0.011 C 
HETATM    5  C2  UNL     1      -1.326  33.720  97.123  1.00  0.00    -0.038 C 
HETATM    6  C1  UNL     1      -1.381  32.976  95.857  1.00  0.00     0.050 C 
HETATM    7  C11 UNL     1      -2.629  34.207  97.573  1.00  0.00     0.174 C 
HETATM    8  O1  UNL     1      -2.963  34.761  98.651  1.00  0.00    -0.250 OA
HETATM    9  N4  UNL     1      -2.186  35.068  99.723  1.00  0.00    -0.266 N 
ATOM     10  H4  UNL     1      -2.710  35.303 100.565  1.00  0.00     0.194 HD
ENDBRANCH   1   2
BRANCH   1  11
HETATM   11  C7  UNL     1      -1.233  36.647 101.787  1.00  0.00     0.244 C 
BRANCH  11  12
HETATM   12  N1  UNL     1      -0.593  37.381 102.853  1.00  0.00    -0.060 N 
HETATM   13  C8  UNL     1      -0.304  38.749 102.485  1.00  0.00     0.273 C 
HETATM   14  C9  UNL     1       0.647  36.719 103.214  1.00  0.00     0.273 C 
BRANCH  12  15
HETATM   15  C10 UNL     1      -1.408  37.428 104.055  1.00  0.00     0.370 C 
BRANCH  15  16
HETATM   16  N2  UNL     1      -2.321  36.311 103.973  1.00  0.00    -0.120 NA
BRANCH  16  17
HETATM   17  N3  UNL     1      -2.141  35.386 104.991  1.00  0.00    -0.347 N 
ATOM     18  H32 UNL     1      -2.904  34.818 105.359  1.00  0.00     0.172 HD
ATOM     19  H31 UNL     1      -1.178  35.339 105.323  1.00  0.00     0.172 HD
ENDBRANCH  16  17
ENDBRANCH  15  16
ENDBRANCH  12  15
ENDBRANCH  11  12
ENDBRANCH   1  11
TORSDOF 6
ENDMDL
MODEL 2
REMARK VINA RESULT: -6.594544526      2.946      3.965
REMARK  6 active torsions:
REMARK  status: ('A' for Active; 'I' for Inactive)
REMARK    1  A    between atoms: C5_5  and  C6_6 
REMARK    2  A    between atoms: C6_6  and  C7_7 
REMARK    3  A    between atoms: C7_7  and  N1_8 
REMARK    4  A    between atoms: N1_8  and  C10_11 
REMARK    5  A    between atoms: C10_11  and  N2_12 
REMARK    6  A    between atoms: N2_12  and  N3_13 
ROOT
HETATM    1  C6  UNL     1      -2.775  35.229  99.788  1.00  0.00     0.087 C 
ENDROOT
BRANCH   1   2
HETATM    2  C5  UNL     1      -4.030  35.069  99.058  1.00  0.00     0.034 C 
HETATM    3  C4  UNL     1      -5.113  34.695  99.720  1.00  0.00     0.027 C 
HETATM    4  C3  UNL     1      -6.488  34.466  99.216  1.00  0.00     0.011 C 
HETATM    5  C2  UNL     1      -6.920  34.460  97.974  1.00  0.00    -0.038 C 
HETATM    6  C1  UNL     1      -8.339  34.210  97.682  1.00  0.00     0.050 C 
HETATM    7  C11 UNL     1      -6.108  34.687  96.780  1.00  0.00     0.174 C 
HETATM    8  O1  UNL     1      -4.908  35.047  96.668  1.00  0.00    -0.250 OA
HETATM    9  N4  UNL     1      -4.012  35.330  97.649  1.00  0.00    -0.266 N 
ATOM     10  H4  UNL     1      -3.176  35.816  97.325  1.00  0.00     0.194 HD
ENDBRANCH   1   2
BRANCH   1  11
HETATM   11  C7  UNL     1      -2.900  35.101 101.270  1.00  0.00     0.244 C 
BRANCH  11  12
HETATM   12  N1  UNL     1      -1.608  35.238 101.901  1.00  0.00    -0.060 N 
HETATM   13  C8  UNL     1      -0.516  34.989 100.987  1.00  0.00     0.273 C 
HETATM   14  C9  UNL     1      -1.516  34.305 103.010  1.00  0.00     0.273 C 
BRANCH  12  15
HETATM   15  C10 UNL     1      -1.404  36.566 102.454  1.00  0.00     0.370 C 
BRANCH  15  16
HETATM   16  N2  UNL     1      -2.096  36.591 103.723  1.00  0.00    -0.120 NA
BRANCH  16  17
HETATM   17  N3  UNL     1      -1.629  37.579 104.578  1.00  0.00    -0.347 N 
ATOM     18  H32 UNL     1      -1.117  37.368 105.434  1.00  0.00     0.172 HD
ATOM     19  H31 UNL     1      -1.853  38.521 104.259  1.00  0.00     0.172 HD
ENDBRANCH  16  17
ENDBRANCH  15  16
ENDBRANCH  12  15
ENDBRANCH  11  12
ENDBRANCH   1  11
TORSDOF 6
ENDMDL
MODEL 3
REMARK VINA RESULT: -6.553792468      1.393      2.064
REMARK  6 active torsions:
REMARK  status: ('A' for Active; 'I' for Inactive)
REMARK    1  A    between atoms: C5_5  and  C6_6 
REMARK    2  A    between atoms: C6_6  and  C7_7 
REMARK    3  A    between atoms: C7_7  and  N1_8 
REMARK    4  A    between atoms: N1_8  and  C10_11 
REMARK    5  A    between atoms: C10_11  and  N2_12 
REMARK    6  A    between atoms: N2_12  and  N3_13 
ROOT
HETATM    1  C6  UNL     1      -0.292  35.181 101.194  1.00  0.00     0.087 C 
ENDROOT
BRANCH   1   2
HETATM    2  C5  UNL     1      -1.249  35.032 100.100  1.00  0.00     0.034 C 
HETATM    3  C4  UNL     1      -2.532  35.255 100.337  1.00  0.00     0.027 C 
HETATM    4  C3  UNL     1      -3.685  35.172  99.410  1.00  0.00     0.011 C 
HETATM    5  C2  UNL     1      -3.715  34.736  98.170  1.00  0.00    -0.038 C 
HETATM    6  C1  UNL     1      -4.975  34.737  97.412  1.00  0.00     0.050 C 
HETATM    7  C11 UNL     1      -2.577  34.221  97.411  1.00  0.00     0.174 C 
HETATM    8  O1  UNL     1      -1.353  34.194  97.698  1.00  0.00    -0.250 OA
HETATM    9  N4  UNL     1      -0.734  34.646  98.820  1.00  0.00    -0.266 N 
ATOM     10  H4  UNL     1       0.279  34.725  98.736  1.00  0.00     0.194 HD
ENDBRANCH   1   2
BRANCH   1  11
HETATM   11  C7  UNL     1       0.067  36.593 101.515  1.00  0.00     0.244 C 
BRANCH  11  12
HETATM   12  N1  UNL     1      -0.339  36.927 102.860  1.00  0.00    -0.060 N 
HETATM   13  C8  UNL     1      -1.401  37.908 102.890  1.00  0.00     0.273 C 
HETATM   14  C9  UNL     1       0.803  37.448 103.590  1.00  0.00     0.273 C 
BRANCH  12  15
HETATM   15  C10 UNL     1      -0.812  35.767 103.596  1.00  0.00     0.370 C 
BRANCH  15  16
HETATM   16  N2  UNL     1      -2.069  36.151 104.199  1.00  0.00    -0.120 NA
BRANCH  16  17
HETATM   17  N3  UNL     1      -2.569  35.196 105.071  1.00  0.00    -0.347 N 
ATOM     18  H32 UNL     1      -2.024  34.822 105.848  1.00  0.00     0.172 HD
ATOM     19  H31 UNL     1      -3.524  34.915 104.851  1.00  0.00     0.172 HD
ENDBRANCH  16  17
ENDBRANCH  15  16
ENDBRANCH  12  15
ENDBRANCH  11  12
ENDBRANCH   1  11
TORSDOF 6
ENDMDL
MODEL 4
REMARK VINA RESULT: -6.549734121      2.985      4.014
REMARK  6 active torsions:
REMARK  status: ('A' for Active; 'I' for Inactive)
REMARK    1  A    between atoms: C5_5  and  C6_6 
REMARK    2  A    between atoms: C6_6  and  C7_7 
REMARK    3  A    between atoms: C7_7  and  N1_8 
REMARK    4  A    between atoms: N1_8  and  C10_11 
REMARK    5  A    between atoms: C10_11  and  N2_12 
REMARK    6  A    between atoms: N2_12  and  N3_13 
ROOT
HETATM    1  C6  UNL     1       0.237  35.315 101.182  1.00  0.00     0.087 C 
ENDROOT
BRANCH   1   2
HETATM    2  C5  UNL     1      -0.822  35.121 100.195  1.00  0.00     0.034 C 
HETATM    3  C4  UNL     1      -2.080  35.310 100.560  1.00  0.00     0.027 C 
HETATM    4  C3  UNL     1      -3.319  35.179  99.758  1.00  0.00     0.011 C 
HETATM    5  C2  UNL     1      -3.463  34.724  98.532  1.00  0.00    -0.038 C 
HETATM    6  C1  UNL     1      -4.794  34.675  97.909  1.00  0.00     0.050 C 
HETATM    7  C11 UNL     1      -2.393  34.232  97.666  1.00  0.00     0.174 C 
HETATM    8  O1  UNL     1      -1.146  34.245  97.826  1.00  0.00    -0.250 OA
HETATM    9  N4  UNL     1      -0.430  34.732  98.873  1.00  0.00    -0.266 N 
ATOM     10  H4  UNL     1       0.566  34.840  98.684  1.00  0.00     0.194 HD
ENDBRANCH   1   2
BRANCH   1  11
HETATM   11  C7  UNL     1       1.044  34.094 101.474  1.00  0.00     0.244 C 
BRANCH  11  12
HETATM   12  N1  UNL     1       1.560  34.136 102.821  1.00  0.00    -0.060 N 
HETATM   13  C8  UNL     1       0.713  33.434 103.760  1.00  0.00     0.273 C 
HETATM   14  C9  UNL     1       1.685  35.519 103.244  1.00  0.00     0.273 C 
BRANCH  12  15
HETATM   15  C10 UNL     1       2.884  33.547 102.922  1.00  0.00     0.370 C 
BRANCH  15  16
HETATM   16  N2  UNL     1       3.818  34.568 102.504  1.00  0.00    -0.120 NA
BRANCH  16  17
HETATM   17  N3  UNL     1       4.899  34.060 101.797  1.00  0.00    -0.347 N 
ATOM     18  H32 UNL     1       5.313  33.152 102.004  1.00  0.00     0.172 HD
ATOM     19  H31 UNL     1       5.224  34.687 101.061  1.00  0.00     0.172 HD
ENDBRANCH  16  17
ENDBRANCH  15  16
ENDBRANCH  12  15
ENDBRANCH  11  12
ENDBRANCH   1  11
TORSDOF 6
ENDMDL
MODEL 5
REMARK VINA RESULT: -6.528574455      2.725      3.599
REMARK  6 active torsions:
REMARK  status: ('A' for Active; 'I' for Inactive)
REMARK    1  A    between atoms: C5_5  and  C6_6 
REMARK    2  A    between atoms: C6_6  and  C7_7 
REMARK    3  A    between atoms: C7_7  and  N1_8 
REMARK    4  A    between atoms: N1_8  and  C10_11 
REMARK    5  A    between atoms: C10_11  and  N2_12 
REMARK    6  A    between atoms: N2_12  and  N3_13 
ROOT
HETATM    1  C6  UNL     1      -2.534  35.192 100.135  1.00  0.00     0.087 C 
ENDROOT
BRANCH   1   2
HETATM    2  C5  UNL     1      -3.736  34.953  99.341  1.00  0.00     0.034 C 
HETATM    3  C4  UNL     1      -4.899  34.834  99.961  1.00  0.00     0.027 C 
HETATM    4  C3  UNL     1      -6.246  34.592  99.392  1.00  0.00     0.011 C 
HETATM    5  C2  UNL     1      -6.577  34.314  98.149  1.00  0.00    -0.038 C 
HETATM    6  C1  UNL     1      -7.986  34.106  97.784  1.00  0.00     0.050 C 
HETATM    7  C11 UNL     1      -5.655  34.180  97.023  1.00  0.00     0.174 C 
HETATM    8  O1  UNL     1      -4.421  34.411  96.949  1.00  0.00    -0.250 OA
HETATM    9  N4  UNL     1      -3.582  34.858  97.920  1.00  0.00    -0.266 N 
ATOM     10  H4  UNL     1      -2.680  35.186  97.575  1.00  0.00     0.194 HD
ENDBRANCH   1   2
BRANCH   1  11
HETATM   11  C7  UNL     1      -2.730  35.074 101.609  1.00  0.00     0.244 C 
BRANCH  11  12
HETATM   12  N1  UNL     1      -1.550  35.515 102.316  1.00  0.00    -0.060 N 
HETATM   13  C8  UNL     1      -0.892  36.620 101.656  1.00  0.00     0.273 C 
HETATM   14  C9  UNL     1      -0.617  34.408 102.425  1.00  0.00     0.273 C 
BRANCH  12  15
HETATM   15  C10 UNL     1      -1.849  35.946 103.671  1.00  0.00     0.370 C 
BRANCH  15  16
HETATM   16  N2  UNL     1      -3.176  35.458 103.971  1.00  0.00    -0.120 NA
BRANCH  16  17
HETATM   17  N3  UNL     1      -3.217  34.655 105.102  1.00  0.00    -0.347 N 
ATOM     18  H32 UNL     1      -2.541  33.912 105.273  1.00  0.00     0.172 HD
ATOM     19  H31 UNL     1      -3.985  34.890 105.731  1.00  0.00     0.172 HD
ENDBRANCH  16  17
ENDBRANCH  15  16
ENDBRANCH  12  15
ENDBRANCH  11  12
ENDBRANCH   1  11
TORSDOF 6
ENDMDL
