MODEL 1
REMARK VINA RESULT: -7.417278005      0.000      0.000
REMARK  6 active torsions:
REMARK  status: ('A' for Active; 'I' for Inactive)
REMARK    1  A    between atoms: N2_7  and  C5_8 
REMARK    2  A    between atoms: C5_8  and  C6_9 
REMARK    3  A    between atoms: C6_9  and  N3_10 
REMARK    4  A    between atoms: C6_9  and  C7_14 
REMARK    5  A    between atoms: C7_14  and  C8_15 
REMARK    6  A    between atoms: C10_21  and  O1_22 
ROOT
HETATM    1  C6  UNL     1       0.408  35.490 101.608  1.00  0.00     0.206 C 
ENDROOT
BRANCH   1   2
HETATM    2  C5  UNL     1       0.813  36.395 102.710  1.00  0.00     0.162 C 
BRANCH   2   3
HETATM    3  N2  UNL     1       0.981  37.772 102.436  1.00  0.00    -0.344 N 
HETATM    4  C2  UNL     1       0.016  38.701 102.390  1.00  0.00     0.024 A 
HETATM    5  C1  UNL     1      -1.449  38.565 102.567  1.00  0.00     0.070 C 
HETATM    6  C3  UNL     1       0.627  39.925 102.106  1.00  0.00     0.113 A 
HETATM    7  N1  UNL     1       1.949  39.729 101.982  1.00  0.00    -0.360 N 
HETATM    8  C4  UNL     1       2.149  38.415 102.186  1.00  0.00     0.183 A 
ATOM      9  H1  UNL     1       2.657  40.433 101.775  1.00  0.00     0.166 HD
ENDBRANCH   2   3
ENDBRANCH   1   2
BRANCH   1  10
HETATM   10  N3  UNL     1       1.425  34.502 101.276  1.00  0.00    -0.073 N 
ATOM     11  H33 UNL     1       2.093  34.881 100.604  1.00  0.00     0.274 HD
ATOM     12  H32 UNL     1       2.052  34.346 102.066  1.00  0.00     0.274 HD
ATOM     13  H31 UNL     1       1.034  33.622 100.942  1.00  0.00     0.274 HD
ENDBRANCH   1  10
BRANCH   1  14
HETATM   14  C7  UNL     1      -0.967  34.916 101.683  1.00  0.00     0.079 C 
BRANCH  14  15
HETATM   15  C8  UNL     1      -1.342  34.728 103.118  1.00  0.00     0.013 A 
HETATM   16  C9  UNL     1      -2.374  35.389 103.746  1.00  0.00     0.118 A 
HETATM   17  N4  UNL     1      -2.426  34.961 105.012  1.00  0.00    -0.309 N 
HETATM   18  N5  UNL     1      -1.490  34.070 105.224  1.00  0.00    -0.280 N 
ATOM     19  H4  UNL     1      -3.097  35.283 105.710  1.00  0.00     0.186 HD
HETATM   20  C10 UNL     1      -0.807  33.906 104.080  1.00  0.00     0.162 A 
ATOM     21  H5  UNL     1      -1.311  33.586 106.104  1.00  0.00     0.189 HD
BRANCH  20  22
HETATM   22  O1  UNL     1       0.281  33.043 103.873  1.00  0.00    -0.345 OA
ATOM     23  H1  UNL     1       0.206  32.106 103.738  1.00  0.00     0.219 HD
ENDBRANCH  20  22
ENDBRANCH  14  15
ENDBRANCH   1  14
TORSDOF 6
ENDMDL
MODEL 2
REMARK VINA RESULT: -7.324892058      1.212      2.843
REMARK  6 active torsions:
REMARK  status: ('A' for Active; 'I' for Inactive)
REMARK    1  A    between atoms: N2_7  and  C5_8 
REMARK    2  A    between atoms: C5_8  and  C6_9 
REMARK    3  A    between atoms: C6_9  and  N3_10 
REMARK    4  A    between atoms: C6_9  and  C7_14 
REMARK    5  A    between atoms: C7_14  and  C8_15 
REMARK    6  A    between atoms: C10_21  and  O1_22 
ROOT
HETATM    1  C6  UNL     1      -1.467  35.692 104.043  1.00  0.00     0.206 C 
ENDROOT
BRANCH   1   2
HETATM    2  C5  UNL     1      -1.552  37.169 103.952  1.00  0.00     0.162 C 
BRANCH   2   3
HETATM    3  N2  UNL     1      -0.461  37.883 103.404  1.00  0.00    -0.344 N 
HETATM    4  C2  UNL     1      -0.530  38.947 102.592  1.00  0.00     0.024 A 
HETATM    5  C1  UNL     1      -1.710  39.638 102.023  1.00  0.00     0.070 C 
HETATM    6  C3  UNL     1       0.780  39.343 102.310  1.00  0.00     0.113 A 
HETATM    7  N1  UNL     1       1.626  38.520 102.948  1.00  0.00    -0.360 N 
HETATM    8  C4  UNL     1       0.857  37.637 103.610  1.00  0.00     0.183 A 
ATOM      9  H1  UNL     1       2.646  38.556 102.934  1.00  0.00     0.166 HD
ENDBRANCH   2   3
ENDBRANCH   1   2
BRANCH   1  10
HETATM   10  N3  UNL     1      -2.279  35.137 105.117  1.00  0.00    -0.073 N 
ATOM     11  H33 UNL     1      -2.298  35.766 105.920  1.00  0.00     0.274 HD
ATOM     12  H32 UNL     1      -3.269  35.152 104.869  1.00  0.00     0.274 HD
ATOM     13  H31 UNL     1      -1.988  34.201 105.396  1.00  0.00     0.274 HD
ENDBRANCH   1  10
BRANCH   1  14
HETATM   14  C7  UNL     1      -1.587  34.933 102.763  1.00  0.00     0.079 C 
BRANCH  14  15
HETATM   15  C8  UNL     1      -0.259  34.340 102.419  1.00  0.00     0.013 A 
HETATM   16  C9  UNL     1       0.349  34.453 101.189  1.00  0.00     0.118 A 
HETATM   17  N4  UNL     1       1.524  33.818 101.250  1.00  0.00    -0.309 N 
HETATM   18  N5  UNL     1       1.697  33.309 102.445  1.00  0.00    -0.280 N 
ATOM     19  H4  UNL     1       2.188  33.741 100.480  1.00  0.00     0.186 HD
HETATM   20  C10 UNL     1       0.619  33.612 103.185  1.00  0.00     0.162 A 
ATOM     21  H5  UNL     1       2.509  32.776 102.758  1.00  0.00     0.189 HD
BRANCH  20  22
HETATM   22  O1  UNL     1       0.399  33.255 104.525  1.00  0.00    -0.345 OA
ATOM     23  H1  UNL     1       1.062  33.283 105.205  1.00  0.00     0.219 HD
ENDBRANCH  20  22
ENDBRANCH  14  15
ENDBRANCH   1  14
TORSDOF 6
ENDMDL
MODEL 3
REMARK VINA RESULT: -7.174433340      1.696      2.237
REMARK  6 active torsions:
REMARK  status: ('A' for Active; 'I' for Inactive)
REMARK    1  A    between atoms: N2_7  and  C5_8 
REMARK    2  A    between atoms: C5_8  and  C6_9 
REMARK    3  A    between atoms: C6_9  and  N3_10 
REMARK    4  A    between atoms: C6_9  and  C7_14 
REMARK    5  A    between atoms: C7_14  and  C8_15 
REMARK    6  A    between atoms: C10_21  and  O1_22 
ROOT
HETATM    1  C6  UNL     1      -1.416  36.288 101.579  1.00  0.00     0.206 C 
ENDROOT
BRANCH   1   2
HETATM    2  C5  UNL     1      -1.168  37.184 102.732  1.00  0.00     0.162 C 
BRANCH   2   3
HETATM    3  N2  UNL     1      -0.146  38.158 102.633  1.00  0.00    -0.344 N 
HETATM    4  C2  UNL     1       1.141  38.003 102.977  1.00  0.00     0.024 A 
HETATM    5  C1  UNL     1       1.836  36.836 103.569  1.00  0.00     0.070 C 
HETATM    6  C3  UNL     1       1.794  39.205 102.697  1.00  0.00     0.113 A 
HETATM    7  N1  UNL     1       0.905  40.073 102.191  1.00  0.00    -0.360 N 
HETATM    8  C4  UNL     1      -0.271  39.421 102.157  1.00  0.00     0.183 A 
ATOM      9  H1  UNL     1       1.084  41.032 101.892  1.00  0.00     0.166 HD
ENDBRANCH   2   3
ENDBRANCH   1   2
BRANCH   1  10
HETATM   10  N3  UNL     1      -0.224  36.034 100.783  1.00  0.00    -0.073 N 
ATOM     11  H33 UNL     1       0.418  36.826 100.827  1.00  0.00     0.274 HD
ATOM     12  H32 UNL     1       0.360  35.321 101.222  1.00  0.00     0.274 HD
ATOM     13  H31 UNL     1      -0.432  35.789  99.816  1.00  0.00     0.274 HD
ENDBRANCH   1  10
BRANCH   1  14
HETATM   14  C7  UNL     1      -2.218  35.057 101.846  1.00  0.00     0.079 C 
BRANCH  14  15
HETATM   15  C8  UNL     1      -1.908  34.560 103.221  1.00  0.00     0.013 A 
HETATM   16  C9  UNL     1      -0.690  34.046 103.606  1.00  0.00     0.118 A 
HETATM   17  N4  UNL     1      -0.771  33.721 104.901  1.00  0.00    -0.309 N 
HETATM   18  N5  UNL     1      -1.966  33.998 105.359  1.00  0.00    -0.280 N 
ATOM     19  H4  UNL     1      -0.013  33.316 105.450  1.00  0.00     0.186 HD
HETATM   20  C10 UNL     1      -2.687  34.514 104.351  1.00  0.00     0.162 A 
ATOM     21  H5  UNL     1      -2.292  33.848 106.314  1.00  0.00     0.189 HD
BRANCH  20  22
HETATM   22  O1  UNL     1      -4.023  34.943 104.415  1.00  0.00    -0.345 OA
ATOM     23  H1  UNL     1      -4.503  35.315 103.684  1.00  0.00     0.219 HD
ENDBRANCH  20  22
ENDBRANCH  14  15
ENDBRANCH   1  14
TORSDOF 6
ENDMDL
MODEL 4
REMARK VINA RESULT: -7.159983509      1.236      1.529
REMARK  6 active torsions:
REMARK  status: ('A' for Active; 'I' for Inactive)
REMARK    1  A    between atoms: N2_7  and  C5_8 
REMARK    2  A    between atoms: C5_8  and  C6_9 
REMARK    3  A    between atoms: C6_9  and  N3_10 
REMARK    4  A    between atoms: C6_9  and  C7_14 
REMARK    5  A    between atoms: C7_14  and  C8_15 
REMARK    6  A    between atoms: C10_21  and  O1_22 
ROOT
HETATM    1  C6  UNL     1      -0.038  35.705 101.108  1.00  0.00     0.206 C 
ENDROOT
BRANCH   1   2
HETATM    2  C5  UNL     1       0.748  36.353 102.184  1.00  0.00     0.162 C 
BRANCH   2   3
HETATM    3  N2  UNL     1       0.897  37.759 102.169  1.00  0.00    -0.344 N 
HETATM    4  C2  UNL     1      -0.067  38.667 102.377  1.00  0.00     0.024 A 
HETATM    5  C1  UNL     1      -1.514  38.480 102.635  1.00  0.00     0.070 C 
HETATM    6  C3  UNL     1       0.523  39.930 102.289  1.00  0.00     0.113 A 
HETATM    7  N1  UNL     1       1.831  39.779 102.030  1.00  0.00    -0.360 N 
HETATM    8  C4  UNL     1       2.043  38.453 101.960  1.00  0.00     0.183 A 
ATOM      9  H1  UNL     1       2.523  40.519 101.909  1.00  0.00     0.166 HD
ENDBRANCH   2   3
ENDBRANCH   1   2
BRANCH   1  10
HETATM   10  N3  UNL     1       0.785  34.958 100.168  1.00  0.00    -0.073 N 
ATOM     11  H33 UNL     1       1.142  34.103 100.598  1.00  0.00     0.274 HD
ATOM     12  H32 UNL     1       0.212  34.547  99.430  1.00  0.00     0.274 HD
ATOM     13  H31 UNL     1       1.546  35.510  99.773  1.00  0.00     0.274 HD
ENDBRANCH   1  10
BRANCH   1  14
HETATM   14  C7  UNL     1      -1.269  34.971 101.525  1.00  0.00     0.079 C 
BRANCH  14  15
HETATM   15  C8  UNL     1      -1.132  34.559 102.955  1.00  0.00     0.013 A 
HETATM   16  C9  UNL     1      -0.105  33.784 103.447  1.00  0.00     0.118 A 
HETATM   17  N4  UNL     1      -0.297  33.632 104.761  1.00  0.00    -0.309 N 
HETATM   18  N5  UNL     1      -1.384  34.262 105.132  1.00  0.00    -0.280 N 
ATOM     19  H4  UNL     1       0.313  33.102 105.383  1.00  0.00     0.186 HD
HETATM   20  C10 UNL     1      -1.919  34.840 104.045  1.00  0.00     0.162 A 
ATOM     21  H5  UNL     1      -1.757  34.306 106.080  1.00  0.00     0.189 HD
BRANCH  20  22
HETATM   22  O1  UNL     1      -3.091  35.612 104.002  1.00  0.00    -0.345 OA
ATOM     23  H1  UNL     1      -3.922  35.308 103.656  1.00  0.00     0.219 HD
ENDBRANCH  20  22
ENDBRANCH  14  15
ENDBRANCH   1  14
TORSDOF 6
ENDMDL
MODEL 5
REMARK VINA RESULT: -7.110030849      2.660      4.891
REMARK  6 active torsions:
REMARK  status: ('A' for Active; 'I' for Inactive)
REMARK    1  A    between atoms: N2_7  and  C5_8 
REMARK    2  A    between atoms: C5_8  and  C6_9 
REMARK    3  A    between atoms: C6_9  and  N3_10 
REMARK    4  A    between atoms: C6_9  and  C7_14 
REMARK    5  A    between atoms: C7_14  and  C8_15 
REMARK    6  A    between atoms: C10_21  and  O1_22 
ROOT
HETATM    1  C6  UNL     1       2.165  35.482 103.546  1.00  0.00     0.206 C 
ENDROOT
BRANCH   1   2
HETATM    2  C5  UNL     1       1.663  34.647 102.430  1.00  0.00     0.162 C 
BRANCH   2   3
HETATM    3  N2  UNL     1       0.352  34.868 101.947  1.00  0.00    -0.344 N 
HETATM    4  C2  UNL     1      -0.793  34.571 102.578  1.00  0.00     0.024 A 
HETATM    5  C1  UNL     1      -1.017  33.919 103.890  1.00  0.00     0.070 C 
HETATM    6  C3  UNL     1      -1.843  34.974 101.750  1.00  0.00     0.113 A 
HETATM    7  N1  UNL     1      -1.330  35.508 100.631  1.00  0.00    -0.360 N 
HETATM    8  C4  UNL     1       0.006  35.437 100.766  1.00  0.00     0.183 A 
ATOM      9  H1  UNL     1      -1.848  35.890  99.840  1.00  0.00     0.166 HD
ENDBRANCH   2   3
ENDBRANCH   1   2
BRANCH   1  10
HETATM   10  N3  UNL     1       2.693  34.699 104.654  1.00  0.00    -0.073 N 
ATOM     11  H33 UNL     1       1.944  34.413 105.286  1.00  0.00     0.274 HD
ATOM     12  H32 UNL     1       3.002  33.780 104.335  1.00  0.00     0.274 HD
ATOM     13  H31 UNL     1       3.436  35.176 105.164  1.00  0.00     0.274 HD
ENDBRANCH   1  10
BRANCH   1  14
HETATM   14  C7  UNL     1       3.031  36.641 103.180  1.00  0.00     0.079 C 
BRANCH  14  15
HETATM   15  C8  UNL     1       2.170  37.838 102.934  1.00  0.00     0.013 A 
HETATM   16  C9  UNL     1       1.062  38.166 103.684  1.00  0.00     0.118 A 
HETATM   17  N4  UNL     1       0.553  39.300 103.191  1.00  0.00    -0.309 N 
HETATM   18  N5  UNL     1       1.270  39.710 102.175  1.00  0.00    -0.280 N 
ATOM     19  H4  UNL     1      -0.274  39.775 103.554  1.00  0.00     0.186 HD
HETATM   20  C10 UNL     1       2.270  38.832 101.993  1.00  0.00     0.162 A 
ATOM     21  H5  UNL     1       1.100  40.548 101.620  1.00  0.00     0.189 HD
BRANCH  20  22
HETATM   22  O1  UNL     1       3.268  38.897 101.007  1.00  0.00    -0.345 OA
ATOM     23  H1  UNL     1       3.567  39.699 100.595  1.00  0.00     0.219 HD
ENDBRANCH  20  22
ENDBRANCH  14  15
ENDBRANCH   1  14
TORSDOF 6
ENDMDL
