MODEL 1
REMARK VINA RESULT: -6.535383873      0.000      0.000
REMARK  8 active torsions:
REMARK  status: ('A' for Active; 'I' for Inactive)
REMARK    1  A    between atoms: C3_3  and  C4_4 
REMARK    2  A    between atoms: C4_4  and  C5_5 
REMARK    3  A    between atoms: C5_5  and  N1_6 
REMARK    4  A    between atoms: N1_6  and  C6_8 
REMARK    5  A    between atoms: C9_15  and  N4_16 
REMARK    6  A    between atoms: N4_16  and  C10_18 
REMARK    7  A    between atoms: C10_18  and  C11_19 
REMARK    8  A    between atoms: C11_19  and  N5_20 
ROOT
HETATM    1  C1  UNL     1       0.052  34.832  99.341  1.00  0.00     0.112 C 
HETATM    2  C2  UNL     1      -0.676  34.877 100.623  1.00  0.00    -0.111 C 
HETATM    3  C3  UNL     1      -1.256  34.904 101.679  1.00  0.00    -0.105 C 
ENDROOT
BRANCH   3   4
HETATM    4  C4  UNL     1      -1.949  34.923 102.986  1.00  0.00     0.113 C 
BRANCH   4   5
HETATM    5  C5  UNL     1      -1.938  36.346 103.467  1.00  0.00     0.133 C 
BRANCH   5   6
HETATM    6  N1  UNL     1      -0.702  36.679 104.160  1.00  0.00    -0.372 N 
ATOM      7  H1  UNL     1      -0.534  36.367 105.116  1.00  0.00     0.161 HD
BRANCH   6   8
HETATM    8  C6  UNL     1       0.175  37.382 103.527  1.00  0.00     0.145 A 
HETATM    9  N2  UNL     1      -0.106  38.619 103.027  1.00  0.00    -0.348 N 
HETATM   10  C7  UNL     1       0.796  39.346 102.373  1.00  0.00     0.107 A 
ATOM     11  H2  UNL     1      -1.042  39.002 103.159  1.00  0.00     0.167 HD
HETATM   12  C8  UNL     1       2.061  38.849 102.185  1.00  0.00     0.107 A 
HETATM   13  N3  UNL     1       2.394  37.617 102.664  1.00  0.00    -0.348 N 
HETATM   14  C9  UNL     1       1.461  36.912 103.318  1.00  0.00     0.145 A 
ATOM     15  H3  UNL     1       3.333  37.240 102.529  1.00  0.00     0.167 HD
BRANCH  14  16
HETATM   16  N4  UNL     1       1.769  35.753 103.771  1.00  0.00    -0.372 N 
ATOM     17  H4  UNL     1       1.661  35.609 104.774  1.00  0.00     0.161 HD
BRANCH  16  18
HETATM   18  C10 UNL     1       2.246  34.646 103.008  1.00  0.00     0.148 C 
BRANCH  18  19
HETATM   19  C11 UNL     1       1.575  33.342 103.385  1.00  0.00     0.249 C 
BRANCH  19  20
HETATM   20  N5  UNL     1       0.990  33.390 104.698  1.00  0.00    -0.078 N 
ATOM     21  H53 UNL     1       1.430  34.110 105.271  1.00  0.00     0.274 HD
ATOM     22  H52 UNL     1       0.042  33.763 104.666  1.00  0.00     0.274 HD
ATOM     23  H51 UNL     1       1.014  32.483 105.164  1.00  0.00     0.274 HD
ENDBRANCH  19  20
ENDBRANCH  18  19
ENDBRANCH  16  18
ENDBRANCH  14  16
ENDBRANCH   6   8
ENDBRANCH   5   6
ENDBRANCH   4   5
ENDBRANCH   3   4
TORSDOF 8
ENDMDL
MODEL 2
REMARK VINA RESULT: -6.453606438      1.004      2.719
REMARK  8 active torsions:
REMARK  status: ('A' for Active; 'I' for Inactive)
REMARK    1  A    between atoms: C3_3  and  C4_4 
REMARK    2  A    between atoms: C4_4  and  C5_5 
REMARK    3  A    between atoms: C5_5  and  N1_6 
REMARK    4  A    between atoms: N1_6  and  C6_8 
REMARK    5  A    between atoms: C9_15  and  N4_16 
REMARK    6  A    between atoms: N4_16  and  C10_18 
REMARK    7  A    between atoms: C10_18  and  C11_19 
REMARK    8  A    between atoms: C11_19  and  N5_20 
ROOT
HETATM    1  C1  UNL     1      -0.023  34.738  98.877  1.00  0.00     0.112 C 
HETATM    2  C2  UNL     1       0.486  34.433 100.227  1.00  0.00    -0.111 C 
HETATM    3  C3  UNL     1       0.920  34.181 101.323  1.00  0.00    -0.105 C 
ENDROOT
BRANCH   3   4
HETATM    4  C4  UNL     1       1.477  33.871 102.657  1.00  0.00     0.113 C 
BRANCH   4   5
HETATM    5  C5  UNL     1       2.434  34.977 103.000  1.00  0.00     0.133 C 
BRANCH   5   6
HETATM    6  N1  UNL     1       1.848  35.940 103.922  1.00  0.00    -0.372 N 
ATOM      7  H1  UNL     1       1.797  35.747 104.923  1.00  0.00     0.161 HD
BRANCH   6   8
HETATM    8  C6  UNL     1       1.396  37.045 103.435  1.00  0.00     0.145 A 
HETATM    9  N2  UNL     1       2.203  37.950 102.812  1.00  0.00    -0.348 N 
HETATM   10  C7  UNL     1       1.740  39.092 102.309  1.00  0.00     0.107 A 
ATOM     11  H2  UNL     1       3.199  37.745 102.727  1.00  0.00     0.167 HD
HETATM   12  C8  UNL     1       0.404  39.386 102.411  1.00  0.00     0.107 A 
HETATM   13  N3  UNL     1      -0.447  38.515 103.026  1.00  0.00    -0.348 N 
HETATM   14  C9  UNL     1       0.054  37.376 103.521  1.00  0.00     0.145 A 
ATOM     15  H3  UNL     1      -1.442  38.727 103.106  1.00  0.00     0.167 HD
BRANCH  14  16
HETATM   16  N4  UNL     1      -0.741  36.554 104.099  1.00  0.00    -0.372 N 
ATOM     17  H4  UNL     1      -0.532  36.317 105.069  1.00  0.00     0.161 HD
BRANCH  16  18
HETATM   18  C10 UNL     1      -1.890  35.938 103.520  1.00  0.00     0.148 C 
BRANCH  18  19
HETATM   19  C11 UNL     1      -2.018  34.474 103.887  1.00  0.00     0.249 C 
BRANCH  19  20
HETATM   20  N5  UNL     1      -1.376  34.167 105.137  1.00  0.00    -0.078 N 
ATOM     21  H53 UNL     1      -0.782  33.343 105.054  1.00  0.00     0.274 HD
ATOM     22  H52 UNL     1      -0.663  34.860 105.364  1.00  0.00     0.274 HD
ATOM     23  H51 UNL     1      -2.046  34.064 105.899  1.00  0.00     0.274 HD
ENDBRANCH  19  20
ENDBRANCH  18  19
ENDBRANCH  16  18
ENDBRANCH  14  16
ENDBRANCH   6   8
ENDBRANCH   5   6
ENDBRANCH   4   5
ENDBRANCH   3   4
TORSDOF 8
ENDMDL
MODEL 3
REMARK VINA RESULT: -6.331067361      1.508      4.034
REMARK  8 active torsions:
REMARK  status: ('A' for Active; 'I' for Inactive)
REMARK    1  A    between atoms: C3_3  and  C4_4 
REMARK    2  A    between atoms: C4_4  and  C5_5 
REMARK    3  A    between atoms: C5_5  and  N1_6 
REMARK    4  A    between atoms: N1_6  and  C6_8 
REMARK    5  A    between atoms: C9_15  and  N4_16 
REMARK    6  A    between atoms: N4_16  and  C10_18 
REMARK    7  A    between atoms: C10_18  and  C11_19 
REMARK    8  A    between atoms: C11_19  and  N5_20 
ROOT
HETATM    1  C1  UNL     1      -3.002  34.054 104.386  1.00  0.00     0.112 C 
HETATM    2  C2  UNL     1      -2.650  34.551 103.042  1.00  0.00    -0.111 C 
HETATM    3  C3  UNL     1      -2.350  34.969 101.952  1.00  0.00    -0.105 C 
ENDROOT
BRANCH   3   4
HETATM    4  C4  UNL     1      -1.965  35.499 100.627  1.00  0.00     0.113 C 
BRANCH   4   5
HETATM    5  C5  UNL     1      -0.659  34.856 100.260  1.00  0.00     0.133 C 
BRANCH   5   6
HETATM    6  N1  UNL     1       0.478  35.557 100.840  1.00  0.00    -0.372 N 
ATOM      7  H1  UNL     1       0.805  36.441 100.450  1.00  0.00     0.161 HD
BRANCH   6   8
HETATM    8  C6  UNL     1       1.059  35.025 101.862  1.00  0.00     0.145 A 
HETATM    9  N2  UNL     1       1.187  33.676 102.005  1.00  0.00    -0.348 N 
HETATM   10  C7  UNL     1       1.784  33.125 103.059  1.00  0.00     0.107 A 
ATOM     11  H2  UNL     1       0.812  33.066 101.279  1.00  0.00     0.167 HD
HETATM   12  C8  UNL     1       2.296  33.928 104.046  1.00  0.00     0.107 A 
HETATM   13  N3  UNL     1       2.194  35.284 103.952  1.00  0.00    -0.348 N 
HETATM   14  C9  UNL     1       1.586  35.805 102.878  1.00  0.00     0.145 A 
ATOM     15  H3  UNL     1       2.572  35.888 104.681  1.00  0.00     0.167 HD
BRANCH  14  16
HETATM   16  N4  UNL     1       1.487  37.079 102.783  1.00  0.00    -0.372 N 
ATOM     17  H4  UNL     1       1.986  37.523 102.013  1.00  0.00     0.161 HD
BRANCH  16  18
HETATM   18  C10 UNL     1       0.748  37.937 103.651  1.00  0.00     0.148 C 
BRANCH  18  19
HETATM   19  C11 UNL     1      -0.735  37.948 103.341  1.00  0.00     0.249 C 
BRANCH  19  20
HETATM   20  N5  UNL     1      -1.535  37.651 104.498  1.00  0.00    -0.078 N 
ATOM     21  H53 UNL     1      -1.096  36.933 105.076  1.00  0.00     0.274 HD
ATOM     22  H52 UNL     1      -1.523  38.424 105.163  1.00  0.00     0.274 HD
ATOM     23  H51 UNL     1      -2.490  37.392 104.251  1.00  0.00     0.274 HD
ENDBRANCH  19  20
ENDBRANCH  18  19
ENDBRANCH  16  18
ENDBRANCH  14  16
ENDBRANCH   6   8
ENDBRANCH   5   6
ENDBRANCH   4   5
ENDBRANCH   3   4
TORSDOF 8
ENDMDL
MODEL 4
REMARK VINA RESULT: -6.301885316      1.293      1.416
REMARK  8 active torsions:
REMARK  status: ('A' for Active; 'I' for Inactive)
REMARK    1  A    between atoms: C3_3  and  C4_4 
REMARK    2  A    between atoms: C4_4  and  C5_5 
REMARK    3  A    between atoms: C5_5  and  N1_6 
REMARK    4  A    between atoms: N1_6  and  C6_8 
REMARK    5  A    between atoms: C9_15  and  N4_16 
REMARK    6  A    between atoms: N4_16  and  C10_18 
REMARK    7  A    between atoms: C10_18  and  C11_19 
REMARK    8  A    between atoms: C11_19  and  N5_20 
ROOT
HETATM    1  C1  UNL     1      -4.384  35.190  99.052  1.00  0.00     0.112 C 
HETATM    2  C2  UNL     1      -3.316  35.190 100.069  1.00  0.00    -0.111 C 
HETATM    3  C3  UNL     1      -2.449  35.173 100.906  1.00  0.00    -0.105 C 
ENDROOT
BRANCH   3   4
HETATM    4  C4  UNL     1      -1.392  35.127 101.940  1.00  0.00     0.113 C 
BRANCH   4   5
HETATM    5  C5  UNL     1      -1.918  35.865 103.137  1.00  0.00     0.133 C 
BRANCH   5   6
HETATM    6  N1  UNL     1      -0.845  36.357 103.990  1.00  0.00    -0.372 N 
ATOM      7  H1  UNL     1      -0.747  36.031 104.952  1.00  0.00     0.161 HD
BRANCH   6   8
HETATM    8  C6  UNL     1      -0.024  37.218 103.492  1.00  0.00     0.145 A 
HETATM    9  N2  UNL     1      -0.438  38.421 103.003  1.00  0.00    -0.348 N 
HETATM   10  C7  UNL     1       0.407  39.310 102.488  1.00  0.00     0.107 A 
ATOM     11  H2  UNL     1      -1.432  38.648 103.032  1.00  0.00     0.167 HD
HETATM   12  C8  UNL     1       1.748  39.024 102.440  1.00  0.00     0.107 A 
HETATM   13  N3  UNL     1       2.215  37.834 102.916  1.00  0.00    -0.348 N 
HETATM   14  C9  UNL     1       1.336  36.962 103.427  1.00  0.00     0.145 A 
ATOM     15  H3  UNL     1       3.210  37.614 102.884  1.00  0.00     0.167 HD
BRANCH  14  16
HETATM   16  N4  UNL     1       1.769  35.843 103.876  1.00  0.00    -0.372 N 
ATOM     17  H4  UNL     1       1.748  35.714 104.887  1.00  0.00     0.161 HD
BRANCH  16  18
HETATM   18  C10 UNL     1       2.278  34.760 103.100  1.00  0.00     0.148 C 
BRANCH  18  19
HETATM   19  C11 UNL     1       1.542  33.460 103.353  1.00  0.00     0.249 C 
BRANCH  19  20
HETATM   20  N5  UNL     1       0.995  33.394 104.681  1.00  0.00    -0.078 N 
ATOM     21  H53 UNL     1       1.607  33.854 105.355  1.00  0.00     0.274 HD
ATOM     22  H52 UNL     1       0.174  33.992 104.772  1.00  0.00     0.274 HD
ATOM     23  H51 UNL     1       0.787  32.437 104.965  1.00  0.00     0.274 HD
ENDBRANCH  19  20
ENDBRANCH  18  19
ENDBRANCH  16  18
ENDBRANCH  14  16
ENDBRANCH   6   8
ENDBRANCH   5   6
ENDBRANCH   4   5
ENDBRANCH   3   4
TORSDOF 8
ENDMDL
MODEL 5
REMARK VINA RESULT: -6.230281269      1.337      1.504
REMARK  8 active torsions:
REMARK  status: ('A' for Active; 'I' for Inactive)
REMARK    1  A    between atoms: C3_3  and  C4_4 
REMARK    2  A    between atoms: C4_4  and  C5_5 
REMARK    3  A    between atoms: C5_5  and  N1_6 
REMARK    4  A    between atoms: N1_6  and  C6_8 
REMARK    5  A    between atoms: C9_15  and  N4_16 
REMARK    6  A    between atoms: N4_16  and  C10_18 
REMARK    7  A    between atoms: C10_18  and  C11_19 
REMARK    8  A    between atoms: C11_19  and  N5_20 
ROOT
HETATM    1  C1  UNL     1      -3.598  35.214  99.144  1.00  0.00     0.112 C 
HETATM    2  C2  UNL     1      -2.916  35.144 100.451  1.00  0.00    -0.111 C 
HETATM    3  C3  UNL     1      -2.372  35.073 101.524  1.00  0.00    -0.105 C 
ENDROOT
BRANCH   3   4
HETATM    4  C4  UNL     1      -1.722  34.966 102.848  1.00  0.00     0.113 C 
BRANCH   4   5
HETATM    5  C5  UNL     1      -1.861  36.305 103.513  1.00  0.00     0.133 C 
BRANCH   5   6
HETATM    6  N1  UNL     1      -0.637  36.710 104.190  1.00  0.00    -0.372 N 
ATOM      7  H1  UNL     1      -0.456  36.440 105.157  1.00  0.00     0.161 HD
BRANCH   6   8
HETATM    8  C6  UNL     1       0.213  37.420 103.528  1.00  0.00     0.145 A 
HETATM    9  N2  UNL     1      -0.092  38.658 103.046  1.00  0.00    -0.348 N 
HETATM   10  C7  UNL     1       0.782  39.392 102.362  1.00  0.00     0.107 A 
ATOM     11  H2  UNL     1      -1.024  39.036 103.215  1.00  0.00     0.167 HD
HETATM   12  C8  UNL     1       2.041  38.901 102.124  1.00  0.00     0.107 A 
HETATM   13  N3  UNL     1       2.397  37.668 102.584  1.00  0.00    -0.348 N 
HETATM   14  C9  UNL     1       1.492  36.956 103.268  1.00  0.00     0.145 A 
ATOM     15  H3  UNL     1       3.331  37.297 102.411  1.00  0.00     0.167 HD
BRANCH  14  16
HETATM   16  N4  UNL     1       1.821  35.797 103.703  1.00  0.00    -0.372 N 
ATOM     17  H4  UNL     1       1.522  35.558 104.648  1.00  0.00     0.161 HD
BRANCH  16  18
HETATM   18  C10 UNL     1       2.565  34.807 102.994  1.00  0.00     0.148 C 
BRANCH  18  19
HETATM   19  C11 UNL     1       1.679  33.788 102.307  1.00  0.00     0.249 C 
BRANCH  19  20
HETATM   20  N5  UNL     1       1.335  34.182 100.967  1.00  0.00    -0.078 N 
ATOM     21  H53 UNL     1       2.137  34.102 100.342  1.00  0.00     0.274 HD
ATOM     22  H52 UNL     1       0.718  33.498 100.529  1.00  0.00     0.274 HD
ATOM     23  H51 UNL     1       0.931  35.117 100.932  1.00  0.00     0.274 HD
ENDBRANCH  19  20
ENDBRANCH  18  19
ENDBRANCH  16  18
ENDBRANCH  14  16
ENDBRANCH   6   8
ENDBRANCH   5   6
ENDBRANCH   4   5
ENDBRANCH   3   4
TORSDOF 8
ENDMDL
