MODEL 1
REMARK VINA RESULT: -7.612768546      0.000      0.000
REMARK  4 active torsions:
REMARK  status: ('A' for Active; 'I' for Inactive)
REMARK    1  A    between atoms: C2_7  and  N3_8 
REMARK    2  A    between atoms: N3_8  and  C3_10 
REMARK    3  A    between atoms: C3_10  and  C4_11 
REMARK    4  A    between atoms: C4_11  and  C5_12 
ROOT
HETATM    1  N3  UNL     1       0.772  33.932 100.814  1.00  0.00    -0.224 N 
ATOM      2  H3  UNL     1       0.631  33.001 100.423  1.00  0.00     0.177 HD
ENDROOT
BRANCH   1   3
HETATM    3  C2  UNL     1       1.489  34.077 101.878  1.00  0.00     0.696 A 
HETATM    4  N2  UNL     1       2.168  35.182 102.232  1.00  0.00    -0.128 N 
HETATM    5  N1  UNL     1       2.774  34.920 103.394  1.00  0.00    -0.237 N 
ATOM      6  H2  UNL     1       2.212  36.058 101.711  1.00  0.00     0.205 HD
HETATM    7  C1  UNL     1       2.495  33.664 103.792  1.00  0.00     0.353 A 
ATOM      8  H1  UNL     1       3.364  35.577 103.905  1.00  0.00     0.192 HD
HETATM    9  O1  UNL     1       2.910  33.108 104.843  1.00  0.00    -0.245 OA
HETATM   10  N5  UNL     1       1.689  33.158 102.828  1.00  0.00    -0.139 N 
ATOM     11  H5  UNL     1       1.295  32.217 102.827  1.00  0.00     0.189 HD
ENDBRANCH   1   3
BRANCH   1  12
HETATM   12  C3  UNL     1       0.166  35.079 100.170  1.00  0.00     0.142 C 
BRANCH  12  13
HETATM   13  C4  UNL     1      -1.309  35.074 100.509  1.00  0.00     0.058 C 
BRANCH  13  14
HETATM   14  C5  UNL     1      -1.550  35.532 101.906  1.00  0.00    -0.054 A 
HETATM   15  C6  UNL     1      -1.253  36.738 102.336  1.00  0.00     0.024 A 
HETATM   16  C7  UNL     1      -1.524  37.094 103.714  1.00  0.00     0.088 A 
HETATM   17  N4  UNL     1      -2.054  36.249 104.532  1.00  0.00    -0.375 N 
HETATM   18  C8  UNL     1      -2.387  34.940 104.099  1.00  0.00     0.088 A 
ATOM     19  H4  UNL     1      -2.235  36.524 105.497  1.00  0.00     0.164 HD
HETATM   20  C9  UNL     1      -2.148  34.607 102.861  1.00  0.00     0.024 A 
ENDBRANCH  13  14
ENDBRANCH  12  13
ENDBRANCH   1  12
TORSDOF 4
ENDMDL
MODEL 2
REMARK VINA RESULT: -7.595926468      0.201      1.234
REMARK  4 active torsions:
REMARK  status: ('A' for Active; 'I' for Inactive)
REMARK    1  A    between atoms: C2_7  and  N3_8 
REMARK    2  A    between atoms: N3_8  and  C3_10 
REMARK    3  A    between atoms: C3_10  and  C4_11 
REMARK    4  A    between atoms: C4_11  and  C5_12 
ROOT
HETATM    1  N3  UNL     1       0.737  33.976 100.841  1.00  0.00    -0.224 N 
ATOM      2  H3  UNL     1       0.604  33.061 100.411  1.00  0.00     0.177 HD
ENDROOT
BRANCH   1   3
HETATM    3  C2  UNL     1       1.488  34.089 101.885  1.00  0.00     0.696 A 
HETATM    4  N2  UNL     1       2.223  35.164 102.221  1.00  0.00    -0.128 N 
HETATM    5  N1  UNL     1       2.848  34.875 103.365  1.00  0.00    -0.237 N 
ATOM      6  H2  UNL     1       2.290  36.037 101.699  1.00  0.00     0.205 HD
HETATM    7  C1  UNL     1       2.527  33.632 103.771  1.00  0.00     0.353 A 
ATOM      8  H1  UNL     1       3.479  35.505 103.860  1.00  0.00     0.192 HD
HETATM    9  O1  UNL     1       2.946  33.057 104.810  1.00  0.00    -0.245 OA
HETATM   10  N5  UNL     1       1.675  33.161 102.829  1.00  0.00    -0.139 N 
ATOM     11  H5  UNL     1       1.241  32.238 102.838  1.00  0.00     0.189 HD
ENDBRANCH   1   3
BRANCH   1  12
HETATM   12  C3  UNL     1       0.083  35.136 100.273  1.00  0.00     0.142 C 
BRANCH  12  13
HETATM   13  C4  UNL     1      -1.387  35.057 100.625  1.00  0.00     0.058 C 
BRANCH  13  14
HETATM   14  C5  UNL     1      -1.616  35.310 102.075  1.00  0.00    -0.054 A 
HETATM   15  C6  UNL     1      -2.088  34.405 102.903  1.00  0.00     0.024 A 
HETATM   16  C7  UNL     1      -2.278  34.742 104.300  1.00  0.00     0.088 A 
HETATM   17  N4  UNL     1      -1.992  35.916 104.750  1.00  0.00    -0.375 N 
HETATM   18  C8  UNL     1      -1.480  36.915 103.882  1.00  0.00     0.088 A 
ATOM     19  H4  UNL     1      -2.135  36.128 105.737  1.00  0.00     0.164 HD
HETATM   20  C9  UNL     1      -1.304  36.624 102.623  1.00  0.00     0.024 A 
ENDBRANCH  13  14
ENDBRANCH  12  13
ENDBRANCH   1  12
TORSDOF 4
ENDMDL
MODEL 3
REMARK VINA RESULT: -7.521581853      2.318      4.467
REMARK  4 active torsions:
REMARK  status: ('A' for Active; 'I' for Inactive)
REMARK    1  A    between atoms: C2_7  and  N3_8 
REMARK    2  A    between atoms: N3_8  and  C3_10 
REMARK    3  A    between atoms: C3_10  and  C4_11 
REMARK    4  A    between atoms: C4_11  and  C5_12 
ROOT
HETATM    1  N3  UNL     1      -1.966  36.100 101.850  1.00  0.00    -0.224 N 
ATOM      2  H3  UNL     1      -2.745  36.376 101.253  1.00  0.00     0.177 HD
ENDROOT
BRANCH   1   3
HETATM    3  C2  UNL     1      -2.201  35.589 103.011  1.00  0.00     0.696 A 
HETATM    4  N2  UNL     1      -1.832  36.108 104.196  1.00  0.00    -0.128 N 
HETATM    5  N1  UNL     1      -2.266  35.277 105.147  1.00  0.00    -0.237 N 
ATOM      6  H2  UNL     1      -1.315  36.975 104.341  1.00  0.00     0.205 HD
HETATM    7  C1  UNL     1      -2.910  34.232 104.593  1.00  0.00     0.353 A 
ATOM      8  H1  UNL     1      -2.130  35.414 106.148  1.00  0.00     0.192 HD
HETATM    9  O1  UNL     1      -3.440  33.271 105.212  1.00  0.00    -0.245 OA
HETATM   10  N5  UNL     1      -2.856  34.450 103.257  1.00  0.00    -0.139 N 
ATOM     11  H5  UNL     1      -3.255  33.838 102.546  1.00  0.00     0.189 HD
ENDBRANCH   1   3
BRANCH   1  12
HETATM   12  C3  UNL     1      -0.608  36.286 101.386  1.00  0.00     0.142 C 
BRANCH  12  13
HETATM   13  C4  UNL     1       0.043  34.922 101.300  1.00  0.00     0.058 C 
BRANCH  13  14
HETATM   14  C5  UNL     1       0.995  34.699 102.423  1.00  0.00    -0.054 A 
HETATM   15  C6  UNL     1       1.205  33.524 102.974  1.00  0.00     0.024 A 
HETATM   16  C7  UNL     1       2.151  33.403 104.064  1.00  0.00     0.088 A 
HETATM   17  N4  UNL     1       2.796  34.428 104.508  1.00  0.00    -0.375 N 
HETATM   18  C8  UNL     1       2.592  35.710 103.935  1.00  0.00     0.088 A 
ATOM     19  H4  UNL     1       3.457  34.316 105.277  1.00  0.00     0.164 HD
HETATM   20  C9  UNL     1       1.743  35.832 102.953  1.00  0.00     0.024 A 
ENDBRANCH  13  14
ENDBRANCH  12  13
ENDBRANCH   1  12
TORSDOF 4
ENDMDL
MODEL 4
REMARK VINA RESULT: -7.404278884      2.667      4.679
REMARK  4 active torsions:
REMARK  status: ('A' for Active; 'I' for Inactive)
REMARK    1  A    between atoms: C2_7  and  N3_8 
REMARK    2  A    between atoms: N3_8  and  C3_10 
REMARK    3  A    between atoms: C3_10  and  C4_11 
REMARK    4  A    between atoms: C4_11  and  C5_12 
ROOT
HETATM    1  N3  UNL     1      -1.873  36.741 104.288  1.00  0.00    -0.224 N 
ATOM      2  H3  UNL     1      -2.638  37.158 104.817  1.00  0.00     0.177 HD
ENDROOT
BRANCH   1   3
HETATM    3  C2  UNL     1      -0.980  37.501 103.750  1.00  0.00     0.696 A 
HETATM    4  N2  UNL     1       0.353  37.367 103.871  1.00  0.00    -0.128 N 
HETATM    5  N1  UNL     1       0.917  38.350 103.163  1.00  0.00    -0.237 N 
ATOM      6  H2  UNL     1       0.842  36.649 104.405  1.00  0.00     0.205 HD
HETATM    7  C1  UNL     1      -0.032  39.112 102.588  1.00  0.00     0.353 A 
ATOM      8  H1  UNL     1       1.921  38.501 103.072  1.00  0.00     0.192 HD
HETATM    9  O1  UNL     1       0.165  40.118 101.855  1.00  0.00    -0.245 OA
HETATM   10  N5  UNL     1      -1.209  38.561 102.969  1.00  0.00    -0.139 N 
ATOM     11  H5  UNL     1      -2.132  38.903 102.701  1.00  0.00     0.189 HD
ENDBRANCH   1   3
BRANCH   1  12
HETATM   12  C3  UNL     1      -1.798  35.301 104.151  1.00  0.00     0.142 C 
BRANCH  12  13
HETATM   13  C4  UNL     1      -2.274  34.945 102.759  1.00  0.00     0.058 C 
BRANCH  13  14
HETATM   14  C5  UNL     1      -1.132  34.768 101.820  1.00  0.00    -0.054 A 
HETATM   15  C6  UNL     1      -1.187  35.078 100.544  1.00  0.00     0.024 A 
HETATM   16  C7  UNL     1      -0.023  34.870  99.705  1.00  0.00     0.088 A 
HETATM   17  N4  UNL     1       1.071  34.385 100.186  1.00  0.00    -0.375 N 
HETATM   18  C8  UNL     1       1.163  34.041 101.560  1.00  0.00     0.088 A 
ATOM     19  H4  UNL     1       1.876  34.248  99.575  1.00  0.00     0.164 HD
HETATM   20  C9  UNL     1       0.123  34.223 102.325  1.00  0.00     0.024 A 
ENDBRANCH  13  14
ENDBRANCH  12  13
ENDBRANCH   1  12
TORSDOF 4
ENDMDL
MODEL 5
REMARK VINA RESULT: -7.371249686      3.165      4.484
REMARK  4 active torsions:
REMARK  status: ('A' for Active; 'I' for Inactive)
REMARK    1  A    between atoms: C2_7  and  N3_8 
REMARK    2  A    between atoms: N3_8  and  C3_10 
REMARK    3  A    between atoms: C3_10  and  C4_11 
REMARK    4  A    between atoms: C4_11  and  C5_12 
ROOT
HETATM    1  N3  UNL     1       0.138  33.831 103.335  1.00  0.00    -0.224 N 
ATOM      2  H3  UNL     1       0.597  32.974 103.644  1.00  0.00     0.177 HD
ENDROOT
BRANCH   1   3
HETATM    3  C2  UNL     1      -1.037  34.123 103.781  1.00  0.00     0.696 A 
HETATM    4  N2  UNL     1      -1.399  34.198 105.074  1.00  0.00    -0.128 N 
HETATM    5  N1  UNL     1      -2.693  34.526 105.106  1.00  0.00    -0.237 N 
ATOM      6  H2  UNL     1      -0.797  34.033 105.881  1.00  0.00     0.205 HD
HETATM    7  C1  UNL     1      -3.170  34.665 103.855  1.00  0.00     0.353 A 
ATOM      8  H1  UNL     1      -3.242  34.653 105.957  1.00  0.00     0.192 HD
HETATM    9  O1  UNL     1      -4.350  34.970 103.537  1.00  0.00    -0.245 OA
HETATM   10  N5  UNL     1      -2.115  34.408 103.044  1.00  0.00    -0.139 N 
ATOM     11  H5  UNL     1      -2.140  34.430 102.025  1.00  0.00     0.189 HD
ENDBRANCH   1   3
BRANCH   1  12
HETATM   12  C3  UNL     1       0.812  34.708 102.401  1.00  0.00     0.142 C 
BRANCH  12  13
HETATM   13  C4  UNL     1       1.636  35.692 103.202  1.00  0.00     0.058 C 
BRANCH  13  14
HETATM   14  C5  UNL     1       1.309  37.100 102.842  1.00  0.00    -0.054 A 
HETATM   15  C6  UNL     1       2.217  38.007 102.560  1.00  0.00     0.024 A 
HETATM   16  C7  UNL     1       1.804  39.353 102.220  1.00  0.00     0.088 A 
HETATM   17  N4  UNL     1       0.557  39.683 102.187  1.00  0.00    -0.375 N 
HETATM   18  C8  UNL     1      -0.448  38.727 102.485  1.00  0.00     0.088 A 
ATOM     19  H4  UNL     1       0.292  40.637 101.945  1.00  0.00     0.164 HD
HETATM   20  C9  UNL     1      -0.089  37.512 102.792  1.00  0.00     0.024 A 
ENDBRANCH  13  14
ENDBRANCH  12  13
ENDBRANCH   1  12
TORSDOF 4
ENDMDL
