MODEL 1
REMARK VINA RESULT: -6.845942145      0.000      0.000
REMARK  9 active torsions:
REMARK  status: ('A' for Active; 'I' for Inactive)
REMARK    1  A    between atoms: C2_2  and  C4_4 
REMARK    2  A    between atoms: C4_4  and  C5_5 
REMARK    3  A    between atoms: C5_5  and  C6_6 
REMARK    4  A    between atoms: C7_7  and  C9_9 
REMARK    5  A    between atoms: C9_9  and  O1_10 
REMARK    6  A    between atoms: C9_9  and  C10_12 
REMARK    7  A    between atoms: C13_16  and  C14_17 
REMARK    8  A    between atoms: C20_24  and  O4_25 
REMARK    9  A    between atoms: C21_27  and  O5_28 
ROOT
HETATM    1  C10 UNL     1      28.172   5.469  94.714  1.00  0.00     0.306 C 
HETATM    2  O2  UNL     1      29.313   4.960  95.315  1.00  0.00    -0.314 OA
HETATM    3  C11 UNL     1      28.936   4.394  96.540  1.00  0.00     0.109 A 
HETATM    4  C12 UNL     1      29.509   3.501  97.415  1.00  0.00     0.054 A 
HETATM    5  C13 UNL     1      28.851   3.083  98.608  1.00  0.00     0.013 A 
HETATM    6  C20 UNL     1      27.622   3.606  98.864  1.00  0.00     0.112 A 
HETATM    7  C21 UNL     1      27.029   4.514  97.991  1.00  0.00     0.136 A 
HETATM    8  C22 UNL     1      27.709   4.893  96.849  1.00  0.00     0.141 A 
HETATM    9  O6  UNL     1      27.324   5.781  95.856  1.00  0.00    -0.311 OA
ENDROOT
BRANCH   1  10
HETATM   10  C9  UNL     1      27.290   4.692  93.856  1.00  0.00     0.203 C 
BRANCH  10  11
HETATM   11  C7  UNL     1      27.747   4.292  92.493  1.00  0.00    -0.043 C 
HETATM   12  C6  UNL     1      29.017   4.010  92.276  1.00  0.00     0.060 C 
HETATM   13  C8  UNL     1      26.720   4.307  91.419  1.00  0.00     0.047 C 
BRANCH  12  14
HETATM   14  C5  UNL     1      29.733   3.686  91.160  1.00  0.00    -0.127 C 
BRANCH  14  15
HETATM   15  C4  UNL     1      30.433   3.406  90.144  1.00  0.00     0.061 C 
BRANCH  15  16
HETATM   16  C2  UNL     1      30.418   4.046  88.830  1.00  0.00    -0.064 C 
HETATM   17  C1  UNL     1      31.517   3.962  88.018  1.00  0.00     0.019 C 
HETATM   18  C3  UNL     1      29.251   4.659  88.170  1.00  0.00     0.048 C 
ENDBRANCH  15  16
ENDBRANCH  14  15
ENDBRANCH  12  14
ENDBRANCH  10  11
BRANCH  10  19
HETATM   19  O1  UNL     1      26.087   5.468  93.717  1.00  0.00    -0.386 OA
ATOM     20  H1  UNL     1      26.320   6.387  93.765  1.00  0.00     0.210 HD
ENDBRANCH  10  19
ENDBRANCH   1  10
BRANCH   7  21
HETATM   21  O5  UNL     1      25.777   5.000  98.286  1.00  0.00    -0.356 OA
ATOM     22  H5  UNL     1      25.055   4.389  98.366  1.00  0.00     0.218 HD
ENDBRANCH   7  21
BRANCH   5  23
HETATM   23  C14 UNL     1      29.425   1.975  99.382  1.00  0.00     0.001 C 
HETATM   24  C15 UNL     1      29.208   0.600  98.869  1.00  0.00     0.043 C 
HETATM   25  C16 UNL     1      30.406  -0.287  99.191  1.00  0.00     0.005 C 
HETATM   26  C17 UNL     1      30.798  -0.135 100.640  1.00  0.00     0.008 C 
HETATM   27  C18 UNL     1      31.393   1.204 100.892  1.00  0.00     0.083 C 
HETATM   28  C19 UNL     1      30.507   2.251 100.279  1.00  0.00     0.156 C 
HETATM   29  O3  UNL     1      30.782   3.417 100.603  1.00  0.00    -0.293 OA
ENDBRANCH   5  23
BRANCH   6  30
HETATM   30  O4  UNL     1      26.841   3.295 100.031  1.00  0.00    -0.357 OA
ATOM     31  H4  UNL     1      26.750   3.872 100.780  1.00  0.00     0.217 HD
ENDBRANCH   6  30
TORSDOF 9
ENDMDL
MODEL 2
REMARK VINA RESULT: -6.839751464      4.701      8.316
REMARK  9 active torsions:
REMARK  status: ('A' for Active; 'I' for Inactive)
REMARK    1  A    between atoms: C2_2  and  C4_4 
REMARK    2  A    between atoms: C4_4  and  C5_5 
REMARK    3  A    between atoms: C5_5  and  C6_6 
REMARK    4  A    between atoms: C7_7  and  C9_9 
REMARK    5  A    between atoms: C9_9  and  O1_10 
REMARK    6  A    between atoms: C9_9  and  C10_12 
REMARK    7  A    between atoms: C13_16  and  C14_17 
REMARK    8  A    between atoms: C20_24  and  O4_25 
REMARK    9  A    between atoms: C21_27  and  O5_28 
ROOT
HETATM    1  C10 UNL     1      30.967   3.101  87.263  1.00  0.00     0.306 C 
HETATM    2  O2  UNL     1      30.372   4.197  87.871  1.00  0.00    -0.314 OA
HETATM    3  C11 UNL     1      29.355   3.722  88.710  1.00  0.00     0.109 A 
HETATM    4  C12 UNL     1      28.645   4.241  89.766  1.00  0.00     0.054 A 
HETATM    5  C13 UNL     1      27.657   3.484  90.460  1.00  0.00     0.013 A 
HETATM    6  C20 UNL     1      27.429   2.212  90.036  1.00  0.00     0.112 A 
HETATM    7  C21 UNL     1      28.137   1.671  88.966  1.00  0.00     0.136 A 
HETATM    8  C22 UNL     1      29.081   2.447  88.321  1.00  0.00     0.141 A 
HETATM    9  O6  UNL     1      29.886   2.126  87.238  1.00  0.00    -0.311 OA
ENDROOT
BRANCH   1  10
HETATM   10  C9  UNL     1      32.071   2.351  87.843  1.00  0.00     0.203 C 
BRANCH  10  11
HETATM   11  C7  UNL     1      32.500   2.629  89.244  1.00  0.00    -0.043 C 
HETATM   12  C6  UNL     1      31.982   1.941  90.244  1.00  0.00     0.060 C 
HETATM   13  C8  UNL     1      33.462   3.745  89.434  1.00  0.00     0.047 C 
BRANCH  12  14
HETATM   14  C5  UNL     1      32.119   2.004  91.601  1.00  0.00    -0.127 C 
BRANCH  14  15
HETATM   15  C4  UNL     1      32.211   2.034  92.863  1.00  0.00     0.061 C 
BRANCH  15  16
HETATM   16  C2  UNL     1      31.149   1.854  93.852  1.00  0.00    -0.064 C 
HETATM   17  C1  UNL     1      30.081   1.047  93.565  1.00  0.00     0.019 C 
HETATM   18  C3  UNL     1      31.169   2.321  95.250  1.00  0.00     0.048 C 
ENDBRANCH  15  16
ENDBRANCH  14  15
ENDBRANCH  12  14
ENDBRANCH  10  11
BRANCH  10  19
HETATM   19  O1  UNL     1      33.197   2.570  86.976  1.00  0.00    -0.386 OA
ATOM     20  H1  UNL     1      32.995   2.196  86.127  1.00  0.00     0.210 HD
ENDBRANCH  10  19
ENDBRANCH   1  10
BRANCH   7  21
HETATM   21  O5  UNL     1      27.881   0.374  88.588  1.00  0.00    -0.356 OA
ATOM     22  H5  UNL     1      28.158  -0.333  89.158  1.00  0.00     0.218 HD
ENDBRANCH   7  21
BRANCH   5  23
HETATM   23  C14 UNL     1      27.094   4.026  91.703  1.00  0.00     0.001 C 
HETATM   24  C15 UNL     1      27.966   4.031  92.902  1.00  0.00     0.043 C 
HETATM   25  C16 UNL     1      27.659   5.239  93.782  1.00  0.00     0.005 C 
HETATM   26  C17 UNL     1      26.172   5.368  93.998  1.00  0.00     0.008 C 
HETATM   27  C18 UNL     1      25.487   5.780  92.746  1.00  0.00     0.083 C 
HETATM   28  C19 UNL     1      25.971   4.911  91.619  1.00  0.00     0.156 C 
HETATM   29  O3  UNL     1      25.320   5.014  90.568  1.00  0.00    -0.293 OA
ENDBRANCH   5  23
BRANCH   6  30
HETATM   30  O4  UNL     1      26.456   1.330  90.623  1.00  0.00    -0.357 OA
ATOM     31  H4  UNL     1      25.697   0.994  90.163  1.00  0.00     0.217 HD
ENDBRANCH   6  30
TORSDOF 9
ENDMDL
MODEL 3
REMARK VINA RESULT: -6.783096067      4.782      9.340
REMARK  9 active torsions:
REMARK  status: ('A' for Active; 'I' for Inactive)
REMARK    1  A    between atoms: C2_2  and  C4_4 
REMARK    2  A    between atoms: C4_4  and  C5_5 
REMARK    3  A    between atoms: C5_5  and  C6_6 
REMARK    4  A    between atoms: C7_7  and  C9_9 
REMARK    5  A    between atoms: C9_9  and  O1_10 
REMARK    6  A    between atoms: C9_9  and  C10_12 
REMARK    7  A    between atoms: C13_16  and  C14_17 
REMARK    8  A    between atoms: C20_24  and  O4_25 
REMARK    9  A    between atoms: C21_27  and  O5_28 
ROOT
HETATM    1  C10 UNL     1      24.552   4.927  93.703  1.00  0.00     0.306 C 
HETATM    2  O2  UNL     1      24.646   5.142  92.335  1.00  0.00    -0.314 OA
HETATM    3  C11 UNL     1      25.926   4.742  91.926  1.00  0.00     0.109 A 
HETATM    4  C12 UNL     1      26.504   4.423  90.721  1.00  0.00     0.054 A 
HETATM    5  C13 UNL     1      27.866   4.016  90.619  1.00  0.00     0.013 A 
HETATM    6  C20 UNL     1      28.591   3.957  91.769  1.00  0.00     0.112 A 
HETATM    7  C21 UNL     1      28.022   4.279  92.998  1.00  0.00     0.136 A 
HETATM    8  C22 UNL     1      26.698   4.675  93.044  1.00  0.00     0.141 A 
HETATM    9  O6  UNL     1      25.935   5.051  94.139  1.00  0.00    -0.311 OA
ENDROOT
BRANCH   1  10
HETATM   10  C9  UNL     1      24.132   3.668  94.300  1.00  0.00     0.203 C 
BRANCH  10  11
HETATM   11  C7  UNL     1      22.680   3.335  94.382  1.00  0.00    -0.043 C 
HETATM   12  C6  UNL     1      21.792   4.290  94.578  1.00  0.00     0.060 C 
HETATM   13  C8  UNL     1      22.325   1.894  94.305  1.00  0.00     0.047 C 
BRANCH  12  14
HETATM   14  C5  UNL     1      20.438   4.295  94.759  1.00  0.00    -0.127 C 
BRANCH  14  15
HETATM   15  C4  UNL     1      19.179   4.296  94.882  1.00  0.00     0.061 C 
BRANCH  15  16
HETATM   16  C2  UNL     1      18.390   4.282  96.112  1.00  0.00    -0.064 C 
HETATM   17  C1  UNL     1      17.265   3.506  96.191  1.00  0.00     0.019 C 
HETATM   18  C3  UNL     1      18.764   4.901  97.397  1.00  0.00     0.048 C 
ENDBRANCH  15  16
ENDBRANCH  14  15
ENDBRANCH  12  14
ENDBRANCH  10  11
BRANCH  10  19
HETATM   19  O1  UNL     1      24.670   3.664  95.634  1.00  0.00    -0.386 OA
ATOM     20  H1  UNL     1      25.458   4.194  95.638  1.00  0.00     0.210 HD
ENDBRANCH  10  19
ENDBRANCH   1  10
BRANCH   7  21
HETATM   21  O5  UNL     1      28.792   4.186  94.132  1.00  0.00    -0.356 OA
ATOM     22  H5  UNL     1      28.403   3.836  94.924  1.00  0.00     0.218 HD
ENDBRANCH   7  21
BRANCH   5  23
HETATM   23  C14 UNL     1      28.354   3.490  89.338  1.00  0.00     0.001 C 
HETATM   24  C15 UNL     1      29.204   4.383  88.513  1.00  0.00     0.043 C 
HETATM   25  C16 UNL     1      30.240   3.572  87.742  1.00  0.00     0.005 C 
HETATM   26  C17 UNL     1      29.586   2.399  87.056  1.00  0.00     0.008 C 
HETATM   27  C18 UNL     1      29.148   1.380  88.047  1.00  0.00     0.083 C 
HETATM   28  C19 UNL     1      28.398   2.070  89.151  1.00  0.00     0.156 C 
HETATM   29  O3  UNL     1      27.799   1.308  89.926  1.00  0.00    -0.293 OA
ENDBRANCH   5  23
BRANCH   6  30
HETATM   30  O4  UNL     1      29.978   3.579  91.828  1.00  0.00    -0.357 OA
ATOM     31  H4  UNL     1      30.282   2.692  91.977  1.00  0.00     0.217 HD
ENDBRANCH   6  30
TORSDOF 9
ENDMDL
MODEL 4
REMARK VINA RESULT: -6.773107205      2.911      4.422
REMARK  9 active torsions:
REMARK  status: ('A' for Active; 'I' for Inactive)
REMARK    1  A    between atoms: C2_2  and  C4_4 
REMARK    2  A    between atoms: C4_4  and  C5_5 
REMARK    3  A    between atoms: C5_5  and  C6_6 
REMARK    4  A    between atoms: C7_7  and  C9_9 
REMARK    5  A    between atoms: C9_9  and  O1_10 
REMARK    6  A    between atoms: C9_9  and  C10_12 
REMARK    7  A    between atoms: C13_16  and  C14_17 
REMARK    8  A    between atoms: C20_24  and  O4_25 
REMARK    9  A    between atoms: C21_27  and  O5_28 
ROOT
HETATM    1  C10 UNL     1      29.582   4.574  96.548  1.00  0.00     0.306 C 
HETATM    2  O2  UNL     1      29.403   3.226  96.272  1.00  0.00    -0.314 OA
HETATM    3  C11 UNL     1      28.441   2.731  97.162  1.00  0.00     0.109 A 
HETATM    4  C12 UNL     1      27.636   1.617  97.201  1.00  0.00     0.054 A 
HETATM    5  C13 UNL     1      26.708   1.391  98.258  1.00  0.00     0.013 A 
HETATM    6  C20 UNL     1      26.644   2.322  99.248  1.00  0.00     0.112 A 
HETATM    7  C21 UNL     1      27.454   3.454  99.226  1.00  0.00     0.136 A 
HETATM    8  C22 UNL     1      28.343   3.626  98.182  1.00  0.00     0.141 A 
HETATM    9  O6  UNL     1      29.245   4.656  97.961  1.00  0.00    -0.311 OA
ENDROOT
BRANCH   1  10
HETATM   10  C9  UNL     1      28.781   5.637  95.959  1.00  0.00     0.203 C 
BRANCH  10  11
HETATM   11  C7  UNL     1      28.139   5.430  94.628  1.00  0.00    -0.043 C 
HETATM   12  C6  UNL     1      26.934   5.911  94.392  1.00  0.00     0.060 C 
HETATM   13  C8  UNL     1      28.896   4.608  93.647  1.00  0.00     0.047 C 
BRANCH  12  14
HETATM   14  C5  UNL     1      26.080   5.833  93.329  1.00  0.00    -0.127 C 
BRANCH  14  15
HETATM   15  C4  UNL     1      25.262   5.791  92.365  1.00  0.00     0.061 C 
BRANCH  15  16
HETATM   16  C2  UNL     1      25.328   4.970  91.157  1.00  0.00    -0.064 C 
HETATM   17  C1  UNL     1      24.273   4.956  90.284  1.00  0.00     0.019 C 
HETATM   18  C3  UNL     1      26.512   4.251  90.654  1.00  0.00     0.048 C 
ENDBRANCH  15  16
ENDBRANCH  14  15
ENDBRANCH  12  14
ENDBRANCH  10  11
BRANCH  10  19
HETATM   19  O1  UNL     1      29.646   6.781  95.867  1.00  0.00    -0.386 OA
ATOM     20  H1  UNL     1      30.537   6.471  95.754  1.00  0.00     0.210 HD
ENDBRANCH  10  19
ENDBRANCH   1  10
BRANCH   7  21
HETATM   21  O5  UNL     1      27.339   4.373 100.241  1.00  0.00    -0.356 OA
ATOM     22  H5  UNL     1      26.748   5.108 100.130  1.00  0.00     0.218 HD
ENDBRANCH   7  21
BRANCH   5  23
HETATM   23  C14 UNL     1      25.738   0.296  98.126  1.00  0.00     0.001 C 
HETATM   24  C15 UNL     1      24.569   0.523  97.242  1.00  0.00     0.043 C 
HETATM   25  C16 UNL     1      24.150  -0.779  96.566  1.00  0.00     0.005 C 
HETATM   26  C17 UNL     1      24.054  -1.891  97.580  1.00  0.00     0.008 C 
HETATM   27  C18 UNL     1      25.401  -2.279  98.072  1.00  0.00     0.083 C 
HETATM   28  C19 UNL     1      26.157  -1.035  98.447  1.00  0.00     0.156 C 
HETATM   29  O3  UNL     1      27.212  -1.237  99.070  1.00  0.00    -0.293 OA
ENDBRANCH   5  23
BRANCH   6  30
HETATM   30  O4  UNL     1      25.771   2.228 100.387  1.00  0.00    -0.357 OA
ATOM     31  H4  UNL     1      25.723   2.879 101.076  1.00  0.00     0.217 HD
ENDBRANCH   6  30
TORSDOF 9
ENDMDL
MODEL 5
REMARK VINA RESULT: -6.739814087      3.035      7.049
REMARK  9 active torsions:
REMARK  status: ('A' for Active; 'I' for Inactive)
REMARK    1  A    between atoms: C2_2  and  C4_4 
REMARK    2  A    between atoms: C4_4  and  C5_5 
REMARK    3  A    between atoms: C5_5  and  C6_6 
REMARK    4  A    between atoms: C7_7  and  C9_9 
REMARK    5  A    between atoms: C9_9  and  O1_10 
REMARK    6  A    between atoms: C9_9  and  C10_12 
REMARK    7  A    between atoms: C13_16  and  C14_17 
REMARK    8  A    between atoms: C20_24  and  O4_25 
REMARK    9  A    between atoms: C21_27  and  O5_28 
ROOT
HETATM    1  C10 UNL     1      28.135   0.522  98.269  1.00  0.00     0.306 C 
HETATM    2  O2  UNL     1      27.463   0.566  97.056  1.00  0.00    -0.314 OA
HETATM    3  C11 UNL     1      26.925   1.851  96.910  1.00  0.00     0.109 A 
HETATM    4  C12 UNL     1      26.448   2.590  95.853  1.00  0.00     0.054 A 
HETATM    5  C13 UNL     1      25.973   3.924  96.016  1.00  0.00     0.013 A 
HETATM    6  C20 UNL     1      26.001   4.452  97.269  1.00  0.00     0.112 A 
HETATM    7  C21 UNL     1      26.478   3.717  98.351  1.00  0.00     0.136 A 
HETATM    8  C22 UNL     1      26.923   2.425  98.143  1.00  0.00     0.141 A 
HETATM    9  O6  UNL     1      27.422   1.513  99.062  1.00  0.00    -0.311 OA
ENDROOT
BRANCH   1  10
HETATM   10  C9  UNL     1      29.528   0.908  98.440  1.00  0.00     0.203 C 
BRANCH  10  11
HETATM   11  C7  UNL     1      30.035   2.157  97.800  1.00  0.00    -0.043 C 
HETATM   12  C6  UNL     1      30.192   3.252  98.518  1.00  0.00     0.060 C 
HETATM   13  C8  UNL     1      30.271   2.102  96.334  1.00  0.00     0.047 C 
BRANCH  12  14
HETATM   14  C5  UNL     1      30.564   4.531  98.217  1.00  0.00    -0.127 C 
BRANCH  14  15
HETATM   15  C4  UNL     1      30.864   5.728  97.936  1.00  0.00     0.061 C 
BRANCH  15  16
HETATM   16  C2  UNL     1      30.044   6.733  97.263  1.00  0.00    -0.064 C 
HETATM   17  C1  UNL     1      29.162   6.351  96.288  1.00  0.00     0.019 C 
HETATM   18  C3  UNL     1      29.921   8.153  97.637  1.00  0.00     0.048 C 
ENDBRANCH  15  16
ENDBRANCH  14  15
ENDBRANCH  12  14
ENDBRANCH  10  11
BRANCH  10  19
HETATM   19  O1  UNL     1      30.308  -0.196  97.950  1.00  0.00    -0.386 OA
ATOM     20  H1  UNL     1      30.666  -0.661  98.697  1.00  0.00     0.210 HD
ENDBRANCH  10  19
ENDBRANCH   1  10
BRANCH   7  21
HETATM   21  O5  UNL     1      26.502   4.303  99.594  1.00  0.00    -0.356 OA
ATOM     22  H5  UNL     1      26.960   3.863 100.300  1.00  0.00     0.218 HD
ENDBRANCH   7  21
BRANCH   5  23
HETATM   23  C14 UNL     1      25.678   4.721  94.819  1.00  0.00     0.001 C 
HETATM   24  C15 UNL     1      26.818   5.079  93.939  1.00  0.00     0.043 C 
HETATM   25  C16 UNL     1      26.371   5.133  92.482  1.00  0.00     0.005 C 
HETATM   26  C17 UNL     1      25.105   5.942  92.349  1.00  0.00     0.008 C 
HETATM   27  C18 UNL     1      23.950   5.222  92.945  1.00  0.00     0.083 C 
HETATM   28  C19 UNL     1      24.339   4.725  94.309  1.00  0.00     0.156 C 
HETATM   29  O3  UNL     1      23.397   4.295  94.993  1.00  0.00    -0.293 OA
ENDBRANCH   5  23
BRANCH   6  30
HETATM   30  O4  UNL     1      25.543   5.776  97.596  1.00  0.00    -0.357 OA
ATOM     31  H4  UNL     1      25.382   6.080  98.481  1.00  0.00     0.217 HD
ENDBRANCH   6  30
TORSDOF 9
ENDMDL
