MODEL 1
REMARK VINA RESULT: -7.772386951      0.000      0.000
REMARK  9 active torsions:
REMARK  status: ('A' for Active; 'I' for Inactive)
REMARK    1  A    between atoms: C4_4  and  C5_5 
REMARK    2  A    between atoms: C5_5  and  C7_7 
REMARK    3  A    between atoms: C7_7  and  C8_8 
REMARK    4  A    between atoms: C9_9  and  C11_11 
REMARK    5  A    between atoms: C11_11  and  O2_13 
REMARK    6  A    between atoms: O2_13  and  C12_14 
REMARK    7  A    between atoms: C16_19  and  O4_20 
REMARK    8  A    between atoms: C17_22  and  O5_23 
REMARK    9  A    between atoms: C22_29  and  O6_30 
ROOT
HETATM    1  C12 UNL     1      29.230   0.854  89.244  1.00  0.00     0.305 C 
HETATM    2  O3  UNL     1      30.040   1.501  90.181  1.00  0.00    -0.316 OA
HETATM    3  C13 UNL     1      31.138   2.257  89.891  1.00  0.00     0.088 A 
HETATM    4  C14 UNL     1      32.135   2.536  90.826  1.00  0.00     0.008 A 
HETATM    5  C15 UNL     1      32.024   2.002  92.207  1.00  0.00     0.054 C 
HETATM    6  C16 UNL     1      33.228   3.305  90.489  1.00  0.00     0.108 A 
HETATM    7  C17 UNL     1      33.317   3.798  89.191  1.00  0.00     0.105 A 
HETATM    8  C18 UNL     1      32.328   3.521  88.259  1.00  0.00    -0.017 A 
HETATM    9  C19 UNL     1      32.484   4.083  86.873  1.00  0.00     0.052 C 
HETATM   10  C20 UNL     1      31.241   2.757  88.593  1.00  0.00    -0.013 A 
HETATM   11  C21 UNL     1      30.212   2.479  87.592  1.00  0.00     0.079 C 
HETATM   12  C22 UNL     1      29.493   1.177  87.821  1.00  0.00     0.178 C 
ENDROOT
BRANCH   1  13
HETATM   13  O2  UNL     1      27.851   1.023  89.517  1.00  0.00    -0.283 OA
BRANCH  13  14
HETATM   14  C11 UNL     1      27.364   1.741  90.599  1.00  0.00     0.291 C 
HETATM   15  O1  UNL     1      27.316   1.118  91.690  1.00  0.00    -0.260 OA
BRANCH  14  16
HETATM   16  C9  UNL     1      26.936   3.133  90.462  1.00  0.00     0.010 C 
HETATM   17  C8  UNL     1      25.734   3.516  90.841  1.00  0.00    -0.010 C 
HETATM   18  C10 UNL     1      27.895   4.110  89.880  1.00  0.00     0.054 C 
BRANCH  17  19
HETATM   19  C7  UNL     1      25.328   4.903  90.696  1.00  0.00     0.061 C 
BRANCH  19  20
HETATM   20  C5  UNL     1      24.980   5.587  91.997  1.00  0.00    -0.080 C 
HETATM   21  C6  UNL     1      24.018   6.718  91.876  1.00  0.00     0.043 C 
BRANCH  20  22
HETATM   22  C4  UNL     1      26.138   5.765  92.876  1.00  0.00     0.004 C 
HETATM   23  C2  UNL     1      26.425   5.279  94.042  1.00  0.00    -0.087 C 
HETATM   24  C1  UNL     1      25.592   4.363  94.821  1.00  0.00     0.043 C 
HETATM   25  C3  UNL     1      27.739   5.678  94.681  1.00  0.00     0.043 C 
ENDBRANCH  20  22
ENDBRANCH  19  20
ENDBRANCH  17  19
ENDBRANCH  14  16
ENDBRANCH  13  14
ENDBRANCH   1  13
BRANCH  12  26
HETATM   26  O6  UNL     1      28.327   1.215  87.041  1.00  0.00    -0.390 OA
ATOM     27  H6  UNL     1      28.064   2.098  86.809  1.00  0.00     0.210 HD
ENDBRANCH  12  26
BRANCH   6  28
HETATM   28  O4  UNL     1      34.248   3.610  91.394  1.00  0.00    -0.357 OA
ATOM     29  H4  UNL     1      34.494   4.501  91.612  1.00  0.00     0.217 HD
ENDBRANCH   6  28
BRANCH   7  30
HETATM   30  O5  UNL     1      34.406   4.587  88.784  1.00  0.00    -0.357 OA
ATOM     31  H5  UNL     1      35.234   4.194  88.536  1.00  0.00     0.217 HD
ENDBRANCH   7  30
TORSDOF 9
ENDMDL
MODEL 2
REMARK VINA RESULT: -7.731770783      3.012      8.042
REMARK  9 active torsions:
REMARK  status: ('A' for Active; 'I' for Inactive)
REMARK    1  A    between atoms: C4_4  and  C5_5 
REMARK    2  A    between atoms: C5_5  and  C7_7 
REMARK    3  A    between atoms: C7_7  and  C8_8 
REMARK    4  A    between atoms: C9_9  and  C11_11 
REMARK    5  A    between atoms: C11_11  and  O2_13 
REMARK    6  A    between atoms: O2_13  and  C12_14 
REMARK    7  A    between atoms: C16_19  and  O4_20 
REMARK    8  A    between atoms: C17_22  and  O5_23 
REMARK    9  A    between atoms: C22_29  and  O6_30 
ROOT
HETATM    1  C12 UNL     1      25.397   5.531  91.788  1.00  0.00     0.305 C 
HETATM    2  O3  UNL     1      26.298   5.319  92.836  1.00  0.00    -0.316 OA
HETATM    3  C13 UNL     1      25.961   5.147  94.146  1.00  0.00     0.088 A 
HETATM    4  C14 UNL     1      26.862   5.347  95.193  1.00  0.00     0.008 A 
HETATM    5  C15 UNL     1      28.256   5.765  94.899  1.00  0.00     0.054 C 
HETATM    6  C16 UNL     1      26.478   5.161  96.504  1.00  0.00     0.108 A 
HETATM    7  C17 UNL     1      25.168   4.770  96.763  1.00  0.00     0.105 A 
HETATM    8  C18 UNL     1      24.271   4.571  95.724  1.00  0.00    -0.017 A 
HETATM    9  C19 UNL     1      22.870   4.148  96.071  1.00  0.00     0.052 C 
HETATM   10  C20 UNL     1      24.651   4.754  94.421  1.00  0.00    -0.013 A 
HETATM   11  C21 UNL     1      23.685   4.539  93.344  1.00  0.00     0.079 C 
HETATM   12  C22 UNL     1      23.961   5.370  92.120  1.00  0.00     0.178 C 
ENDROOT
BRANCH   1  13
HETATM   13  O2  UNL     1      25.706   4.751  90.647  1.00  0.00    -0.283 OA
BRANCH  13  14
HETATM   14  C11 UNL     1      26.583   3.677  90.665  1.00  0.00     0.291 C 
HETATM   15  O1  UNL     1      26.054   2.543  90.786  1.00  0.00    -0.260 OA
BRANCH  14  16
HETATM   16  C9  UNL     1      28.028   3.870  90.549  1.00  0.00     0.010 C 
HETATM   17  C8  UNL     1      28.576   4.238  89.409  1.00  0.00    -0.010 C 
HETATM   18  C10 UNL     1      28.868   3.636  91.754  1.00  0.00     0.054 C 
BRANCH  17  19
HETATM   19  C7  UNL     1      30.014   4.423  89.315  1.00  0.00     0.061 C 
BRANCH  19  20
HETATM   20  C5  UNL     1      30.691   3.521  88.309  1.00  0.00    -0.080 C 
HETATM   21  C6  UNL     1      32.179   3.535  88.352  1.00  0.00     0.043 C 
BRANCH  20  22
HETATM   22  C4  UNL     1      30.045   3.545  86.994  1.00  0.00     0.004 C 
HETATM   23  C2  UNL     1      29.369   2.652  86.344  1.00  0.00    -0.087 C 
HETATM   24  C1  UNL     1      29.068   1.296  86.804  1.00  0.00     0.043 C 
HETATM   25  C3  UNL     1      28.828   3.018  84.977  1.00  0.00     0.043 C 
ENDBRANCH  20  22
ENDBRANCH  19  20
ENDBRANCH  17  19
ENDBRANCH  14  16
ENDBRANCH  13  14
ENDBRANCH   1  13
BRANCH  12  26
HETATM   26  O6  UNL     1      23.214   4.809  91.074  1.00  0.00    -0.390 OA
ATOM     27  H6  UNL     1      22.282   4.784  91.254  1.00  0.00     0.210 HD
ENDBRANCH  12  26
BRANCH   6  28
HETATM   28  O4  UNL     1      27.347   5.350  97.582  1.00  0.00    -0.357 OA
ATOM     29  H4  UNL     1      27.441   6.183  98.028  1.00  0.00     0.217 HD
ENDBRANCH   6  28
BRANCH   7  30
HETATM   30  O5  UNL     1      24.715   4.564  98.077  1.00  0.00    -0.357 OA
ATOM     31  H5  UNL     1      23.869   4.169  98.250  1.00  0.00     0.217 HD
ENDBRANCH   7  30
TORSDOF 9
ENDMDL
MODEL 3
REMARK VINA RESULT: -7.619877705      2.963      8.024
REMARK  9 active torsions:
REMARK  status: ('A' for Active; 'I' for Inactive)
REMARK    1  A    between atoms: C4_4  and  C5_5 
REMARK    2  A    between atoms: C5_5  and  C7_7 
REMARK    3  A    between atoms: C7_7  and  C8_8 
REMARK    4  A    between atoms: C9_9  and  C11_11 
REMARK    5  A    between atoms: C11_11  and  O2_13 
REMARK    6  A    between atoms: O2_13  and  C12_14 
REMARK    7  A    between atoms: C16_19  and  O4_20 
REMARK    8  A    between atoms: C17_22  and  O5_23 
REMARK    9  A    between atoms: C22_29  and  O6_30 
ROOT
HETATM    1  C12 UNL     1      25.335   5.487  91.885  1.00  0.00     0.305 C 
HETATM    2  O3  UNL     1      26.272   5.292  92.904  1.00  0.00    -0.316 OA
HETATM    3  C13 UNL     1      25.982   5.157  94.230  1.00  0.00     0.088 A 
HETATM    4  C14 UNL     1      26.923   5.373  95.237  1.00  0.00     0.008 A 
HETATM    5  C15 UNL     1      28.309   5.768  94.881  1.00  0.00     0.054 C 
HETATM    6  C16 UNL     1      26.586   5.224  96.566  1.00  0.00     0.108 A 
HETATM    7  C17 UNL     1      25.283   4.854  96.882  1.00  0.00     0.105 A 
HETATM    8  C18 UNL     1      24.346   4.639  95.883  1.00  0.00    -0.017 A 
HETATM    9  C19 UNL     1      22.955   4.240  96.292  1.00  0.00     0.052 C 
HETATM   10  C20 UNL     1      24.680   4.785  94.562  1.00  0.00    -0.013 A 
HETATM   11  C21 UNL     1      23.672   4.554  93.528  1.00  0.00     0.079 C 
HETATM   12  C22 UNL     1      23.911   5.351  92.274  1.00  0.00     0.178 C 
ENDROOT
BRANCH   1  13
HETATM   13  O2  UNL     1      25.593   4.676  90.754  1.00  0.00    -0.283 OA
BRANCH  13  14
HETATM   14  C11 UNL     1      26.500   3.627  90.751  1.00  0.00     0.291 C 
HETATM   15  O1  UNL     1      26.019   2.490  90.990  1.00  0.00    -0.260 OA
BRANCH  14  16
HETATM   16  C9  UNL     1      27.922   3.846  90.487  1.00  0.00     0.010 C 
HETATM   17  C8  UNL     1      28.350   4.148  89.278  1.00  0.00    -0.010 C 
HETATM   18  C10 UNL     1      28.877   3.719  91.620  1.00  0.00     0.054 C 
BRANCH  17  19
HETATM   19  C7  UNL     1      29.767   4.361  89.036  1.00  0.00     0.061 C 
BRANCH  19  20
HETATM   20  C5  UNL     1      30.291   3.687  87.789  1.00  0.00    -0.080 C 
HETATM   21  C6  UNL     1      29.984   2.234  87.683  1.00  0.00     0.043 C 
BRANCH  20  22
HETATM   22  C4  UNL     1      31.638   4.130  87.424  1.00  0.00     0.004 C 
HETATM   23  C2  UNL     1      32.773   4.062  88.046  1.00  0.00    -0.087 C 
HETATM   24  C1  UNL     1      32.995   3.482  89.371  1.00  0.00     0.043 C 
HETATM   25  C3  UNL     1      34.000   4.629  87.361  1.00  0.00     0.043 C 
ENDBRANCH  20  22
ENDBRANCH  19  20
ENDBRANCH  17  19
ENDBRANCH  14  16
ENDBRANCH  13  14
ENDBRANCH   1  13
BRANCH  12  26
HETATM   26  O6  UNL     1      23.120   4.772  91.270  1.00  0.00    -0.390 OA
ATOM     27  H6  UNL     1      22.370   4.300  91.612  1.00  0.00     0.210 HD
ENDBRANCH  12  26
BRANCH   6  28
HETATM   28  O4  UNL     1      27.497   5.430  97.606  1.00  0.00    -0.357 OA
ATOM     29  H4  UNL     1      27.841   6.288  97.827  1.00  0.00     0.217 HD
ENDBRANCH   6  28
BRANCH   7  30
HETATM   30  O5  UNL     1      24.877   4.687  98.217  1.00  0.00    -0.357 OA
ATOM     31  H5  UNL     1      24.882   5.413  98.828  1.00  0.00     0.217 HD
ENDBRANCH   7  30
TORSDOF 9
ENDMDL
MODEL 4
REMARK VINA RESULT: -7.576408399      4.800      8.440
REMARK  9 active torsions:
REMARK  status: ('A' for Active; 'I' for Inactive)
REMARK    1  A    between atoms: C4_4  and  C5_5 
REMARK    2  A    between atoms: C5_5  and  C7_7 
REMARK    3  A    between atoms: C7_7  and  C8_8 
REMARK    4  A    between atoms: C9_9  and  C11_11 
REMARK    5  A    between atoms: C11_11  and  O2_13 
REMARK    6  A    between atoms: O2_13  and  C12_14 
REMARK    7  A    between atoms: C16_19  and  O4_20 
REMARK    8  A    between atoms: C17_22  and  O5_23 
REMARK    9  A    between atoms: C22_29  and  O6_30 
ROOT
HETATM    1  C12 UNL     1      25.973   2.965  97.266  1.00  0.00     0.305 C 
HETATM    2  O3  UNL     1      25.892   2.559  95.931  1.00  0.00    -0.316 OA
HETATM    3  C13 UNL     1      24.858   2.828  95.083  1.00  0.00     0.088 A 
HETATM    4  C14 UNL     1      24.615   2.088  93.925  1.00  0.00     0.008 A 
HETATM    5  C15 UNL     1      25.505   0.953  93.573  1.00  0.00     0.054 C 
HETATM    6  C16 UNL     1      23.557   2.395  93.097  1.00  0.00     0.108 A 
HETATM    7  C17 UNL     1      22.732   3.461  93.441  1.00  0.00     0.105 A 
HETATM    8  C18 UNL     1      22.971   4.197  94.591  1.00  0.00    -0.017 A 
HETATM    9  C19 UNL     1      22.043   5.338  94.908  1.00  0.00     0.052 C 
HETATM   10  C20 UNL     1      24.023   3.894  95.416  1.00  0.00    -0.013 A 
HETATM   11  C21 UNL     1      24.252   4.686  96.624  1.00  0.00     0.079 C 
HETATM   12  C22 UNL     1      24.929   3.913  97.723  1.00  0.00     0.178 C 
ENDROOT
BRANCH   1  13
HETATM   13  O2  UNL     1      27.251   3.477  97.597  1.00  0.00    -0.283 OA
BRANCH  13  14
HETATM   14  C11 UNL     1      27.895   4.464  96.868  1.00  0.00     0.291 C 
HETATM   15  O1  UNL     1      28.130   5.534  97.486  1.00  0.00    -0.260 OA
BRANCH  14  16
HETATM   16  C9  UNL     1      28.271   4.259  95.468  1.00  0.00     0.010 C 
HETATM   17  C8  UNL     1      27.674   4.924  94.500  1.00  0.00    -0.010 C 
HETATM   18  C10 UNL     1      29.346   3.277  95.164  1.00  0.00     0.054 C 
BRANCH  17  19
HETATM   19  C7  UNL     1      28.060   4.705  93.117  1.00  0.00     0.061 C 
BRANCH  19  20
HETATM   20  C5  UNL     1      26.902   4.433  92.185  1.00  0.00    -0.080 C 
HETATM   21  C6  UNL     1      27.285   3.922  90.839  1.00  0.00     0.043 C 
BRANCH  20  22
HETATM   22  C4  UNL     1      25.857   5.456  92.257  1.00  0.00     0.004 C 
HETATM   23  C2  UNL     1      24.794   5.661  91.547  1.00  0.00    -0.087 C 
HETATM   24  C1  UNL     1      24.349   4.855  90.409  1.00  0.00     0.043 C 
HETATM   25  C3  UNL     1      23.910   6.838  91.904  1.00  0.00     0.043 C 
ENDBRANCH  20  22
ENDBRANCH  19  20
ENDBRANCH  17  19
ENDBRANCH  14  16
ENDBRANCH  13  14
ENDBRANCH   1  13
BRANCH  12  26
HETATM   26  O6  UNL     1      25.409   4.857  98.644  1.00  0.00    -0.390 OA
ATOM     27  H6  UNL     1      25.425   4.531  99.536  1.00  0.00     0.210 HD
ENDBRANCH  12  26
BRANCH   6  28
HETATM   28  O4  UNL     1      23.278   1.681  91.928  1.00  0.00    -0.357 OA
ATOM     29  H4  UNL     1      23.000   0.773  91.933  1.00  0.00     0.217 HD
ENDBRANCH   6  28
BRANCH   7  30
HETATM   30  O5  UNL     1      21.637   3.824  92.639  1.00  0.00    -0.357 OA
ATOM     31  H5  UNL     1      21.760   4.159  91.759  1.00  0.00     0.217 HD
ENDBRANCH   7  30
TORSDOF 9
ENDMDL
MODEL 5
REMARK VINA RESULT: -7.379740069      3.817      9.145
REMARK  9 active torsions:
REMARK  status: ('A' for Active; 'I' for Inactive)
REMARK    1  A    between atoms: C4_4  and  C5_5 
REMARK    2  A    between atoms: C5_5  and  C7_7 
REMARK    3  A    between atoms: C7_7  and  C8_8 
REMARK    4  A    between atoms: C9_9  and  C11_11 
REMARK    5  A    between atoms: C11_11  and  O2_13 
REMARK    6  A    between atoms: O2_13  and  C12_14 
REMARK    7  A    between atoms: C16_19  and  O4_20 
REMARK    8  A    between atoms: C17_22  and  O5_23 
REMARK    9  A    between atoms: C22_29  and  O6_30 
ROOT
HETATM    1  C12 UNL     1      25.621   3.417  95.679  1.00  0.00     0.305 C 
HETATM    2  O3  UNL     1      24.881   3.129  94.528  1.00  0.00    -0.316 OA
HETATM    3  C13 UNL     1      23.541   3.335  94.377  1.00  0.00     0.088 A 
HETATM    4  C14 UNL     1      22.777   2.680  93.410  1.00  0.00     0.008 A 
HETATM    5  C15 UNL     1      23.424   1.710  92.490  1.00  0.00     0.054 C 
HETATM    6  C16 UNL     1      21.425   2.919  93.293  1.00  0.00     0.108 A 
HETATM    7  C17 UNL     1      20.835   3.831  94.162  1.00  0.00     0.105 A 
HETATM    8  C18 UNL     1      21.591   4.483  95.124  1.00  0.00    -0.017 A 
HETATM    9  C19 UNL     1      20.893   5.457  96.033  1.00  0.00     0.052 C 
HETATM   10  C20 UNL     1      22.936   4.247  95.242  1.00  0.00    -0.013 A 
HETATM   11  C21 UNL     1      23.711   4.947  96.265  1.00  0.00     0.079 C 
HETATM   12  C22 UNL     1      24.911   4.173  96.738  1.00  0.00     0.178 C 
ENDROOT
BRANCH   1  13
HETATM   13  O2  UNL     1      26.847   4.060  95.383  1.00  0.00    -0.283 OA
BRANCH  13  14
HETATM   14  C11 UNL     1      26.953   5.171  94.560  1.00  0.00     0.291 C 
HETATM   15  O1  UNL     1      27.387   6.216  95.108  1.00  0.00    -0.260 OA
BRANCH  14  16
HETATM   16  C9  UNL     1      26.578   5.114  93.147  1.00  0.00     0.010 C 
HETATM   17  C8  UNL     1      27.212   4.322  92.307  1.00  0.00    -0.010 C 
HETATM   18  C10 UNL     1      25.460   5.976  92.679  1.00  0.00     0.054 C 
BRANCH  17  19
HETATM   19  C7  UNL     1      26.826   4.280  90.907  1.00  0.00     0.061 C 
BRANCH  19  20
HETATM   20  C5  UNL     1      27.458   3.154  90.122  1.00  0.00    -0.080 C 
HETATM   21  C6  UNL     1      26.876   1.807  90.374  1.00  0.00     0.043 C 
BRANCH  20  22
HETATM   22  C4  UNL     1      28.916   3.265  90.037  1.00  0.00     0.004 C 
HETATM   23  C2  UNL     1      29.691   3.900  89.218  1.00  0.00    -0.087 C 
HETATM   24  C1  UNL     1      29.260   4.725  88.088  1.00  0.00     0.043 C 
HETATM   25  C3  UNL     1      31.189   3.799  89.424  1.00  0.00     0.043 C 
ENDBRANCH  20  22
ENDBRANCH  19  20
ENDBRANCH  17  19
ENDBRANCH  14  16
ENDBRANCH  13  14
ENDBRANCH   1  13
BRANCH  12  26
HETATM   26  O6  UNL     1      25.739   5.082  97.413  1.00  0.00    -0.390 OA
ATOM     27  H6  UNL     1      25.258   5.794  97.817  1.00  0.00     0.210 HD
ENDBRANCH  12  26
BRANCH   6  28
HETATM   28  O4  UNL     1      20.623   2.286  92.339  1.00  0.00    -0.357 OA
ATOM     29  H4  UNL     1      19.676   2.350  92.339  1.00  0.00     0.217 HD
ENDBRANCH   6  28
BRANCH   7  30
HETATM   30  O5  UNL     1      19.461   4.119  94.094  1.00  0.00    -0.357 OA
ATOM     31  H5  UNL     1      19.023   4.597  94.788  1.00  0.00     0.217 HD
ENDBRANCH   7  30
TORSDOF 9
ENDMDL
