MODEL 1
REMARK VINA RESULT: -8.109295438      0.000      0.000
REMARK  7 active torsions:
REMARK  status: ('A' for Active; 'I' for Inactive)
REMARK    1  A    between atoms: C10_14  and  C11_15 
REMARK    2  A    between atoms: C15_19  and  C16_20 
REMARK    3  A    between atoms: C16_20  and  O2_21 
REMARK    4  A    between atoms: C16_20  and  C17_23 
REMARK    5  A    between atoms: C17_23  and  C18_24 
REMARK    6  A    between atoms: C18_24  and  C19_26 
REMARK    7  A    between atoms: C22_30  and  O5_31 
ROOT
HETATM    1  C1  UNL     1      21.715   3.015  93.062  1.00  0.00     0.015 C 
HETATM    2  C2  UNL     1      22.613   3.836  93.581  1.00  0.00    -0.075 C 
HETATM    3  C3  UNL     1      22.177   4.735  94.694  1.00  0.00     0.117 C 
HETATM    4  C4  UNL     1      23.239   4.629  95.730  1.00  0.00     0.116 C 
HETATM    5  N1  UNL     1      22.932   4.511  97.000  1.00  0.00    -0.383 N 
ATOM      6  H11 UNL     1      23.660   4.439  97.710  1.00  0.00     0.157 HD
ATOM      7  H12 UNL     1      21.969   4.486  97.334  1.00  0.00     0.157 HD
HETATM    8  O1  UNL     1      24.531   4.663  95.280  1.00  0.00    -0.327 OA
HETATM    9  C5  UNL     1      25.030   3.926  94.183  1.00  0.00     0.079 C 
HETATM   10  C6  UNL     1      25.204   2.503  94.661  1.00  0.00     0.048 C 
HETATM   11  C7  UNL     1      24.006   3.849  93.057  1.00  0.00     0.049 C 
HETATM   12  C8  UNL     1      24.089   5.022  92.122  1.00  0.00     0.013 C 
HETATM   13  C9  UNL     1      25.460   5.096  91.453  1.00  0.00     0.010 C 
HETATM   14  C10 UNL     1      26.465   4.280  92.206  1.00  0.00     0.018 C 
HETATM   15  C15 UNL     1      26.246   4.586  93.678  1.00  0.00     0.058 C 
ENDROOT
BRANCH  15  16
HETATM   16  C16 UNL     1      27.497   4.438  94.434  1.00  0.00     0.133 C 
BRANCH  16  17
HETATM   17  O2  UNL     1      27.509   3.536  95.475  1.00  0.00    -0.395 OA
ATOM     18  H2  UNL     1      27.706   3.868  96.343  1.00  0.00     0.210 HD
ENDBRANCH  16  17
BRANCH  16  19
HETATM   19  C17 UNL     1      28.091   5.740  94.932  1.00  0.00     0.116 C 
BRANCH  19  20
HETATM   20  C18 UNL     1      28.151   5.715  96.419  1.00  0.00     0.166 C 
HETATM   21  O3  UNL     1      27.101   5.653  97.109  1.00  0.00    -0.292 OA
BRANCH  20  22
HETATM   22  C19 UNL     1      29.426   5.762  97.125  1.00  0.00     0.070 A 
HETATM   23  C20 UNL     1      30.052   4.714  97.804  1.00  0.00     0.044 A 
HETATM   24  C21 UNL     1      31.229   5.221  98.312  1.00  0.00     0.146 A 
HETATM   25  O4  UNL     1      31.333   6.488  97.978  1.00  0.00    -0.300 OA
HETATM   26  C22 UNL     1      30.268   6.820  97.273  1.00  0.00     0.197 A 
BRANCH  26  27
HETATM   27  O5  UNL     1      30.039   8.079  96.752  1.00  0.00    -0.340 OA
ATOM     28  H5  UNL     1      30.475   8.870  97.047  1.00  0.00     0.220 HD
ENDBRANCH  26  27
ENDBRANCH  20  22
ENDBRANCH  19  20
ENDBRANCH  16  19
ENDBRANCH  15  16
BRANCH  14  29
HETATM   29  C11 UNL     1      27.852   4.297  91.787  1.00  0.00    -0.020 C 
HETATM   30  C12 UNL     1      28.485   3.688  90.862  1.00  0.00    -0.091 C 
HETATM   31  C13 UNL     1      27.942   2.730  89.897  1.00  0.00     0.042 C 
HETATM   32  C14 UNL     1      29.983   3.965  90.716  1.00  0.00     0.042 C 
ENDBRANCH  14  29
TORSDOF 7
ENDMDL
MODEL 2
REMARK VINA RESULT: -7.969327105      2.067      3.161
REMARK  7 active torsions:
REMARK  status: ('A' for Active; 'I' for Inactive)
REMARK    1  A    between atoms: C10_14  and  C11_15 
REMARK    2  A    between atoms: C15_19  and  C16_20 
REMARK    3  A    between atoms: C16_20  and  O2_21 
REMARK    4  A    between atoms: C16_20  and  C17_23 
REMARK    5  A    between atoms: C17_23  and  C18_24 
REMARK    6  A    between atoms: C18_24  and  C19_26 
REMARK    7  A    between atoms: C22_30  and  O5_31 
ROOT
HETATM    1  C1  UNL     1      24.419   3.194  90.353  1.00  0.00     0.015 C 
HETATM    2  C2  UNL     1      25.067   4.151  90.996  1.00  0.00    -0.075 C 
HETATM    3  C3  UNL     1      24.629   5.563  90.771  1.00  0.00     0.117 C 
HETATM    4  C4  UNL     1      24.550   6.175  92.124  1.00  0.00     0.116 C 
HETATM    5  N1  UNL     1      23.536   6.935  92.462  1.00  0.00    -0.383 N 
ATOM      6  H11 UNL     1      23.482   7.355  93.390  1.00  0.00     0.157 HD
ATOM      7  H12 UNL     1      22.765   7.141  91.826  1.00  0.00     0.157 HD
HETATM    8  O1  UNL     1      25.585   5.900  92.976  1.00  0.00    -0.327 OA
HETATM    9  C5  UNL     1      26.138   4.619  93.198  1.00  0.00     0.079 C 
HETATM   10  C6  UNL     1      25.169   3.877  94.089  1.00  0.00     0.048 C 
HETATM   11  C7  UNL     1      26.194   3.810  91.907  1.00  0.00     0.049 C 
HETATM   12  C8  UNL     1      27.451   4.060  91.125  1.00  0.00     0.013 C 
HETATM   13  C9  UNL     1      28.688   3.668  91.932  1.00  0.00     0.010 C 
HETATM   14  C10 UNL     1      28.360   3.562  93.389  1.00  0.00     0.018 C 
HETATM   15  C15 UNL     1      27.505   4.773  93.723  1.00  0.00     0.058 C 
ENDROOT
BRANCH  15  16
HETATM   16  C16 UNL     1      27.682   5.166  95.127  1.00  0.00     0.133 C 
BRANCH  16  17
HETATM   17  O2  UNL     1      26.655   5.861  95.728  1.00  0.00    -0.395 OA
ATOM     18  H2  UNL     1      26.650   5.904  96.678  1.00  0.00     0.210 HD
ENDBRANCH  16  17
BRANCH  16  19
HETATM   19  C17 UNL     1      28.978   5.894  95.420  1.00  0.00     0.116 C 
BRANCH  19  20
HETATM   20  C18 UNL     1      29.096   6.114  96.887  1.00  0.00     0.166 C 
HETATM   21  O3  UNL     1      28.832   7.232  97.399  1.00  0.00    -0.292 OA
BRANCH  20  22
HETATM   22  C19 UNL     1      29.523   5.043  97.781  1.00  0.00     0.070 A 
HETATM   23  C20 UNL     1      28.765   3.950  98.208  1.00  0.00     0.044 A 
HETATM   24  C21 UNL     1      29.577   3.207  99.037  1.00  0.00     0.146 A 
HETATM   25  O4  UNL     1      30.754   3.788  99.123  1.00  0.00    -0.300 OA
HETATM   26  C22 UNL     1      30.733   4.879  98.381  1.00  0.00     0.197 A 
BRANCH  26  27
HETATM   27  O5  UNL     1      31.801   5.741  98.232  1.00  0.00    -0.340 OA
ATOM     28  H5  UNL     1      32.362   5.774  97.466  1.00  0.00     0.220 HD
ENDBRANCH  26  27
ENDBRANCH  20  22
ENDBRANCH  19  20
ENDBRANCH  16  19
ENDBRANCH  15  16
BRANCH  14  29
HETATM   29  C11 UNL     1      29.422   3.295  94.339  1.00  0.00    -0.020 C 
HETATM   30  C12 UNL     1      30.025   2.225  94.686  1.00  0.00    -0.091 C 
HETATM   31  C13 UNL     1      29.789   0.870  94.182  1.00  0.00     0.042 C 
HETATM   32  C14 UNL     1      31.122   2.332  95.747  1.00  0.00     0.042 C 
ENDBRANCH  14  29
TORSDOF 7
ENDMDL
MODEL 3
REMARK VINA RESULT: -7.814783917      4.536      7.596
REMARK  7 active torsions:
REMARK  status: ('A' for Active; 'I' for Inactive)
REMARK    1  A    between atoms: C10_14  and  C11_15 
REMARK    2  A    between atoms: C15_19  and  C16_20 
REMARK    3  A    between atoms: C16_20  and  O2_21 
REMARK    4  A    between atoms: C16_20  and  C17_23 
REMARK    5  A    between atoms: C17_23  and  C18_24 
REMARK    6  A    between atoms: C18_24  and  C19_26 
REMARK    7  A    between atoms: C22_30  and  O5_31 
ROOT
HETATM    1  C1  UNL     1      29.916   1.688  96.910  1.00  0.00     0.015 C 
HETATM    2  C2  UNL     1      30.296   2.289  95.794  1.00  0.00    -0.075 C 
HETATM    3  C3  UNL     1      31.762   2.400  95.525  1.00  0.00     0.117 C 
HETATM    4  C4  UNL     1      31.938   1.992  94.106  1.00  0.00     0.116 C 
HETATM    5  N1  UNL     1      32.917   1.194  93.751  1.00  0.00    -0.383 N 
ATOM      6  H11 UNL     1      33.037   0.914  92.777  1.00  0.00     0.157 HD
ATOM      7  H12 UNL     1      33.592   0.819  94.417  1.00  0.00     0.157 HD
HETATM    8  O1  UNL     1      31.032   2.496  93.213  1.00  0.00    -0.327 OA
HETATM    9  C5  UNL     1      29.633   2.525  93.403  1.00  0.00     0.079 C 
HETATM   10  C6  UNL     1      29.133   1.119  93.161  1.00  0.00     0.048 C 
HETATM   11  C7  UNL     1      29.278   2.832  94.854  1.00  0.00     0.049 C 
HETATM   12  C8  UNL     1      29.201   4.306  95.127  1.00  0.00     0.013 C 
HETATM   13  C9  UNL     1      28.124   4.970  94.271  1.00  0.00     0.010 C 
HETATM   14  C10 UNL     1      27.751   4.096  93.115  1.00  0.00     0.018 C 
HETATM   15  C15 UNL     1      29.055   3.569  92.540  1.00  0.00     0.058 C 
ENDROOT
BRANCH  15  16
HETATM   16  C16 UNL     1      28.922   3.303  91.101  1.00  0.00     0.133 C 
BRANCH  16  17
HETATM   17  O2  UNL     1      29.219   2.032  90.658  1.00  0.00    -0.395 OA
ATOM     18  H2  UNL     1      29.037   1.308  91.246  1.00  0.00     0.210 HD
ENDBRANCH  16  17
BRANCH  16  19
HETATM   19  C17 UNL     1      29.641   4.293  90.207  1.00  0.00     0.116 C 
BRANCH  19  20
HETATM   20  C18 UNL     1      29.835   3.688  88.862  1.00  0.00     0.166 C 
HETATM   21  O3  UNL     1      28.869   3.188  88.230  1.00  0.00    -0.292 OA
BRANCH  20  22
HETATM   22  C19 UNL     1      31.150   3.653  88.231  1.00  0.00     0.070 A 
HETATM   23  C20 UNL     1      32.391   3.643  88.871  1.00  0.00     0.044 A 
HETATM   24  C21 UNL     1      33.346   3.607  87.878  1.00  0.00     0.146 A 
HETATM   25  O4  UNL     1      32.750   3.596  86.706  1.00  0.00    -0.300 OA
HETATM   26  C22 UNL     1      31.446   3.622  86.903  1.00  0.00     0.197 A 
BRANCH  26  27
HETATM   27  O5  UNL     1      30.504   3.619  85.893  1.00  0.00    -0.340 OA
ATOM     28  H5  UNL     1      30.095   4.400  85.538  1.00  0.00     0.220 HD
ENDBRANCH  26  27
ENDBRANCH  20  22
ENDBRANCH  19  20
ENDBRANCH  16  19
ENDBRANCH  15  16
BRANCH  14  29
HETATM   29  C11 UNL     1      26.813   4.588  92.126  1.00  0.00    -0.020 C 
HETATM   30  C12 UNL     1      25.548   4.758  92.140  1.00  0.00    -0.091 C 
HETATM   31  C13 UNL     1      24.628   4.478  93.245  1.00  0.00     0.042 C 
HETATM   32  C14 UNL     1      24.885   5.313  90.878  1.00  0.00     0.042 C 
ENDBRANCH  14  29
TORSDOF 7
ENDMDL
MODEL 4
REMARK VINA RESULT: -7.675397810      2.571      6.587
REMARK  7 active torsions:
REMARK  status: ('A' for Active; 'I' for Inactive)
REMARK    1  A    between atoms: C10_14  and  C11_15 
REMARK    2  A    between atoms: C15_19  and  C16_20 
REMARK    3  A    between atoms: C16_20  and  O2_21 
REMARK    4  A    between atoms: C16_20  and  C17_23 
REMARK    5  A    between atoms: C17_23  and  C18_24 
REMARK    6  A    between atoms: C18_24  and  C19_26 
REMARK    7  A    between atoms: C22_30  and  O5_31 
ROOT
HETATM    1  C1  UNL     1      31.002   3.353  96.309  1.00  0.00     0.015 C 
HETATM    2  C2  UNL     1      29.720   3.030  96.339  1.00  0.00    -0.075 C 
HETATM    3  C3  UNL     1      29.310   1.878  97.199  1.00  0.00     0.117 C 
HETATM    4  C4  UNL     1      28.115   2.346  97.950  1.00  0.00     0.116 C 
HETATM    5  N1  UNL     1      27.984   2.098  99.231  1.00  0.00    -0.383 N 
ATOM      6  H11 UNL     1      27.164   2.420  99.746  1.00  0.00     0.157 HD
ATOM      7  H12 UNL     1      28.681   1.583  99.768  1.00  0.00     0.157 HD
HETATM    8  O1  UNL     1      27.179   3.037  97.230  1.00  0.00    -0.327 OA
HETATM    9  C5  UNL     1      27.460   4.082  96.322  1.00  0.00     0.079 C 
HETATM   10  C6  UNL     1      27.767   5.307  97.152  1.00  0.00     0.048 C 
HETATM   11  C7  UNL     1      28.734   3.802  95.534  1.00  0.00     0.049 C 
HETATM   12  C8  UNL     1      28.479   2.989  94.297  1.00  0.00     0.013 C 
HETATM   13  C9  UNL     1      27.535   3.719  93.343  1.00  0.00     0.010 C 
HETATM   14  C10 UNL     1      26.793   4.805  94.058  1.00  0.00     0.018 C 
HETATM   15  C15 UNL     1      26.335   4.211  95.379  1.00  0.00     0.058 C 
ENDROOT
BRANCH  15  16
HETATM   16  C16 UNL     1      25.097   4.854  95.841  1.00  0.00     0.133 C 
BRANCH  16  17
HETATM   17  O2  UNL     1      25.165   5.620  96.983  1.00  0.00    -0.395 OA
ATOM     18  H2  UNL     1      24.389   5.664  97.530  1.00  0.00     0.210 HD
ENDBRANCH  16  17
BRANCH  16  19
HETATM   19  C17 UNL     1      23.912   3.919  95.970  1.00  0.00     0.116 C 
BRANCH  19  20
HETATM   20  C18 UNL     1      22.888   4.282  94.953  1.00  0.00     0.166 C 
HETATM   21  O3  UNL     1      22.233   5.351  95.045  1.00  0.00    -0.292 OA
BRANCH  20  22
HETATM   22  C19 UNL     1      22.610   3.412  93.816  1.00  0.00     0.070 A 
HETATM   23  C20 UNL     1      23.524   2.622  93.115  1.00  0.00     0.044 A 
HETATM   24  C21 UNL     1      22.812   1.975  92.128  1.00  0.00     0.146 A 
HETATM   25  O4  UNL     1      21.548   2.331  92.204  1.00  0.00    -0.300 OA
HETATM   26  C22 UNL     1      21.416   3.183  93.203  1.00  0.00     0.197 A 
BRANCH  26  27
HETATM   27  O5  UNL     1      20.222   3.767  93.577  1.00  0.00    -0.340 OA
ATOM     28  H5  UNL     1      19.516   3.978  92.977  1.00  0.00     0.220 HD
ENDBRANCH  26  27
ENDBRANCH  20  22
ENDBRANCH  19  20
ENDBRANCH  16  19
ENDBRANCH  15  16
BRANCH  14  29
HETATM   29  C11 UNL     1      25.774   5.555  93.350  1.00  0.00    -0.020 C 
HETATM   30  C12 UNL     1      25.377   5.545  92.137  1.00  0.00    -0.091 C 
HETATM   31  C13 UNL     1      25.883   4.712  91.044  1.00  0.00     0.042 C 
HETATM   32  C14 UNL     1      24.248   6.500  91.745  1.00  0.00     0.042 C 
ENDBRANCH  14  29
TORSDOF 7
ENDMDL
MODEL 5
REMARK VINA RESULT: -7.646050935      1.935      2.722
REMARK  7 active torsions:
REMARK  status: ('A' for Active; 'I' for Inactive)
REMARK    1  A    between atoms: C10_14  and  C11_15 
REMARK    2  A    between atoms: C15_19  and  C16_20 
REMARK    3  A    between atoms: C16_20  and  O2_21 
REMARK    4  A    between atoms: C16_20  and  C17_23 
REMARK    5  A    between atoms: C17_23  and  C18_24 
REMARK    6  A    between atoms: C18_24  and  C19_26 
REMARK    7  A    between atoms: C22_30  and  O5_31 
ROOT
HETATM    1  C1  UNL     1      24.281   3.145  90.003  1.00  0.00     0.015 C 
HETATM    2  C2  UNL     1      25.004   4.015  90.688  1.00  0.00    -0.075 C 
HETATM    3  C3  UNL     1      24.498   5.418  90.789  1.00  0.00     0.117 C 
HETATM    4  C4  UNL     1      24.636   5.789  92.223  1.00  0.00     0.116 C 
HETATM    5  N1  UNL     1      23.676   6.424  92.850  1.00  0.00    -0.383 N 
ATOM      6  H11 UNL     1      23.771   6.678  93.833  1.00  0.00     0.157 HD
ATOM      7  H12 UNL     1      22.802   6.691  92.396  1.00  0.00     0.157 HD
HETATM    8  O1  UNL     1      25.809   5.431  92.831  1.00  0.00    -0.327 OA
HETATM    9  C5  UNL     1      26.424   4.164  92.731  1.00  0.00     0.079 C 
HETATM   10  C6  UNL     1      25.642   3.231  93.626  1.00  0.00     0.048 C 
HETATM   11  C7  UNL     1      26.279   3.588  91.327  1.00  0.00     0.049 C 
HETATM   12  C8  UNL     1      27.377   4.035  90.406  1.00  0.00     0.013 C 
HETATM   13  C9  UNL     1      28.744   3.581  90.918  1.00  0.00     0.010 C 
HETATM   14  C10 UNL     1      28.673   3.214  92.367  1.00  0.00     0.018 C 
HETATM   15  C15 UNL     1      27.857   4.302  93.044  1.00  0.00     0.058 C 
ENDROOT
BRANCH  15  16
HETATM   16  C16 UNL     1      28.261   4.463  94.447  1.00  0.00     0.133 C 
BRANCH  16  17
HETATM   17  O2  UNL     1      27.806   3.530  95.353  1.00  0.00    -0.395 OA
ATOM     18  H2  UNL     1      28.314   2.734  95.457  1.00  0.00     0.210 HD
ENDBRANCH  16  17
BRANCH  16  19
HETATM   19  C17 UNL     1      28.007   5.841  95.023  1.00  0.00     0.116 C 
BRANCH  19  20
HETATM   20  C18 UNL     1      28.109   5.780  96.506  1.00  0.00     0.166 C 
HETATM   21  O3  UNL     1      27.080   5.694  97.224  1.00  0.00    -0.292 OA
BRANCH  20  22
HETATM   22  C19 UNL     1      29.404   5.818  97.177  1.00  0.00     0.070 A 
HETATM   23  C20 UNL     1      30.046   4.763  97.829  1.00  0.00     0.044 A 
HETATM   24  C21 UNL     1      31.238   5.263  98.309  1.00  0.00     0.146 A 
HETATM   25  O4  UNL     1      31.336   6.533  97.982  1.00  0.00    -0.300 OA
HETATM   26  C22 UNL     1      30.253   6.873  97.309  1.00  0.00     0.197 A 
BRANCH  26  27
HETATM   27  O5  UNL     1      30.012   8.136  96.805  1.00  0.00    -0.340 OA
ATOM     28  H5  UNL     1      29.376   8.331  96.127  1.00  0.00     0.220 HD
ENDBRANCH  26  27
ENDBRANCH  20  22
ENDBRANCH  19  20
ENDBRANCH  16  19
ENDBRANCH  15  16
BRANCH  14  29
HETATM   29  C11 UNL     1      29.888   2.849  93.068  1.00  0.00    -0.020 C 
HETATM   30  C12 UNL     1      30.481   1.734  93.252  1.00  0.00    -0.091 C 
HETATM   31  C13 UNL     1      30.063   0.417  92.769  1.00  0.00     0.042 C 
HETATM   32  C14 UNL     1      31.777   1.737  94.064  1.00  0.00     0.042 C 
ENDBRANCH  14  29
TORSDOF 7
ENDMDL
