MODEL 1
REMARK VINA RESULT: -5.819141655      0.000      0.000
REMARK  3 active torsions:
REMARK  status: ('A' for Active; 'I' for Inactive)
REMARK    1  A    between atoms: C7_8  and  C8_9 
REMARK    2  A    between atoms: C8_9  and  C9_10 
REMARK    3  A    between atoms: C20_22  and  C22_24 
ROOT
HETATM    1  C1  UNL     1      31.223   8.929  -5.400  1.00  0.00     0.040 C 
HETATM    2  C2  UNL     1      31.098   8.611  -6.900  1.00  0.00     0.133 C 
HETATM    3  O1  UNL     1      32.268   9.200  -7.486  1.00  0.00    -0.325 OA
HETATM    4  C3  UNL     1      33.476   8.504  -7.406  1.00  0.00     0.184 C 
HETATM    5  C4  UNL     1      33.411   7.225  -7.678  1.00  0.00    -0.013 C 
HETATM    6  C5  UNL     1      34.640   6.397  -7.616  1.00  0.00     0.042 C 
HETATM    7  C6  UNL     1      35.695   7.008  -6.694  1.00  0.00     0.037 C 
HETATM    8  C7  UNL     1      35.933   8.412  -7.111  1.00  0.00     0.131 C 
HETATM    9  O2  UNL     1      34.666   9.081  -7.073  1.00  0.00    -0.325 OA
HETATM   10  C15 UNL     1      32.094   6.654  -8.081  1.00  0.00    -0.009 C 
HETATM   11  C16 UNL     1      32.256   5.164  -8.093  1.00  0.00     0.021 C 
HETATM   12  C17 UNL     1      31.747   7.110  -9.476  1.00  0.00     0.014 C 
HETATM   13  C18 UNL     1      30.513   6.424  -9.944  1.00  0.00     0.002 C 
HETATM   14  C19 UNL     1      29.438   6.251  -8.963  1.00  0.00     0.020 C 
HETATM   15  C20 UNL     1      29.648   6.639  -7.544  1.00  0.00     0.052 C 
HETATM   16  C21 UNL     1      29.301   5.411  -6.678  1.00  0.00     0.027 C 
HETATM   17  C23 UNL     1      31.008   7.143  -7.171  1.00  0.00     0.046 C 
ENDROOT
BRANCH   8  18
HETATM   18  C8  UNL     1      36.838   9.237  -6.290  1.00  0.00     0.037 C 
BRANCH  18  19
HETATM   19  C9  UNL     1      36.297  10.325  -5.461  1.00  0.00    -0.012 C 
HETATM   20  C10 UNL     1      36.944  11.669  -5.699  1.00  0.00     0.005 C 
HETATM   21  C11 UNL     1      36.047  12.704  -5.015  1.00  0.00     0.000 C 
HETATM   22  C12 UNL     1      35.747  12.310  -3.597  1.00  0.00     0.000 C 
HETATM   23  C13 UNL     1      36.560  11.101  -3.158  1.00  0.00     0.000 C 
HETATM   24  C14 UNL     1      36.111   9.946  -4.043  1.00  0.00     0.005 C 
ENDBRANCH  18  19
ENDBRANCH   8  18
BRANCH  15  25
HETATM   25  C22 UNL     1      28.640   7.645  -7.128  1.00  0.00     0.182 C 
HETATM   26  O3  UNL     1      28.227   8.486  -8.001  1.00  0.00    -0.647 OA
HETATM   27  O4  UNL     1      28.086   7.778  -5.883  1.00  0.00    -0.647 OA
ENDBRANCH  15  25
TORSDOF 3
ENDMDL
MODEL 2
REMARK VINA RESULT: -5.538676377      2.693      5.261
REMARK  3 active torsions:
REMARK  status: ('A' for Active; 'I' for Inactive)
REMARK    1  A    between atoms: C7_8  and  C8_9 
REMARK    2  A    between atoms: C8_9  and  C9_10 
REMARK    3  A    between atoms: C20_22  and  C22_24 
ROOT
HETATM    1  C1  UNL     1      36.190   9.184  -6.985  1.00  0.00     0.040 C 
HETATM    2  C2  UNL     1      34.914   8.790  -6.221  1.00  0.00     0.133 C 
HETATM    3  O1  UNL     1      35.271   8.930  -4.838  1.00  0.00    -0.325 OA
HETATM    4  C3  UNL     1      35.255  10.207  -4.272  1.00  0.00     0.184 C 
HETATM    5  C4  UNL     1      34.210  10.942  -4.562  1.00  0.00    -0.013 C 
HETATM    6  C5  UNL     1      34.103  12.315  -4.013  1.00  0.00     0.042 C 
HETATM    7  C6  UNL     1      35.470  12.900  -3.663  1.00  0.00     0.037 C 
HETATM    8  C7  UNL     1      36.181  11.948  -2.774  1.00  0.00     0.131 C 
HETATM    9  O2  UNL     1      36.240  10.694  -3.465  1.00  0.00    -0.325 OA
HETATM   10  C15 UNL     1      33.140  10.345  -5.412  1.00  0.00    -0.009 C 
HETATM   11  C16 UNL     1      32.208  11.461  -5.777  1.00  0.00     0.021 C 
HETATM   12  C17 UNL     1      32.372   9.319  -4.617  1.00  0.00     0.014 C 
HETATM   13  C18 UNL     1      31.209   8.831  -5.405  1.00  0.00     0.002 C 
HETATM   14  C19 UNL     1      31.425   8.607  -6.838  1.00  0.00     0.020 C 
HETATM   15  C20 UNL     1      32.719   8.979  -7.468  1.00  0.00     0.052 C 
HETATM   16  C21 UNL     1      32.398   9.900  -8.662  1.00  0.00     0.027 C 
HETATM   17  C23 UNL     1      33.738   9.638  -6.590  1.00  0.00     0.046 C 
ENDROOT
BRANCH   8  18
HETATM   18  C8  UNL     1      37.572  12.255  -2.395  1.00  0.00     0.037 C 
BRANCH  18  19
HETATM   19  C9  UNL     1      37.857  12.926  -1.118  1.00  0.00    -0.012 C 
HETATM   20  C10 UNL     1      36.789  12.743  -0.066  1.00  0.00     0.005 C 
HETATM   21  C11 UNL     1      37.403  13.212   1.256  1.00  0.00     0.000 C 
HETATM   22  C12 UNL     1      38.022  14.572   1.113  1.00  0.00     0.000 C 
HETATM   23  C13 UNL     1      37.712  15.202  -0.237  1.00  0.00     0.000 C 
HETATM   24  C14 UNL     1      38.366  14.306  -1.281  1.00  0.00     0.005 C 
ENDBRANCH  18  19
ENDBRANCH   8  18
BRANCH  15  25
HETATM   25  C22 UNL     1      33.341   7.794  -8.109  1.00  0.00     0.182 C 
HETATM   26  O3  UNL     1      33.912   7.950  -9.245  1.00  0.00    -0.647 OA
HETATM   27  O4  UNL     1      33.376   6.520  -7.609  1.00  0.00    -0.647 OA
ENDBRANCH  15  25
TORSDOF 3
ENDMDL
MODEL 3
REMARK VINA RESULT: -5.534057658      2.430      7.747
REMARK  3 active torsions:
REMARK  status: ('A' for Active; 'I' for Inactive)
REMARK    1  A    between atoms: C7_8  and  C8_9 
REMARK    2  A    between atoms: C8_9  and  C9_10 
REMARK    3  A    between atoms: C20_22  and  C22_24 
ROOT
HETATM    1  C1  UNL     1      31.821  12.604  -4.880  1.00  0.00     0.040 C 
HETATM    2  C2  UNL     1      32.968  11.743  -4.322  1.00  0.00     0.133 C 
HETATM    3  O1  UNL     1      32.352  10.482  -4.023  1.00  0.00    -0.325 OA
HETATM    4  C3  UNL     1      32.140   9.580  -5.068  1.00  0.00     0.184 C 
HETATM    5  C4  UNL     1      33.143   9.425  -5.895  1.00  0.00    -0.013 C 
HETATM    6  C5  UNL     1      33.014   8.492  -7.040  1.00  0.00     0.042 C 
HETATM    7  C6  UNL     1      31.555   8.274  -7.439  1.00  0.00     0.037 C 
HETATM    8  C7  UNL     1      30.790   7.863  -6.236  1.00  0.00     0.131 C 
HETATM    9  O2  UNL     1      30.980   8.885  -5.249  1.00  0.00    -0.325 OA
HETATM   10  C15 UNL     1      34.403  10.174  -5.624  1.00  0.00    -0.009 C 
HETATM   11  C16 UNL     1      35.274  10.002  -6.833  1.00  0.00     0.021 C 
HETATM   12  C17 UNL     1      35.109   9.572  -4.435  1.00  0.00     0.014 C 
HETATM   13  C18 UNL     1      36.438  10.213  -4.254  1.00  0.00     0.002 C 
HETATM   14  C19 UNL     1      36.511  11.661  -4.467  1.00  0.00     0.020 C 
HETATM   15  C20 UNL     1      35.325  12.407  -4.963  1.00  0.00     0.052 C 
HETATM   16  C21 UNL     1      35.769  13.191  -6.214  1.00  0.00     0.027 C 
HETATM   17  C23 UNL     1      34.103  11.603  -5.286  1.00  0.00     0.046 C 
ENDROOT
BRANCH   8  18
HETATM   18  C8  UNL     1      29.330   7.704  -6.362  1.00  0.00     0.037 C 
BRANCH  18  19
HETATM   19  C9  UNL     1      28.767   6.449  -6.880  1.00  0.00    -0.012 C 
HETATM   20  C10 UNL     1      29.680   5.253  -6.745  1.00  0.00     0.005 C 
HETATM   21  C11 UNL     1      28.817   4.019  -7.019  1.00  0.00     0.000 C 
HETATM   22  C12 UNL     1      28.045   4.172  -8.298  1.00  0.00     0.000 C 
HETATM   23  C13 UNL     1      28.465   5.412  -9.074  1.00  0.00     0.000 C 
HETATM   24  C14 UNL     1      28.104   6.602  -8.194  1.00  0.00     0.005 C 
ENDBRANCH  18  19
ENDBRANCH   8  18
BRANCH  15  25
HETATM   25  C22 UNL     1      34.949  13.476  -4.006  1.00  0.00     0.182 C 
HETATM   26  O3  UNL     1      34.615  14.620  -4.475  1.00  0.00    -0.647 OA
HETATM   27  O4  UNL     1      34.917  13.375  -2.641  1.00  0.00    -0.647 OA
ENDBRANCH  15  25
TORSDOF 3
ENDMDL
MODEL 4
REMARK VINA RESULT: -5.490262910      2.122      7.157
REMARK  3 active torsions:
REMARK  status: ('A' for Active; 'I' for Inactive)
REMARK    1  A    between atoms: C7_8  and  C8_9 
REMARK    2  A    between atoms: C8_9  and  C9_10 
REMARK    3  A    between atoms: C20_22  and  C22_24 
ROOT
HETATM    1  C1  UNL     1      34.278   6.030  -7.619  1.00  0.00     0.040 C 
HETATM    2  C2  UNL     1      35.098   7.308  -7.861  1.00  0.00     0.133 C 
HETATM    3  O1  UNL     1      34.113   8.317  -8.127  1.00  0.00    -0.325 OA
HETATM    4  C3  UNL     1      33.454   8.906  -7.046  1.00  0.00     0.184 C 
HETATM    5  C4  UNL     1      34.216   9.251  -6.038  1.00  0.00    -0.013 C 
HETATM    6  C5  UNL     1      33.610   9.880  -4.840  1.00  0.00     0.042 C 
HETATM    7  C6  UNL     1      32.132   9.521  -4.691  1.00  0.00     0.037 C 
HETATM    8  C7  UNL     1      31.435   9.843  -5.961  1.00  0.00     0.131 C 
HETATM    9  O2  UNL     1      32.109   9.126  -7.003  1.00  0.00    -0.325 OA
HETATM   10  C15 UNL     1      35.686   9.029  -6.155  1.00  0.00    -0.009 C 
HETATM   11  C16 UNL     1      36.269   9.282  -4.797  1.00  0.00     0.021 C 
HETATM   12  C17 UNL     1      36.276  10.025  -7.123  1.00  0.00     0.014 C 
HETATM   13  C18 UNL     1      37.758   9.912  -7.129  1.00  0.00     0.002 C 
HETATM   14  C19 UNL     1      38.321   8.560  -7.066  1.00  0.00     0.020 C 
HETATM   15  C20 UNL     1      37.430   7.385  -6.879  1.00  0.00     0.052 C 
HETATM   16  C21 UNL     1      37.960   6.600  -5.662  1.00  0.00     0.027 C 
HETATM   17  C23 UNL     1      35.969   7.661  -6.698  1.00  0.00     0.046 C 
ENDROOT
BRANCH   8  18
HETATM   18  C8  UNL     1      30.013   9.475  -6.087  1.00  0.00     0.037 C 
BRANCH  18  19
HETATM   19  C9  UNL     1      29.631   8.230  -6.768  1.00  0.00    -0.012 C 
HETATM   20  C10 UNL     1      28.169   8.149  -7.144  1.00  0.00     0.005 C 
HETATM   21  C11 UNL     1      28.040   6.970  -8.113  1.00  0.00     0.000 C 
HETATM   22  C12 UNL     1      28.691   5.737  -7.556  1.00  0.00     0.000 C 
HETATM   23  C13 UNL     1      29.133   5.928  -6.112  1.00  0.00     0.000 C 
HETATM   24  C14 UNL     1      30.197   7.018  -6.137  1.00  0.00     0.005 C 
ENDBRANCH  18  19
ENDBRANCH   8  18
BRANCH  15  25
HETATM   25  C22 UNL     1      37.595   6.427  -8.000  1.00  0.00     0.182 C 
HETATM   26  O3  UNL     1      37.624   5.176  -7.729  1.00  0.00    -0.647 OA
HETATM   27  O4  UNL     1      37.723   6.739  -9.327  1.00  0.00    -0.647 OA
ENDBRANCH  15  25
TORSDOF 3
ENDMDL
MODEL 5
REMARK VINA RESULT: -5.450299957      2.208      4.307
REMARK  3 active torsions:
REMARK  status: ('A' for Active; 'I' for Inactive)
REMARK    1  A    between atoms: C7_8  and  C8_9 
REMARK    2  A    between atoms: C8_9  and  C9_10 
REMARK    3  A    between atoms: C20_22  and  C22_24 
ROOT
HETATM    1  C1  UNL     1      35.136   8.792  -8.142  1.00  0.00     0.040 C 
HETATM    2  C2  UNL     1      34.040   8.393  -7.139  1.00  0.00     0.133 C 
HETATM    3  O1  UNL     1      34.605   8.699  -5.856  1.00  0.00    -0.325 OA
HETATM    4  C3  UNL     1      34.574  10.023  -5.413  1.00  0.00     0.184 C 
HETATM    5  C4  UNL     1      33.439  10.651  -5.585  1.00  0.00    -0.013 C 
HETATM    6  C5  UNL     1      33.307  12.063  -5.151  1.00  0.00     0.042 C 
HETATM    7  C6  UNL     1      34.659  12.773  -5.094  1.00  0.00     0.037 C 
HETATM    8  C7  UNL     1      35.583  11.967  -4.258  1.00  0.00     0.131 C 
HETATM    9  O2  UNL     1      35.634  10.656  -4.833  1.00  0.00    -0.325 OA
HETATM   10  C15 UNL     1      32.298   9.898  -6.182  1.00  0.00    -0.009 C 
HETATM   11  C16 UNL     1      31.228  10.905  -6.481  1.00  0.00     0.021 C 
HETATM   12  C17 UNL     1      31.760   8.909  -5.179  1.00  0.00     0.014 C 
HETATM   13  C18 UNL     1      30.529   8.266  -5.709  1.00  0.00     0.002 C 
HETATM   14  C19 UNL     1      30.526   7.911  -7.131  1.00  0.00     0.020 C 
HETATM   15  C20 UNL     1      31.663   8.303  -8.004  1.00  0.00     0.052 C 
HETATM   16  C21 UNL     1      31.074   9.072  -9.204  1.00  0.00     0.027 C 
HETATM   17  C23 UNL     1      32.753   9.116  -7.377  1.00  0.00     0.046 C 
ENDROOT
BRANCH   8  18
HETATM   18  C8  UNL     1      36.986  12.406  -4.151  1.00  0.00     0.037 C 
BRANCH  18  19
HETATM   19  C9  UNL     1      37.610  12.571  -2.830  1.00  0.00    -0.012 C 
HETATM   20  C10 UNL     1      36.893  11.854  -1.710  1.00  0.00     0.005 C 
HETATM   21  C11 UNL     1      37.849  11.863  -0.514  1.00  0.00     0.000 C 
HETATM   22  C12 UNL     1      38.366  13.247  -0.244  1.00  0.00     0.000 C 
HETATM   23  C13 UNL     1      37.665  14.295  -1.097  1.00  0.00     0.000 C 
HETATM   24  C14 UNL     1      38.014  13.965  -2.542  1.00  0.00     0.005 C 
ENDBRANCH  18  19
ENDBRANCH   8  18
BRANCH  15  25
HETATM   25  C22 UNL     1      32.270   7.104  -8.633  1.00  0.00     0.182 C 
HETATM   26  O3  UNL     1      32.659   7.189  -9.851  1.00  0.00    -0.647 OA
HETATM   27  O4  UNL     1      32.466   5.884  -8.043  1.00  0.00    -0.647 OA
ENDBRANCH  15  25
TORSDOF 3
ENDMDL
