MODEL 1
REMARK VINA RESULT: -5.609418282      0.000      0.000
REMARK  4 active torsions:
REMARK  status: ('A' for Active; 'I' for Inactive)
REMARK    1  A    between atoms: N2_7  and  C3_8 
REMARK    2  A    between atoms: C9_14  and  C10_15 
REMARK    3  A    between atoms: C10_15  and  C11_16 
REMARK    4  A    between atoms: C11_16  and  C12_17 
ROOT
HETATM    1  O1  UNL     1      31.467  13.102  -5.869  1.00  0.00    -0.267 OA
HETATM    2  C1  UNL     1      30.903  11.968  -5.986  1.00  0.00     0.257 A 
HETATM    3  N1  UNL     1      29.567  11.876  -6.098  1.00  0.00    -0.275 N 
ATOM      4  H1  UNL     1      29.033  12.744  -6.086  1.00  0.00     0.173 HD
HETATM    5  C2  UNL     1      28.889  10.736  -6.226  1.00  0.00     0.329 A 
HETATM    6  O2  UNL     1      27.629  10.734  -6.326  1.00  0.00    -0.246 OA
HETATM    7  N2  UNL     1      29.549   9.566  -6.248  1.00  0.00    -0.304 N 
HETATM    8  C8  UNL     1      30.895   9.606  -6.138  1.00  0.00     0.108 A 
HETATM    9  C9  UNL     1      31.601  10.787  -6.005  1.00  0.00     0.026 A 
ENDROOT
BRANCH   9  10
HETATM   10  C10 UNL     1      33.089  10.800  -5.879  1.00  0.00     0.046 C 
BRANCH  10  11
HETATM   11  C11 UNL     1      33.739  10.254  -7.129  1.00  0.00     0.009 C 
BRANCH  11  12
HETATM   12  C12 UNL     1      34.470   8.965  -6.869  1.00  0.00    -0.014 C 
HETATM   13  C13 UNL     1      33.728   7.735  -7.257  1.00  0.00     0.004 C 
HETATM   14  C14 UNL     1      34.285   7.070  -8.509  1.00  0.00     0.000 C 
HETATM   15  C15 UNL     1      34.040   5.610  -8.585  1.00  0.00     0.000 C 
HETATM   16  C16 UNL     1      34.919   4.720  -7.798  1.00  0.00     0.000 C 
HETATM   17  C17 UNL     1      36.388   4.935  -7.926  1.00  0.00     0.000 C 
HETATM   18  C18 UNL     1      37.107   4.830  -6.575  1.00  0.00     0.000 C 
HETATM   19  C19 UNL     1      38.266   5.754  -6.446  1.00  0.00     0.000 C 
HETATM   20  C20 UNL     1      38.016   6.885  -5.440  1.00  0.00     0.000 C 
HETATM   21  C21 UNL     1      36.790   7.587  -5.929  1.00  0.00     0.000 C 
HETATM   22  C22 UNL     1      36.406   8.845  -5.247  1.00  0.00     0.000 C 
HETATM   23  C23 UNL     1      34.883   8.997  -5.414  1.00  0.00     0.004 C 
ENDBRANCH  11  12
ENDBRANCH  10  11
ENDBRANCH   9  10
BRANCH   7  24
HETATM   24  C3  UNL     1      28.922   8.280  -6.377  1.00  0.00     0.094 C 
HETATM   25  C4  UNL     1      28.738   7.807  -7.787  1.00  0.00     0.026 C 
HETATM   26  C5  UNL     1      28.533   6.295  -7.594  1.00  0.00     0.002 C 
HETATM   27  C6  UNL     1      29.233   5.944  -6.329  1.00  0.00     0.002 C 
HETATM   28  C7  UNL     1      29.849   7.229  -5.815  1.00  0.00     0.026 C 
ENDBRANCH   7  24
TORSDOF 4
ENDMDL
MODEL 2
REMARK VINA RESULT: -5.561604228      3.075      5.169
REMARK  4 active torsions:
REMARK  status: ('A' for Active; 'I' for Inactive)
REMARK    1  A    between atoms: N2_7  and  C3_8 
REMARK    2  A    between atoms: C9_14  and  C10_15 
REMARK    3  A    between atoms: C10_15  and  C11_16 
REMARK    4  A    between atoms: C11_16  and  C12_17 
ROOT
HETATM    1  O1  UNL     1      30.134  11.913  -6.014  1.00  0.00    -0.267 OA
HETATM    2  C1  UNL     1      29.800  10.708  -6.242  1.00  0.00     0.257 A 
HETATM    3  N1  UNL     1      28.508  10.340  -6.228  1.00  0.00    -0.275 N 
ATOM      4  H1  UNL     1      27.815  11.061  -6.028  1.00  0.00     0.173 HD
HETATM    5  C2  UNL     1      28.064   9.104  -6.456  1.00  0.00     0.329 A 
HETATM    6  O2  UNL     1      26.828   8.838  -6.424  1.00  0.00    -0.246 OA
HETATM    7  N2  UNL     1      28.938   8.121  -6.725  1.00  0.00    -0.304 N 
HETATM    8  C8  UNL     1      30.250   8.440  -6.750  1.00  0.00     0.108 A 
HETATM    9  C9  UNL     1      30.714   9.721  -6.514  1.00  0.00     0.026 A 
ENDROOT
BRANCH   9  10
HETATM   10  C10 UNL     1      32.172  10.044  -6.542  1.00  0.00     0.046 C 
BRANCH  10  11
HETATM   11  C11 UNL     1      32.854   9.559  -5.284  1.00  0.00     0.009 C 
BRANCH  11  12
HETATM   12  C12 UNL     1      33.730  10.619  -4.672  1.00  0.00    -0.014 C 
HETATM   13  C13 UNL     1      33.284  12.018  -4.918  1.00  0.00     0.004 C 
HETATM   14  C14 UNL     1      32.689  12.682  -3.682  1.00  0.00     0.000 C 
HETATM   15  C15 UNL     1      32.812  14.158  -3.664  1.00  0.00     0.000 C 
HETATM   16  C16 UNL     1      34.113  14.740  -3.273  1.00  0.00     0.000 C 
HETATM   17  C17 UNL     1      34.734  14.224  -2.020  1.00  0.00     0.000 C 
HETATM   18  C18 UNL     1      36.246  14.016  -2.168  1.00  0.00     0.000 C 
HETATM   19  C19 UNL     1      36.763  12.852  -1.399  1.00  0.00     0.000 C 
HETATM   20  C20 UNL     1      37.217  11.696  -2.301  1.00  0.00     0.000 C 
HETATM   21  C21 UNL     1      36.019  11.340  -3.122  1.00  0.00     0.000 C 
HETATM   22  C22 UNL     1      36.107  10.128  -3.969  1.00  0.00     0.000 C 
HETATM   23  C23 UNL     1      35.137  10.334  -5.147  1.00  0.00     0.004 C 
ENDBRANCH  11  12
ENDBRANCH  10  11
ENDBRANCH   9  10
BRANCH   7  24
HETATM   24  C3  UNL     1      28.572   6.755  -6.982  1.00  0.00     0.094 C 
HETATM   25  C4  UNL     1      28.959   6.243  -8.336  1.00  0.00     0.026 C 
HETATM   26  C5  UNL     1      28.902   4.720  -8.132  1.00  0.00     0.002 C 
HETATM   27  C6  UNL     1      29.155   4.490  -6.683  1.00  0.00     0.002 C 
HETATM   28  C7  UNL     1      29.375   5.857  -6.070  1.00  0.00     0.026 C 
ENDBRANCH   7  24
TORSDOF 4
ENDMDL
MODEL 3
REMARK VINA RESULT: -5.552472863      1.427      3.141
REMARK  4 active torsions:
REMARK  status: ('A' for Active; 'I' for Inactive)
REMARK    1  A    between atoms: N2_7  and  C3_8 
REMARK    2  A    between atoms: C9_14  and  C10_15 
REMARK    3  A    between atoms: C10_15  and  C11_16 
REMARK    4  A    between atoms: C11_16  and  C12_17 
ROOT
HETATM    1  O1  UNL     1      28.771  11.438  -6.318  1.00  0.00    -0.267 OA
HETATM    2  C1  UNL     1      28.783  10.190  -6.563  1.00  0.00     0.257 A 
HETATM    3  N1  UNL     1      27.759   9.609  -7.210  1.00  0.00    -0.275 N 
ATOM      4  H1  UNL     1      26.981  10.204  -7.492  1.00  0.00     0.173 HD
HETATM    5  C2  UNL     1      27.684   8.312  -7.511  1.00  0.00     0.329 A 
HETATM    6  O2  UNL     1      26.683   7.841  -8.123  1.00  0.00    -0.246 OA
HETATM    7  N2  UNL     1      28.685   7.488  -7.161  1.00  0.00    -0.304 N 
HETATM    8  C8  UNL     1      29.737   8.025  -6.507  1.00  0.00     0.108 A 
HETATM    9  C9  UNL     1      29.818   9.369  -6.194  1.00  0.00     0.026 A 
ENDROOT
BRANCH   9  10
HETATM   10  C10 UNL     1      30.993   9.934  -5.465  1.00  0.00     0.046 C 
BRANCH  10  11
HETATM   11  C11 UNL     1      32.011  10.487  -6.435  1.00  0.00     0.009 C 
BRANCH  11  12
HETATM   12  C12 UNL     1      33.096   9.490  -6.744  1.00  0.00    -0.014 C 
HETATM   13  C13 UNL     1      34.467   9.916  -6.351  1.00  0.00     0.004 C 
HETATM   14  C14 UNL     1      34.997   9.173  -5.131  1.00  0.00     0.000 C 
HETATM   15  C15 UNL     1      36.475   9.074  -5.073  1.00  0.00     0.000 C 
HETATM   16  C16 UNL     1      37.133   8.047  -5.907  1.00  0.00     0.000 C 
HETATM   17  C17 UNL     1      36.588   6.662  -5.828  1.00  0.00     0.000 C 
HETATM   18  C18 UNL     1      36.513   5.991  -7.205  1.00  0.00     0.000 C 
HETATM   19  C19 UNL     1      35.347   5.080  -7.359  1.00  0.00     0.000 C 
HETATM   20  C20 UNL     1      34.294   5.621  -8.336  1.00  0.00     0.000 C 
HETATM   21  C21 UNL     1      33.897   6.956  -7.791  1.00  0.00     0.000 C 
HETATM   22  C22 UNL     1      32.754   7.644  -8.436  1.00  0.00     0.000 C 
HETATM   23  C23 UNL     1      32.957   9.153  -8.212  1.00  0.00     0.004 C 
ENDBRANCH  11  12
ENDBRANCH  10  11
ENDBRANCH   9  10
BRANCH   7  24
HETATM   24  C3  UNL     1      28.707   6.077  -7.430  1.00  0.00     0.094 C 
HETATM   25  C4  UNL     1      29.608   5.664  -8.555  1.00  0.00     0.026 C 
HETATM   26  C5  UNL     1      29.799   4.163  -8.279  1.00  0.00     0.002 C 
HETATM   27  C6  UNL     1      29.610   3.988  -6.813  1.00  0.00     0.002 C 
HETATM   28  C7  UNL     1      29.336   5.368  -6.253  1.00  0.00     0.026 C 
ENDBRANCH   7  24
TORSDOF 4
ENDMDL
MODEL 4
REMARK VINA RESULT: -5.506719315      2.632      6.195
REMARK  4 active torsions:
REMARK  status: ('A' for Active; 'I' for Inactive)
REMARK    1  A    between atoms: N2_7  and  C3_8 
REMARK    2  A    between atoms: C9_14  and  C10_15 
REMARK    3  A    between atoms: C10_15  and  C11_16 
REMARK    4  A    between atoms: C11_16  and  C12_17 
ROOT
HETATM    1  O1  UNL     1      33.290  12.328  -3.938  1.00  0.00    -0.267 OA
HETATM    2  C1  UNL     1      34.156  11.576  -4.487  1.00  0.00     0.257 A 
HETATM    3  N1  UNL     1      35.344  12.070  -4.876  1.00  0.00    -0.275 N 
ATOM      4  H1  UNL     1      35.518  13.062  -4.713  1.00  0.00     0.173 HD
HETATM    5  C2  UNL     1      36.311  11.362  -5.457  1.00  0.00     0.329 A 
HETATM    6  O2  UNL     1      37.404  11.902  -5.794  1.00  0.00    -0.246 OA
HETATM    7  N2  UNL     1      36.130  10.052  -5.691  1.00  0.00    -0.304 N 
HETATM    8  C8  UNL     1      34.951   9.508  -5.318  1.00  0.00     0.108 A 
HETATM    9  C9  UNL     1      33.945  10.240  -4.716  1.00  0.00     0.026 A 
ENDROOT
BRANCH   9  10
HETATM   10  C10 UNL     1      32.649   9.613  -4.319  1.00  0.00     0.046 C 
BRANCH  10  11
HETATM   11  C11 UNL     1      31.578   9.901  -5.345  1.00  0.00     0.009 C 
BRANCH  11  12
HETATM   12  C12 UNL     1      31.253   8.690  -6.178  1.00  0.00    -0.014 C 
HETATM   13  C13 UNL     1      32.008   8.591  -7.457  1.00  0.00     0.004 C 
HETATM   14  C14 UNL     1      33.082   7.511  -7.435  1.00  0.00     0.000 C 
HETATM   15  C15 UNL     1      33.410   6.949  -8.766  1.00  0.00     0.000 C 
HETATM   16  C16 UNL     1      32.495   5.937  -9.334  1.00  0.00     0.000 C 
HETATM   17  C17 UNL     1      32.112   4.800  -8.450  1.00  0.00     0.000 C 
HETATM   18  C18 UNL     1      30.625   4.447  -8.574  1.00  0.00     0.000 C 
HETATM   19  C19 UNL     1      30.016   3.988  -7.296  1.00  0.00     0.000 C 
HETATM   20  C20 UNL     1      29.015   4.997  -6.717  1.00  0.00     0.000 C 
HETATM   21  C21 UNL     1      29.787   6.266  -6.547  1.00  0.00     0.000 C 
HETATM   22  C22 UNL     1      29.119   7.380  -5.834  1.00  0.00     0.000 C 
HETATM   23  C23 UNL     1      29.751   8.685  -6.352  1.00  0.00     0.004 C 
ENDBRANCH  11  12
ENDBRANCH  10  11
ENDBRANCH   9  10
BRANCH   7  24
HETATM   24  C3  UNL     1      37.100   9.194  -6.313  1.00  0.00     0.094 C 
HETATM   25  C4  UNL     1      37.243   7.842  -5.683  1.00  0.00     0.026 C 
HETATM   26  C5  UNL     1      37.924   7.036  -6.801  1.00  0.00     0.002 C 
HETATM   27  C6  UNL     1      37.528   7.691  -8.078  1.00  0.00     0.002 C 
HETATM   28  C7  UNL     1      36.618   8.840  -7.700  1.00  0.00     0.026 C 
ENDBRANCH   7  24
TORSDOF 4
ENDMDL
MODEL 5
REMARK VINA RESULT: -5.480350372      1.520      2.978
REMARK  4 active torsions:
REMARK  status: ('A' for Active; 'I' for Inactive)
REMARK    1  A    between atoms: N2_7  and  C3_8 
REMARK    2  A    between atoms: C9_14  and  C10_15 
REMARK    3  A    between atoms: C10_15  and  C11_16 
REMARK    4  A    between atoms: C11_16  and  C12_17 
ROOT
HETATM    1  O1  UNL     1      34.053  12.291  -4.166  1.00  0.00    -0.267 OA
HETATM    2  C1  UNL     1      33.288  11.431  -4.707  1.00  0.00     0.257 A 
HETATM    3  N1  UNL     1      32.088  11.792  -5.193  1.00  0.00    -0.275 N 
ATOM      4  H1  UNL     1      31.822  12.773  -5.109  1.00  0.00     0.173 HD
HETATM    5  C2  UNL     1      31.221  10.965  -5.776  1.00  0.00     0.329 A 
HETATM    6  O2  UNL     1      30.108  11.384  -6.207  1.00  0.00    -0.246 OA
HETATM    7  N2  UNL     1      31.527   9.665  -5.910  1.00  0.00    -0.304 N 
HETATM    8  C8  UNL     1      32.723   9.252  -5.437  1.00  0.00     0.108 A 
HETATM    9  C9  UNL     1      33.624  10.107  -4.831  1.00  0.00     0.026 A 
ENDROOT
BRANCH   9  10
HETATM   10  C10 UNL     1      34.938   9.621  -4.312  1.00  0.00     0.046 C 
BRANCH  10  11
HETATM   11  C11 UNL     1      36.012   9.747  -5.366  1.00  0.00     0.009 C 
BRANCH  11  12
HETATM   12  C12 UNL     1      36.185   8.475  -6.151  1.00  0.00    -0.014 C 
HETATM   13  C13 UNL     1      37.476   7.770  -5.922  1.00  0.00     0.004 C 
HETATM   14  C14 UNL     1      37.325   6.500  -5.093  1.00  0.00     0.000 C 
HETATM   15  C15 UNL     1      38.366   5.477  -5.350  1.00  0.00     0.000 C 
HETATM   16  C16 UNL     1      38.224   4.633  -6.554  1.00  0.00     0.000 C 
HETATM   17  C17 UNL     1      36.899   3.988  -6.775  1.00  0.00     0.000 C 
HETATM   18  C18 UNL     1      36.469   4.040  -8.246  1.00  0.00     0.000 C 
HETATM   19  C19 UNL     1      35.001   4.197  -8.430  1.00  0.00     0.000 C 
HETATM   20  C20 UNL     1      34.615   5.573  -8.989  1.00  0.00     0.000 C 
HETATM   21  C21 UNL     1      35.169   6.565  -8.017  1.00  0.00     0.000 C 
HETATM   22  C22 UNL     1      34.795   7.987  -8.205  1.00  0.00     0.000 C 
HETATM   23  C23 UNL     1      35.932   8.831  -7.599  1.00  0.00     0.004 C 
ENDBRANCH  11  12
ENDBRANCH  10  11
ENDBRANCH   9  10
BRANCH   7  24
HETATM   24  C3  UNL     1      30.668   8.685  -6.517  1.00  0.00     0.094 C 
HETATM   25  C4  UNL     1      31.363   7.710  -7.418  1.00  0.00     0.026 C 
HETATM   26  C5  UNL     1      30.343   6.562  -7.497  1.00  0.00     0.002 C 
HETATM   27  C6  UNL     1      29.554   6.627  -6.237  1.00  0.00     0.002 C 
HETATM   28  C7  UNL     1      30.126   7.778  -5.437  1.00  0.00     0.026 C 
ENDBRANCH   7  24
TORSDOF 4
ENDMDL
