MODEL 1
REMARK VINA RESULT: -5.315002446      0.000      0.000
REMARK  5 active torsions:
REMARK  status: ('A' for Active; 'I' for Inactive)
REMARK    1  A    between atoms: C9_9  and  C10_10 
REMARK    2  A    between atoms: C17_18  and  C18_19 
REMARK    3  A    between atoms: C18_19  and  C19_20 
REMARK    4  A    between atoms: C19_20  and  C20_21 
REMARK    5  A    between atoms: C20_21  and  O2_22 
ROOT
HETATM    1  C10 UNL     1      34.167  10.053  -5.622  1.00  0.00     0.026 C 
HETATM    2  C11 UNL     1      32.615  10.207  -5.518  1.00  0.00     0.009 C 
HETATM    3  C12 UNL     1      32.040   9.529  -6.750  1.00  0.00     0.009 C 
HETATM    4  C13 UNL     1      33.111   8.574  -6.978  1.00  0.00     0.030 C 
HETATM    5  C14 UNL     1      33.302   7.796  -8.147  1.00  0.00     0.058 C 
HETATM    6  C15 UNL     1      32.379   8.056  -9.323  1.00  0.00     0.046 C 
HETATM    7  C16 UNL     1      33.136   6.321  -7.812  1.00  0.00     0.046 C 
HETATM    8  O1  UNL     1      34.643   7.965  -8.508  1.00  0.00    -0.374 OA
HETATM    9  C17 UNL     1      35.304   8.563  -7.403  1.00  0.00     0.131 C 
HETATM   10  C21 UNL     1      34.304   9.561  -6.982  1.00  0.00    -0.005 C 
HETATM   11  C22 UNL     1      34.126  10.627  -8.014  1.00  0.00     0.019 C 
ENDROOT
BRANCH   1  12
HETATM   12  C9  UNL     1      34.662  11.357  -5.198  1.00  0.00     0.135 C 
HETATM   13  C7  UNL     1      36.048  11.607  -4.766  1.00  0.00    -0.011 C 
HETATM   14  C6  UNL     1      36.551  10.769  -3.642  1.00  0.00     0.012 C 
HETATM   15  C8  UNL     1      37.074  11.713  -5.874  1.00  0.00     0.018 C 
HETATM   16  C24 UNL     1      35.868  13.080  -4.323  1.00  0.00     0.028 C 
HETATM   17  C5  UNL     1      36.781  11.482  -2.345  1.00  0.00     0.002 C 
HETATM   18  C4  UNL     1      37.682  12.652  -2.628  1.00  0.00     0.009 C 
HETATM   19  C2  UNL     1      36.896  13.627  -3.452  1.00  0.00    -0.041 C 
HETATM   20  C1  UNL     1      36.201  14.555  -2.440  1.00  0.00     0.015 C 
HETATM   21  C3  UNL     1      37.892  14.523  -4.173  1.00  0.00     0.015 C 
HETATM   22  C23 UNL     1      34.465  13.054  -3.772  1.00  0.00     0.174 C 
HETATM   23  O3  UNL     1      33.970  11.773  -4.011  1.00  0.00    -0.384 OA
ENDBRANCH   1  12
BRANCH   9  24
HETATM   24  C18 UNL     1      35.779   7.574  -6.426  1.00  0.00     0.035 C 
BRANCH  24  25
HETATM   25  C19 UNL     1      37.064   7.824  -5.741  1.00  0.00     0.028 C 
BRANCH  25  26
HETATM   26  C20 UNL     1      38.025   6.691  -5.614  1.00  0.00     0.164 C 
BRANCH  26  27
HETATM   27  O2  UNL     1      37.800   5.888  -4.511  1.00  0.00    -0.401 OA
ATOM     28  H2  UNL     1      38.270   6.165  -3.733  1.00  0.00     0.209 HD
ENDBRANCH  26  27
ENDBRANCH  25  26
ENDBRANCH  24  25
ENDBRANCH   9  24
TORSDOF 5
ENDMDL
MODEL 2
REMARK VINA RESULT: -5.082146423      1.390      1.854
REMARK  5 active torsions:
REMARK  status: ('A' for Active; 'I' for Inactive)
REMARK    1  A    between atoms: C9_9  and  C10_10 
REMARK    2  A    between atoms: C17_18  and  C18_19 
REMARK    3  A    between atoms: C18_19  and  C19_20 
REMARK    4  A    between atoms: C19_20  and  C20_21 
REMARK    5  A    between atoms: C20_21  and  O2_22 
ROOT
HETATM    1  C10 UNL     1      34.232   8.589  -6.585  1.00  0.00     0.026 C 
HETATM    2  C11 UNL     1      32.684   8.680  -6.780  1.00  0.00     0.009 C 
HETATM    3  C12 UNL     1      32.347   7.747  -7.930  1.00  0.00     0.009 C 
HETATM    4  C13 UNL     1      33.458   6.823  -7.776  1.00  0.00     0.030 C 
HETATM    5  C14 UNL     1      33.864   5.842  -8.715  1.00  0.00     0.058 C 
HETATM    6  C15 UNL     1      33.160   5.821 -10.059  1.00  0.00     0.046 C 
HETATM    7  C16 UNL     1      33.666   4.454  -8.124  1.00  0.00     0.046 C 
HETATM    8  O1  UNL     1      35.245   6.006  -8.870  1.00  0.00    -0.374 OA
HETATM    9  C17 UNL     1      35.691   6.841  -7.812  1.00  0.00     0.131 C 
HETATM   10  C21 UNL     1      34.616   7.849  -7.775  1.00  0.00    -0.005 C 
HETATM   11  C22 UNL     1      34.605   8.683  -9.016  1.00  0.00     0.019 C 
ENDROOT
BRANCH   1  12
HETATM   12  C9  UNL     1      34.623   9.975  -6.354  1.00  0.00     0.135 C 
HETATM   13  C7  UNL     1      35.900  10.375  -5.738  1.00  0.00    -0.011 C 
HETATM   14  C6  UNL     1      36.193   9.803  -4.395  1.00  0.00     0.012 C 
HETATM   15  C8  UNL     1      37.115  10.309  -6.640  1.00  0.00     0.018 C 
HETATM   16  C24 UNL     1      35.622  11.896  -5.646  1.00  0.00     0.028 C 
HETATM   17  C5  UNL     1      36.167  10.769  -3.251  1.00  0.00     0.002 C 
HETATM   18  C4  UNL     1      37.091  11.904  -3.599  1.00  0.00     0.009 C 
HETATM   19  C2  UNL     1      36.462  12.655  -4.734  1.00  0.00    -0.041 C 
HETATM   20  C1  UNL     1      35.577  13.730  -4.076  1.00  0.00     0.015 C 
HETATM   21  C3  UNL     1      37.565  13.439  -5.429  1.00  0.00     0.015 C 
HETATM   22  C23 UNL     1      34.141  11.909  -5.366  1.00  0.00     0.174 C 
HETATM   23  O3  UNL     1      33.716  10.583  -5.423  1.00  0.00    -0.384 OA
ENDBRANCH   1  12
BRANCH   9  24
HETATM   24  C18 UNL     1      36.001   6.088  -6.589  1.00  0.00     0.035 C 
BRANCH  24  25
HETATM   25  C19 UNL     1      37.066   5.065  -6.645  1.00  0.00     0.028 C 
BRANCH  25  26
HETATM   26  C20 UNL     1      38.177   5.151  -5.655  1.00  0.00     0.164 C 
BRANCH  26  27
HETATM   27  O2  UNL     1      37.870   5.899  -4.533  1.00  0.00    -0.401 OA
ATOM     28  H2  UNL     1      38.257   5.566  -3.733  1.00  0.00     0.209 HD
ENDBRANCH  26  27
ENDBRANCH  25  26
ENDBRANCH  24  25
ENDBRANCH   9  24
TORSDOF 5
ENDMDL
MODEL 3
REMARK VINA RESULT: -4.968743302      1.630      2.410
REMARK  5 active torsions:
REMARK  status: ('A' for Active; 'I' for Inactive)
REMARK    1  A    between atoms: C9_9  and  C10_10 
REMARK    2  A    between atoms: C17_18  and  C18_19 
REMARK    3  A    between atoms: C18_19  and  C19_20 
REMARK    4  A    between atoms: C19_20  and  C20_21 
REMARK    5  A    between atoms: C20_21  and  O2_22 
ROOT
HETATM    1  C10 UNL     1      32.525   8.617  -6.230  1.00  0.00     0.026 C 
HETATM    2  C11 UNL     1      31.079   8.616  -5.638  1.00  0.00     0.009 C 
HETATM    3  C12 UNL     1      30.200   7.930  -6.670  1.00  0.00     0.009 C 
HETATM    4  C13 UNL     1      31.219   7.093  -7.282  1.00  0.00     0.030 C 
HETATM    5  C14 UNL     1      31.092   6.379  -8.500  1.00  0.00     0.058 C 
HETATM    6  C15 UNL     1      29.827   6.590  -9.311  1.00  0.00     0.046 C 
HETATM    7  C16 UNL     1      31.161   4.884  -8.227  1.00  0.00     0.046 C 
HETATM    8  O1  UNL     1      32.231   6.690  -9.250  1.00  0.00    -0.374 OA
HETATM    9  C17 UNL     1      33.157   7.310  -8.370  1.00  0.00     0.131 C 
HETATM   10  C21 UNL     1      32.265   8.190  -7.594  1.00  0.00    -0.005 C 
HETATM   11  C22 UNL     1      31.683   9.270  -8.448  1.00  0.00     0.019 C 
ENDROOT
BRANCH   1  12
HETATM   12  C9  UNL     1      33.022   9.948  -5.898  1.00  0.00     0.135 C 
HETATM   13  C7  UNL     1      34.450  10.306  -5.869  1.00  0.00    -0.011 C 
HETATM   14  C6  UNL     1      35.320   9.484  -4.982  1.00  0.00     0.012 C 
HETATM   15  C8  UNL     1      35.100  10.532  -7.218  1.00  0.00     0.018 C 
HETATM   16  C24 UNL     1      34.295  11.745  -5.317  1.00  0.00     0.028 C 
HETATM   17  C5  UNL     1      35.861  10.177  -3.770  1.00  0.00     0.002 C 
HETATM   18  C4  UNL     1      36.550  11.430  -4.238  1.00  0.00     0.009 C 
HETATM   19  C2  UNL     1      35.487  12.355  -4.750  1.00  0.00    -0.041 C 
HETATM   20  C1  UNL     1      35.047  13.189  -3.534  1.00  0.00     0.015 C 
HETATM   21  C3  UNL     1      36.161  13.355  -5.678  1.00  0.00     0.015 C 
HETATM   22  C23 UNL     1      33.119  11.580  -4.390  1.00  0.00     0.174 C 
HETATM   23  O3  UNL     1      32.674  10.268  -4.543  1.00  0.00    -0.384 OA
ENDBRANCH   1  12
BRANCH   9  24
HETATM   24  C18 UNL     1      33.996   6.338  -7.655  1.00  0.00     0.035 C 
BRANCH  24  25
HETATM   25  C19 UNL     1      35.388   6.713  -7.333  1.00  0.00     0.028 C 
BRANCH  25  26
HETATM   26  C20 UNL     1      36.272   5.678  -6.725  1.00  0.00     0.164 C 
BRANCH  26  27
HETATM   27  O2  UNL     1      36.401   5.789  -5.353  1.00  0.00    -0.401 OA
ATOM     28  H2  UNL     1      36.866   6.568  -5.073  1.00  0.00     0.209 HD
ENDBRANCH  26  27
ENDBRANCH  25  26
ENDBRANCH  24  25
ENDBRANCH   9  24
TORSDOF 5
ENDMDL
MODEL 4
REMARK VINA RESULT: -4.813082893      2.461      4.140
REMARK  5 active torsions:
REMARK  status: ('A' for Active; 'I' for Inactive)
REMARK    1  A    between atoms: C9_9  and  C10_10 
REMARK    2  A    between atoms: C17_18  and  C18_19 
REMARK    3  A    between atoms: C18_19  and  C19_20 
REMARK    4  A    between atoms: C19_20  and  C20_21 
REMARK    5  A    between atoms: C20_21  and  O2_22 
ROOT
HETATM    1  C10 UNL     1      31.962   8.129  -6.564  1.00  0.00     0.026 C 
HETATM    2  C11 UNL     1      30.914   8.569  -5.492  1.00  0.00     0.009 C 
HETATM    3  C12 UNL     1      29.549   8.265  -6.085  1.00  0.00     0.009 C 
HETATM    4  C13 UNL     1      29.944   7.175  -6.961  1.00  0.00     0.030 C 
HETATM    5  C14 UNL     1      29.159   6.609  -7.996  1.00  0.00     0.058 C 
HETATM    6  C15 UNL     1      27.827   7.266  -8.308  1.00  0.00     0.046 C 
HETATM    7  C16 UNL     1      28.834   5.161  -7.659  1.00  0.00     0.046 C 
HETATM    8  O1  UNL     1      29.981   6.570  -9.127  1.00  0.00    -0.374 OA
HETATM    9  C17 UNL     1      31.311   6.804  -8.688  1.00  0.00     0.131 C 
HETATM   10  C21 UNL     1      31.099   7.885  -7.707  1.00  0.00    -0.005 C 
HETATM   11  C22 UNL     1      30.630   9.140  -8.370  1.00  0.00     0.019 C 
ENDROOT
BRANCH   1  12
HETATM   12  C9  UNL     1      32.947   9.204  -6.531  1.00  0.00     0.135 C 
HETATM   13  C7  UNL     1      34.314   9.080  -7.067  1.00  0.00    -0.011 C 
HETATM   14  C6  UNL     1      35.138   7.966  -6.523  1.00  0.00     0.012 C 
HETATM   15  C8  UNL     1      34.441   9.173  -8.573  1.00  0.00     0.018 C 
HETATM   16  C24 UNL     1      34.851  10.453  -6.591  1.00  0.00     0.028 C 
HETATM   17  C5  UNL     1      36.289   8.366  -5.653  1.00  0.00     0.002 C 
HETATM   18  C4  UNL     1      37.115   9.358  -6.425  1.00  0.00     0.009 C 
HETATM   19  C2  UNL     1      36.297  10.607  -6.557  1.00  0.00    -0.041 C 
HETATM   20  C1  UNL     1      36.642  11.457  -5.321  1.00  0.00     0.015 C 
HETATM   21  C3  UNL     1      36.853  11.396  -7.733  1.00  0.00     0.015 C 
HETATM   22  C23 UNL     1      34.127  10.615  -5.279  1.00  0.00     0.174 C 
HETATM   23  O3  UNL     1      33.260   9.529  -5.169  1.00  0.00    -0.384 OA
ENDBRANCH   1  12
BRANCH   9  24
HETATM   24  C18 UNL     1      31.989   5.574  -8.256  1.00  0.00     0.035 C 
BRANCH  24  25
HETATM   25  C19 UNL     1      33.423   5.412  -8.573  1.00  0.00     0.028 C 
BRANCH  25  26
HETATM   26  C20 UNL     1      34.084   4.128  -8.206  1.00  0.00     0.164 C 
BRANCH  26  27
HETATM   27  O2  UNL     1      35.224   4.286  -7.438  1.00  0.00    -0.401 OA
ATOM     28  H2  UNL     1      35.944   3.725  -7.701  1.00  0.00     0.209 HD
ENDBRANCH  26  27
ENDBRANCH  25  26
ENDBRANCH  24  25
ENDBRANCH   9  24
TORSDOF 5
ENDMDL
MODEL 5
REMARK VINA RESULT: -4.801459732      2.117      6.724
REMARK  5 active torsions:
REMARK  status: ('A' for Active; 'I' for Inactive)
REMARK    1  A    between atoms: C9_9  and  C10_10 
REMARK    2  A    between atoms: C17_18  and  C18_19 
REMARK    3  A    between atoms: C18_19  and  C19_20 
REMARK    4  A    between atoms: C19_20  and  C20_21 
REMARK    5  A    between atoms: C20_21  and  O2_22 
ROOT
HETATM    1  C10 UNL     1      33.334   9.498  -6.432  1.00  0.00     0.026 C 
HETATM    2  C11 UNL     1      32.688  10.892  -6.713  1.00  0.00     0.009 C 
HETATM    3  C12 UNL     1      33.354  11.868  -5.758  1.00  0.00     0.009 C 
HETATM    4  C13 UNL     1      34.621  11.171  -5.604  1.00  0.00     0.030 C 
HETATM    5  C14 UNL     1      35.610  11.442  -4.626  1.00  0.00     0.058 C 
HETATM    6  C15 UNL     1      35.282  12.472  -3.561  1.00  0.00     0.046 C 
HETATM    7  C16 UNL     1      36.878  11.939  -5.304  1.00  0.00     0.046 C 
HETATM    8  O1  UNL     1      35.933  10.208  -4.052  1.00  0.00    -0.374 OA
HETATM    9  C17 UNL     1      35.390   9.199  -4.891  1.00  0.00     0.131 C 
HETATM   10  C21 UNL     1      34.072   9.777  -5.212  1.00  0.00    -0.005 C 
HETATM   11  C22 UNL     1      33.200   9.856  -4.001  1.00  0.00     0.019 C 
ENDROOT
BRANCH   1  12
HETATM   12  C9  UNL     1      32.197   8.586  -6.478  1.00  0.00     0.135 C 
HETATM   13  C7  UNL     1      31.876   7.733  -7.635  1.00  0.00    -0.011 C 
HETATM   14  C6  UNL     1      31.693   8.430  -8.939  1.00  0.00     0.012 C 
HETATM   15  C8  UNL     1      32.725   6.490  -7.793  1.00  0.00     0.018 C 
HETATM   16  C24 UNL     1      30.532   7.168  -7.114  1.00  0.00     0.028 C 
HETATM   17  C5  UNL     1      30.297   8.451  -9.480  1.00  0.00     0.002 C 
HETATM   18  C4  UNL     1      29.809   7.029  -9.524  1.00  0.00     0.009 C 
HETATM   19  C2  UNL     1      29.650   6.572  -8.105  1.00  0.00    -0.041 C 
HETATM   20  C1  UNL     1      28.205   6.934  -7.716  1.00  0.00     0.015 C 
HETATM   21  C3  UNL     1      29.677   5.051  -8.110  1.00  0.00     0.015 C 
HETATM   22  C23 UNL     1      29.988   8.351  -6.355  1.00  0.00     0.174 C 
HETATM   23  O3  UNL     1      30.975   9.334  -6.394  1.00  0.00    -0.384 OA
ENDBRANCH   1  12
BRANCH   9  24
HETATM   24  C18 UNL     1      36.292   8.830  -5.991  1.00  0.00     0.035 C 
BRANCH  24  25
HETATM   25  C19 UNL     1      37.102   7.602  -5.854  1.00  0.00     0.028 C 
BRANCH  25  26
HETATM   26  C20 UNL     1      36.411   6.287  -5.972  1.00  0.00     0.164 C 
BRANCH  26  27
HETATM   27  O2  UNL     1      36.708   5.406  -4.949  1.00  0.00    -0.401 OA
ATOM     28  H2  UNL     1      36.048   5.372  -4.267  1.00  0.00     0.209 HD
ENDBRANCH  26  27
ENDBRANCH  25  26
ENDBRANCH  24  25
ENDBRANCH   9  24
TORSDOF 5
ENDMDL
