MODEL 1
REMARK VINA RESULT: -5.337420245      0.000      0.000
REMARK  4 active torsions:
REMARK  status: ('A' for Active; 'I' for Inactive)
REMARK    1  A    between atoms: C2_2  and  C3_3 
REMARK    2  A    between atoms: C3_3  and  C4_4 
REMARK    3  A    between atoms: C4_4  and  C5_6 
REMARK    4  A    between atoms: C6_9  and  C7_10 
ROOT
HETATM    1  C7  UNL     1      33.988  10.119  -5.208  1.00  0.00    -0.001 C 
HETATM    2  C8  UNL     1      32.642   9.615  -4.812  1.00  0.00     0.022 C 
HETATM    3  C9  UNL     1      34.127  10.016  -6.741  1.00  0.00     0.021 C 
HETATM    4  C10 UNL     1      34.446   8.582  -6.477  1.00  0.00     0.000 C 
HETATM    5  C11 UNL     1      35.081   9.072  -5.172  1.00  0.00     0.004 C 
HETATM    6  C12 UNL     1      36.473   9.534  -5.342  1.00  0.00     0.006 C 
HETATM    7  C13 UNL     1      37.322   8.480  -5.940  1.00  0.00     0.006 C 
HETATM    8  C14 UNL     1      36.645   7.437  -6.733  1.00  0.00    -0.006 C 
HETATM    9  C15 UNL     1      36.508   6.149  -5.914  1.00  0.00     0.006 C 
HETATM   10  C16 UNL     1      36.387   5.040  -6.935  1.00  0.00     0.009 C 
HETATM   11  C17 UNL     1      35.405   5.376  -8.018  1.00  0.00    -0.047 C 
HETATM   12  C18 UNL     1      36.044   5.320  -9.409  1.00  0.00     0.015 C 
HETATM   13  C19 UNL     1      34.418   4.187  -8.046  1.00  0.00     0.015 C 
HETATM   14  C20 UNL     1      34.586   6.576  -7.788  1.00  0.00     0.018 C 
HETATM   15  C21 UNL     1      35.349   7.836  -7.372  1.00  0.00    -0.036 C 
HETATM   16  C22 UNL     1      35.686   8.550  -8.665  1.00  0.00     0.016 C 
ENDROOT
BRANCH   1  17
HETATM   17  C6  UNL     1      34.348  11.475  -4.732  1.00  0.00    -0.001 C 
HETATM   18  N1  UNL     1      34.536  11.874  -3.538  1.00  0.00    -0.378 N 
HETATM   19  C5  UNL     1      34.871  13.249  -3.446  1.00  0.00     0.221 C 
ATOM     20  H1  UNL     1      34.454  11.263  -2.725  1.00  0.00     0.160 HD
HETATM   21  C24 UNL     1      34.529  13.804  -4.804  1.00  0.00     0.162 C 
HETATM   22  C23 UNL     1      34.544  12.605  -5.679  1.00  0.00     0.134 C 
HETATM   23  O2  UNL     1      34.307  14.974  -5.041  1.00  0.00    -0.295 OA
BRANCH  19  24
HETATM   24  C4  UNL     1      36.292  13.507  -3.209  1.00  0.00     0.156 C 
HETATM   25  O1  UNL     1      36.717  14.641  -3.275  1.00  0.00    -0.295 OA
BRANCH  24  26
HETATM   26  C3  UNL     1      37.240  12.416  -2.887  1.00  0.00     0.080 C 
BRANCH  26  27
HETATM   27  C2  UNL     1      37.999  12.683  -1.616  1.00  0.00     0.003 C 
HETATM   28  C1  UNL     1      37.629  11.631  -0.599  1.00  0.00     0.005 C 
ENDBRANCH  26  27
ENDBRANCH  24  26
ENDBRANCH  19  24
ENDBRANCH   1  17
TORSDOF 4
ENDMDL
MODEL 2
REMARK VINA RESULT: -5.141027488      4.376      7.528
REMARK  4 active torsions:
REMARK  status: ('A' for Active; 'I' for Inactive)
REMARK    1  A    between atoms: C2_2  and  C3_3 
REMARK    2  A    between atoms: C3_3  and  C4_4 
REMARK    3  A    between atoms: C4_4  and  C5_6 
REMARK    4  A    between atoms: C6_9  and  C7_10 
ROOT
HETATM    1  C7  UNL     1      31.024  11.466  -7.189  1.00  0.00    -0.001 C 
HETATM    2  C8  UNL     1      31.546  12.058  -8.454  1.00  0.00     0.022 C 
HETATM    3  C9  UNL     1      31.341  12.425  -6.023  1.00  0.00     0.021 C 
HETATM    4  C10 UNL     1      32.700  11.808  -6.067  1.00  0.00     0.000 C 
HETATM    5  C11 UNL     1      31.987  10.523  -6.499  1.00  0.00     0.004 C 
HETATM    6  C12 UNL     1      31.472   9.735  -5.362  1.00  0.00     0.006 C 
HETATM    7  C13 UNL     1      32.549   9.404  -4.402  1.00  0.00     0.006 C 
HETATM    8  C14 UNL     1      33.734  10.280  -4.391  1.00  0.00    -0.006 C 
HETATM    9  C15 UNL     1      34.896   9.616  -5.139  1.00  0.00     0.006 C 
HETATM   10  C16 UNL     1      36.147  10.252  -4.577  1.00  0.00     0.009 C 
HETATM   11  C17 UNL     1      36.033  11.746  -4.497  1.00  0.00    -0.047 C 
HETATM   12  C18 UNL     1      36.251  12.263  -3.072  1.00  0.00     0.015 C 
HETATM   13  C19 UNL     1      37.270  12.282  -5.251  1.00  0.00     0.015 C 
HETATM   14  C20 UNL     1      34.864  12.334  -5.169  1.00  0.00     0.018 C 
HETATM   15  C21 UNL     1      33.512  11.693  -4.842  1.00  0.00    -0.036 C 
HETATM   16  C22 UNL     1      32.975  12.465  -3.655  1.00  0.00     0.016 C 
ENDROOT
BRANCH   1  17
HETATM   17  C6  UNL     1      29.595  11.079  -7.185  1.00  0.00    -0.001 C 
HETATM   18  N1  UNL     1      28.990  10.264  -7.954  1.00  0.00    -0.378 N 
HETATM   19  C5  UNL     1      27.607  10.133  -7.664  1.00  0.00     0.221 C 
ATOM     20  H1  UNL     1      29.454   9.756  -8.706  1.00  0.00     0.160 HD
HETATM   21  C24 UNL     1      27.307  11.296  -6.755  1.00  0.00     0.162 C 
HETATM   22  C23 UNL     1      28.637  11.650  -6.200  1.00  0.00     0.134 C 
HETATM   23  O2  UNL     1      26.205  11.772  -6.577  1.00  0.00    -0.295 OA
BRANCH  19  24
HETATM   24  C4  UNL     1      27.259   8.907  -6.942  1.00  0.00     0.156 C 
HETATM   25  O1  UNL     1      26.366   8.924  -6.123  1.00  0.00    -0.295 OA
BRANCH  24  26
HETATM   26  C3  UNL     1      27.972   7.632  -7.182  1.00  0.00     0.080 C 
BRANCH  26  27
HETATM   27  C2  UNL     1      28.863   7.257  -6.029  1.00  0.00     0.003 C 
HETATM   28  C1  UNL     1      29.311   5.827  -6.206  1.00  0.00     0.005 C 
ENDBRANCH  26  27
ENDBRANCH  24  26
ENDBRANCH  19  24
ENDBRANCH   1  17
TORSDOF 4
ENDMDL
MODEL 3
REMARK VINA RESULT: -5.094438610      4.436      6.645
REMARK  4 active torsions:
REMARK  status: ('A' for Active; 'I' for Inactive)
REMARK    1  A    between atoms: C2_2  and  C3_3 
REMARK    2  A    between atoms: C3_3  and  C4_4 
REMARK    3  A    between atoms: C4_4  and  C5_6 
REMARK    4  A    between atoms: C6_9  and  C7_10 
ROOT
HETATM    1  C7  UNL     1      30.596   8.828  -6.639  1.00  0.00    -0.001 C 
HETATM    2  C8  UNL     1      30.438   7.357  -6.450  1.00  0.00     0.022 C 
HETATM    3  C9  UNL     1      31.635   9.078  -7.751  1.00  0.00     0.021 C 
HETATM    4  C10 UNL     1      32.641   8.839  -6.674  1.00  0.00     0.000 C 
HETATM    5  C11 UNL     1      31.618   9.468  -5.724  1.00  0.00     0.004 C 
HETATM    6  C12 UNL     1      31.681  10.943  -5.699  1.00  0.00     0.006 C 
HETATM    7  C13 UNL     1      33.038  11.420  -5.351  1.00  0.00     0.006 C 
HETATM    8  C14 UNL     1      34.162  10.502  -5.612  1.00  0.00    -0.006 C 
HETATM    9  C15 UNL     1      34.618   9.833  -4.310  1.00  0.00     0.006 C 
HETATM   10  C16 UNL     1      36.056   9.432  -4.551  1.00  0.00     0.009 C 
HETATM   11  C17 UNL     1      36.237   8.751  -5.875  1.00  0.00    -0.047 C 
HETATM   12  C18 UNL     1      37.265   9.467  -6.755  1.00  0.00     0.015 C 
HETATM   13  C19 UNL     1      36.939   7.414  -5.544  1.00  0.00     0.015 C 
HETATM   14  C20 UNL     1      34.998   8.391  -6.583  1.00  0.00     0.018 C 
HETATM   15  C21 UNL     1      33.955   9.505  -6.712  1.00  0.00    -0.036 C 
HETATM   16  C22 UNL     1      34.269  10.204  -8.018  1.00  0.00     0.016 C 
ENDROOT
BRANCH   1  17
HETATM   17  C6  UNL     1      29.353   9.595  -6.890  1.00  0.00    -0.001 C 
HETATM   18  N1  UNL     1      28.308   9.673  -6.168  1.00  0.00    -0.378 N 
HETATM   19  C5  UNL     1      27.300  10.505  -6.720  1.00  0.00     0.221 C 
ATOM     20  H1  UNL     1      28.205   9.184  -5.279  1.00  0.00     0.160 HD
HETATM   21  C24 UNL     1      27.729  10.707  -8.149  1.00  0.00     0.162 C 
HETATM   22  C23 UNL     1      29.185  10.421  -8.115  1.00  0.00     0.134 C 
HETATM   23  O2  UNL     1      26.990  11.030  -9.057  1.00  0.00    -0.295 OA
BRANCH  19  24
HETATM   24  C4  UNL     1      27.205  11.826  -6.096  1.00  0.00     0.156 C 
HETATM   25  O1  UNL     1      28.054  12.661  -6.321  1.00  0.00    -0.295 OA
BRANCH  24  26
HETATM   26  C3  UNL     1      26.091  12.180  -5.186  1.00  0.00     0.080 C 
BRANCH  26  27
HETATM   27  C2  UNL     1      26.585  12.768  -3.892  1.00  0.00     0.003 C 
HETATM   28  C1  UNL     1      25.690  12.295  -2.771  1.00  0.00     0.005 C 
ENDBRANCH  26  27
ENDBRANCH  24  26
ENDBRANCH  19  24
ENDBRANCH   1  17
TORSDOF 4
ENDMDL
MODEL 4
REMARK VINA RESULT: -5.057842398      1.297      2.332
REMARK  4 active torsions:
REMARK  status: ('A' for Active; 'I' for Inactive)
REMARK    1  A    between atoms: C2_2  and  C3_3 
REMARK    2  A    between atoms: C3_3  and  C4_4 
REMARK    3  A    between atoms: C4_4  and  C5_6 
REMARK    4  A    between atoms: C6_9  and  C7_10 
ROOT
HETATM    1  C7  UNL     1      34.750   9.956  -5.011  1.00  0.00    -0.001 C 
HETATM    2  C8  UNL     1      33.484   9.647  -4.286  1.00  0.00     0.022 C 
HETATM    3  C9  UNL     1      34.454  10.024  -6.523  1.00  0.00     0.021 C 
HETATM    4  C10 UNL     1      34.536   8.534  -6.465  1.00  0.00     0.000 C 
HETATM    5  C11 UNL     1      35.579   8.739  -5.363  1.00  0.00     0.004 C 
HETATM    6  C12 UNL     1      36.940   8.970  -5.889  1.00  0.00     0.006 C 
HETATM    7  C13 UNL     1      37.370   7.868  -6.778  1.00  0.00     0.006 C 
HETATM    8  C14 UNL     1      36.311   7.067  -7.418  1.00  0.00    -0.006 C 
HETATM    9  C15 UNL     1      36.139   5.729  -6.689  1.00  0.00     0.006 C 
HETATM   10  C16 UNL     1      35.531   4.795  -7.711  1.00  0.00     0.009 C 
HETATM   11  C17 UNL     1      34.385   5.429  -8.443  1.00  0.00    -0.047 C 
HETATM   12  C18 UNL     1      34.607   5.439  -9.959  1.00  0.00     0.015 C 
HETATM   13  C19 UNL     1      33.208   4.442  -8.275  1.00  0.00     0.015 C 
HETATM   14  C20 UNL     1      33.915   6.714  -7.904  1.00  0.00     0.018 C 
HETATM   15  C21 UNL     1      34.999   7.761  -7.632  1.00  0.00    -0.036 C 
HETATM   16  C22 UNL     1      35.118   8.562  -8.912  1.00  0.00     0.016 C 
ENDROOT
BRANCH   1  17
HETATM   17  C6  UNL     1      35.489  11.158  -4.560  1.00  0.00    -0.001 C 
HETATM   18  N1  UNL     1      35.662  12.261  -5.172  1.00  0.00    -0.378 N 
HETATM   19  C5  UNL     1      36.430  13.201  -4.438  1.00  0.00     0.221 C 
ATOM     20  H1  UNL     1      35.284  12.450  -6.100  1.00  0.00     0.160 HD
HETATM   21  C24 UNL     1      37.053  12.388  -3.334  1.00  0.00     0.162 C 
HETATM   22  C23 UNL     1      36.164  11.204  -3.235  1.00  0.00     0.134 C 
HETATM   23  O2  UNL     1      38.052  12.703  -2.719  1.00  0.00    -0.295 OA
BRANCH  19  24
HETATM   24  C4  UNL     1      35.640  14.264  -3.813  1.00  0.00     0.156 C 
HETATM   25  O1  UNL     1      36.187  15.085  -3.109  1.00  0.00    -0.295 OA
BRANCH  24  26
HETATM   26  C3  UNL     1      34.177  14.369  -4.013  1.00  0.00     0.080 C 
BRANCH  26  27
HETATM   27  C2  UNL     1      33.406  13.795  -2.856  1.00  0.00     0.003 C 
HETATM   28  C1  UNL     1      32.246  12.994  -3.396  1.00  0.00     0.005 C 
ENDBRANCH  26  27
ENDBRANCH  24  26
ENDBRANCH  19  24
ENDBRANCH   1  17
TORSDOF 4
ENDMDL
MODEL 5
REMARK VINA RESULT: -5.044620728      4.436      6.607
REMARK  4 active torsions:
REMARK  status: ('A' for Active; 'I' for Inactive)
REMARK    1  A    between atoms: C2_2  and  C3_3 
REMARK    2  A    between atoms: C3_3  and  C4_4 
REMARK    3  A    between atoms: C4_4  and  C5_6 
REMARK    4  A    between atoms: C6_9  and  C7_10 
ROOT
HETATM    1  C7  UNL     1      30.338   8.673  -6.662  1.00  0.00    -0.001 C 
HETATM    2  C8  UNL     1      30.222   7.208  -6.410  1.00  0.00     0.022 C 
HETATM    3  C9  UNL     1      31.378   8.906  -7.778  1.00  0.00     0.021 C 
HETATM    4  C10 UNL     1      32.382   8.742  -6.685  1.00  0.00     0.000 C 
HETATM    5  C11 UNL     1      31.335   9.382  -5.769  1.00  0.00     0.004 C 
HETATM    6  C12 UNL     1      31.355  10.858  -5.808  1.00  0.00     0.006 C 
HETATM    7  C13 UNL     1      32.695  11.388  -5.473  1.00  0.00     0.006 C 
HETATM    8  C14 UNL     1      33.847  10.494  -5.686  1.00  0.00    -0.006 C 
HETATM    9  C15 UNL     1      34.312   9.895  -4.354  1.00  0.00     0.006 C 
HETATM   10  C16 UNL     1      35.763   9.526  -4.569  1.00  0.00     0.009 C 
HETATM   11  C17 UNL     1      35.973   8.794  -5.861  1.00  0.00    -0.047 C 
HETATM   12  C18 UNL     1      36.988   9.501  -6.764  1.00  0.00     0.015 C 
HETATM   13  C19 UNL     1      36.711   7.494  -5.468  1.00  0.00     0.015 C 
HETATM   14  C20 UNL     1      34.751   8.368  -6.560  1.00  0.00     0.018 C 
HETATM   15  C21 UNL     1      33.677   9.444  -6.744  1.00  0.00    -0.036 C 
HETATM   16  C22 UNL     1      33.981  10.096  -8.077  1.00  0.00     0.016 C 
ENDROOT
BRANCH   1  17
HETATM   17  C6  UNL     1      29.076   9.392  -6.954  1.00  0.00    -0.001 C 
HETATM   18  N1  UNL     1      28.065   9.561  -6.200  1.00  0.00    -0.378 N 
HETATM   19  C5  UNL     1      27.023  10.305  -6.809  1.00  0.00     0.221 C 
ATOM     20  H1  UNL     1      28.010   9.195  -5.249  1.00  0.00     0.160 HD
HETATM   21  C24 UNL     1      27.381  10.316  -8.271  1.00  0.00     0.162 C 
HETATM   22  C23 UNL     1      28.840  10.045  -8.269  1.00  0.00     0.134 C 
HETATM   23  O2  UNL     1      26.596  10.508  -9.178  1.00  0.00    -0.295 OA
BRANCH  19  24
HETATM   24  C4  UNL     1      26.940  11.698  -6.364  1.00  0.00     0.156 C 
HETATM   25  O1  UNL     1      26.023  12.396  -6.739  1.00  0.00    -0.295 OA
BRANCH  24  26
HETATM   26  C3  UNL     1      27.953  12.290  -5.461  1.00  0.00     0.080 C 
BRANCH  26  27
HETATM   27  C2  UNL     1      28.721  13.400  -6.124  1.00  0.00     0.003 C 
HETATM   28  C1  UNL     1      29.587  14.078  -5.089  1.00  0.00     0.005 C 
ENDBRANCH  26  27
ENDBRANCH  24  26
ENDBRANCH  19  24
ENDBRANCH   1  17
TORSDOF 4
ENDMDL
