MODEL 1
REMARK VINA RESULT: -4.781140781      0.000      0.000
REMARK  5 active torsions:
REMARK  status: ('A' for Active; 'I' for Inactive)
REMARK    1  A    between atoms: O1_2  and  C2_3 
REMARK    2  A    between atoms: C2_3  and  C3_5 
REMARK    3  A    between atoms: C3_5  and  C4_6 
REMARK    4  A    between atoms: C4_6  and  C5_7 
REMARK    5  A    between atoms: C21_23  and  C23_25 
ROOT
HETATM    1  C5  UNL     1      36.798  12.154  -3.600  1.00  0.00     0.009 C 
HETATM    2  C6  UNL     1      35.791  11.291  -4.350  1.00  0.00    -0.004 C 
HETATM    3  C7  UNL     1      36.195   9.863  -4.130  1.00  0.00     0.006 C 
HETATM    4  C8  UNL     1      35.684   8.883  -5.122  1.00  0.00     0.006 C 
HETATM    5  C9  UNL     1      35.424   9.340  -6.503  1.00  0.00     0.002 C 
HETATM    6  C10 UNL     1      35.758   8.279  -7.518  1.00  0.00    -0.043 C 
HETATM    7  C11 UNL     1      35.857   6.893  -6.852  1.00  0.00     0.015 C 
HETATM    8  C12 UNL     1      34.642   8.108  -8.552  1.00  0.00     0.015 C 
HETATM    9  C13 UNL     1      37.098   8.492  -8.178  1.00  0.00     0.009 C 
HETATM   10  C14 UNL     1      38.059   9.273  -7.318  1.00  0.00     0.002 C 
HETATM   11  C15 UNL     1      37.528  10.629  -6.897  1.00  0.00     0.010 C 
HETATM   12  C16 UNL     1      36.048  10.695  -6.812  1.00  0.00    -0.036 C 
HETATM   13  C17 UNL     1      35.527  11.296  -8.092  1.00  0.00     0.016 C 
HETATM   14  C18 UNL     1      35.484  11.617  -5.733  1.00  0.00    -0.002 C 
HETATM   15  C19 UNL     1      35.671  13.084  -6.041  1.00  0.00     0.007 C 
HETATM   16  C20 UNL     1      36.980  13.597  -5.575  1.00  0.00     0.021 C 
HETATM   17  C21 UNL     1      36.988  13.530  -4.042  1.00  0.00     0.049 C 
HETATM   18  C22 UNL     1      38.366  14.049  -3.647  1.00  0.00     0.027 C 
ENDROOT
BRANCH   1  19
HETATM   19  C4  UNL     1      36.440  11.995  -2.147  1.00  0.00     0.016 C 
BRANCH  19  20
HETATM   20  C3  UNL     1      37.555  11.834  -1.168  1.00  0.00     0.111 C 
BRANCH  20  21
HETATM   21  C2  UNL     1      37.426  12.823  -0.052  1.00  0.00     0.258 C 
HETATM   22  O2  UNL     1      36.754  12.516   0.941  1.00  0.00    -0.265 OA
BRANCH  21  23
HETATM   23  O1  UNL     1      38.042  14.042  -0.135  1.00  0.00    -0.326 OA
HETATM   24  C1  UNL     1      37.351  15.272  -0.212  1.00  0.00     0.213 C 
ENDBRANCH  21  23
ENDBRANCH  20  21
ENDBRANCH  19  20
ENDBRANCH   1  19
BRANCH  17  25
HETATM   25  C23 UNL     1      35.996  14.533  -3.623  1.00  0.00     0.181 C 
HETATM   26  O3  UNL     1      34.907  14.373  -3.080  1.00  0.00    -0.647 OA
HETATM   27  O4  UNL     1      36.356  15.871  -3.890  1.00  0.00    -0.647 OA
ENDBRANCH  17  25
TORSDOF 5
ENDMDL
MODEL 2
REMARK VINA RESULT: -4.692366260      2.058      3.693
REMARK  5 active torsions:
REMARK  status: ('A' for Active; 'I' for Inactive)
REMARK    1  A    between atoms: O1_2  and  C2_3 
REMARK    2  A    between atoms: C2_3  and  C3_5 
REMARK    3  A    between atoms: C3_5  and  C4_6 
REMARK    4  A    between atoms: C4_6  and  C5_7 
REMARK    5  A    between atoms: C21_23  and  C23_25 
ROOT
HETATM    1  C5  UNL     1      35.435  10.457  -5.485  1.00  0.00     0.009 C 
HETATM    2  C6  UNL     1      35.446   8.940  -5.343  1.00  0.00    -0.004 C 
HETATM    3  C7  UNL     1      36.883   8.511  -5.393  1.00  0.00     0.006 C 
HETATM    4  C8  UNL     1      37.124   7.091  -5.757  1.00  0.00     0.006 C 
HETATM    5  C9  UNL     1      36.150   6.406  -6.633  1.00  0.00     0.002 C 
HETATM    6  C10 UNL     1      36.822   5.441  -7.572  1.00  0.00    -0.043 C 
HETATM    7  C11 UNL     1      38.245   5.102  -7.089  1.00  0.00     0.015 C 
HETATM    8  C12 UNL     1      36.112   4.083  -7.597  1.00  0.00     0.015 C 
HETATM    9  C13 UNL     1      37.004   5.996  -8.963  1.00  0.00     0.009 C 
HETATM   10  C14 UNL     1      37.079   7.501  -8.988  1.00  0.00     0.002 C 
HETATM   11  C15 UNL     1      35.869   8.178  -8.373  1.00  0.00     0.010 C 
HETATM   12  C16 UNL     1      35.194   7.367  -7.329  1.00  0.00    -0.036 C 
HETATM   13  C17 UNL     1      34.021   6.663  -7.962  1.00  0.00     0.016 C 
HETATM   14  C18 UNL     1      34.559   8.153  -6.184  1.00  0.00    -0.002 C 
HETATM   15  C19 UNL     1      33.320   8.912  -6.594  1.00  0.00     0.007 C 
HETATM   16  C20 UNL     1      33.632  10.255  -7.135  1.00  0.00     0.021 C 
HETATM   17  C21 UNL     1      34.225  11.091  -5.993  1.00  0.00     0.049 C 
HETATM   18  C22 UNL     1      34.538  12.438  -6.633  1.00  0.00     0.027 C 
ENDROOT
BRANCH   1  19
HETATM   19  C4  UNL     1      35.916  10.975  -4.156  1.00  0.00     0.016 C 
BRANCH  19  20
HETATM   20  C3  UNL     1      36.868  12.124  -4.159  1.00  0.00     0.111 C 
BRANCH  20  21
HETATM   21  C2  UNL     1      37.463  12.321  -2.799  1.00  0.00     0.258 C 
HETATM   22  O2  UNL     1      38.247  13.262  -2.623  1.00  0.00    -0.265 OA
BRANCH  21  23
HETATM   23  O1  UNL     1      37.140  11.473  -1.776  1.00  0.00    -0.326 OA
HETATM   24  C1  UNL     1      37.542  11.666  -0.434  1.00  0.00     0.213 C 
ENDBRANCH  21  23
ENDBRANCH  20  21
ENDBRANCH  19  20
ENDBRANCH   1  19
BRANCH  17  25
HETATM   25  C23 UNL     1      33.105  11.290  -5.060  1.00  0.00     0.181 C 
HETATM   26  O3  UNL     1      32.733  10.583  -4.127  1.00  0.00    -0.647 OA
HETATM   27  O4  UNL     1      32.353  12.464  -5.276  1.00  0.00    -0.647 OA
ENDBRANCH  17  25
TORSDOF 5
ENDMDL
MODEL 3
REMARK VINA RESULT: -4.598073741      3.482      6.706
REMARK  5 active torsions:
REMARK  status: ('A' for Active; 'I' for Inactive)
REMARK    1  A    between atoms: O1_2  and  C2_3 
REMARK    2  A    between atoms: C2_3  and  C3_5 
REMARK    3  A    between atoms: C3_5  and  C4_6 
REMARK    4  A    between atoms: C4_6  and  C5_7 
REMARK    5  A    between atoms: C21_23  and  C23_25 
ROOT
HETATM    1  C5  UNL     1      35.257  10.009  -5.813  1.00  0.00     0.009 C 
HETATM    2  C6  UNL     1      36.423  10.563  -5.004  1.00  0.00    -0.004 C 
HETATM    3  C7  UNL     1      36.124  10.276  -3.561  1.00  0.00     0.006 C 
HETATM    4  C8  UNL     1      36.841  11.119  -2.570  1.00  0.00     0.006 C 
HETATM    5  C9  UNL     1      37.228  12.493  -2.952  1.00  0.00     0.002 C 
HETATM    6  C10 UNL     1      37.119  13.449  -1.795  1.00  0.00    -0.043 C 
HETATM    7  C11 UNL     1      37.063  12.689  -0.456  1.00  0.00     0.015 C 
HETATM    8  C12 UNL     1      38.366  14.329  -1.663  1.00  0.00     0.015 C 
HETATM    9  C13 UNL     1      35.858  14.277  -1.827  1.00  0.00     0.009 C 
HETATM   10  C14 UNL     1      34.732  13.601  -2.567  1.00  0.00     0.002 C 
HETATM   11  C15 UNL     1      35.082  13.233  -3.996  1.00  0.00     0.010 C 
HETATM   12  C16 UNL     1      36.528  12.981  -4.214  1.00  0.00    -0.036 C 
HETATM   13  C17 UNL     1      37.148  14.237  -4.772  1.00  0.00     0.016 C 
HETATM   14  C18 UNL     1      36.868  11.923  -5.261  1.00  0.00    -0.002 C 
HETATM   15  C19 UNL     1      36.590  12.369  -6.676  1.00  0.00     0.007 C 
HETATM   16  C20 UNL     1      35.192  12.103  -7.088  1.00  0.00     0.021 C 
HETATM   17  C21 UNL     1      35.001  10.581  -7.128  1.00  0.00     0.049 C 
HETATM   18  C22 UNL     1      33.544  10.394  -7.535  1.00  0.00     0.027 C 
ENDROOT
BRANCH   1  19
HETATM   19  C4  UNL     1      35.444   8.516  -5.792  1.00  0.00     0.016 C 
BRANCH  19  20
HETATM   20  C3  UNL     1      36.836   7.990  -5.668  1.00  0.00     0.111 C 
BRANCH  20  21
HETATM   21  C2  UNL     1      36.850   6.499  -5.798  1.00  0.00     0.258 C 
HETATM   22  O2  UNL     1      37.734   5.859  -5.214  1.00  0.00    -0.265 OA
BRANCH  21  23
HETATM   23  O1  UNL     1      35.901   5.862  -6.549  1.00  0.00    -0.326 OA
HETATM   24  C1  UNL     1      36.190   4.858  -7.501  1.00  0.00     0.213 C 
ENDBRANCH  21  23
ENDBRANCH  20  21
ENDBRANCH  19  20
ENDBRANCH   1  19
BRANCH  17  25
HETATM   25  C23 UNL     1      35.838  10.132  -8.252  1.00  0.00     0.181 C 
HETATM   26  O3  UNL     1      37.062  10.115  -8.354  1.00  0.00    -0.647 OA
HETATM   27  O4  UNL     1      35.124   9.656  -9.372  1.00  0.00    -0.647 OA
ENDBRANCH  17  25
TORSDOF 5
ENDMDL
MODEL 4
REMARK VINA RESULT: -4.498555877      6.270      9.552
REMARK  5 active torsions:
REMARK  status: ('A' for Active; 'I' for Inactive)
REMARK    1  A    between atoms: O1_2  and  C2_3 
REMARK    2  A    between atoms: C2_3  and  C3_5 
REMARK    3  A    between atoms: C3_5  and  C4_6 
REMARK    4  A    between atoms: C4_6  and  C5_7 
REMARK    5  A    between atoms: C21_23  and  C23_25 
ROOT
HETATM    1  C5  UNL     1      30.700   6.098  -7.633  1.00  0.00     0.009 C 
HETATM    2  C6  UNL     1      31.060   7.505  -8.093  1.00  0.00    -0.004 C 
HETATM    3  C7  UNL     1      32.536   7.668  -7.875  1.00  0.00     0.006 C 
HETATM    4  C8  UNL     1      33.029   9.067  -7.787  1.00  0.00     0.006 C 
HETATM    5  C9  UNL     1      32.118  10.111  -7.272  1.00  0.00     0.002 C 
HETATM    6  C10 UNL     1      32.849  11.142  -6.456  1.00  0.00    -0.043 C 
HETATM    7  C11 UNL     1      34.364  11.089  -6.732  1.00  0.00     0.015 C 
HETATM    8  C12 UNL     1      32.456  12.568  -6.854  1.00  0.00     0.015 C 
HETATM    9  C13 UNL     1      32.716  10.925  -4.969  1.00  0.00     0.009 C 
HETATM   10  C14 UNL     1      32.457   9.485  -4.607  1.00  0.00     0.002 C 
HETATM   11  C15 UNL     1      31.224   8.906  -5.273  1.00  0.00     0.010 C 
HETATM   12  C16 UNL     1      30.890   9.540  -6.573  1.00  0.00    -0.036 C 
HETATM   13  C17 UNL     1      29.824  10.578  -6.333  1.00  0.00     0.016 C 
HETATM   14  C18 UNL     1      30.261   8.622  -7.618  1.00  0.00    -0.002 C 
HETATM   15  C19 UNL     1      28.842   8.224  -7.289  1.00  0.00     0.007 C 
HETATM   16  C20 UNL     1      28.778   7.023  -6.424  1.00  0.00     0.021 C 
HETATM   17  C21 UNL     1      29.324   5.839  -7.231  1.00  0.00     0.049 C 
HETATM   18  C22 UNL     1      29.246   4.658  -6.270  1.00  0.00     0.027 C 
ENDROOT
BRANCH   1  19
HETATM   19  C4  UNL     1      31.233   5.189  -8.708  1.00  0.00     0.016 C 
BRANCH  19  20
HETATM   20  C3  UNL     1      32.087   4.039  -8.289  1.00  0.00     0.111 C 
BRANCH  20  21
HETATM   21  C2  UNL     1      33.483   4.203  -8.804  1.00  0.00     0.258 C 
HETATM   22  O2  UNL     1      33.653   4.383 -10.016  1.00  0.00    -0.265 OA
BRANCH  21  23
HETATM   23  O1  UNL     1      34.546   4.153  -7.944  1.00  0.00    -0.326 OA
HETATM   24  C1  UNL     1      35.330   5.275  -7.592  1.00  0.00     0.213 C 
ENDBRANCH  21  23
ENDBRANCH  20  21
ENDBRANCH  19  20
ENDBRANCH   1  19
BRANCH  17  25
HETATM   25  C23 UNL     1      28.325   5.619  -8.289  1.00  0.00     0.181 C 
HETATM   26  O3  UNL     1      28.050   6.321  -9.258  1.00  0.00    -0.647 OA
HETATM   27  O4  UNL     1      27.577   4.429  -8.162  1.00  0.00    -0.647 OA
ENDBRANCH  17  25
TORSDOF 5
ENDMDL
MODEL 5
REMARK VINA RESULT: -4.471804311      4.724      7.877
REMARK  5 active torsions:
REMARK  status: ('A' for Active; 'I' for Inactive)
REMARK    1  A    between atoms: O1_2  and  C2_3 
REMARK    2  A    between atoms: C2_3  and  C3_5 
REMARK    3  A    between atoms: C3_5  and  C4_6 
REMARK    4  A    between atoms: C4_6  and  C5_7 
REMARK    5  A    between atoms: C21_23  and  C23_25 
ROOT
HETATM    1  C5  UNL     1      32.114   9.209  -7.364  1.00  0.00     0.009 C 
HETATM    2  C6  UNL     1      32.851   9.281  -6.032  1.00  0.00    -0.004 C 
HETATM    3  C7  UNL     1      32.430  10.562  -5.374  1.00  0.00     0.006 C 
HETATM    4  C8  UNL     1      33.346  11.086  -4.328  1.00  0.00     0.006 C 
HETATM    5  C9  UNL     1      34.789  10.784  -4.431  1.00  0.00     0.002 C 
HETATM    6  C10 UNL     1      35.638  11.934  -3.958  1.00  0.00    -0.043 C 
HETATM    7  C11 UNL     1      34.811  12.914  -3.104  1.00  0.00     0.015 C 
HETATM    8  C12 UNL     1      36.746  11.470  -3.008  1.00  0.00     0.015 C 
HETATM    9  C13 UNL     1      36.190  12.768  -5.087  1.00  0.00     0.009 C 
HETATM   10  C14 UNL     1      35.339  12.709  -6.330  1.00  0.00     0.002 C 
HETATM   11  C15 UNL     1      35.130  11.301  -6.852  1.00  0.00     0.010 C 
HETATM   12  C16 UNL     1      35.192  10.254  -5.802  1.00  0.00    -0.036 C 
HETATM   13  C17 UNL     1      36.576   9.659  -5.809  1.00  0.00     0.016 C 
HETATM   14  C18 UNL     1      34.285   9.045  -6.013  1.00  0.00    -0.002 C 
HETATM   15  C19 UNL     1      34.741   8.142  -7.135  1.00  0.00     0.007 C 
HETATM   16  C20 UNL     1      34.216   8.569  -8.453  1.00  0.00     0.021 C 
HETATM   17  C21 UNL     1      32.693   8.395  -8.425  1.00  0.00     0.049 C 
HETATM   18  C22 UNL     1      32.233   8.874  -9.798  1.00  0.00     0.027 C 
ENDROOT
BRANCH   1  19
HETATM   19  C4  UNL     1      30.692   8.871  -7.004  1.00  0.00     0.016 C 
BRANCH  19  20
HETATM   20  C3  UNL     1      30.460   8.063  -5.771  1.00  0.00     0.111 C 
BRANCH  20  21
HETATM   21  C2  UNL     1      29.203   7.258  -5.897  1.00  0.00     0.258 C 
HETATM   22  O2  UNL     1      28.119   7.851  -5.956  1.00  0.00    -0.265 OA
BRANCH  21  23
HETATM   23  O1  UNL     1      29.261   5.892  -5.946  1.00  0.00    -0.326 OA
HETATM   24  C1  UNL     1      29.230   5.142  -7.144  1.00  0.00     0.213 C 
ENDBRANCH  21  23
ENDBRANCH  20  21
ENDBRANCH  19  20
ENDBRANCH   1  19
BRANCH  17  25
HETATM   25  C23 UNL     1      32.487   6.939  -8.369  1.00  0.00     0.181 C 
HETATM   26  O3  UNL     1      32.929   6.120  -7.568  1.00  0.00    -0.647 OA
HETATM   27  O4  UNL     1      31.666   6.416  -9.389  1.00  0.00    -0.647 OA
ENDBRANCH  17  25
TORSDOF 5
ENDMDL
