MODEL 1
REMARK VINA RESULT: -6.641624053      0.000      0.000
REMARK  5 active torsions:
REMARK  status: ('A' for Active; 'I' for Inactive)
REMARK    1  A    between atoms: N1_10  and  N2_12 
REMARK    2  A    between atoms: C18_23  and  C19_24 
REMARK    3  A    between atoms: C19_24  and  O1_25 
REMARK    4  A    between atoms: O1_25  and  C20_26 
REMARK    5  A    between atoms: C23_29  and  C24_30 
ROOT
HETATM    1  C1  UNL     1      -7.864  36.159 -16.756  1.00  0.00     0.016 C 
HETATM    2  C2  UNL     1      -7.491  37.244 -15.763  1.00  0.00    -0.034 C 
HETATM    3  C3  UNL     1      -8.226  37.071 -14.461  1.00  0.00     0.010 C 
HETATM    4  C4  UNL     1      -7.895  35.845 -13.694  1.00  0.00     0.006 C 
HETATM    5  C5  UNL     1      -6.439  35.659 -13.407  1.00  0.00    -0.006 C 
HETATM    6  C6  UNL     1      -5.932  36.375 -12.176  1.00  0.00    -0.005 C 
HETATM    7  C7  UNL     1      -6.804  36.144 -10.988  1.00  0.00     0.011 C 
HETATM    8  C8  UNL     1      -6.029  36.519  -9.709  1.00  0.00     0.054 C 
HETATM    9  C9  UNL     1      -4.883  35.611  -9.561  1.00  0.00     0.003 C 
HETATM   10  N1  UNL     1      -4.278  35.462  -8.466  1.00  0.00    -0.315 N 
ATOM     11  H1  UNL     1      -3.498  34.804  -8.481  1.00  0.00     0.185 HD
HETATM   12  C10 UNL     1      -4.466  34.870 -10.761  1.00  0.00     0.059 C 
HETATM   13  C11 UNL     1      -4.540  35.894 -11.898  1.00  0.00    -0.005 C 
HETATM   14  C12 UNL     1      -3.909  35.211 -13.093  1.00  0.00     0.006 C 
HETATM   15  C13 UNL     1      -4.145  36.137 -14.277  1.00  0.00     0.006 C 
HETATM   16  C14 UNL     1      -5.628  35.959 -14.624  1.00  0.00    -0.005 C 
HETATM   17  C15 UNL     1      -6.023  37.055 -15.497  1.00  0.00    -0.002 C 
HETATM   18  C16 UNL     1      -5.496  38.429 -15.232  1.00  0.00     0.006 C 
HETATM   19  C17 UNL     1      -6.177  39.152 -16.434  1.00  0.00     0.008 C 
HETATM   20  C18 UNL     1      -7.612  38.623 -16.261  1.00  0.00     0.018 C 
ENDROOT
BRANCH  20  21
HETATM   21  C19 UNL     1      -8.409  38.903 -17.483  1.00  0.00     0.181 C 
BRANCH  21  22
HETATM   22  O1  UNL     1      -9.647  39.290 -17.342  1.00  0.00    -0.349 OA
BRANCH  22  23
HETATM   23  C20 UNL     1     -10.864  39.669 -17.202  1.00  0.00     0.090 A 
HETATM   24  C21 UNL     1     -11.327  40.984 -17.070  1.00  0.00     0.039 A 
HETATM   25  C22 UNL     1     -12.666  41.262 -16.927  1.00  0.00     0.017 A 
HETATM   26  C23 UNL     1     -13.623  40.283 -16.905  1.00  0.00     0.003 A 
HETATM   27  C25 UNL     1     -13.210  38.976 -17.032  1.00  0.00     0.041 A 
HETATM   28  C26 UNL     1     -11.885  38.687 -17.175  1.00  0.00     0.068 A 
HETATM   29 CL1  UNL     1     -11.385  37.023 -17.335  1.00  0.00    -0.081 Cl
BRANCH  26  30
HETATM   30  C24 UNL     1     -15.031  40.578 -16.756  1.00  0.00     0.269 C 
HETATM   31  O2  UNL     1     -15.373  41.685 -16.285  1.00  0.00    -0.301 OA
ENDBRANCH  26  30
ENDBRANCH  22  23
ENDBRANCH  21  22
ENDBRANCH  20  21
BRANCH  10  32
HETATM   32  N2  UNL     1      -4.524  36.062  -7.255  1.00  0.00    -0.345 N 
ATOM     33  H22 UNL     1      -5.163  36.855  -7.300  1.00  0.00     0.176 HD
ATOM     34  H21 UNL     1      -4.156  35.822  -6.334  1.00  0.00     0.176 HD
ENDBRANCH  10  32
TORSDOF 5
ENDMDL
MODEL 2
REMARK VINA RESULT: -6.342616326      0.982      1.295
REMARK  5 active torsions:
REMARK  status: ('A' for Active; 'I' for Inactive)
REMARK    1  A    between atoms: N1_10  and  N2_12 
REMARK    2  A    between atoms: C18_23  and  C19_24 
REMARK    3  A    between atoms: C19_24  and  O1_25 
REMARK    4  A    between atoms: O1_25  and  C20_26 
REMARK    5  A    between atoms: C23_29  and  C24_30 
ROOT
HETATM    1  C1  UNL     1      -7.843  36.096 -16.806  1.00  0.00     0.016 C 
HETATM    2  C2  UNL     1      -7.511  37.195 -15.813  1.00  0.00    -0.034 C 
HETATM    3  C3  UNL     1      -8.255  37.009 -14.519  1.00  0.00     0.010 C 
HETATM    4  C4  UNL     1      -7.901  35.796 -13.742  1.00  0.00     0.006 C 
HETATM    5  C5  UNL     1      -6.443  35.649 -13.439  1.00  0.00    -0.006 C 
HETATM    6  C6  UNL     1      -5.970  36.385 -12.206  1.00  0.00    -0.005 C 
HETATM    7  C7  UNL     1      -6.849  36.135 -11.026  1.00  0.00     0.011 C 
HETATM    8  C8  UNL     1      -6.098  36.537  -9.741  1.00  0.00     0.054 C 
HETATM    9  C9  UNL     1      -4.930  35.661  -9.575  1.00  0.00     0.003 C 
HETATM   10  N1  UNL     1      -4.333  35.533  -8.473  1.00  0.00    -0.315 N 
ATOM     11  H1  UNL     1      -3.536  34.896  -8.476  1.00  0.00     0.185 HD
HETATM   12  C10 UNL     1      -4.480  34.926 -10.767  1.00  0.00     0.059 C 
HETATM   13  C11 UNL     1      -4.568  35.943 -11.910  1.00  0.00    -0.005 C 
HETATM   14  C12 UNL     1      -3.906  35.272 -13.094  1.00  0.00     0.006 C 
HETATM   15  C13 UNL     1      -4.154  36.185 -14.285  1.00  0.00     0.006 C 
HETATM   16  C14 UNL     1      -5.627  35.966 -14.647  1.00  0.00    -0.005 C 
HETATM   17  C15 UNL     1      -6.041  37.047 -15.530  1.00  0.00    -0.002 C 
HETATM   18  C16 UNL     1      -5.554  38.436 -15.267  1.00  0.00     0.006 C 
HETATM   19  C17 UNL     1      -6.241  39.135 -16.479  1.00  0.00     0.008 C 
HETATM   20  C18 UNL     1      -7.663  38.569 -16.320  1.00  0.00     0.018 C 
ENDROOT
BRANCH  20  21
HETATM   21  C19 UNL     1      -8.454  38.821 -17.552  1.00  0.00     0.181 C 
BRANCH  21  22
HETATM   22  O1  UNL     1      -9.722  39.100 -17.430  1.00  0.00    -0.349 OA
BRANCH  22  23
HETATM   23  C20 UNL     1     -10.968  39.377 -17.310  1.00  0.00     0.090 A 
HETATM   24  C21 UNL     1     -12.043  38.485 -17.416  1.00  0.00     0.039 A 
HETATM   25  C22 UNL     1     -13.343  38.908 -17.263  1.00  0.00     0.017 A 
HETATM   26  C23 UNL     1     -13.668  40.212 -17.001  1.00  0.00     0.003 A 
HETATM   27  C25 UNL     1     -12.640  41.121 -16.889  1.00  0.00     0.041 A 
HETATM   28  C26 UNL     1     -11.347  40.715 -17.037  1.00  0.00     0.068 A 
HETATM   29 CL1  UNL     1     -10.061  41.885 -16.890  1.00  0.00    -0.081 Cl
BRANCH  26  30
HETATM   30  C24 UNL     1     -15.036  40.654 -16.840  1.00  0.00     0.269 C 
HETATM   31  O2  UNL     1     -15.896  39.834 -16.450  1.00  0.00    -0.301 OA
ENDBRANCH  26  30
ENDBRANCH  22  23
ENDBRANCH  21  22
ENDBRANCH  20  21
BRANCH  10  32
HETATM   32  N2  UNL     1      -4.609  36.132  -7.268  1.00  0.00    -0.345 N 
ATOM     33  H22 UNL     1      -4.230  37.074  -7.169  1.00  0.00     0.176 HD
ATOM     34  H21 UNL     1      -5.132  35.763  -6.473  1.00  0.00     0.176 HD
ENDBRANCH  10  32
TORSDOF 5
ENDMDL
MODEL 3
REMARK VINA RESULT: -6.114928225      5.528      9.975
REMARK  5 active torsions:
REMARK  status: ('A' for Active; 'I' for Inactive)
REMARK    1  A    between atoms: N1_10  and  N2_12 
REMARK    2  A    between atoms: C18_23  and  C19_24 
REMARK    3  A    between atoms: C19_24  and  O1_25 
REMARK    4  A    between atoms: O1_25  and  C20_26 
REMARK    5  A    between atoms: C23_29  and  C24_30 
ROOT
HETATM    1  C1  UNL     1      -8.651  36.582 -18.928  1.00  0.00     0.016 C 
HETATM    2  C2  UNL     1      -9.631  36.702 -17.776  1.00  0.00    -0.034 C 
HETATM    3  C3  UNL     1     -10.337  38.031 -17.793  1.00  0.00     0.010 C 
HETATM    4  C4  UNL     1     -11.222  38.274 -18.958  1.00  0.00     0.006 C 
HETATM    5  C5  UNL     1     -12.259  37.221 -19.188  1.00  0.00    -0.006 C 
HETATM    6  C6  UNL     1     -13.530  37.388 -18.387  1.00  0.00    -0.005 C 
HETATM    7  C7  UNL     1     -14.070  38.777 -18.466  1.00  0.00     0.011 C 
HETATM    8  C8  UNL     1     -15.543  38.775 -18.013  1.00  0.00     0.054 C 
HETATM    9  C9  UNL     1     -16.333  37.974 -18.958  1.00  0.00     0.003 C 
HETATM   10  N1  UNL     1     -17.587  38.064 -19.036  1.00  0.00    -0.315 N 
ATOM     11  H1  UNL     1     -18.029  37.460 -19.729  1.00  0.00     0.185 HD
HETATM   12  C10 UNL     1     -15.587  37.049 -19.825  1.00  0.00     0.059 C 
HETATM   13  C11 UNL     1     -14.541  36.410 -18.907  1.00  0.00    -0.005 C 
HETATM   14  C12 UNL     1     -13.912  35.304 -19.726  1.00  0.00     0.006 C 
HETATM   15  C13 UNL     1     -12.743  34.785 -18.903  1.00  0.00     0.006 C 
HETATM   16  C14 UNL     1     -11.660  35.862 -19.040  1.00  0.00    -0.005 C 
HETATM   17  C15 UNL     1     -10.657  35.627 -18.010  1.00  0.00    -0.002 C 
HETATM   18  C16 UNL     1     -11.094  35.202 -16.645  1.00  0.00     0.006 C 
HETATM   19  C17 UNL     1      -9.680  35.067 -16.003  1.00  0.00     0.008 C 
HETATM   20  C18 UNL     1      -9.077  36.412 -16.443  1.00  0.00     0.018 C 
ENDROOT
BRANCH  20  21
HETATM   21  C19 UNL     1      -7.605  36.404 -16.239  1.00  0.00     0.181 C 
BRANCH  21  22
HETATM   22  O1  UNL     1      -7.146  36.148 -15.045  1.00  0.00    -0.349 OA
BRANCH  22  23
HETATM   23  C20 UNL     1      -6.692  35.896 -13.873  1.00  0.00     0.090 A 
HETATM   24  C21 UNL     1      -7.433  35.778 -12.690  1.00  0.00     0.039 A 
HETATM   25  C22 UNL     1      -6.825  35.502 -11.487  1.00  0.00     0.017 A 
HETATM   26  C23 UNL     1      -5.472  35.326 -11.369  1.00  0.00     0.003 A 
HETATM   27  C25 UNL     1      -4.707  35.433 -12.509  1.00  0.00     0.041 A 
HETATM   28  C26 UNL     1      -5.297  35.706 -13.707  1.00  0.00     0.068 A 
HETATM   29 CL1  UNL     1      -4.308  35.837 -15.138  1.00  0.00    -0.081 Cl
BRANCH  26  30
HETATM   30  C24 UNL     1      -4.835  35.033 -10.104  1.00  0.00     0.269 C 
HETATM   31  O2  UNL     1      -5.045  35.790  -9.130  1.00  0.00    -0.301 OA
ENDBRANCH  26  30
ENDBRANCH  22  23
ENDBRANCH  21  22
ENDBRANCH  20  21
BRANCH  10  32
HETATM   32  N2  UNL     1     -18.441  38.864 -18.316  1.00  0.00    -0.345 N 
ATOM     33  H22 UNL     1     -18.489  39.829 -18.642  1.00  0.00     0.176 HD
ATOM     34  H21 UNL     1     -19.022  38.622 -17.513  1.00  0.00     0.176 HD
ENDBRANCH  10  32
TORSDOF 5
ENDMDL
MODEL 4
REMARK VINA RESULT: -6.100098664      2.089      2.969
REMARK  5 active torsions:
REMARK  status: ('A' for Active; 'I' for Inactive)
REMARK    1  A    between atoms: N1_10  and  N2_12 
REMARK    2  A    between atoms: C18_23  and  C19_24 
REMARK    3  A    between atoms: C19_24  and  O1_25 
REMARK    4  A    between atoms: O1_25  and  C20_26 
REMARK    5  A    between atoms: C23_29  and  C24_30 
ROOT
HETATM    1  C1  UNL     1     -10.197  36.631 -17.560  1.00  0.00     0.016 C 
HETATM    2  C2  UNL     1      -9.991  37.452 -16.300  1.00  0.00    -0.034 C 
HETATM    3  C3  UNL     1     -10.116  36.602 -15.065  1.00  0.00     0.010 C 
HETATM    4  C4  UNL     1      -9.083  35.550 -14.901  1.00  0.00     0.006 C 
HETATM    5  C5  UNL     1      -7.672  36.043 -14.957  1.00  0.00    -0.006 C 
HETATM    6  C6  UNL     1      -7.124  36.563 -13.647  1.00  0.00    -0.005 C 
HETATM    7  C7  UNL     1      -7.379  35.626 -12.515  1.00  0.00     0.011 C 
HETATM    8  C8  UNL     1      -6.448  35.985 -11.340  1.00  0.00     0.054 C 
HETATM    9  C9  UNL     1      -5.055  35.764 -11.749  1.00  0.00     0.003 C 
HETATM   10  N1  UNL     1      -4.116  35.653 -10.916  1.00  0.00    -0.315 N 
ATOM     11  H1  UNL     1      -3.189  35.500 -11.316  1.00  0.00     0.185 HD
HETATM   12  C10 UNL     1      -4.796  35.674 -13.194  1.00  0.00     0.059 C 
HETATM   13  C11 UNL     1      -5.650  36.784 -13.814  1.00  0.00    -0.005 C 
HETATM   14  C12 UNL     1      -5.231  36.847 -15.268  1.00  0.00     0.006 C 
HETATM   15  C13 UNL     1      -6.200  37.807 -15.942  1.00  0.00     0.006 C 
HETATM   16  C14 UNL     1      -7.506  37.015 -16.078  1.00  0.00    -0.005 C 
HETATM   17  C15 UNL     1      -8.576  37.955 -16.377  1.00  0.00    -0.002 C 
HETATM   18  C16 UNL     1      -8.597  39.284 -15.692  1.00  0.00     0.006 C 
HETATM   19  C17 UNL     1      -9.868  39.860 -16.386  1.00  0.00     0.008 C 
HETATM   20  C18 UNL     1     -10.819  38.665 -16.196  1.00  0.00     0.018 C 
ENDROOT
BRANCH  20  21
HETATM   21  C19 UNL     1     -12.016  38.822 -17.061  1.00  0.00     0.181 C 
BRANCH  21  22
HETATM   22  O1  UNL     1     -12.531  40.013 -17.200  1.00  0.00    -0.349 OA
BRANCH  22  23
HETATM   23  C20 UNL     1     -13.037  41.182 -17.338  1.00  0.00     0.090 A 
HETATM   24  C21 UNL     1     -12.347  42.377 -17.577  1.00  0.00     0.039 A 
HETATM   25  C22 UNL     1     -13.011  43.575 -17.709  1.00  0.00     0.017 A 
HETATM   26  C23 UNL     1     -14.373  43.676 -17.616  1.00  0.00     0.003 A 
HETATM   27  C25 UNL     1     -15.090  42.524 -17.382  1.00  0.00     0.041 A 
HETATM   28  C26 UNL     1     -14.444  41.330 -17.250  1.00  0.00     0.068 A 
HETATM   29 CL1  UNL     1     -15.373  39.883 -16.955  1.00  0.00    -0.081 Cl
BRANCH  26  30
HETATM   30  C24 UNL     1     -15.069  44.936 -17.756  1.00  0.00     0.269 C 
HETATM   31  O2  UNL     1     -15.968  45.040 -18.619  1.00  0.00    -0.301 OA
ENDBRANCH  26  30
ENDBRANCH  22  23
ENDBRANCH  21  22
ENDBRANCH  20  21
BRANCH  10  32
HETATM   32  N2  UNL     1      -4.168  35.708  -9.545  1.00  0.00    -0.345 N 
ATOM     33  H22 UNL     1      -3.578  36.429  -9.130  1.00  0.00     0.176 HD
ATOM     34  H21 UNL     1      -4.710  35.133  -8.900  1.00  0.00     0.176 HD
ENDBRANCH  10  32
TORSDOF 5
ENDMDL
MODEL 5
REMARK VINA RESULT: -5.914840412      1.615      2.179
REMARK  5 active torsions:
REMARK  status: ('A' for Active; 'I' for Inactive)
REMARK    1  A    between atoms: N1_10  and  N2_12 
REMARK    2  A    between atoms: C18_23  and  C19_24 
REMARK    3  A    between atoms: C19_24  and  O1_25 
REMARK    4  A    between atoms: O1_25  and  C20_26 
REMARK    5  A    between atoms: C23_29  and  C24_30 
ROOT
HETATM    1  C1  UNL     1      -9.044  36.476 -18.104  1.00  0.00     0.016 C 
HETATM    2  C2  UNL     1      -8.879  37.446 -16.949  1.00  0.00    -0.034 C 
HETATM    3  C3  UNL     1      -9.407  36.864 -15.665  1.00  0.00     0.010 C 
HETATM    4  C4  UNL     1      -8.684  35.673 -15.154  1.00  0.00     0.006 C 
HETATM    5  C5  UNL     1      -7.210  35.861 -14.981  1.00  0.00    -0.006 C 
HETATM    6  C6  UNL     1      -6.794  36.481 -13.667  1.00  0.00    -0.005 C 
HETATM    7  C7  UNL     1      -7.448  35.824 -12.498  1.00  0.00     0.011 C 
HETATM    8  C8  UNL     1      -6.678  36.190 -11.214  1.00  0.00     0.054 C 
HETATM    9  C9  UNL     1      -5.323  35.631 -11.293  1.00  0.00     0.003 C 
HETATM   10  N1  UNL     1      -4.593  35.482 -10.277  1.00  0.00    -0.315 N 
ATOM     11  H1  UNL     1      -3.671  35.083 -10.452  1.00  0.00     0.185 HD
HETATM   12  C10 UNL     1      -4.844  35.243 -12.629  1.00  0.00     0.059 C 
HETATM   13  C11 UNL     1      -5.303  36.375 -13.553  1.00  0.00    -0.005 C 
HETATM   14  C12 UNL     1      -4.635  36.101 -14.883  1.00  0.00     0.006 C 
HETATM   15  C13 UNL     1      -5.228  37.101 -15.863  1.00  0.00     0.006 C 
HETATM   16  C14 UNL     1      -6.635  36.571 -16.161  1.00  0.00    -0.005 C 
HETATM   17  C15 UNL     1      -7.395  37.638 -16.797  1.00  0.00    -0.002 C 
HETATM   18  C16 UNL     1      -7.232  39.043 -16.312  1.00  0.00     0.006 C 
HETATM   19  C17 UNL     1      -8.199  39.730 -17.324  1.00  0.00     0.008 C 
HETATM   20  C18 UNL     1      -9.415  38.797 -17.179  1.00  0.00     0.018 C 
ENDROOT
BRANCH  20  21
HETATM   21  C19 UNL     1     -10.376  39.035 -18.286  1.00  0.00     0.181 C 
BRANCH  21  22
HETATM   22  O1  UNL     1     -11.647  39.113 -18.000  1.00  0.00    -0.349 OA
BRANCH  22  23
HETATM   23  C20 UNL     1     -12.895  39.191 -17.720  1.00  0.00     0.090 A 
HETATM   24  C21 UNL     1     -13.486  39.967 -16.715  1.00  0.00     0.039 A 
HETATM   25  C22 UNL     1     -14.847  39.967 -16.516  1.00  0.00     0.017 A 
HETATM   26  C23 UNL     1     -15.703  39.216 -17.277  1.00  0.00     0.003 A 
HETATM   27  C25 UNL     1     -15.162  38.439 -18.277  1.00  0.00     0.041 A 
HETATM   28  C26 UNL     1     -13.815  38.431 -18.485  1.00  0.00     0.068 A 
HETATM   29 CL1  UNL     1     -13.152  37.439 -19.758  1.00  0.00    -0.081 Cl
BRANCH  26  30
HETATM   30  C24 UNL     1     -17.134  39.218 -17.066  1.00  0.00     0.269 C 
HETATM   31  O2  UNL     1     -17.663  38.242 -16.489  1.00  0.00    -0.301 OA
ENDBRANCH  26  30
ENDBRANCH  22  23
ENDBRANCH  21  22
ENDBRANCH  20  21
BRANCH  10  32
HETATM   32  N2  UNL     1      -4.869  35.784  -8.965  1.00  0.00    -0.345 N 
ATOM     33  H22 UNL     1      -4.053  36.053  -8.415  1.00  0.00     0.176 HD
ATOM     34  H21 UNL     1      -5.766  35.774  -8.480  1.00  0.00     0.176 HD
ENDBRANCH  10  32
TORSDOF 5
ENDMDL
