MODEL 1
REMARK VINA RESULT: -6.003521601      0.000      0.000
REMARK  4 active torsions:
REMARK  status: ('A' for Active; 'I' for Inactive)
REMARK    1  A    between atoms: C3_4  and  O2_5 
REMARK    2  A    between atoms: O2_5  and  C4_6 
REMARK    3  A    between atoms: N2_19  and  C14_20 
REMARK    4  A    between atoms: N3_23  and  C17_24 
ROOT
HETATM    1  O1  UNL     1     -10.741  35.855 -15.980  1.00  0.00    -0.268 OA
HETATM    2  C1  UNL     1      -9.623  36.383 -15.761  1.00  0.00     0.251 A 
HETATM    3  C2  UNL     1      -8.571  35.646 -15.234  1.00  0.00     0.114 A 
HETATM    4  C3  UNL     1      -7.360  36.248 -15.004  1.00  0.00     0.110 A 
HETATM    5  C10 UNL     1      -7.219  37.593 -15.309  1.00  0.00     0.093 A 
HETATM    6  N1  UNL     1      -6.200  38.439 -15.203  1.00  0.00    -0.362 N 
ATOM      7  H1  UNL     1      -5.279  38.189 -14.844  1.00  0.00     0.165 HD
HETATM    8  C11 UNL     1      -6.539  39.666 -15.630  1.00  0.00     0.091 A 
HETATM    9  C12 UNL     1      -7.852  39.582 -16.028  1.00  0.00     0.049 A 
HETATM   10  C13 UNL     1      -8.285  38.289 -15.829  1.00  0.00     0.068 A 
HETATM   11  N2  UNL     1      -9.491  37.679 -16.056  1.00  0.00    -0.307 N 
ENDROOT
BRANCH  11  12
HETATM   12  C14 UNL     1     -10.521  38.474 -16.589  1.00  0.00     0.103 C 
HETATM   13  C15 UNL     1     -11.621  38.916 -15.692  1.00  0.00     0.071 C 
HETATM   14  C16 UNL     1     -12.310  40.073 -16.435  1.00  0.00     0.065 C 
HETATM   15  N3  UNL     1     -12.605  39.854 -17.766  1.00  0.00    -0.369 N 
HETATM   16  C24 UNL     1     -11.779  39.046 -18.570  1.00  0.00     0.065 C 
HETATM   17  C25 UNL     1     -11.209  37.866 -17.818  1.00  0.00     0.071 C 
BRANCH  15  18
HETATM   18  C17 UNL     1     -13.872  40.118 -18.293  1.00  0.00     0.088 C 
HETATM   19  C18 UNL     1     -14.828  39.028 -17.807  1.00  0.00     0.026 C 
HETATM   20  C19 UNL     1     -16.046  39.657 -17.222  1.00  0.00     0.002 C 
HETATM   21  C20 UNL     1     -16.991  40.045 -18.334  1.00  0.00     0.000 C 
HETATM   22  C21 UNL     1     -16.352  41.018 -19.305  1.00  0.00     0.000 C 
HETATM   23  C22 UNL     1     -15.419  40.313 -20.216  1.00  0.00     0.002 C 
HETATM   24  C23 UNL     1     -14.003  40.231 -19.762  1.00  0.00     0.026 C 
ENDBRANCH  15  18
ENDBRANCH  11  12
BRANCH   4  25
HETATM   25  O2  UNL     1      -6.268  35.565 -14.476  1.00  0.00    -0.308 OA
BRANCH  25  26
HETATM   26  C4  UNL     1      -6.024  35.712 -13.119  1.00  0.00     0.076 A 
HETATM   27  C5  UNL     1      -7.017  35.674 -12.169  1.00  0.00     0.039 A 
HETATM   28  C6  UNL     1      -6.767  35.820 -10.827  1.00  0.00     0.026 A 
HETATM   29  C7  UNL     1      -5.464  36.016 -10.402  1.00  0.00     0.034 A 
HETATM   30 CL1  UNL     1      -5.065  36.212  -8.708  1.00  0.00    -0.084 Cl
HETATM   31  C8  UNL     1      -4.455  36.057 -11.343  1.00  0.00     0.026 A 
HETATM   32  C9  UNL     1      -4.734  35.906 -12.705  1.00  0.00     0.039 A 
ENDBRANCH  25  26
ENDBRANCH   4  25
TORSDOF 4
ENDMDL
MODEL 2
REMARK VINA RESULT: -5.850026359      1.327      2.196
REMARK  4 active torsions:
REMARK  status: ('A' for Active; 'I' for Inactive)
REMARK    1  A    between atoms: C3_4  and  O2_5 
REMARK    2  A    between atoms: O2_5  and  C4_6 
REMARK    3  A    between atoms: N2_19  and  C14_20 
REMARK    4  A    between atoms: N3_23  and  C17_24 
ROOT
HETATM    1  O1  UNL     1      -8.442  40.063 -16.449  1.00  0.00    -0.268 OA
HETATM    2  C1  UNL     1      -8.539  38.817 -16.333  1.00  0.00     0.251 A 
HETATM    3  C2  UNL     1      -7.463  38.049 -15.909  1.00  0.00     0.114 A 
HETATM    4  C3  UNL     1      -7.597  36.689 -15.791  1.00  0.00     0.110 A 
HETATM    5  C10 UNL     1      -8.817  36.111 -16.103  1.00  0.00     0.093 A 
HETATM    6  N1  UNL     1      -9.250  34.856 -16.092  1.00  0.00    -0.362 N 
ATOM      7  H1  UNL     1      -8.681  34.053 -15.821  1.00  0.00     0.165 HD
HETATM    8  C11 UNL     1     -10.533  34.778 -16.483  1.00  0.00     0.091 A 
HETATM    9  C12 UNL     1     -10.927  36.066 -16.755  1.00  0.00     0.049 A 
HETATM   10  C13 UNL     1      -9.859  36.906 -16.521  1.00  0.00     0.068 A 
HETATM   11  N2  UNL     1      -9.718  38.264 -16.636  1.00  0.00    -0.307 N 
ENDROOT
BRANCH  11  12
HETATM   12  C14 UNL     1     -10.838  38.991 -17.072  1.00  0.00     0.103 C 
HETATM   13  C15 UNL     1     -12.013  39.109 -16.169  1.00  0.00     0.071 C 
HETATM   14  C16 UNL     1     -12.843  40.275 -16.733  1.00  0.00     0.065 C 
HETATM   15  N3  UNL     1     -13.070  40.260 -18.095  1.00  0.00    -0.369 N 
HETATM   16  C24 UNL     1     -12.116  39.732 -18.985  1.00  0.00     0.065 C 
HETATM   17  C25 UNL     1     -11.400  38.525 -18.422  1.00  0.00     0.071 C 
BRANCH  15  18
HETATM   18  C17 UNL     1     -14.348  40.437 -18.631  1.00  0.00     0.088 C 
HETATM   19  C18 UNL     1     -15.201  39.229 -18.241  1.00  0.00     0.026 C 
HETATM   20  C19 UNL     1     -16.483  39.696 -17.642  1.00  0.00     0.002 C 
HETATM   21  C20 UNL     1     -17.444  40.068 -18.746  1.00  0.00     0.000 C 
HETATM   22  C21 UNL     1     -16.888  41.162 -19.635  1.00  0.00     0.000 C 
HETATM   23  C22 UNL     1     -15.876  40.616 -20.570  1.00  0.00     0.002 C 
HETATM   24  C23 UNL     1     -14.467  40.638 -20.091  1.00  0.00     0.026 C 
ENDBRANCH  15  18
ENDBRANCH  11  12
BRANCH   4  25
HETATM   25  O2  UNL     1      -6.556  35.864 -15.372  1.00  0.00    -0.308 OA
BRANCH  25  26
HETATM   26  C4  UNL     1      -6.290  35.822 -14.012  1.00  0.00     0.076 A 
HETATM   27  C5  UNL     1      -7.275  35.792 -13.053  1.00  0.00     0.039 A 
HETATM   28  C6  UNL     1      -7.004  35.751 -11.708  1.00  0.00     0.026 A 
HETATM   29  C7  UNL     1      -5.684  35.738 -11.289  1.00  0.00     0.034 A 
HETATM   30 CL1  UNL     1      -5.257  35.687  -9.590  1.00  0.00    -0.084 Cl
HETATM   31  C8  UNL     1      -4.683  35.768 -12.237  1.00  0.00     0.026 A 
HETATM   32  C9  UNL     1      -4.984  35.811 -13.602  1.00  0.00     0.039 A 
ENDBRANCH  25  26
ENDBRANCH   4  25
TORSDOF 4
ENDMDL
MODEL 3
REMARK VINA RESULT: -5.788156208      0.923      1.036
REMARK  4 active torsions:
REMARK  status: ('A' for Active; 'I' for Inactive)
REMARK    1  A    between atoms: C3_4  and  O2_5 
REMARK    2  A    between atoms: O2_5  and  C4_6 
REMARK    3  A    between atoms: N2_19  and  C14_20 
REMARK    4  A    between atoms: N3_23  and  C17_24 
ROOT
HETATM    1  O1  UNL     1     -10.179  35.523 -15.275  1.00  0.00    -0.268 OA
HETATM    2  C1  UNL     1      -9.104  36.146 -15.102  1.00  0.00     0.251 A 
HETATM    3  C2  UNL     1      -7.999  35.529 -14.531  1.00  0.00     0.114 A 
HETATM    4  C3  UNL     1      -6.836  36.235 -14.355  1.00  0.00     0.110 A 
HETATM    5  C10 UNL     1      -6.795  37.560 -14.756  1.00  0.00     0.093 A 
HETATM    6  N1  UNL     1      -5.842  38.485 -14.719  1.00  0.00    -0.362 N 
ATOM      7  H1  UNL     1      -4.904  38.330 -14.349  1.00  0.00     0.165 HD
HETATM    8  C11 UNL     1      -6.272  39.650 -15.230  1.00  0.00     0.091 A 
HETATM    9  C12 UNL     1      -7.576  39.440 -15.611  1.00  0.00     0.049 A 
HETATM   10  C13 UNL     1      -7.911  38.136 -15.317  1.00  0.00     0.068 A 
HETATM   11  N2  UNL     1      -9.069  37.425 -15.491  1.00  0.00    -0.307 N 
ENDROOT
BRANCH  11  12
HETATM   12  C14 UNL     1     -10.156  38.100 -16.071  1.00  0.00     0.103 C 
HETATM   13  C15 UNL     1     -11.263  38.563 -15.193  1.00  0.00     0.071 C 
HETATM   14  C16 UNL     1     -12.036  39.598 -16.027  1.00  0.00     0.065 C 
HETATM   15  N3  UNL     1     -12.344  39.231 -17.322  1.00  0.00    -0.369 N 
HETATM   16  C24 UNL     1     -11.487  38.398 -18.065  1.00  0.00     0.065 C 
HETATM   17  C25 UNL     1     -10.831  37.334 -17.216  1.00  0.00     0.071 C 
BRANCH  15  18
HETATM   18  C17 UNL     1     -13.636  39.367 -17.839  1.00  0.00     0.088 C 
HETATM   19  C18 UNL     1     -14.575  39.729 -16.688  1.00  0.00     0.026 C 
HETATM   20  C19 UNL     1     -15.385  40.923 -17.062  1.00  0.00     0.002 C 
HETATM   21  C20 UNL     1     -16.546  40.490 -17.924  1.00  0.00     0.000 C 
HETATM   22  C21 UNL     1     -16.081  39.793 -19.188  1.00  0.00     0.000 C 
HETATM   23  C22 UNL     1     -15.656  38.403 -18.896  1.00  0.00     0.002 C 
HETATM   24  C23 UNL     1     -14.216  38.218 -18.568  1.00  0.00     0.026 C 
ENDBRANCH  15  18
ENDBRANCH  11  12
BRANCH   4  25
HETATM   25  O2  UNL     1      -5.694  35.674 -13.787  1.00  0.00    -0.308 OA
BRANCH  25  26
HETATM   26  C4  UNL     1      -5.536  35.810 -12.417  1.00  0.00     0.076 A 
HETATM   27  C5  UNL     1      -6.572  36.118 -11.567  1.00  0.00     0.039 A 
HETATM   28  C6  UNL     1      -6.407  36.251 -10.211  1.00  0.00     0.026 A 
HETATM   29  C7  UNL     1      -5.148  36.069  -9.665  1.00  0.00     0.034 A 
HETATM   30 CL1  UNL     1      -4.857  36.222  -7.944  1.00  0.00    -0.084 Cl
HETATM   31  C8  UNL     1      -4.097  35.759 -10.503  1.00  0.00     0.026 A 
HETATM   32  C9  UNL     1      -4.289  35.629 -11.882  1.00  0.00     0.039 A 
ENDBRANCH  25  26
ENDBRANCH   4  25
TORSDOF 4
ENDMDL
MODEL 4
REMARK VINA RESULT: -5.683603335      1.649      2.689
REMARK  4 active torsions:
REMARK  status: ('A' for Active; 'I' for Inactive)
REMARK    1  A    between atoms: C3_4  and  O2_5 
REMARK    2  A    between atoms: O2_5  and  C4_6 
REMARK    3  A    between atoms: N2_19  and  C14_20 
REMARK    4  A    between atoms: N3_23  and  C17_24 
ROOT
HETATM    1  O1  UNL     1      -9.566  40.580 -16.284  1.00  0.00    -0.268 OA
HETATM    2  C1  UNL     1      -9.401  39.341 -16.170  1.00  0.00     0.251 A 
HETATM    3  C2  UNL     1      -8.198  38.814 -15.720  1.00  0.00     0.114 A 
HETATM    4  C3  UNL     1      -8.046  37.456 -15.605  1.00  0.00     0.110 A 
HETATM    5  C10 UNL     1      -9.110  36.636 -15.947  1.00  0.00     0.093 A 
HETATM    6  N1  UNL     1      -9.270  35.318 -15.946  1.00  0.00    -0.362 N 
ATOM      7  H1  UNL     1      -8.551  34.652 -15.661  1.00  0.00     0.165 HD
HETATM    8  C11 UNL     1     -10.497  34.974 -16.367  1.00  0.00     0.091 A 
HETATM    9  C12 UNL     1     -11.147  36.152 -16.649  1.00  0.00     0.049 A 
HETATM   10  C13 UNL     1     -10.285  37.197 -16.390  1.00  0.00     0.068 A 
HETATM   11  N2  UNL     1     -10.430  38.554 -16.501  1.00  0.00    -0.307 N 
ENDROOT
BRANCH  11  12
HETATM   12  C14 UNL     1     -11.667  39.032 -16.965  1.00  0.00     0.103 C 
HETATM   13  C15 UNL     1     -12.766  39.244 -15.986  1.00  0.00     0.071 C 
HETATM   14  C16 UNL     1     -13.784  40.144 -16.708  1.00  0.00     0.065 C 
HETATM   15  N3  UNL     1     -14.122  39.772 -17.994  1.00  0.00    -0.369 N 
HETATM   16  C24 UNL     1     -13.188  39.145 -18.839  1.00  0.00     0.065 C 
HETATM   17  C25 UNL     1     -12.279  38.194 -18.095  1.00  0.00     0.071 C 
BRANCH  15  18
HETATM   18  C17 UNL     1     -15.454  39.679 -18.408  1.00  0.00     0.088 C 
HETATM   19  C18 UNL     1     -15.951  41.088 -18.736  1.00  0.00     0.026 C 
HETATM   20  C19 UNL     1     -16.584  41.092 -20.085  1.00  0.00     0.002 C 
HETATM   21  C20 UNL     1     -17.999  40.575 -19.975  1.00  0.00     0.000 C 
HETATM   22  C21 UNL     1     -18.045  39.168 -19.413  1.00  0.00     0.000 C 
HETATM   23  C22 UNL     1     -17.835  39.182 -17.946  1.00  0.00     0.002 C 
HETATM   24  C23 UNL     1     -16.425  39.046 -17.489  1.00  0.00     0.026 C 
ENDBRANCH  15  18
ENDBRANCH  11  12
BRANCH   4  25
HETATM   25  O2  UNL     1      -6.865  36.866 -15.161  1.00  0.00    -0.308 OA
BRANCH  25  26
HETATM   26  C4  UNL     1      -6.673  36.790 -13.790  1.00  0.00     0.076 A 
HETATM   27  C5  UNL     1      -7.082  35.718 -13.032  1.00  0.00     0.039 A 
HETATM   28  C6  UNL     1      -6.888  35.650 -11.674  1.00  0.00     0.026 A 
HETATM   29  C7  UNL     1      -6.253  36.700 -11.032  1.00  0.00     0.034 A 
HETATM   30 CL1  UNL     1      -5.970  36.687  -9.303  1.00  0.00    -0.084 Cl
HETATM   31  C8  UNL     1      -5.836  37.783 -11.777  1.00  0.00     0.026 A 
HETATM   32  C9  UNL     1      -6.046  37.831 -13.159  1.00  0.00     0.039 A 
ENDBRANCH  25  26
ENDBRANCH   4  25
TORSDOF 4
ENDMDL
MODEL 5
REMARK VINA RESULT: -5.630421908      3.589      9.573
REMARK  4 active torsions:
REMARK  status: ('A' for Active; 'I' for Inactive)
REMARK    1  A    between atoms: C3_4  and  O2_5 
REMARK    2  A    between atoms: O2_5  and  C4_6 
REMARK    3  A    between atoms: N2_19  and  C14_20 
REMARK    4  A    between atoms: N3_23  and  C17_24 
ROOT
HETATM    1  O1  UNL     1     -11.381  36.026 -18.119  1.00  0.00    -0.268 OA
HETATM    2  C1  UNL     1     -11.409  37.279 -18.047  1.00  0.00     0.251 A 
HETATM    3  C2  UNL     1     -12.292  38.024 -18.818  1.00  0.00     0.114 A 
HETATM    4  C3  UNL     1     -12.300  39.392 -18.719  1.00  0.00     0.110 A 
HETATM    5  C10 UNL     1     -11.416  40.000 -17.842  1.00  0.00     0.093 A 
HETATM    6  N1  UNL     1     -11.186  41.271 -17.529  1.00  0.00    -0.362 N 
ATOM      7  H1  UNL     1     -11.685  42.062 -17.936  1.00  0.00     0.165 HD
HETATM    8  C11 UNL     1     -10.214  41.379 -16.610  1.00  0.00     0.091 A 
HETATM    9  C12 UNL     1      -9.810  40.096 -16.329  1.00  0.00     0.049 A 
HETATM   10  C13 UNL     1     -10.556  39.227 -17.097  1.00  0.00     0.068 A 
HETATM   11  N2  UNL     1     -10.554  37.861 -17.200  1.00  0.00    -0.307 N 
ENDROOT
BRANCH  11  12
HETATM   12  C14 UNL     1      -9.638  37.158 -16.400  1.00  0.00     0.103 C 
HETATM   13  C15 UNL     1      -9.915  37.022 -14.946  1.00  0.00     0.071 C 
HETATM   14  C16 UNL     1      -9.001  35.882 -14.464  1.00  0.00     0.065 C 
HETATM   15  N3  UNL     1      -7.684  35.943 -14.871  1.00  0.00    -0.369 N 
HETATM   16  C24 UNL     1      -7.333  36.491 -16.120  1.00  0.00     0.065 C 
HETATM   17  C25 UNL     1      -8.196  37.672 -16.498  1.00  0.00     0.071 C 
BRANCH  15  18
HETATM   18  C17 UNL     1      -6.626  35.794 -13.970  1.00  0.00     0.088 C 
HETATM   19  C18 UNL     1      -7.031  36.444 -12.647  1.00  0.00     0.026 C 
HETATM   20  C19 UNL     1      -6.795  35.488 -11.528  1.00  0.00     0.002 C 
HETATM   21  C20 UNL     1      -5.335  35.521 -11.143  1.00  0.00     0.000 C 
HETATM   22  C21 UNL     1      -4.435  35.152 -12.305  1.00  0.00     0.000 C 
HETATM   23  C22 UNL     1      -4.309  36.285 -13.252  1.00  0.00     0.002 C 
HETATM   24  C23 UNL     1      -5.301  36.321 -14.361  1.00  0.00     0.026 C 
ENDBRANCH  15  18
ENDBRANCH  11  12
BRANCH   4  25
HETATM   25  O2  UNL     1     -13.159  40.194 -19.464  1.00  0.00    -0.308 OA
BRANCH  25  26
HETATM   26  C4  UNL     1     -14.518  40.062 -19.223  1.00  0.00     0.076 A 
HETATM   27  C5  UNL     1     -15.064  40.094 -17.961  1.00  0.00     0.039 A 
HETATM   28  C6  UNL     1     -16.411  39.962 -17.731  1.00  0.00     0.026 A 
HETATM   29  C7  UNL     1     -17.265  39.789 -18.807  1.00  0.00     0.034 A 
HETATM   30 CL1  UNL     1     -18.995  39.613 -18.594  1.00  0.00    -0.084 Cl
HETATM   31  C8  UNL     1     -16.734  39.755 -20.080  1.00  0.00     0.026 A 
HETATM   32  C9  UNL     1     -15.358  39.891 -20.290  1.00  0.00     0.039 A 
ENDBRANCH  25  26
ENDBRANCH   4  25
TORSDOF 4
ENDMDL
