MODEL 1
REMARK VINA RESULT: -4.944721409      0.000      0.000
REMARK  4 active torsions:
REMARK  status: ('A' for Active; 'I' for Inactive)
REMARK    1  A    between atoms: C10_11  and  C11_12 
REMARK    2  A    between atoms: N1_19  and  C18_20 
REMARK    3  A    between atoms: C18_20  and  C19_21 
REMARK    4  A    between atoms: C19_21  and  C20_22 
ROOT
HETATM    1  C11 UNL     1      -4.056  37.375 -12.676  1.00  0.00     0.125 C 
HETATM    2  C12 UNL     1      -3.838  36.419 -11.557  1.00  0.00     0.022 C 
HETATM    3  C13 UNL     1      -4.348  35.045 -11.715  1.00  0.00     0.008 C 
HETATM    4  C14 UNL     1      -5.105  34.778 -10.408  1.00  0.00     0.001 C 
HETATM    5  C15 UNL     1      -5.606  36.129  -9.953  1.00  0.00     0.010 C 
HETATM    6  C16 UNL     1      -4.491  37.046 -10.339  1.00  0.00     0.031 C 
HETATM    7  C17 UNL     1      -4.928  38.417 -10.774  1.00  0.00     0.069 C 
HETATM    8  N1  UNL     1      -4.564  38.546 -12.112  1.00  0.00    -0.364 N 
ENDROOT
BRANCH   1   9
HETATM    9  C10 UNL     1      -5.008  36.894 -13.725  1.00  0.00    -0.034 A 
HETATM   10  C9  UNL     1      -6.375  36.930 -13.567  1.00  0.00     0.018 A 
HETATM   11  C8  UNL     1      -7.254  36.486 -14.533  1.00  0.00    -0.036 A 
HETATM   12  C7  UNL     1      -8.721  36.504 -14.360  1.00  0.00     0.080 C 
HETATM   13  C25 UNL     1      -6.703  35.989 -15.697  1.00  0.00     0.012 A 
HETATM   14  C5  UNL     1      -9.511  36.931 -15.502  1.00  0.00    -0.035 A 
HETATM   15  C4  UNL     1      -9.263  36.510 -16.783  1.00  0.00     0.012 A 
HETATM   16  C6  UNL     1     -10.587  37.797 -15.271  1.00  0.00     0.032 A 
HETATM   17  C3  UNL     1     -10.030  36.905 -17.842  1.00  0.00     0.021 A 
HETATM   18  S1  UNL     1      -7.847  35.419 -17.003  1.00  0.00    -0.089 SA
HETATM   19  C2  UNL     1     -11.115  37.773 -17.638  1.00  0.00     0.025 A 
HETATM   20  C1  UNL     1     -11.356  38.193 -16.340  1.00  0.00     0.034 A 
HETATM   21 CL1  UNL     1     -12.697  39.279 -16.018  1.00  0.00    -0.084 Cl
HETATM   22  C24 UNL     1      -5.351  35.925 -15.921  1.00  0.00     0.020 A 
HETATM   23  C23 UNL     1      -4.531  36.385 -14.914  1.00  0.00     0.011 A 
ENDBRANCH   1   9
BRANCH   8  24
HETATM   24  C18 UNL     1      -4.710  39.723 -12.821  1.00  0.00     0.066 C 
BRANCH  24  25
HETATM   25  C19 UNL     1      -5.930  40.542 -12.591  1.00  0.00     0.071 C 
BRANCH  25  26
HETATM   26  C20 UNL     1      -6.395  41.335 -13.799  1.00  0.00     0.104 C 
HETATM   27  C21 UNL     1      -7.848  41.741 -13.711  1.00  0.00     0.145 C 
HETATM   28  N2  UNL     1      -8.474  40.580 -14.361  1.00  0.00    -0.384 N 
HETATM   29  C22 UNL     1      -7.527  40.048 -15.281  1.00  0.00     0.171 C 
ATOM     30  H2  UNL     1      -9.413  40.222 -14.185  1.00  0.00     0.160 HD
HETATM   31  N3  UNL     1      -6.373  40.475 -14.960  1.00  0.00    -0.380 N 
ATOM     32  H3  UNL     1      -5.522  40.235 -15.469  1.00  0.00     0.160 HD
ENDBRANCH  25  26
ENDBRANCH  24  25
ENDBRANCH   8  24
TORSDOF 4
ENDMDL
MODEL 2
REMARK VINA RESULT: -4.935326942      1.511      1.940
REMARK  4 active torsions:
REMARK  status: ('A' for Active; 'I' for Inactive)
REMARK    1  A    between atoms: C10_11  and  C11_12 
REMARK    2  A    between atoms: N1_19  and  C18_20 
REMARK    3  A    between atoms: C18_20  and  C19_21 
REMARK    4  A    between atoms: C19_21  and  C20_22 
ROOT
HETATM    1  C11 UNL     1      -5.189  37.627 -13.772  1.00  0.00     0.125 C 
HETATM    2  C12 UNL     1      -4.899  36.743 -12.611  1.00  0.00     0.022 C 
HETATM    3  C13 UNL     1      -5.551  35.421 -12.571  1.00  0.00     0.008 C 
HETATM    4  C14 UNL     1      -6.129  35.337 -11.152  1.00  0.00     0.001 C 
HETATM    5  C15 UNL     1      -6.431  36.764 -10.758  1.00  0.00     0.010 C 
HETATM    6  C16 UNL     1      -5.304  37.527 -11.377  1.00  0.00     0.031 C 
HETATM    7  C17 UNL     1      -5.672  38.898 -11.870  1.00  0.00     0.069 C 
HETATM    8  N1  UNL     1      -5.498  38.885 -13.252  1.00  0.00    -0.364 N 
ENDROOT
BRANCH   1   9
HETATM    9  C10 UNL     1      -6.326  37.169 -14.630  1.00  0.00    -0.034 A 
HETATM   10  C9  UNL     1      -7.636  37.501 -14.375  1.00  0.00     0.018 A 
HETATM   11  C8  UNL     1      -8.685  37.079 -15.166  1.00  0.00    -0.036 A 
HETATM   12  C7  UNL     1     -10.096  37.416 -14.884  1.00  0.00     0.080 C 
HETATM   13  C25 UNL     1      -8.368  36.289 -16.252  1.00  0.00     0.012 A 
HETATM   14  C5  UNL     1     -10.921  37.786 -16.021  1.00  0.00    -0.035 A 
HETATM   15  C4  UNL     1     -10.900  37.108 -17.213  1.00  0.00     0.012 A 
HETATM   16  C6  UNL     1     -11.791  38.874 -15.877  1.00  0.00     0.032 A 
HETATM   17  C3  UNL     1     -11.699  37.457 -18.265  1.00  0.00     0.021 A 
HETATM   18  S1  UNL     1      -9.737  35.738 -17.330  1.00  0.00    -0.089 SA
HETATM   19  C2  UNL     1     -12.580  38.544 -18.146  1.00  0.00     0.025 A 
HETATM   20  C1  UNL     1     -12.593  39.223 -16.938  1.00  0.00     0.034 A 
HETATM   21 CL1  UNL     1     -13.671  40.591 -16.726  1.00  0.00    -0.084 Cl
HETATM   22  C24 UNL     1      -7.085  35.921 -16.565  1.00  0.00     0.020 A 
HETATM   23  C23 UNL     1      -6.085  36.378 -15.733  1.00  0.00     0.011 A 
ENDBRANCH   1   9
BRANCH   8  24
HETATM   24  C18 UNL     1      -5.638  40.013 -14.038  1.00  0.00     0.066 C 
BRANCH  24  25
HETATM   25  C19 UNL     1      -6.810  40.897 -13.808  1.00  0.00     0.071 C 
BRANCH  25  26
HETATM   26  C20 UNL     1      -6.462  42.295 -13.327  1.00  0.00     0.104 C 
HETATM   27  C21 UNL     1      -6.797  42.515 -11.870  1.00  0.00     0.145 C 
HETATM   28  N2  UNL     1      -8.173  43.016 -12.001  1.00  0.00    -0.384 N 
HETATM   29  C22 UNL     1      -8.272  43.656 -13.270  1.00  0.00     0.171 C 
ATOM     30  H2  UNL     1      -8.919  42.923 -11.311  1.00  0.00     0.160 HD
HETATM   31  N3  UNL     1      -7.315  43.248 -13.999  1.00  0.00    -0.380 N 
ATOM     32  H3  UNL     1      -7.165  43.561 -14.959  1.00  0.00     0.160 HD
ENDBRANCH  25  26
ENDBRANCH  24  25
ENDBRANCH   8  24
TORSDOF 4
ENDMDL
MODEL 3
REMARK VINA RESULT: -4.907534553      1.055      1.320
REMARK  4 active torsions:
REMARK  status: ('A' for Active; 'I' for Inactive)
REMARK    1  A    between atoms: C10_11  and  C11_12 
REMARK    2  A    between atoms: N1_19  and  C18_20 
REMARK    3  A    between atoms: C18_20  and  C19_21 
REMARK    4  A    between atoms: C19_21  and  C20_22 
ROOT
HETATM    1  C11 UNL     1      -4.028  37.290 -12.687  1.00  0.00     0.125 C 
HETATM    2  C12 UNL     1      -3.907  36.372 -11.523  1.00  0.00     0.022 C 
HETATM    3  C13 UNL     1      -4.507  35.029 -11.639  1.00  0.00     0.008 C 
HETATM    4  C14 UNL     1      -5.314  34.872 -10.344  1.00  0.00     0.001 C 
HETATM    5  C15 UNL     1      -5.732  36.273  -9.961  1.00  0.00     0.010 C 
HETATM    6  C16 UNL     1      -4.546  37.094 -10.352  1.00  0.00     0.031 C 
HETATM    7  C17 UNL     1      -4.875  38.471 -10.855  1.00  0.00     0.069 C 
HETATM    8  N1  UNL     1      -4.468  38.517 -12.187  1.00  0.00    -0.364 N 
ENDROOT
BRANCH   1   9
HETATM    9  C10 UNL     1      -4.983  36.831 -13.742  1.00  0.00    -0.034 A 
HETATM   10  C9  UNL     1      -6.349  36.868 -13.581  1.00  0.00     0.018 A 
HETATM   11  C8  UNL     1      -7.231  36.444 -14.554  1.00  0.00    -0.036 A 
HETATM   12  C7  UNL     1      -8.698  36.463 -14.378  1.00  0.00     0.080 C 
HETATM   13  C25 UNL     1      -6.684  35.966 -15.727  1.00  0.00     0.012 A 
HETATM   14  C5  UNL     1      -9.489  36.913 -15.511  1.00  0.00    -0.035 A 
HETATM   15  C4  UNL     1      -9.244  36.513 -16.800  1.00  0.00     0.012 A 
HETATM   16  C6  UNL     1     -10.562  37.778 -15.263  1.00  0.00     0.032 A 
HETATM   17  C3  UNL     1     -10.011  36.930 -17.851  1.00  0.00     0.021 A 
HETATM   18  S1  UNL     1      -7.832  35.423 -17.040  1.00  0.00    -0.089 SA
HETATM   19  C2  UNL     1     -11.093  37.797 -17.629  1.00  0.00     0.025 A 
HETATM   20  C1  UNL     1     -11.331  38.196 -16.324  1.00  0.00     0.034 A 
HETATM   21 CL1  UNL     1     -12.668  39.280 -15.981  1.00  0.00    -0.084 Cl
HETATM   22  C24 UNL     1      -5.333  35.901 -15.954  1.00  0.00     0.020 A 
HETATM   23  C23 UNL     1      -4.509  36.341 -14.940  1.00  0.00     0.011 A 
ENDBRANCH   1   9
BRANCH   8  24
HETATM   24  C18 UNL     1      -4.513  39.669 -12.948  1.00  0.00     0.066 C 
BRANCH  24  25
HETATM   25  C19 UNL     1      -5.770  40.462 -12.960  1.00  0.00     0.071 C 
BRANCH  25  26
HETATM   26  C20 UNL     1      -5.579  41.953 -12.743  1.00  0.00     0.104 C 
HETATM   27  C21 UNL     1      -5.742  42.362 -11.298  1.00  0.00     0.145 C 
HETATM   28  N2  UNL     1      -7.184  42.650 -11.279  1.00  0.00    -0.384 N 
HETATM   29  C22 UNL     1      -7.551  43.056 -12.593  1.00  0.00     0.171 C 
ATOM     30  H2  UNL     1      -7.805  42.574 -10.473  1.00  0.00     0.160 HD
HETATM   31  N3  UNL     1      -6.651  42.664 -13.400  1.00  0.00    -0.380 N 
ATOM     32  H3  UNL     1      -6.683  42.833 -14.405  1.00  0.00     0.160 HD
ENDBRANCH  25  26
ENDBRANCH  24  25
ENDBRANCH   8  24
TORSDOF 4
ENDMDL
MODEL 4
REMARK VINA RESULT: -4.894727447      1.300      1.681
REMARK  4 active torsions:
REMARK  status: ('A' for Active; 'I' for Inactive)
REMARK    1  A    between atoms: C10_11  and  C11_12 
REMARK    2  A    between atoms: N1_19  and  C18_20 
REMARK    3  A    between atoms: C18_20  and  C19_21 
REMARK    4  A    between atoms: C19_21  and  C20_22 
ROOT
HETATM    1  C11 UNL     1      -5.112  37.220 -13.984  1.00  0.00     0.125 C 
HETATM    2  C12 UNL     1      -4.975  36.475 -12.704  1.00  0.00     0.022 C 
HETATM    3  C13 UNL     1      -5.832  35.292 -12.501  1.00  0.00     0.008 C 
HETATM    4  C14 UNL     1      -6.426  35.502 -11.102  1.00  0.00     0.001 C 
HETATM    5  C15 UNL     1      -6.498  36.999 -10.918  1.00  0.00     0.010 C 
HETATM    6  C16 UNL     1      -5.259  37.479 -11.603  1.00  0.00     0.031 C 
HETATM    7  C17 UNL     1      -5.398  38.808 -12.292  1.00  0.00     0.069 C 
HETATM    8  N1  UNL     1      -5.218  38.572 -13.653  1.00  0.00    -0.364 N 
ENDROOT
BRANCH   1   9
HETATM    9  C10 UNL     1      -6.300  36.831 -14.804  1.00  0.00    -0.034 A 
HETATM   10  C9  UNL     1      -7.579  37.244 -14.510  1.00  0.00     0.018 A 
HETATM   11  C8  UNL     1      -8.677  36.884 -15.265  1.00  0.00    -0.036 A 
HETATM   12  C7  UNL     1     -10.055  37.308 -14.941  1.00  0.00     0.080 C 
HETATM   13  C25 UNL     1      -8.443  36.072 -16.357  1.00  0.00     0.012 A 
HETATM   14  C5  UNL     1     -10.891  37.725 -16.054  1.00  0.00    -0.035 A 
HETATM   15  C4  UNL     1     -10.949  37.043 -17.242  1.00  0.00     0.012 A 
HETATM   16  C6  UNL     1     -11.687  38.865 -15.888  1.00  0.00     0.032 A 
HETATM   17  C3  UNL     1     -11.758  37.438 -18.270  1.00  0.00     0.021 A 
HETATM   18  S1  UNL     1      -9.877  35.604 -17.389  1.00  0.00    -0.089 SA
HETATM   19  C2  UNL     1     -12.566  38.578 -18.129  1.00  0.00     0.025 A 
HETATM   20  C1  UNL     1     -12.499  39.259 -16.925  1.00  0.00     0.034 A 
HETATM   21 CL1  UNL     1     -13.484  40.692 -16.687  1.00  0.00    -0.084 Cl
HETATM   22  C24 UNL     1      -7.196  35.625 -16.708  1.00  0.00     0.020 A 
HETATM   23  C23 UNL     1      -6.144  36.023 -15.910  1.00  0.00     0.011 A 
ENDBRANCH   1   9
BRANCH   8  24
HETATM   24  C18 UNL     1      -5.169  39.585 -14.592  1.00  0.00     0.066 C 
BRANCH  24  25
HETATM   25  C19 UNL     1      -5.441  40.977 -14.147  1.00  0.00     0.071 C 
BRANCH  25  26
HETATM   26  C20 UNL     1      -6.531  41.688 -14.928  1.00  0.00     0.104 C 
HETATM   27  C21 UNL     1      -7.246  42.741 -14.113  1.00  0.00     0.145 C 
HETATM   28  N2  UNL     1      -8.330  41.925 -13.544  1.00  0.00    -0.384 N 
HETATM   29  C22 UNL     1      -8.591  40.868 -14.462  1.00  0.00     0.171 C 
ATOM     30  H2  UNL     1      -8.807  42.087 -12.657  1.00  0.00     0.160 HD
HETATM   31  N3  UNL     1      -7.584  40.745 -15.228  1.00  0.00    -0.380 N 
ATOM     32  H3  UNL     1      -7.526  40.053 -15.975  1.00  0.00     0.160 HD
ENDBRANCH  25  26
ENDBRANCH  24  25
ENDBRANCH   8  24
TORSDOF 4
ENDMDL
MODEL 5
REMARK VINA RESULT: -4.768262778      2.868      4.362
REMARK  4 active torsions:
REMARK  status: ('A' for Active; 'I' for Inactive)
REMARK    1  A    between atoms: C10_11  and  C11_12 
REMARK    2  A    between atoms: N1_19  and  C18_20 
REMARK    3  A    between atoms: C18_20  and  C19_21 
REMARK    4  A    between atoms: C19_21  and  C20_22 
ROOT
HETATM    1  C11 UNL     1      -6.207  35.755 -14.283  1.00  0.00     0.125 C 
HETATM    2  C12 UNL     1      -5.950  35.521 -12.837  1.00  0.00     0.022 C 
HETATM    3  C13 UNL     1      -7.042  35.809 -11.888  1.00  0.00     0.008 C 
HETATM    4  C14 UNL     1      -6.369  36.652 -10.796  1.00  0.00     0.001 C 
HETATM    5  C15 UNL     1      -5.248  37.387 -11.492  1.00  0.00     0.010 C 
HETATM    6  C16 UNL     1      -4.752  36.380 -12.480  1.00  0.00     0.031 C 
HETATM    7  C17 UNL     1      -4.269  36.962 -13.779  1.00  0.00     0.069 C 
HETATM    8  N1  UNL     1      -5.120  36.482 -14.772  1.00  0.00    -0.364 N 
ENDROOT
BRANCH   1   9
HETATM    9  C10 UNL     1      -7.463  36.514 -14.575  1.00  0.00    -0.034 A 
HETATM   10  C9  UNL     1      -7.524  37.889 -14.568  1.00  0.00     0.018 A 
HETATM   11  C8  UNL     1      -8.682  38.589 -14.836  1.00  0.00    -0.036 A 
HETATM   12  C7  UNL     1      -8.758  40.065 -14.811  1.00  0.00     0.080 C 
HETATM   13  C25 UNL     1      -9.811  37.846 -15.118  1.00  0.00     0.012 A 
HETATM   14  C5  UNL     1      -9.516  40.701 -15.875  1.00  0.00    -0.035 A 
HETATM   15  C4  UNL     1     -10.736  40.244 -16.301  1.00  0.00     0.012 A 
HETATM   16  C6  UNL     1      -8.976  41.847 -16.473  1.00  0.00     0.032 A 
HETATM   17  C3  UNL     1     -11.445  40.867 -17.289  1.00  0.00     0.021 A 
HETATM   18  S1  UNL     1     -11.350  38.751 -15.502  1.00  0.00    -0.089 SA
HETATM   19  C2  UNL     1     -10.926  42.018 -17.904  1.00  0.00     0.025 A 
HETATM   20  C1  UNL     1      -9.692  42.471 -17.467  1.00  0.00     0.034 A 
HETATM   21 CL1  UNL     1      -8.989  43.904 -18.197  1.00  0.00    -0.084 Cl
HETATM   22  C24 UNL     1      -9.820  36.475 -15.142  1.00  0.00     0.020 A 
HETATM   23  C23 UNL     1      -8.629  35.838 -14.865  1.00  0.00     0.011 A 
ENDBRANCH   1   9
BRANCH   8  24
HETATM   24  C18 UNL     1      -4.916  36.721 -16.118  1.00  0.00     0.066 C 
BRANCH  24  25
HETATM   25  C19 UNL     1      -5.282  35.657 -17.090  1.00  0.00     0.071 C 
BRANCH  25  26
HETATM   26  C20 UNL     1      -5.751  36.170 -18.439  1.00  0.00     0.104 C 
HETATM   27  C21 UNL     1      -6.383  37.540 -18.359  1.00  0.00     0.145 C 
HETATM   28  N2  UNL     1      -7.785  37.159 -18.133  1.00  0.00    -0.384 N 
HETATM   29  C22 UNL     1      -7.979  35.883 -18.736  1.00  0.00     0.171 C 
ATOM     30  H2  UNL     1      -8.489  37.706 -17.637  1.00  0.00     0.160 HD
HETATM   31  N3  UNL     1      -6.841  35.342 -18.902  1.00  0.00    -0.380 N 
ATOM     32  H3  UNL     1      -6.711  34.420 -19.319  1.00  0.00     0.160 HD
ENDBRANCH  25  26
ENDBRANCH  24  25
ENDBRANCH   8  24
TORSDOF 4
ENDMDL
