MODEL 1
REMARK VINA RESULT: -5.210049590      0.000      0.000
REMARK  6 active torsions:
REMARK  status: ('A' for Active; 'I' for Inactive)
REMARK    1  A    between atoms: C4_4  and  C5_5 
REMARK    2  A    between atoms: C5_5  and  C6_6 
REMARK    3  A    between atoms: C11_11  and  O1_12 
REMARK    4  A    between atoms: O1_12  and  C12_13 
REMARK    5  A    between atoms: C12_13  and  C13_15 
REMARK    6  A    between atoms: C17_19  and  O3_20 
ROOT
HETATM    1  C6  UNL     1      -9.121  36.946 -15.443  1.00  0.00    -0.021 C 
HETATM    2  C7  UNL     1     -10.193  37.872 -15.394  1.00  0.00     0.012 C 
HETATM    3  C8  UNL     1     -11.303  38.532 -14.848  1.00  0.00     0.007 C 
HETATM    4  C9  UNL     1     -11.663  39.605 -15.916  1.00  0.00     0.015 C 
HETATM    5  C10 UNL     1     -12.922  39.224 -16.664  1.00  0.00     0.039 C 
HETATM    6  C11 UNL     1     -13.576  40.553 -17.066  1.00  0.00     0.136 C 
HETATM    7  C16 UNL     1     -12.523  41.648 -17.093  1.00  0.00     0.089 C 
HETATM    8  C17 UNL     1     -11.212  41.202 -17.632  1.00  0.00     0.157 C 
HETATM    9 CL1  UNL     1     -10.141  42.635 -17.684  1.00  0.00    -0.086 Cl
HETATM   10  C18 UNL     1     -10.575  40.068 -16.799  1.00  0.00     0.135 C 
HETATM   11  N1  UNL     1      -9.941  39.271 -17.776  1.00  0.00    -0.392 N 
ATOM     12  H1  UNL     1     -10.163  39.514 -18.742  1.00  0.00     0.159 HD
HETATM   13  C19 UNL     1      -9.114  38.268 -17.635  1.00  0.00     0.067 C 
HETATM   14  C20 UNL     1      -8.375  37.391 -16.741  1.00  0.00     0.004 A 
HETATM   15  C21 UNL     1      -7.084  36.796 -17.061  1.00  0.00     0.021 A 
HETATM   16  C22 UNL     1      -7.076  38.012 -16.258  1.00  0.00     0.001 A 
HETATM   17  C23 UNL     1      -7.117  38.091 -14.785  1.00  0.00     0.011 C 
HETATM   18  C24 UNL     1      -8.161  37.110 -14.329  1.00  0.00    -0.008 C 
HETATM   19  C25 UNL     1      -7.533  35.906 -13.747  1.00  0.00     0.011 C 
ENDROOT
BRANCH   6  20
HETATM   20  O1  UNL     1     -14.162  40.388 -18.346  1.00  0.00    -0.316 OA
BRANCH  20  21
HETATM   21  C12 UNL     1     -15.511  40.662 -18.483  1.00  0.00     0.262 C 
HETATM   22  O2  UNL     1     -15.953  41.837 -18.586  1.00  0.00    -0.265 OA
BRANCH  21  23
HETATM   23  C13 UNL     1     -16.427  39.468 -18.502  1.00  0.00     0.077 C 
HETATM   24  C14 UNL     1     -15.639  38.304 -19.021  1.00  0.00     0.020 C 
HETATM   25  C15 UNL     1     -16.932  39.257 -17.094  1.00  0.00     0.020 C 
ENDBRANCH  21  23
ENDBRANCH  20  21
ENDBRANCH   6  20
BRANCH   8  26
HETATM   26  O3  UNL     1     -11.411  40.823 -18.952  1.00  0.00    -0.373 OA
ATOM     27  H3  UNL     1     -10.565  40.840 -19.384  1.00  0.00     0.212 HD
ENDBRANCH   8  26
BRANCH   1  28
HETATM   28  C5  UNL     1      -9.534  35.526 -15.738  1.00  0.00     0.038 C 
BRANCH  28  29
HETATM   29  C4  UNL     1     -10.917  35.391 -16.258  1.00  0.00    -0.024 C 
HETATM   30  C2  UNL     1     -11.198  35.051 -17.491  1.00  0.00    -0.091 C 
HETATM   31  C1  UNL     1     -10.103  34.778 -18.445  1.00  0.00     0.042 C 
HETATM   32  C3  UNL     1     -12.599  34.935 -17.939  1.00  0.00     0.042 C 
ENDBRANCH  28  29
ENDBRANCH   1  28
TORSDOF 6
ENDMDL
MODEL 2
REMARK VINA RESULT: -4.778375436      3.665      6.120
REMARK  6 active torsions:
REMARK  status: ('A' for Active; 'I' for Inactive)
REMARK    1  A    between atoms: C4_4  and  C5_5 
REMARK    2  A    between atoms: C5_5  and  C6_6 
REMARK    3  A    between atoms: C11_11  and  O1_12 
REMARK    4  A    between atoms: O1_12  and  C12_13 
REMARK    5  A    between atoms: C12_13  and  C13_15 
REMARK    6  A    between atoms: C17_19  and  O3_20 
ROOT
HETATM    1  C6  UNL     1     -10.663  39.771 -17.187  1.00  0.00    -0.021 C 
HETATM    2  C7  UNL     1     -10.643  41.188 -17.228  1.00  0.00     0.012 C 
HETATM    3  C8  UNL     1     -10.077  42.468 -17.307  1.00  0.00     0.007 C 
HETATM    4  C9  UNL     1     -11.307  43.421 -17.314  1.00  0.00     0.015 C 
HETATM    5  C10 UNL     1     -11.442  44.140 -15.989  1.00  0.00     0.039 C 
HETATM    6  C11 UNL     1     -12.096  45.489 -16.322  1.00  0.00     0.136 C 
HETATM    7  C16 UNL     1     -12.845  45.378 -17.640  1.00  0.00     0.089 C 
HETATM    8  C17 UNL     1     -13.545  44.080 -17.821  1.00  0.00     0.157 C 
HETATM    9 CL1  UNL     1     -14.447  44.171 -19.363  1.00  0.00    -0.086 Cl
HETATM   10  C18 UNL     1     -12.582  42.872 -17.816  1.00  0.00     0.135 C 
HETATM   11  N1  UNL     1     -13.332  41.868 -17.169  1.00  0.00    -0.392 N 
ATOM     12  H1  UNL     1     -14.203  42.185 -16.744  1.00  0.00     0.159 HD
HETATM   13  C19 UNL     1     -13.082  40.591 -17.029  1.00  0.00     0.067 C 
HETATM   14  C20 UNL     1     -12.192  39.470 -17.284  1.00  0.00     0.004 A 
HETATM   15  C21 UNL     1     -12.639  38.095 -17.458  1.00  0.00     0.021 A 
HETATM   16  C22 UNL     1     -12.390  38.872 -18.666  1.00  0.00     0.001 A 
HETATM   17  C23 UNL     1     -11.114  38.967 -19.402  1.00  0.00     0.011 C 
HETATM   18  C24 UNL     1     -10.034  39.147 -18.372  1.00  0.00    -0.008 C 
HETATM   19  C25 UNL     1      -9.262  37.899 -18.195  1.00  0.00     0.011 C 
ENDROOT
BRANCH   6  20
HETATM   20  O1  UNL     1     -12.981  45.823 -15.267  1.00  0.00    -0.316 OA
BRANCH  20  21
HETATM   21  C12 UNL     1     -12.437  46.090 -14.023  1.00  0.00     0.262 C 
HETATM   22  O2  UNL     1     -12.970  45.691 -12.954  1.00  0.00    -0.265 OA
BRANCH  21  23
HETATM   23  C13 UNL     1     -11.163  46.892 -14.021  1.00  0.00     0.077 C 
HETATM   24  C14 UNL     1     -11.523  48.310 -13.697  1.00  0.00     0.020 C 
HETATM   25  C15 UNL     1     -10.235  46.271 -13.002  1.00  0.00     0.020 C 
ENDBRANCH  21  23
ENDBRANCH  20  21
ENDBRANCH   6  20
BRANCH   8  26
HETATM   26  O3  UNL     1     -14.502  43.979 -16.821  1.00  0.00    -0.373 OA
ATOM     27  H3  UNL     1     -15.324  43.743 -17.235  1.00  0.00     0.212 HD
ENDBRANCH   8  26
BRANCH   1  28
HETATM   28  C5  UNL     1     -10.267  39.179 -15.857  1.00  0.00     0.038 C 
BRANCH  28  29
HETATM   29  C4  UNL     1      -9.354  40.034 -15.059  1.00  0.00    -0.024 C 
HETATM   30  C2  UNL     1      -8.201  39.625 -14.592  1.00  0.00    -0.091 C 
HETATM   31  C1  UNL     1      -7.751  38.242 -14.855  1.00  0.00     0.042 C 
HETATM   32  C3  UNL     1      -7.343  40.531 -13.805  1.00  0.00     0.042 C 
ENDBRANCH  28  29
ENDBRANCH   1  28
TORSDOF 6
ENDMDL
MODEL 3
REMARK VINA RESULT: -4.740239203      1.814      2.668
REMARK  6 active torsions:
REMARK  status: ('A' for Active; 'I' for Inactive)
REMARK    1  A    between atoms: C4_4  and  C5_5 
REMARK    2  A    between atoms: C5_5  and  C6_6 
REMARK    3  A    between atoms: C11_11  and  O1_12 
REMARK    4  A    between atoms: O1_12  and  C12_13 
REMARK    5  A    between atoms: C12_13  and  C13_15 
REMARK    6  A    between atoms: C17_19  and  O3_20 
ROOT
HETATM    1  C6  UNL     1      -8.588  39.374 -15.475  1.00  0.00    -0.021 C 
HETATM    2  C7  UNL     1     -10.001  39.304 -15.568  1.00  0.00     0.012 C 
HETATM    3  C8  UNL     1     -11.300  38.927 -15.201  1.00  0.00     0.007 C 
HETATM    4  C9  UNL     1     -12.206  39.648 -16.240  1.00  0.00     0.015 C 
HETATM    5  C10 UNL     1     -12.772  38.663 -17.240  1.00  0.00     0.039 C 
HETATM    6  C11 UNL     1     -14.127  39.247 -17.666  1.00  0.00     0.136 C 
HETATM    7  C16 UNL     1     -14.135  40.746 -17.413  1.00  0.00     0.089 C 
HETATM    8  C17 UNL     1     -12.842  41.410 -17.719  1.00  0.00     0.157 C 
HETATM    9 CL1  UNL     1     -13.070  43.166 -17.464  1.00  0.00    -0.086 Cl
HETATM   10  C18 UNL     1     -11.674  40.875 -16.862  1.00  0.00     0.135 C 
HETATM   11  N1  UNL     1     -10.580  40.912 -17.753  1.00  0.00    -0.392 N 
ATOM     12  H1  UNL     1     -10.820  41.114 -18.724  1.00  0.00     0.159 HD
HETATM   13  C19 UNL     1      -9.305  40.727 -17.526  1.00  0.00     0.067 C 
HETATM   14  C20 UNL     1      -8.249  40.434 -16.571  1.00  0.00     0.004 A 
HETATM   15  C21 UNL     1      -6.886  40.938 -16.679  1.00  0.00     0.021 A 
HETATM   16  C22 UNL     1      -7.798  41.665 -15.805  1.00  0.00     0.001 A 
HETATM   17  C23 UNL     1      -8.015  41.423 -14.365  1.00  0.00     0.011 C 
HETATM   18  C24 UNL     1      -8.118  39.934 -14.189  1.00  0.00    -0.008 C 
HETATM   19  C25 UNL     1      -6.885  39.389 -13.584  1.00  0.00     0.011 C 
ENDROOT
BRANCH   6  20
HETATM   20  O1  UNL     1     -14.314  38.969 -19.043  1.00  0.00    -0.316 OA
BRANCH  20  21
HETATM   21  C12 UNL     1     -15.578  38.595 -19.463  1.00  0.00     0.262 C 
HETATM   22  O2  UNL     1     -15.981  38.786 -20.642  1.00  0.00    -0.265 OA
BRANCH  21  23
HETATM   23  C13 UNL     1     -16.451  37.943 -18.425  1.00  0.00     0.077 C 
HETATM   24  C14 UNL     1     -17.719  38.737 -18.338  1.00  0.00     0.020 C 
HETATM   25  C15 UNL     1     -16.680  36.513 -18.855  1.00  0.00     0.020 C 
ENDBRANCH  21  23
ENDBRANCH  20  21
ENDBRANCH   6  20
BRANCH   8  26
HETATM   26  O3  UNL     1     -12.601  41.247 -19.077  1.00  0.00    -0.373 OA
ATOM     27  H3  UNL     1     -12.748  40.331 -19.284  1.00  0.00     0.212 HD
ENDBRANCH   8  26
BRANCH   1  28
HETATM   28  C5  UNL     1      -7.869  38.134 -15.944  1.00  0.00     0.038 C 
BRANCH  28  29
HETATM   29  C4  UNL     1      -8.766  37.002 -16.282  1.00  0.00    -0.024 C 
HETATM   30  C2  UNL     1      -8.969  35.977 -15.493  1.00  0.00    -0.091 C 
HETATM   31  C1  UNL     1      -8.284  35.910 -14.185  1.00  0.00     0.042 C 
HETATM   32  C3  UNL     1      -9.877  34.886 -15.894  1.00  0.00     0.042 C 
ENDBRANCH  28  29
ENDBRANCH   1  28
TORSDOF 6
ENDMDL
MODEL 4
REMARK VINA RESULT: -4.736366034      2.353      4.169
REMARK  6 active torsions:
REMARK  status: ('A' for Active; 'I' for Inactive)
REMARK    1  A    between atoms: C4_4  and  C5_5 
REMARK    2  A    between atoms: C5_5  and  C6_6 
REMARK    3  A    between atoms: C11_11  and  O1_12 
REMARK    4  A    between atoms: O1_12  and  C12_13 
REMARK    5  A    between atoms: C12_13  and  C13_15 
REMARK    6  A    between atoms: C17_19  and  O3_20 
ROOT
HETATM    1  C6  UNL     1      -7.811  37.842 -15.747  1.00  0.00    -0.021 C 
HETATM    2  C7  UNL     1      -8.568  38.700 -16.584  1.00  0.00     0.012 C 
HETATM    3  C8  UNL     1      -8.794  39.644 -17.594  1.00  0.00     0.007 C 
HETATM    4  C9  UNL     1     -10.344  39.787 -17.633  1.00  0.00     0.015 C 
HETATM    5  C10 UNL     1     -10.781  41.106 -17.033  1.00  0.00     0.039 C 
HETATM    6  C11 UNL     1     -12.079  41.476 -17.764  1.00  0.00     0.136 C 
HETATM    7  C16 UNL     1     -12.713  40.221 -18.339  1.00  0.00     0.089 C 
HETATM    8  C17 UNL     1     -12.602  39.035 -17.450  1.00  0.00     0.157 C 
HETATM    9 CL1  UNL     1     -13.486  37.694 -18.237  1.00  0.00    -0.086 Cl
HETATM   10  C18 UNL     1     -11.138  38.637 -17.161  1.00  0.00     0.135 C 
HETATM   11  N1  UNL     1     -11.187  38.191 -15.823  1.00  0.00    -0.392 N 
ATOM     12  H1  UNL     1     -12.068  38.369 -15.340  1.00  0.00     0.159 HD
HETATM   13  C19 UNL     1     -10.276  37.586 -15.105  1.00  0.00     0.067 C 
HETATM   14  C20 UNL     1      -8.934  37.034 -15.020  1.00  0.00     0.004 A 
HETATM   15  C21 UNL     1      -8.568  35.897 -14.186  1.00  0.00     0.021 A 
HETATM   16  C22 UNL     1      -8.844  35.630 -15.592  1.00  0.00     0.001 A 
HETATM   17  C23 UNL     1      -7.865  35.638 -16.696  1.00  0.00     0.011 C 
HETATM   18  C24 UNL     1      -7.006  36.857 -16.502  1.00  0.00    -0.008 C 
HETATM   19  C25 UNL     1      -5.672  36.484 -15.988  1.00  0.00     0.011 C 
ENDROOT
BRANCH   6  20
HETATM   20  O1  UNL     1     -12.948  42.098 -16.834  1.00  0.00    -0.316 OA
BRANCH  20  21
HETATM   21  C12 UNL     1     -14.246  42.361 -17.233  1.00  0.00     0.262 C 
HETATM   22  O2  UNL     1     -15.236  41.745 -16.756  1.00  0.00    -0.265 OA
BRANCH  21  23
HETATM   23  C13 UNL     1     -14.409  43.434 -18.276  1.00  0.00     0.077 C 
HETATM   24  C14 UNL     1     -15.325  42.898 -19.334  1.00  0.00     0.020 C 
HETATM   25  C15 UNL     1     -14.959  44.661 -17.586  1.00  0.00     0.020 C 
ENDBRANCH  21  23
ENDBRANCH  20  21
ENDBRANCH   6  20
BRANCH   8  26
HETATM   26  O3  UNL     1     -13.298  39.323 -16.284  1.00  0.00    -0.373 OA
ATOM     27  H3  UNL     1     -14.150  38.908 -16.351  1.00  0.00     0.212 HD
ENDBRANCH   8  26
BRANCH   1  28
HETATM   28  C5  UNL     1      -7.090  38.542 -14.622  1.00  0.00     0.038 C 
BRANCH  28  29
HETATM   29  C4  UNL     1      -7.807  39.724 -14.083  1.00  0.00    -0.024 C 
HETATM   30  C2  UNL     1      -7.417  40.959 -14.277  1.00  0.00    -0.091 C 
HETATM   31  C1  UNL     1      -6.202  41.229 -15.073  1.00  0.00     0.042 C 
HETATM   32  C3  UNL     1      -8.181  42.087 -13.711  1.00  0.00     0.042 C 
ENDBRANCH  28  29
ENDBRANCH   1  28
TORSDOF 6
ENDMDL
MODEL 5
REMARK VINA RESULT: -4.714761569      3.617      7.091
REMARK  6 active torsions:
REMARK  status: ('A' for Active; 'I' for Inactive)
REMARK    1  A    between atoms: C4_4  and  C5_5 
REMARK    2  A    between atoms: C5_5  and  C6_6 
REMARK    3  A    between atoms: C11_11  and  O1_12 
REMARK    4  A    between atoms: O1_12  and  C12_13 
REMARK    5  A    between atoms: C12_13  and  C13_15 
REMARK    6  A    between atoms: C17_19  and  O3_20 
ROOT
HETATM    1  C6  UNL     1     -14.389  39.644 -18.625  1.00  0.00    -0.021 C 
HETATM    2  C7  UNL     1     -13.630  40.835 -18.747  1.00  0.00     0.012 C 
HETATM    3  C8  UNL     1     -12.621  41.677 -19.234  1.00  0.00     0.007 C 
HETATM    4  C9  UNL     1     -12.888  43.034 -18.519  1.00  0.00     0.015 C 
HETATM    5  C10 UNL     1     -11.854  43.293 -17.445  1.00  0.00     0.039 C 
HETATM    6  C11 UNL     1     -11.720  44.820 -17.367  1.00  0.00     0.136 C 
HETATM    7  C16 UNL     1     -12.981  45.468 -17.914  1.00  0.00     0.089 C 
HETATM    8  C17 UNL     1     -14.229  44.751 -17.545  1.00  0.00     0.157 C 
HETATM    9 CL1  UNL     1     -15.602  45.706 -18.181  1.00  0.00    -0.086 Cl
HETATM   10  C18 UNL     1     -14.271  43.303 -18.079  1.00  0.00     0.135 C 
HETATM   11  N1  UNL     1     -14.935  42.601 -17.051  1.00  0.00    -0.392 N 
ATOM     12  H1  UNL     1     -15.082  43.131 -16.192  1.00  0.00     0.159 HD
HETATM   13  C19 UNL     1     -15.392  41.376 -17.029  1.00  0.00     0.067 C 
HETATM   14  C20 UNL     1     -15.575  40.112 -17.724  1.00  0.00     0.004 A 
HETATM   15  C21 UNL     1     -16.701  39.214 -17.504  1.00  0.00     0.021 A 
HETATM   16  C22 UNL     1     -16.787  40.122 -18.640  1.00  0.00     0.001 A 
HETATM   17  C23 UNL     1     -16.332  39.851 -20.018  1.00  0.00     0.011 C 
HETATM   18  C24 UNL     1     -14.981  39.200 -19.905  1.00  0.00    -0.008 C 
HETATM   19  C25 UNL     1     -15.071  37.751 -20.184  1.00  0.00     0.011 C 
ENDROOT
BRANCH   6  20
HETATM   20  O1  UNL     1     -11.519  45.177 -16.010  1.00  0.00    -0.316 OA
BRANCH  20  21
HETATM   21  C12 UNL     1     -11.041  46.446 -15.737  1.00  0.00     0.262 C 
HETATM   22  O2  UNL     1     -10.147  46.995 -16.434  1.00  0.00    -0.265 OA
BRANCH  21  23
HETATM   23  C13 UNL     1     -11.655  47.138 -14.549  1.00  0.00     0.077 C 
HETATM   24  C14 UNL     1     -12.632  48.148 -15.071  1.00  0.00     0.020 C 
HETATM   25  C15 UNL     1     -12.304  46.079 -13.689  1.00  0.00     0.020 C 
ENDBRANCH  21  23
ENDBRANCH  20  21
ENDBRANCH   6  20
BRANCH   8  26
HETATM   26  O3  UNL     1     -14.340  44.793 -16.162  1.00  0.00    -0.373 OA
ATOM     27  H3  UNL     1     -13.625  44.279 -15.803  1.00  0.00     0.212 HD
ENDBRANCH   8  26
BRANCH   1  28
HETATM   28  C5  UNL     1     -13.726  38.563 -17.808  1.00  0.00     0.038 C 
BRANCH  28  29
HETATM   29  C4  UNL     1     -12.788  39.069 -16.776  1.00  0.00    -0.024 C 
HETATM   30  C2  UNL     1     -11.581  38.594 -16.598  1.00  0.00    -0.091 C 
HETATM   31  C1  UNL     1     -11.092  37.492 -17.453  1.00  0.00     0.042 C 
HETATM   32  C3  UNL     1     -10.701  39.147 -15.551  1.00  0.00     0.042 C 
ENDBRANCH  28  29
ENDBRANCH   1  28
TORSDOF 6
ENDMDL
