MODEL 1
REMARK VINA RESULT: -5.727649417      0.000      0.000
REMARK  5 active torsions:
REMARK  status: ('A' for Active; 'I' for Inactive)
REMARK    1  A    between atoms: C3_5  and  C4_6 
REMARK    2  A    between atoms: N1_11  and  C8_12 
REMARK    3  A    between atoms: C8_12  and  C9_13 
REMARK    4  A    between atoms: C13_19  and  N3_20 
REMARK    5  A    between atoms: N3_20  and  C14_22 
ROOT
HETATM    1  C9  UNL     1     -12.614  39.454 -18.463  1.00  0.00    -0.039 A 
HETATM    2  C10 UNL     1     -12.240  40.214 -17.378  1.00  0.00     0.011 A 
HETATM    3  C11 UNL     1     -11.537  39.760 -16.316  1.00  0.00     0.031 A 
HETATM    4  C12 UNL     1     -11.128  38.405 -16.266  1.00  0.00     0.051 A 
HETATM    5  N2  UNL     1     -10.441  37.836 -15.294  1.00  0.00    -0.335 N 
ATOM      6  H2  UNL     1     -10.149  38.371 -14.477  1.00  0.00     0.168 HD
HETATM    7  C13 UNL     1     -10.138  36.543 -15.407  1.00  0.00     0.150 A 
HETATM    8  S2  UNL     1     -10.827  36.110 -16.903  1.00  0.00    -0.052 SA
HETATM    9  C20 UNL     1     -11.485  37.627 -17.327  1.00  0.00     0.035 A 
HETATM   10  C21 UNL     1     -12.218  38.133 -18.420  1.00  0.00     0.030 A 
ENDROOT
BRANCH   1  11
HETATM   11  C8  UNL     1     -13.376  39.946 -19.614  1.00  0.00     0.166 C 
BRANCH  11  12
HETATM   12  N1  UNL     1     -13.867  41.302 -19.411  1.00  0.00    -0.328 N 
HETATM   13  C1  UNL     1     -13.096  42.457 -19.640  1.00  0.00     0.230 C 
HETATM   14  O1  UNL     1     -12.295  42.646 -20.629  1.00  0.00    -0.272 OA
HETATM   15  C2  UNL     1     -13.259  43.523 -18.618  1.00  0.00     0.179 C 
HETATM   16  S1  UNL     1     -14.765  42.944 -17.746  1.00  0.00    -0.128 SA
HETATM   17  C3  UNL     1     -15.210  41.638 -18.966  1.00  0.00     0.207 C 
BRANCH  17  18
HETATM   18  C4  UNL     1     -15.960  40.564 -18.349  1.00  0.00     0.085 A 
HETATM   19  C5  UNL     1     -15.902  40.223 -17.019  1.00  0.00     0.037 A 
HETATM   20  C6  UNL     1     -16.761  39.160 -16.847  1.00  0.00     0.027 A 
HETATM   21  C7  UNL     1     -17.300  38.909 -18.089  1.00  0.00     0.142 A 
HETATM   22  O2  UNL     1     -16.796  39.755 -18.917  1.00  0.00    -0.324 OA
ENDBRANCH  17  18
ENDBRANCH  11  12
ENDBRANCH   1  11
BRANCH   7  23
HETATM   23  N3  UNL     1      -9.464  35.802 -14.550  1.00  0.00    -0.337 N 
ATOM     24  H3  UNL     1      -9.979  35.178 -13.928  1.00  0.00     0.168 HD
BRANCH  23  25
HETATM   25  C14 UNL     1      -8.070  35.841 -14.465  1.00  0.00     0.034 A 
HETATM   26  C15 UNL     1      -7.447  35.774 -13.237  1.00  0.00     0.031 A 
HETATM   27  C16 UNL     1      -6.066  35.814 -13.156  1.00  0.00     0.026 A 
HETATM   28  C17 UNL     1      -5.302  35.920 -14.319  1.00  0.00     0.034 A 
HETATM   29 CL1  UNL     1      -3.563  35.964 -14.139  1.00  0.00    -0.084 Cl
HETATM   30  C18 UNL     1      -5.915  35.987 -15.549  1.00  0.00     0.026 A 
HETATM   31  C19 UNL     1      -7.302  35.945 -15.599  1.00  0.00     0.031 A 
ENDBRANCH  23  25
ENDBRANCH   7  23
TORSDOF 5
ENDMDL
MODEL 2
REMARK VINA RESULT: -5.653629582      1.999      3.094
REMARK  5 active torsions:
REMARK  status: ('A' for Active; 'I' for Inactive)
REMARK    1  A    between atoms: C3_5  and  C4_6 
REMARK    2  A    between atoms: N1_11  and  C8_12 
REMARK    3  A    between atoms: C8_12  and  C9_13 
REMARK    4  A    between atoms: C13_19  and  N3_20 
REMARK    5  A    between atoms: N3_20  and  C14_22 
ROOT
HETATM    1  C9  UNL     1     -12.931  39.102 -18.141  1.00  0.00    -0.039 A 
HETATM    2  C10 UNL     1     -12.899  37.809 -18.610  1.00  0.00     0.011 A 
HETATM    3  C11 UNL     1     -12.191  36.798 -18.056  1.00  0.00     0.031 A 
HETATM    4  C12 UNL     1     -11.406  37.035 -16.901  1.00  0.00     0.051 A 
HETATM    5  N2  UNL     1     -10.671  36.143 -16.264  1.00  0.00    -0.335 N 
ATOM      6  H2  UNL     1     -10.626  35.177 -16.586  1.00  0.00     0.168 HD
HETATM    7  C13 UNL     1      -9.990  36.537 -15.189  1.00  0.00     0.150 A 
HETATM    8  S2  UNL     1     -10.382  38.190 -15.062  1.00  0.00    -0.052 SA
HETATM    9  C20 UNL     1     -11.418  38.308 -16.414  1.00  0.00     0.035 A 
HETATM   10  C21 UNL     1     -12.168  39.339 -17.016  1.00  0.00     0.030 A 
ENDROOT
BRANCH   1  11
HETATM   11  C8  UNL     1     -13.698  40.197 -18.740  1.00  0.00     0.166 C 
BRANCH  11  12
HETATM   12  N1  UNL     1     -15.122  40.097 -18.448  1.00  0.00    -0.328 N 
HETATM   13  C1  UNL     1     -15.673  40.270 -17.164  1.00  0.00     0.230 C 
HETATM   14  O1  UNL     1     -15.322  41.162 -16.306  1.00  0.00    -0.272 OA
HETATM   15  C2  UNL     1     -16.752  39.309 -16.819  1.00  0.00     0.179 C 
HETATM   16  S1  UNL     1     -17.133  38.604 -18.469  1.00  0.00    -0.128 SA
HETATM   17  C3  UNL     1     -16.153  39.826 -19.437  1.00  0.00     0.207 C 
BRANCH  17  18
HETATM   18  C4  UNL     1     -15.695  39.269 -20.693  1.00  0.00     0.085 A 
HETATM   19  C5  UNL     1     -15.635  37.928 -20.986  1.00  0.00     0.037 A 
HETATM   20  C6  UNL     1     -15.150  37.827 -22.271  1.00  0.00     0.027 A 
HETATM   21  C7  UNL     1     -14.940  39.120 -22.695  1.00  0.00     0.142 A 
HETATM   22  O2  UNL     1     -15.274  39.909 -21.735  1.00  0.00    -0.324 OA
ENDBRANCH  17  18
ENDBRANCH  11  12
ENDBRANCH   1  11
BRANCH   7  23
HETATM   23  N3  UNL     1      -9.208  35.801 -14.424  1.00  0.00    -0.337 N 
ATOM     24  H3  UNL     1      -9.634  35.171 -13.745  1.00  0.00     0.168 HD
BRANCH  23  25
HETATM   25  C14 UNL     1      -7.814  35.855 -14.513  1.00  0.00     0.034 A 
HETATM   26  C15 UNL     1      -7.203  36.024 -15.738  1.00  0.00     0.031 A 
HETATM   27  C16 UNL     1      -5.823  36.077 -15.823  1.00  0.00     0.026 A 
HETATM   28  C17 UNL     1      -5.047  35.960 -14.668  1.00  0.00     0.034 A 
HETATM   29 CL1  UNL     1      -3.311  36.037 -14.853  1.00  0.00    -0.084 Cl
HETATM   30  C18 UNL     1      -5.649  35.792 -13.442  1.00  0.00     0.026 A 
HETATM   31  C19 UNL     1      -7.035  35.742 -13.387  1.00  0.00     0.031 A 
ENDBRANCH  23  25
ENDBRANCH   7  23
TORSDOF 5
ENDMDL
MODEL 3
REMARK VINA RESULT: -5.644309637      1.663      2.247
REMARK  5 active torsions:
REMARK  status: ('A' for Active; 'I' for Inactive)
REMARK    1  A    between atoms: C3_5  and  C4_6 
REMARK    2  A    between atoms: N1_11  and  C8_12 
REMARK    3  A    between atoms: C8_12  and  C9_13 
REMARK    4  A    between atoms: C13_19  and  N3_20 
REMARK    5  A    between atoms: N3_20  and  C14_22 
ROOT
HETATM    1  C9  UNL     1     -12.553  39.251 -16.758  1.00  0.00    -0.039 A 
HETATM    2  C10 UNL     1     -12.549  38.101 -17.513  1.00  0.00     0.011 A 
HETATM    3  C11 UNL     1     -11.543  37.198 -17.551  1.00  0.00     0.031 A 
HETATM    4  C12 UNL     1     -10.379  37.404 -16.771  1.00  0.00     0.051 A 
HETATM    5  N2  UNL     1      -9.329  36.607 -16.715  1.00  0.00    -0.335 N 
ATOM      6  H2  UNL     1      -9.296  35.748 -17.263  1.00  0.00     0.168 HD
HETATM    7  C13 UNL     1      -8.313  36.954 -15.926  1.00  0.00     0.150 A 
HETATM    8  S2  UNL     1      -8.833  38.426 -15.245  1.00  0.00    -0.052 SA
HETATM    9  C20 UNL     1     -10.353  38.537 -16.012  1.00  0.00     0.035 A 
HETATM   10  C21 UNL     1     -11.421  39.458 -15.996  1.00  0.00     0.030 A 
ENDROOT
BRANCH   1  11
HETATM   11  C8  UNL     1     -13.643  40.230 -16.716  1.00  0.00     0.166 C 
BRANCH  11  12
HETATM   12  N1  UNL     1     -13.844  40.885 -18.003  1.00  0.00    -0.328 N 
HETATM   13  C1  UNL     1     -13.110  42.005 -18.435  1.00  0.00     0.230 C 
HETATM   14  O1  UNL     1     -11.846  42.186 -18.278  1.00  0.00    -0.272 OA
HETATM   15  C2  UNL     1     -13.916  43.043 -19.129  1.00  0.00     0.179 C 
HETATM   16  S1  UNL     1     -15.466  42.119 -19.458  1.00  0.00    -0.128 SA
HETATM   17  C3  UNL     1     -14.808  40.460 -19.006  1.00  0.00     0.207 C 
BRANCH  17  18
HETATM   18  C4  UNL     1     -15.859  39.577 -18.541  1.00  0.00     0.085 A 
HETATM   19  C5  UNL     1     -15.960  38.242 -18.847  1.00  0.00     0.037 A 
HETATM   20  C6  UNL     1     -17.089  37.777 -18.210  1.00  0.00     0.027 A 
HETATM   21  C7  UNL     1     -17.618  38.861 -17.547  1.00  0.00     0.142 A 
HETATM   22  O2  UNL     1     -16.860  39.875 -17.778  1.00  0.00    -0.324 OA
ENDBRANCH  17  18
ENDBRANCH  11  12
ENDBRANCH   1  11
BRANCH   7  23
HETATM   23  N3  UNL     1      -7.187  36.295 -15.736  1.00  0.00    -0.337 N 
ATOM     24  H3  UNL     1      -6.662  35.973 -16.549  1.00  0.00     0.168 HD
BRANCH  23  25
HETATM   25  C14 UNL     1      -6.688  36.024 -14.459  1.00  0.00     0.034 A 
HETATM   26  C15 UNL     1      -5.330  35.907 -14.254  1.00  0.00     0.031 A 
HETATM   27  C16 UNL     1      -4.839  35.638 -12.989  1.00  0.00     0.026 A 
HETATM   28  C17 UNL     1      -5.719  35.486 -11.917  1.00  0.00     0.034 A 
HETATM   29 CL1  UNL     1      -5.027  35.149 -10.347  1.00  0.00    -0.084 Cl
HETATM   30  C18 UNL     1      -7.077  35.602 -12.111  1.00  0.00     0.026 A 
HETATM   31  C19 UNL     1      -7.540  35.872 -13.392  1.00  0.00     0.031 A 
ENDBRANCH  23  25
ENDBRANCH   7  23
TORSDOF 5
ENDMDL
MODEL 4
REMARK VINA RESULT: -5.631662655      1.871      2.963
REMARK  5 active torsions:
REMARK  status: ('A' for Active; 'I' for Inactive)
REMARK    1  A    between atoms: C3_5  and  C4_6 
REMARK    2  A    between atoms: N1_11  and  C8_12 
REMARK    3  A    between atoms: C8_12  and  C9_13 
REMARK    4  A    between atoms: C13_19  and  N3_20 
REMARK    5  A    between atoms: N3_20  and  C14_22 
ROOT
HETATM    1  C9  UNL     1     -12.563  38.337 -17.974  1.00  0.00    -0.039 A 
HETATM    2  C10 UNL     1     -12.263  39.273 -17.011  1.00  0.00     0.011 A 
HETATM    3  C11 UNL     1     -11.412  39.080 -15.977  1.00  0.00     0.031 A 
HETATM    4  C12 UNL     1     -10.751  37.837 -15.828  1.00  0.00     0.051 A 
HETATM    5  N2  UNL     1      -9.901  37.518 -14.871  1.00  0.00    -0.335 N 
ATOM      6  H2  UNL     1      -9.658  38.189 -14.143  1.00  0.00     0.168 HD
HETATM    7  C13 UNL     1      -9.368  36.297 -14.879  1.00  0.00     0.150 A 
HETATM    8  S2  UNL     1     -10.068  35.575 -16.254  1.00  0.00    -0.052 SA
HETATM    9  C20 UNL     1     -11.030  36.889 -16.768  1.00  0.00     0.035 A 
HETATM   10  C21 UNL     1     -11.922  37.123 -17.833  1.00  0.00     0.030 A 
ENDROOT
BRANCH   1  11
HETATM   11  C8  UNL     1     -13.485  38.545 -19.094  1.00  0.00     0.166 C 
BRANCH  11  12
HETATM   12  N1  UNL     1     -14.846  38.136 -18.770  1.00  0.00    -0.328 N 
HETATM   13  C1  UNL     1     -15.362  36.853 -19.031  1.00  0.00     0.230 C 
HETATM   14  O1  UNL     1     -14.739  35.740 -18.862  1.00  0.00    -0.272 OA
HETATM   15  C2  UNL     1     -16.755  36.839 -19.547  1.00  0.00     0.179 C 
HETATM   16  S1  UNL     1     -17.280  38.558 -19.182  1.00  0.00    -0.128 SA
HETATM   17  C3  UNL     1     -15.834  38.986 -18.125  1.00  0.00     0.207 C 
BRANCH  17  18
HETATM   18  C4  UNL     1     -15.558  40.408 -18.148  1.00  0.00     0.085 A 
HETATM   19  C5  UNL     1     -15.238  41.168 -17.049  1.00  0.00     0.037 A 
HETATM   20  C6  UNL     1     -15.053  42.456 -17.502  1.00  0.00     0.027 A 
HETATM   21  C7  UNL     1     -15.273  42.411 -18.860  1.00  0.00     0.142 A 
HETATM   22  O2  UNL     1     -15.562  41.197 -19.174  1.00  0.00    -0.324 OA
ENDBRANCH  17  18
ENDBRANCH  11  12
ENDBRANCH   1  11
BRANCH   7  23
HETATM   23  N3  UNL     1      -8.506  35.794 -14.017  1.00  0.00    -0.337 N 
ATOM     24  H3  UNL     1      -8.859  35.357 -13.166  1.00  0.00     0.168 HD
BRANCH  23  25
HETATM   25  C14 UNL     1      -7.126  35.840 -14.231  1.00  0.00     0.034 A 
HETATM   26  C15 UNL     1      -6.255  35.725 -13.168  1.00  0.00     0.031 A 
HETATM   27  C16 UNL     1      -4.889  35.770 -13.382  1.00  0.00     0.026 A 
HETATM   28  C17 UNL     1      -4.390  35.932 -14.675  1.00  0.00     0.034 A 
HETATM   29 CL1  UNL     1      -2.653  35.980 -14.870  1.00  0.00    -0.084 Cl
HETATM   30  C18 UNL     1      -5.252  36.047 -15.743  1.00  0.00     0.026 A 
HETATM   31  C19 UNL     1      -6.617  35.998 -15.497  1.00  0.00     0.031 A 
ENDBRANCH  23  25
ENDBRANCH   7  23
TORSDOF 5
ENDMDL
MODEL 5
REMARK VINA RESULT: -5.556485225      2.175      3.655
REMARK  5 active torsions:
REMARK  status: ('A' for Active; 'I' for Inactive)
REMARK    1  A    between atoms: C3_5  and  C4_6 
REMARK    2  A    between atoms: N1_11  and  C8_12 
REMARK    3  A    between atoms: C8_12  and  C9_13 
REMARK    4  A    between atoms: C13_19  and  N3_20 
REMARK    5  A    between atoms: N3_20  and  C14_22 
ROOT
HETATM    1  C9  UNL     1     -14.133  39.545 -16.927  1.00  0.00    -0.039 A 
HETATM    2  C10 UNL     1     -13.833  38.693 -17.965  1.00  0.00     0.011 A 
HETATM    3  C11 UNL     1     -12.662  38.031 -18.114  1.00  0.00     0.031 A 
HETATM    4  C12 UNL     1     -11.632  38.193 -17.156  1.00  0.00     0.051 A 
HETATM    5  N2  UNL     1     -10.448  37.610 -17.181  1.00  0.00    -0.335 N 
ATOM      6  H2  UNL     1     -10.195  36.973 -17.936  1.00  0.00     0.168 HD
HETATM    7  C13 UNL     1      -9.592  37.874 -16.194  1.00  0.00     0.150 A 
HETATM    8  S2  UNL     1     -10.457  38.962 -15.208  1.00  0.00    -0.052 SA
HETATM    9  C20 UNL     1     -11.901  39.033 -16.116  1.00  0.00     0.035 A 
HETATM   10  C21 UNL     1     -13.133  39.706 -15.990  1.00  0.00     0.030 A 
ENDROOT
BRANCH   1  11
HETATM   11  C8  UNL     1     -15.401  40.261 -16.765  1.00  0.00     0.166 C 
BRANCH  11  12
HETATM   12  N1  UNL     1     -16.396  39.849 -17.746  1.00  0.00    -0.328 N 
HETATM   13  C1  UNL     1     -17.146  38.662 -17.651  1.00  0.00     0.230 C 
HETATM   14  O1  UNL     1     -17.667  38.183 -16.577  1.00  0.00    -0.272 OA
HETATM   15  C2  UNL     1     -17.321  37.935 -18.935  1.00  0.00     0.179 C 
HETATM   16  S1  UNL     1     -16.799  39.218 -20.137  1.00  0.00    -0.128 SA
HETATM   17  C3  UNL     1     -16.754  40.611 -18.932  1.00  0.00     0.207 C 
BRANCH  17  18
HETATM   18  C4  UNL     1     -15.813  41.635 -19.335  1.00  0.00     0.085 A 
HETATM   19  C5  UNL     1     -14.761  41.445 -20.197  1.00  0.00     0.037 A 
HETATM   20  C6  UNL     1     -14.122  42.660 -20.313  1.00  0.00     0.027 A 
HETATM   21  C7  UNL     1     -14.824  43.530 -19.510  1.00  0.00     0.142 A 
HETATM   22  O2  UNL     1     -15.792  42.877 -18.970  1.00  0.00    -0.324 OA
ENDBRANCH  17  18
ENDBRANCH  11  12
ENDBRANCH   1  11
BRANCH   7  23
HETATM   23  N3  UNL     1      -8.374  37.395 -16.043  1.00  0.00    -0.337 N 
ATOM     24  H3  UNL     1      -7.822  37.181 -16.874  1.00  0.00     0.168 HD
BRANCH  23  25
HETATM   25  C14 UNL     1      -7.813  37.170 -14.783  1.00  0.00     0.034 A 
HETATM   26  C15 UNL     1      -8.041  35.981 -14.123  1.00  0.00     0.031 A 
HETATM   27  C16 UNL     1      -7.484  35.762 -12.875  1.00  0.00     0.026 A 
HETATM   28  C17 UNL     1      -6.690  36.744 -12.284  1.00  0.00     0.034 A 
HETATM   29 CL1  UNL     1      -6.019  36.396 -10.707  1.00  0.00    -0.084 Cl
HETATM   30  C18 UNL     1      -6.455  37.934 -12.935  1.00  0.00     0.026 A 
HETATM   31  C19 UNL     1      -7.027  38.126 -14.185  1.00  0.00     0.031 A 
ENDBRANCH  23  25
ENDBRANCH   7  23
TORSDOF 5
ENDMDL
