MODEL 1
REMARK VINA RESULT: -6.405864360      0.000      0.000
REMARK  5 active torsions:
REMARK  status: ('A' for Active; 'I' for Inactive)
REMARK    1  A    between atoms: O1_1  and  C1_3 
REMARK    2  A    between atoms: C1_3  and  C2_4 
REMARK    3  A    between atoms: C1_3  and  C9_11 
REMARK    4  A    between atoms: C12_14  and  C13_15 
REMARK    5  A    between atoms: N1_23  and  C21_24 
ROOT
HETATM    1  C13 UNL     1     -11.061  36.334 -18.065  1.00  0.00     0.042 C 
HETATM    2  C14 UNL     1     -11.493  37.578 -18.751  1.00  0.00     0.038 C 
HETATM    3  C15 UNL     1     -12.903  37.933 -18.648  1.00  0.00     0.002 C 
HETATM    4  C16 UNL     1     -13.992  37.166 -18.750  1.00  0.00     0.042 A 
HETATM    5  C17 UNL     1     -13.966  35.720 -19.002  1.00  0.00     0.174 A 
HETATM    6  C18 UNL     1     -15.225  35.006 -19.196  1.00  0.00     0.066 A 
HETATM    7  C19 UNL     1     -16.432  35.818 -19.007  1.00  0.00    -0.006 A 
HETATM    8  C20 UNL     1     -16.397  37.089 -18.737  1.00  0.00     0.093 A 
HETATM    9  N1  UNL     1     -15.211  37.859 -18.589  1.00  0.00    -0.324 N 
HETATM   10  O2  UNL     1     -13.194  35.177 -17.932  1.00  0.00    -0.379 OA
HETATM   11  C27 UNL     1     -11.899  35.129 -18.358  1.00  0.00     0.176 C 
ENDROOT
BRANCH   1  12
HETATM   12  C12 UNL     1     -10.784  36.498 -16.582  1.00  0.00     0.128 C 
HETATM   13  C11 UNL     1     -10.730  37.954 -16.277  1.00  0.00     0.035 C 
HETATM   14  C10 UNL     1      -9.316  38.113 -15.715  1.00  0.00     0.037 C 
HETATM   15  C9  UNL     1      -8.987  36.727 -15.279  1.00  0.00     0.151 C 
HETATM   16  O3  UNL     1      -9.557  35.957 -16.316  1.00  0.00    -0.378 OA
BRANCH  15  17
HETATM   17  C1  UNL     1      -7.486  36.513 -15.380  1.00  0.00     0.151 C 
BRANCH  17  18
HETATM   18  O1  UNL     1      -7.358  35.660 -16.529  1.00  0.00    -0.393 OA
ATOM     19  H1  UNL     1      -7.262  34.771 -16.210  1.00  0.00     0.210 HD
ENDBRANCH  17  18
BRANCH  17  20
HETATM   20  C2  UNL     1      -6.873  35.784 -14.215  1.00  0.00     0.017 C 
HETATM   21  C3  UNL     1      -5.462  36.308 -13.963  1.00  0.00     0.007 C 
HETATM   22  C4  UNL     1      -5.430  37.751 -13.567  1.00  0.00     0.000 C 
HETATM   23  C5  UNL     1      -6.047  37.983 -12.203  1.00  0.00     0.000 C 
HETATM   24  C6  UNL     1      -5.904  36.752 -11.332  1.00  0.00     0.000 C 
HETATM   25  C7  UNL     1      -6.719  35.590 -11.753  1.00  0.00     0.000 C 
HETATM   26  C8  UNL     1      -7.633  35.834 -12.937  1.00  0.00     0.007 C 
ENDBRANCH  17  20
ENDBRANCH  15  17
ENDBRANCH   1  12
BRANCH   9  27
HETATM   27  C21 UNL     1     -15.241  39.237 -18.304  1.00  0.00     0.039 A 
HETATM   28  C22 UNL     1     -15.275  39.669 -17.008  1.00  0.00     0.033 A 
HETATM   29  C23 UNL     1     -15.294  41.012 -16.712  1.00  0.00     0.044 A 
HETATM   30  C24 UNL     1     -15.279  41.909 -17.754  1.00  0.00     0.116 A 
HETATM   31  F1  UNL     1     -15.299  43.246 -17.429  1.00  0.00    -0.206 F 
HETATM   32  C25 UNL     1     -15.244  41.510 -19.069  1.00  0.00     0.044 A 
HETATM   33  C26 UNL     1     -15.225  40.139 -19.340  1.00  0.00     0.033 A 
ENDBRANCH   9  27
TORSDOF 5
ENDMDL
MODEL 2
REMARK VINA RESULT: -5.963284992      2.373      3.956
REMARK  5 active torsions:
REMARK  status: ('A' for Active; 'I' for Inactive)
REMARK    1  A    between atoms: O1_1  and  C1_3 
REMARK    2  A    between atoms: C1_3  and  C2_4 
REMARK    3  A    between atoms: C1_3  and  C9_11 
REMARK    4  A    between atoms: C12_14  and  C13_15 
REMARK    5  A    between atoms: N1_23  and  C21_24 
ROOT
HETATM    1  C13 UNL     1     -10.136  39.007 -15.284  1.00  0.00     0.042 C 
HETATM    2  C14 UNL     1     -11.612  38.925 -15.140  1.00  0.00     0.038 C 
HETATM    3  C15 UNL     1     -12.411  39.336 -16.287  1.00  0.00     0.002 C 
HETATM    4  C16 UNL     1     -12.268  40.385 -17.102  1.00  0.00     0.042 A 
HETATM    5  C17 UNL     1     -11.203  41.388 -16.983  1.00  0.00     0.174 A 
HETATM    6  C18 UNL     1     -11.211  42.547 -17.871  1.00  0.00     0.066 A 
HETATM    7  C19 UNL     1     -12.261  42.534 -18.896  1.00  0.00    -0.006 A 
HETATM    8  C20 UNL     1     -13.153  41.594 -18.985  1.00  0.00     0.093 A 
HETATM    9  N1  UNL     1     -13.239  40.466 -18.124  1.00  0.00    -0.324 N 
HETATM   10  O2  UNL     1      -9.989  40.643 -17.075  1.00  0.00    -0.379 OA
HETATM   11  C27 UNL     1      -9.625  40.315 -15.802  1.00  0.00     0.176 C 
ENDROOT
BRANCH   1  12
HETATM   12  C12 UNL     1      -9.507  37.821 -15.991  1.00  0.00     0.128 C 
HETATM   13  C11 UNL     1     -10.044  36.575 -15.379  1.00  0.00     0.035 C 
HETATM   14  C10 UNL     1      -8.773  35.891 -14.870  1.00  0.00     0.037 C 
HETATM   15  C9  UNL     1      -7.715  36.522 -15.707  1.00  0.00     0.151 C 
HETATM   16  O3  UNL     1      -8.158  37.860 -15.772  1.00  0.00    -0.378 OA
BRANCH  15  17
HETATM   17  C1  UNL     1      -6.411  36.553 -14.926  1.00  0.00     0.151 C 
BRANCH  17  18
HETATM   18  O1  UNL     1      -5.460  36.025 -15.864  1.00  0.00    -0.393 OA
ATOM     19  H1  UNL     1      -5.634  36.436 -16.703  1.00  0.00     0.210 HD
ENDBRANCH  17  18
BRANCH  17  20
HETATM   20  C2  UNL     1      -6.381  35.663 -13.713  1.00  0.00     0.017 C 
HETATM   21  C3  UNL     1      -4.953  35.554 -13.188  1.00  0.00     0.007 C 
HETATM   22  C4  UNL     1      -4.397  36.861 -12.713  1.00  0.00     0.000 C 
HETATM   23  C5  UNL     1      -5.101  37.362 -11.468  1.00  0.00     0.000 C 
HETATM   24  C6  UNL     1      -5.644  36.205 -10.655  1.00  0.00     0.000 C 
HETATM   25  C7  UNL     1      -6.777  35.481 -11.277  1.00  0.00     0.000 C 
HETATM   26  C8  UNL     1      -7.272  36.057 -12.589  1.00  0.00     0.007 C 
ENDBRANCH  17  20
ENDBRANCH  15  17
ENDBRANCH   1  12
BRANCH   9  27
HETATM   27  C21 UNL     1     -14.237  39.484 -18.268  1.00  0.00     0.039 A 
HETATM   28  C22 UNL     1     -13.957  38.312 -18.913  1.00  0.00     0.033 A 
HETATM   29  C23 UNL     1     -14.918  37.338 -19.054  1.00  0.00     0.044 A 
HETATM   30  C24 UNL     1     -16.167  37.575 -18.531  1.00  0.00     0.116 A 
HETATM   31  F1  UNL     1     -17.109  36.583 -18.688  1.00  0.00    -0.206 F 
HETATM   32  C25 UNL     1     -16.483  38.741 -17.877  1.00  0.00     0.044 A 
HETATM   33  C26 UNL     1     -15.487  39.713 -17.748  1.00  0.00     0.033 A 
ENDBRANCH   9  27
TORSDOF 5
ENDMDL
MODEL 3
REMARK VINA RESULT: -5.955879509      4.002      9.362
REMARK  5 active torsions:
REMARK  status: ('A' for Active; 'I' for Inactive)
REMARK    1  A    between atoms: O1_1  and  C1_3 
REMARK    2  A    between atoms: C1_3  and  C2_4 
REMARK    3  A    between atoms: C1_3  and  C9_11 
REMARK    4  A    between atoms: C12_14  and  C13_15 
REMARK    5  A    between atoms: N1_23  and  C21_24 
ROOT
HETATM    1  C13 UNL     1      -9.741  36.846 -16.214  1.00  0.00     0.042 C 
HETATM    2  C14 UNL     1      -9.477  36.099 -14.958  1.00  0.00     0.038 C 
HETATM    3  C15 UNL     1      -8.111  36.120 -14.453  1.00  0.00     0.002 C 
HETATM    4  C16 UNL     1      -6.951  35.990 -15.103  1.00  0.00     0.042 A 
HETATM    5  C17 UNL     1      -6.833  35.788 -16.553  1.00  0.00     0.174 A 
HETATM    6  C18 UNL     1      -5.514  35.557 -17.136  1.00  0.00     0.066 A 
HETATM    7  C19 UNL     1      -4.394  35.659 -16.194  1.00  0.00    -0.006 A 
HETATM    8  C20 UNL     1      -4.554  35.887 -14.925  1.00  0.00     0.093 A 
HETATM    9  N1  UNL     1      -5.808  36.068 -14.279  1.00  0.00    -0.324 N 
HETATM   10  O2  UNL     1      -7.493  36.912 -17.133  1.00  0.00    -0.379 OA
HETATM   11  C27 UNL     1      -8.793  36.552 -17.334  1.00  0.00     0.176 C 
ENDROOT
BRANCH   1  12
HETATM   12  C12 UNL     1      -9.966  38.334 -16.024  1.00  0.00     0.128 C 
HETATM   13  C11 UNL     1     -11.127  38.517 -15.109  1.00  0.00     0.035 C 
HETATM   14  C10 UNL     1     -12.098  39.321 -15.976  1.00  0.00     0.037 C 
HETATM   15  C9  UNL     1     -11.192  39.930 -16.989  1.00  0.00     0.151 C 
HETATM   16  O3  UNL     1     -10.288  38.875 -17.238  1.00  0.00    -0.378 OA
BRANCH  15  17
HETATM   17  C1  UNL     1     -11.958  40.135 -18.286  1.00  0.00     0.151 C 
BRANCH  17  18
HETATM   18  O1  UNL     1     -11.004  39.749 -19.288  1.00  0.00    -0.393 OA
ATOM     19  H1  UNL     1     -10.541  38.987 -18.958  1.00  0.00     0.210 HD
ENDBRANCH  17  18
BRANCH  17  20
HETATM   20  C2  UNL     1     -12.348  41.560 -18.569  1.00  0.00     0.017 C 
HETATM   21  C3  UNL     1     -13.672  41.592 -19.329  1.00  0.00     0.007 C 
HETATM   22  C4  UNL     1     -14.817  41.033 -18.543  1.00  0.00     0.000 C 
HETATM   23  C5  UNL     1     -15.172  41.904 -17.354  1.00  0.00     0.000 C 
HETATM   24  C6  UNL     1     -14.816  43.351 -17.622  1.00  0.00     0.000 C 
HETATM   25  C7  UNL     1     -13.363  43.636 -17.684  1.00  0.00     0.000 C 
HETATM   26  C8  UNL     1     -12.458  42.457 -17.388  1.00  0.00     0.007 C 
ENDBRANCH  17  20
ENDBRANCH  15  17
ENDBRANCH   1  12
BRANCH   9  27
HETATM   27  C21 UNL     1      -5.914  36.304 -12.896  1.00  0.00     0.039 A 
HETATM   28  C22 UNL     1      -6.630  35.447 -12.107  1.00  0.00     0.033 A 
HETATM   29  C23 UNL     1      -6.735  35.658 -10.752  1.00  0.00     0.044 A 
HETATM   30  C24 UNL     1      -6.104  36.753 -10.212  1.00  0.00     0.116 A 
HETATM   31  F1  UNL     1      -6.227  36.939  -8.854  1.00  0.00    -0.206 F 
HETATM   32  C25 UNL     1      -5.377  37.635 -10.975  1.00  0.00     0.044 A 
HETATM   33  C26 UNL     1      -5.286  37.396 -12.349  1.00  0.00     0.033 A 
ENDBRANCH   9  27
TORSDOF 5
ENDMDL
MODEL 4
REMARK VINA RESULT: -5.736935240      3.666      9.412
REMARK  5 active torsions:
REMARK  status: ('A' for Active; 'I' for Inactive)
REMARK    1  A    between atoms: O1_1  and  C1_3 
REMARK    2  A    between atoms: C1_3  and  C2_4 
REMARK    3  A    between atoms: C1_3  and  C9_11 
REMARK    4  A    between atoms: C12_14  and  C13_15 
REMARK    5  A    between atoms: N1_23  and  C21_24 
ROOT
HETATM    1  C13 UNL     1      -9.630  36.783 -16.340  1.00  0.00     0.042 C 
HETATM    2  C14 UNL     1      -9.382  36.042 -15.077  1.00  0.00     0.038 C 
HETATM    3  C15 UNL     1      -8.025  36.075 -14.548  1.00  0.00     0.002 C 
HETATM    4  C16 UNL     1      -6.853  35.953 -15.179  1.00  0.00     0.042 A 
HETATM    5  C17 UNL     1      -6.708  35.747 -16.625  1.00  0.00     0.174 A 
HETATM    6  C18 UNL     1      -5.378  35.525 -17.185  1.00  0.00     0.066 A 
HETATM    7  C19 UNL     1      -4.275  35.639 -16.224  1.00  0.00    -0.006 A 
HETATM    8  C20 UNL     1      -4.459  35.869 -14.959  1.00  0.00     0.093 A 
HETATM    9  N1  UNL     1      -5.725  36.042 -14.336  1.00  0.00    -0.324 N 
HETATM   10  O2  UNL     1      -7.367  36.865 -17.220  1.00  0.00    -0.379 OA
HETATM   11  C27 UNL     1      -8.661  36.494 -17.442  1.00  0.00     0.176 C 
ENDROOT
BRANCH   1  12
HETATM   12  C12 UNL     1      -9.871  38.270 -16.158  1.00  0.00     0.128 C 
HETATM   13  C11 UNL     1     -10.822  38.453 -15.028  1.00  0.00     0.035 C 
HETATM   14  C10 UNL     1     -11.983  39.189 -15.699  1.00  0.00     0.037 C 
HETATM   15  C9  UNL     1     -11.333  39.784 -16.900  1.00  0.00     0.151 C 
HETATM   16  O3  UNL     1     -10.459  38.749 -17.295  1.00  0.00    -0.378 OA
BRANCH  15  17
HETATM   17  C1  UNL     1     -12.359  39.909 -18.014  1.00  0.00     0.151 C 
BRANCH  17  18
HETATM   18  O1  UNL     1     -11.720  40.800 -18.942  1.00  0.00    -0.393 OA
ATOM     19  H1  UNL     1     -10.839  40.475 -19.083  1.00  0.00     0.210 HD
ENDBRANCH  17  18
BRANCH  17  20
HETATM   20  C2  UNL     1     -13.658  40.549 -17.605  1.00  0.00     0.017 C 
HETATM   21  C3  UNL     1     -14.475  40.898 -18.847  1.00  0.00     0.007 C 
HETATM   22  C4  UNL     1     -14.878  39.698 -19.645  1.00  0.00     0.000 C 
HETATM   23  C5  UNL     1     -15.876  38.829 -18.906  1.00  0.00     0.000 C 
HETATM   24  C6  UNL     1     -16.705  39.659 -17.948  1.00  0.00     0.000 C 
HETATM   25  C7  UNL     1     -15.965  40.193 -16.782  1.00  0.00     0.000 C 
HETATM   26  C8  UNL     1     -14.515  39.760 -16.680  1.00  0.00     0.007 C 
ENDBRANCH  17  20
ENDBRANCH  15  17
ENDBRANCH   1  12
BRANCH   9  27
HETATM   27  C21 UNL     1      -5.856  36.281 -12.955  1.00  0.00     0.039 A 
HETATM   28  C22 UNL     1      -6.526  35.388 -12.165  1.00  0.00     0.033 A 
HETATM   29  C23 UNL     1      -6.656  35.602 -10.813  1.00  0.00     0.044 A 
HETATM   30  C24 UNL     1      -6.096  36.737 -10.276  1.00  0.00     0.116 A 
HETATM   31  F1  UNL     1      -6.241  36.925  -8.920  1.00  0.00    -0.206 F 
HETATM   32  C25 UNL     1      -5.416  37.655 -11.040  1.00  0.00     0.044 A 
HETATM   33  C26 UNL     1      -5.300  37.412 -12.411  1.00  0.00     0.033 A 
ENDBRANCH   9  27
TORSDOF 5
ENDMDL
MODEL 5
REMARK VINA RESULT: -5.672009852      2.629      6.129
REMARK  5 active torsions:
REMARK  status: ('A' for Active; 'I' for Inactive)
REMARK    1  A    between atoms: O1_1  and  C1_3 
REMARK    2  A    between atoms: C1_3  and  C2_4 
REMARK    3  A    between atoms: C1_3  and  C9_11 
REMARK    4  A    between atoms: C12_14  and  C13_15 
REMARK    5  A    between atoms: N1_23  and  C21_24 
ROOT
HETATM    1  C13 UNL     1      -9.757  37.731 -15.124  1.00  0.00     0.042 C 
HETATM    2  C14 UNL     1     -10.923  38.613 -14.863  1.00  0.00     0.038 C 
HETATM    3  C15 UNL     1     -11.657  39.098 -16.025  1.00  0.00     0.002 C 
HETATM    4  C16 UNL     1     -11.206  39.569 -17.192  1.00  0.00     0.042 A 
HETATM    5  C17 UNL     1      -9.786  39.693 -17.542  1.00  0.00     0.174 A 
HETATM    6  C18 UNL     1      -9.415  40.318 -18.808  1.00  0.00     0.066 A 
HETATM    7  C19 UNL     1     -10.542  40.674 -19.676  1.00  0.00    -0.006 A 
HETATM    8  C20 UNL     1     -11.783  40.499 -19.334  1.00  0.00     0.093 A 
HETATM    9  N1  UNL     1     -12.219  39.947 -18.099  1.00  0.00    -0.324 N 
HETATM   10  O2  UNL     1      -9.262  38.371 -17.415  1.00  0.00    -0.379 OA
HETATM   11  C27 UNL     1      -8.790  38.249 -16.142  1.00  0.00     0.176 C 
ENDROOT
BRANCH   1  12
HETATM   12  C12 UNL     1     -10.111  36.274 -15.353  1.00  0.00     0.128 C 
HETATM   13  C11 UNL     1      -8.855  35.529 -15.644  1.00  0.00     0.035 C 
HETATM   14  C10 UNL     1      -9.134  34.958 -17.036  1.00  0.00     0.037 C 
HETATM   15  C9  UNL     1     -10.621  34.980 -17.099  1.00  0.00     0.151 C 
HETATM   16  O3  UNL     1     -10.919  36.200 -16.454  1.00  0.00    -0.378 OA
BRANCH  15  17
HETATM   17  C1  UNL     1     -11.059  35.156 -18.543  1.00  0.00     0.151 C 
BRANCH  17  18
HETATM   18  O1  UNL     1     -10.111  36.106 -19.054  1.00  0.00    -0.393 OA
ATOM     19  H1  UNL     1      -9.391  36.146 -18.436  1.00  0.00     0.210 HD
ENDBRANCH  17  18
BRANCH  17  20
HETATM   20  C2  UNL     1     -12.428  35.754 -18.719  1.00  0.00     0.017 C 
HETATM   21  C3  UNL     1     -12.476  36.567 -20.010  1.00  0.00     0.007 C 
HETATM   22  C4  UNL     1     -12.264  35.737 -21.238  1.00  0.00     0.000 C 
HETATM   23  C5  UNL     1     -13.412  34.779 -21.485  1.00  0.00     0.000 C 
HETATM   24  C6  UNL     1     -14.704  35.331 -20.918  1.00  0.00     0.000 C 
HETATM   25  C7  UNL     1     -14.767  35.381 -19.439  1.00  0.00     0.000 C 
HETATM   26  C8  UNL     1     -13.567  34.797 -18.719  1.00  0.00     0.007 C 
ENDBRANCH  17  20
ENDBRANCH  15  17
ENDBRANCH   1  12
BRANCH   9  27
HETATM   27  C21 UNL     1     -13.582  39.791 -17.785  1.00  0.00     0.039 A 
HETATM   28  C22 UNL     1     -14.344  38.887 -18.471  1.00  0.00     0.033 A 
HETATM   29  C23 UNL     1     -15.675  38.714 -18.170  1.00  0.00     0.044 A 
HETATM   30  C24 UNL     1     -16.220  39.475 -17.162  1.00  0.00     0.116 A 
HETATM   31  F1  UNL     1     -17.553  39.281 -16.883  1.00  0.00    -0.206 F 
HETATM   32  C25 UNL     1     -15.483  40.392 -16.453  1.00  0.00     0.044 A 
HETATM   33  C26 UNL     1     -14.133  40.547 -16.779  1.00  0.00     0.033 A 
ENDBRANCH   9  27
TORSDOF 5
ENDMDL
