MODEL 1
REMARK VINA RESULT: -6.589684798      0.000      0.000
REMARK  5 active torsions:
REMARK  status: ('A' for Active; 'I' for Inactive)
REMARK    1  A    between atoms: C2_2  and  C4_5 
REMARK    2  A    between atoms: C2_2  and  S1_22 
REMARK    3  A    between atoms: C9_10  and  C10_11 
REMARK    4  A    between atoms: S1_22  and  N2_23 
REMARK    5  A    between atoms: S1_22  and  C20_27 
ROOT
HETATM    1  C1  UNL     1     -12.426  40.139 -19.185  1.00  0.00     0.053 C 
HETATM    2  C2  UNL     1     -12.846  39.433 -17.882  1.00  0.00     0.160 C 
HETATM    3  C3  UNL     1     -13.427  38.149 -18.324  1.00  0.00     0.088 C 
HETATM    4  N1  UNL     1     -13.857  37.137 -18.692  1.00  0.00    -0.195 NA
ENDROOT
BRANCH   2   5
HETATM    5  C4  UNL     1     -11.687  39.116 -17.047  1.00  0.00    -0.021 A 
HETATM    6  C5  UNL     1     -10.804  40.017 -16.526  1.00  0.00     0.011 A 
HETATM    7  C6  UNL     1      -9.738  39.646 -15.744  1.00  0.00     0.013 A 
HETATM    8  C7  UNL     1      -9.531  38.312 -15.458  1.00  0.00    -0.025 A 
HETATM    9  C8  UNL     1      -8.459  37.906 -14.676  1.00  0.00     0.024 A 
HETATM   10  C18 UNL     1     -10.398  37.353 -15.961  1.00  0.00    -0.025 A 
HETATM   11  C9  UNL     1      -8.229  36.573 -14.384  1.00  0.00    -0.025 A 
HETATM   12  C16 UNL     1      -9.104  35.650 -14.895  1.00  0.00     0.013 A 
HETATM   13  C17 UNL     1     -10.169  36.029 -15.669  1.00  0.00     0.013 A 
HETATM   14  C19 UNL     1     -11.454  37.776 -16.744  1.00  0.00     0.022 A 
BRANCH  11  15
HETATM   15  C10 UNL     1      -7.113  36.133 -13.572  1.00  0.00    -0.026 A 
HETATM   16  C11 UNL     1      -7.281  35.804 -12.246  1.00  0.00     0.014 A 
HETATM   17  C12 UNL     1      -6.242  35.393 -11.447  1.00  0.00     0.024 A 
HETATM   18  C13 UNL     1      -4.975  35.295 -11.960  1.00  0.00     0.034 A 
HETATM   19 CL1  UNL     1      -3.603  34.778 -11.026  1.00  0.00    -0.084 Cl
HETATM   20  C14 UNL     1      -4.769  35.614 -13.284  1.00  0.00     0.024 A 
HETATM   21  C15 UNL     1      -5.838  36.033 -14.084  1.00  0.00     0.014 A 
ENDBRANCH  11  15
ENDBRANCH   2   5
BRANCH   2  22
HETATM   22  S1  UNL     1     -14.118  40.366 -17.164  1.00  0.00     0.077 S 
HETATM   23  O1  UNL     1     -14.383  39.873 -15.794  1.00  0.00    -0.243 OA
BRANCH  22  24
HETATM   24  N2  UNL     1     -13.910  41.890 -17.123  1.00  0.00    -0.355 N 
ATOM     25  H22 UNL     1     -13.321  42.356 -17.813  1.00  0.00     0.166 HD
ATOM     26  H21 UNL     1     -14.389  42.393 -16.377  1.00  0.00     0.166 HD
ENDBRANCH  22  24
BRANCH  22  27
HETATM   27  C20 UNL     1     -15.582  40.068 -18.173  1.00  0.00     0.047 A 
HETATM   28  C21 UNL     1     -16.608  39.281 -17.764  1.00  0.00     0.029 A 
HETATM   29  C22 UNL     1     -17.664  39.123 -18.614  1.00  0.00     0.051 A 
HETATM   30  S2  UNL     1     -17.213  40.069 -19.961  1.00  0.00    -0.112 SA
HETATM   31  C23 UNL     1     -15.706  40.634 -19.410  1.00  0.00     0.071 A 
ENDBRANCH  22  27
ENDBRANCH   2  22
TORSDOF 5
ENDMDL
MODEL 2
REMARK VINA RESULT: -6.556442773      1.954      3.269
REMARK  5 active torsions:
REMARK  status: ('A' for Active; 'I' for Inactive)
REMARK    1  A    between atoms: C2_2  and  C4_5 
REMARK    2  A    between atoms: C2_2  and  S1_22 
REMARK    3  A    between atoms: C9_10  and  C10_11 
REMARK    4  A    between atoms: S1_22  and  N2_23 
REMARK    5  A    between atoms: S1_22  and  C20_27 
ROOT
HETATM    1  C1  UNL     1     -13.708  37.920 -18.219  1.00  0.00     0.053 C 
HETATM    2  C2  UNL     1     -12.976  39.211 -17.808  1.00  0.00     0.160 C 
HETATM    3  C3  UNL     1     -13.956  39.951 -16.987  1.00  0.00     0.088 C 
HETATM    4  N1  UNL     1     -14.734  40.504 -16.328  1.00  0.00    -0.195 NA
ENDROOT
BRANCH   2   5
HETATM    5  C4  UNL     1     -11.825  38.925 -16.949  1.00  0.00    -0.021 A 
HETATM    6  C5  UNL     1     -11.075  39.848 -16.281  1.00  0.00     0.011 A 
HETATM    7  C6  UNL     1     -10.009  39.505 -15.486  1.00  0.00     0.013 A 
HETATM    8  C7  UNL     1      -9.665  38.177 -15.340  1.00  0.00    -0.025 A 
HETATM    9  C8  UNL     1      -8.588  37.799 -14.549  1.00  0.00     0.024 A 
HETATM   10  C18 UNL     1     -10.393  37.195 -15.996  1.00  0.00    -0.025 A 
HETATM   11  C9  UNL     1      -8.221  36.474 -14.396  1.00  0.00    -0.025 A 
HETATM   12  C16 UNL     1      -8.963  35.529 -15.056  1.00  0.00     0.013 A 
HETATM   13  C17 UNL     1     -10.028  35.879 -15.842  1.00  0.00     0.013 A 
HETATM   14  C19 UNL     1     -11.456  37.592 -16.785  1.00  0.00     0.022 A 
BRANCH  11  15
HETATM   15  C10 UNL     1      -7.099  36.064 -13.577  1.00  0.00    -0.026 A 
HETATM   16  C11 UNL     1      -7.261  35.767 -12.242  1.00  0.00     0.014 A 
HETATM   17  C12 UNL     1      -6.217  35.385 -11.436  1.00  0.00     0.024 A 
HETATM   18  C13 UNL     1      -4.950  35.287 -11.950  1.00  0.00     0.034 A 
HETATM   19 CL1  UNL     1      -3.570  34.805 -11.007  1.00  0.00    -0.084 Cl
HETATM   20  C14 UNL     1      -4.749  35.575 -13.282  1.00  0.00     0.024 A 
HETATM   21  C15 UNL     1      -5.825  35.964 -14.089  1.00  0.00     0.014 A 
ENDBRANCH  11  15
ENDBRANCH   2   5
BRANCH   2  22
HETATM   22  S1  UNL     1     -12.688  40.135 -19.245  1.00  0.00     0.077 S 
HETATM   23  O1  UNL     1     -13.762  39.872 -20.228  1.00  0.00    -0.243 OA
BRANCH  22  24
HETATM   24  N2  UNL     1     -12.530  41.654 -19.062  1.00  0.00    -0.355 N 
ATOM     25  H22 UNL     1     -13.117  42.308 -19.580  1.00  0.00     0.166 HD
ATOM     26  H21 UNL     1     -11.814  41.959 -18.404  1.00  0.00     0.166 HD
ENDBRANCH  22  24
BRANCH  22  27
HETATM   27  C20 UNL     1     -11.131  39.527 -19.921  1.00  0.00     0.047 A 
HETATM   28  C21 UNL     1      -9.959  40.195 -19.781  1.00  0.00     0.029 A 
HETATM   29  C22 UNL     1      -8.843  39.642 -20.339  1.00  0.00     0.051 A 
HETATM   30  S2  UNL     1      -9.441  38.208 -21.044  1.00  0.00    -0.112 SA
HETATM   31  C23 UNL     1     -11.080  38.351 -20.615  1.00  0.00     0.071 A 
ENDBRANCH  22  27
ENDBRANCH   2  22
TORSDOF 5
ENDMDL
MODEL 3
REMARK VINA RESULT: -6.553055606      1.964      3.081
REMARK  5 active torsions:
REMARK  status: ('A' for Active; 'I' for Inactive)
REMARK    1  A    between atoms: C2_2  and  C4_5 
REMARK    2  A    between atoms: C2_2  and  S1_22 
REMARK    3  A    between atoms: C9_10  and  C10_11 
REMARK    4  A    between atoms: S1_22  and  N2_23 
REMARK    5  A    between atoms: S1_22  and  C20_27 
ROOT
HETATM    1  C1  UNL     1     -14.369  37.603 -18.695  1.00  0.00     0.053 C 
HETATM    2  C2  UNL     1     -13.770  38.903 -18.125  1.00  0.00     0.160 C 
HETATM    3  C3  UNL     1     -14.860  39.496 -17.324  1.00  0.00     0.088 C 
HETATM    4  N1  UNL     1     -15.723  39.931 -16.683  1.00  0.00    -0.195 NA
ENDROOT
BRANCH   2   5
HETATM    5  C4  UNL     1     -12.664  38.625 -17.207  1.00  0.00    -0.021 A 
HETATM    6  C5  UNL     1     -12.413  39.278 -16.036  1.00  0.00     0.011 A 
HETATM    7  C6  UNL     1     -11.355  38.959 -15.220  1.00  0.00     0.013 A 
HETATM    8  C7  UNL     1     -10.497  37.939 -15.579  1.00  0.00    -0.025 A 
HETATM    9  C8  UNL     1      -9.415  37.599 -14.778  1.00  0.00     0.024 A 
HETATM   10  C18 UNL     1     -10.705  37.242 -16.759  1.00  0.00    -0.025 A 
HETATM   11  C9  UNL     1      -8.539  36.585 -15.124  1.00  0.00    -0.025 A 
HETATM   12  C16 UNL     1      -8.773  35.915 -16.296  1.00  0.00     0.013 A 
HETATM   13  C17 UNL     1      -9.835  36.234 -17.101  1.00  0.00     0.013 A 
HETATM   14  C19 UNL     1     -11.782  37.601 -17.546  1.00  0.00     0.022 A 
BRANCH  11  15
HETATM   15  C10 UNL     1      -7.404  36.221 -14.301  1.00  0.00    -0.026 A 
HETATM   16  C11 UNL     1      -7.561  35.903 -12.970  1.00  0.00     0.014 A 
HETATM   17  C12 UNL     1      -6.505  35.563 -12.160  1.00  0.00     0.024 A 
HETATM   18  C13 UNL     1      -5.232  35.528 -12.667  1.00  0.00     0.034 A 
HETATM   19 CL1  UNL     1      -3.837  35.102 -11.719  1.00  0.00    -0.084 Cl
HETATM   20  C14 UNL     1      -5.037  35.838 -13.995  1.00  0.00     0.024 A 
HETATM   21  C15 UNL     1      -6.123  36.184 -14.806  1.00  0.00     0.014 A 
ENDBRANCH  11  15
ENDBRANCH   2   5
BRANCH   2  22
HETATM   22  S1  UNL     1     -13.456  39.967 -19.456  1.00  0.00     0.077 S 
HETATM   23  O1  UNL     1     -12.896  39.195 -20.587  1.00  0.00    -0.243 OA
BRANCH  22  24
HETATM   24  N2  UNL     1     -14.643  40.809 -19.954  1.00  0.00    -0.355 N 
ATOM     25  H22 UNL     1     -14.564  41.377 -20.797  1.00  0.00     0.166 HD
ATOM     26  H21 UNL     1     -15.497  40.763 -19.398  1.00  0.00     0.166 HD
ENDBRANCH  22  24
BRANCH  22  27
HETATM   27  C20 UNL     1     -12.203  41.127 -18.877  1.00  0.00     0.047 A 
HETATM   28  C21 UNL     1     -10.875  40.934 -19.079  1.00  0.00     0.029 A 
HETATM   29  C22 UNL     1     -10.017  41.877 -18.591  1.00  0.00     0.051 A 
HETATM   30  S2  UNL     1     -11.067  43.010 -17.867  1.00  0.00    -0.112 SA
HETATM   31  C23 UNL     1     -12.556  42.259 -18.200  1.00  0.00     0.071 A 
ENDBRANCH  22  27
ENDBRANCH   2  22
TORSDOF 5
ENDMDL
MODEL 4
REMARK VINA RESULT: -6.547613646      1.942      2.598
REMARK  5 active torsions:
REMARK  status: ('A' for Active; 'I' for Inactive)
REMARK    1  A    between atoms: C2_2  and  C4_5 
REMARK    2  A    between atoms: C2_2  and  S1_22 
REMARK    3  A    between atoms: C9_10  and  C10_11 
REMARK    4  A    between atoms: S1_22  and  N2_23 
REMARK    5  A    between atoms: S1_22  and  C20_27 
ROOT
HETATM    1  C1  UNL     1     -14.300  37.522 -18.826  1.00  0.00     0.053 C 
HETATM    2  C2  UNL     1     -13.765  38.829 -18.211  1.00  0.00     0.160 C 
HETATM    3  C3  UNL     1     -14.881  39.340 -17.390  1.00  0.00     0.088 C 
HETATM    4  N1  UNL     1     -15.763  39.711 -16.735  1.00  0.00    -0.195 NA
ENDROOT
BRANCH   2   5
HETATM    5  C4  UNL     1     -12.645  38.574 -17.303  1.00  0.00    -0.021 A 
HETATM    6  C5  UNL     1     -12.327  39.309 -16.199  1.00  0.00     0.011 A 
HETATM    7  C6  UNL     1     -11.260  39.007 -15.388  1.00  0.00     0.013 A 
HETATM    8  C7  UNL     1     -10.464  37.920 -15.682  1.00  0.00    -0.025 A 
HETATM    9  C8  UNL     1      -9.375  37.594 -14.885  1.00  0.00     0.024 A 
HETATM   10  C18 UNL     1     -10.740  37.138 -16.793  1.00  0.00    -0.025 A 
HETATM   11  C9  UNL     1      -8.558  36.513 -15.167  1.00  0.00    -0.025 A 
HETATM   12  C16 UNL     1      -8.860  35.760 -16.272  1.00  0.00     0.013 A 
HETATM   13  C17 UNL     1      -9.930  36.063 -17.071  1.00  0.00     0.013 A 
HETATM   14  C19 UNL     1     -11.824  37.483 -17.578  1.00  0.00     0.022 A 
BRANCH  11  15
HETATM   15  C10 UNL     1      -7.417  36.162 -14.347  1.00  0.00    -0.026 A 
HETATM   16  C11 UNL     1      -7.553  35.931 -12.996  1.00  0.00     0.014 A 
HETATM   17  C12 UNL     1      -6.490  35.607 -12.189  1.00  0.00     0.024 A 
HETATM   18  C13 UNL     1      -5.230  35.500 -12.719  1.00  0.00     0.034 A 
HETATM   19 CL1  UNL     1      -3.829  35.088 -11.776  1.00  0.00    -0.084 Cl
HETATM   20  C14 UNL     1      -5.056  35.722 -14.067  1.00  0.00     0.024 A 
HETATM   21  C15 UNL     1      -6.150  36.053 -14.875  1.00  0.00     0.014 A 
ENDBRANCH  11  15
ENDBRANCH   2   5
BRANCH   2  22
HETATM   22  S1  UNL     1     -13.505  39.952 -19.505  1.00  0.00     0.077 S 
HETATM   23  O1  UNL     1     -12.119  39.823 -20.004  1.00  0.00    -0.243 OA
BRANCH  22  24
HETATM   24  N2  UNL     1     -14.482  39.868 -20.691  1.00  0.00    -0.355 N 
ATOM     25  H22 UNL     1     -15.106  40.644 -20.910  1.00  0.00     0.166 HD
ATOM     26  H21 UNL     1     -14.465  39.004 -21.232  1.00  0.00     0.166 HD
ENDBRANCH  22  24
BRANCH  22  27
HETATM   27  C20 UNL     1     -13.704  41.592 -18.783  1.00  0.00     0.047 A 
HETATM   28  C21 UNL     1     -12.731  42.199 -18.059  1.00  0.00     0.029 A 
HETATM   29  C22 UNL     1     -12.995  43.440 -17.556  1.00  0.00     0.051 A 
HETATM   30  S2  UNL     1     -14.584  43.741 -18.099  1.00  0.00    -0.112 SA
HETATM   31  C23 UNL     1     -14.867  42.291 -18.943  1.00  0.00     0.071 A 
ENDBRANCH  22  27
ENDBRANCH   2  22
TORSDOF 5
ENDMDL
MODEL 5
REMARK VINA RESULT: -6.493608217      1.762      2.481
REMARK  5 active torsions:
REMARK  status: ('A' for Active; 'I' for Inactive)
REMARK    1  A    between atoms: C2_2  and  C4_5 
REMARK    2  A    between atoms: C2_2  and  S1_22 
REMARK    3  A    between atoms: C9_10  and  C10_11 
REMARK    4  A    between atoms: S1_22  and  N2_23 
REMARK    5  A    between atoms: S1_22  and  C20_27 
ROOT
HETATM    1  C1  UNL     1     -13.972  39.646 -16.556  1.00  0.00     0.053 C 
HETATM    2  C2  UNL     1     -12.733  40.153 -17.317  1.00  0.00     0.160 C 
HETATM    3  C3  UNL     1     -12.809  41.624 -17.216  1.00  0.00     0.088 C 
HETATM    4  N1  UNL     1     -12.877  42.777 -17.105  1.00  0.00    -0.195 NA
ENDROOT
BRANCH   2   5
HETATM    5  C4  UNL     1     -11.493  39.740 -16.658  1.00  0.00    -0.021 A 
HETATM    6  C5  UNL     1     -10.420  40.542 -16.396  1.00  0.00     0.011 A 
HETATM    7  C6  UNL     1      -9.288  40.086 -15.767  1.00  0.00     0.013 A 
HETATM    8  C7  UNL     1      -9.209  38.766 -15.372  1.00  0.00    -0.025 A 
HETATM    9  C8  UNL     1      -8.075  38.274 -14.741  1.00  0.00     0.024 A 
HETATM   10  C18 UNL     1     -10.270  37.906 -15.613  1.00  0.00    -0.025 A 
HETATM   11  C9  UNL     1      -7.973  36.952 -14.345  1.00  0.00    -0.025 A 
HETATM   12  C16 UNL     1      -9.040  36.129 -14.596  1.00  0.00     0.013 A 
HETATM   13  C17 UNL     1     -10.168  36.593 -15.218  1.00  0.00     0.013 A 
HETATM   14  C19 UNL     1     -11.387  38.412 -16.250  1.00  0.00     0.022 A 
BRANCH  11  15
HETATM   15  C10 UNL     1      -6.795  36.423 -13.688  1.00  0.00    -0.026 A 
HETATM   16  C11 UNL     1      -6.833  36.021 -12.371  1.00  0.00     0.014 A 
HETATM   17  C12 UNL     1      -5.732  35.524 -11.716  1.00  0.00     0.024 A 
HETATM   18  C13 UNL     1      -4.534  35.412 -12.371  1.00  0.00     0.034 A 
HETATM   19 CL1  UNL     1      -3.092  34.789 -11.626  1.00  0.00    -0.084 Cl
HETATM   20  C14 UNL     1      -4.458  35.803 -13.690  1.00  0.00     0.024 A 
HETATM   21  C15 UNL     1      -5.589  36.308 -14.342  1.00  0.00     0.014 A 
ENDBRANCH  11  15
ENDBRANCH   2   5
BRANCH   2  22
HETATM   22  S1  UNL     1     -12.929  39.729 -18.986  1.00  0.00     0.077 S 
HETATM   23  O1  UNL     1     -13.779  40.736 -19.658  1.00  0.00    -0.243 OA
BRANCH  22  24
HETATM   24  N2  UNL     1     -11.638  39.530 -19.798  1.00  0.00    -0.355 N 
ATOM     25  H22 UNL     1     -10.724  39.572 -19.346  1.00  0.00     0.166 HD
ATOM     26  H21 UNL     1     -11.752  39.359 -20.797  1.00  0.00     0.166 HD
ENDBRANCH  22  24
BRANCH  22  27
HETATM   27  C20 UNL     1     -13.797  38.148 -18.996  1.00  0.00     0.047 A 
HETATM   28  C21 UNL     1     -13.200  36.980 -18.654  1.00  0.00     0.029 A 
HETATM   29  C22 UNL     1     -13.955  35.844 -18.704  1.00  0.00     0.051 A 
HETATM   30  S2  UNL     1     -15.475  36.418 -19.220  1.00  0.00    -0.112 SA
HETATM   31  C23 UNL     1     -15.112  38.074 -19.360  1.00  0.00     0.071 A 
ENDBRANCH  22  27
ENDBRANCH   2  22
TORSDOF 5
ENDMDL
