MODEL 1
REMARK VINA RESULT: -5.127038212      0.000      0.000
REMARK  3 active torsions:
REMARK  status: ('A' for Active; 'I' for Inactive)
REMARK    1  A    between atoms: C2_3  and  N2_4 
REMARK    2  A    between atoms: C2_3  and  N3_8 
REMARK    3  A    between atoms: N3_8  and  C3_10 
ROOT
HETATM    1  N1  UNL     1      15.036   0.693  17.950  1.00  0.00    -0.193 NA
HETATM    2  C1  UNL     1      15.591   0.829  16.941  1.00  0.00     0.113 C 
HETATM    3  C2  UNL     1      16.290   0.981  15.668  1.00  0.00     0.385 C 
ENDROOT
BRANCH   3   4
HETATM    4  N2  UNL     1      16.966  -0.227  15.269  1.00  0.00    -0.046 N 
ATOM      5  H23 UNL     1      17.354  -0.715  16.076  1.00  0.00     0.278 HD
ATOM      6  H22 UNL     1      16.302  -0.934  14.954  1.00  0.00     0.278 HD
ATOM      7  H21 UNL     1      17.682  -0.053  14.564  1.00  0.00     0.278 HD
ENDBRANCH   3   4
BRANCH   3   8
HETATM    8  N3  UNL     1      17.055   2.175  15.558  1.00  0.00    -0.381 N 
ATOM      9  H3  UNL     1      17.868   2.337  16.153  1.00  0.00     0.156 HD
BRANCH   8  10
HETATM   10  C3  UNL     1      16.648   3.137  14.592  1.00  0.00     0.079 C 
HETATM   11  C4  UNL     1      17.520   4.397  14.641  1.00  0.00     0.025 C 
HETATM   12  C5  UNL     1      16.586   5.577  14.519  1.00  0.00     0.002 C 
HETATM   13  C6  UNL     1      15.324   4.953  13.976  1.00  0.00     0.002 C 
HETATM   14  C7  UNL     1      15.258   3.684  14.835  1.00  0.00     0.025 C 
ENDBRANCH   8  10
ENDBRANCH   3   8
TORSDOF 3
ENDMDL
MODEL 2
REMARK VINA RESULT: -4.982074408      1.331      1.675
REMARK  3 active torsions:
REMARK  status: ('A' for Active; 'I' for Inactive)
REMARK    1  A    between atoms: C2_3  and  N2_4 
REMARK    2  A    between atoms: C2_3  and  N3_8 
REMARK    3  A    between atoms: N3_8  and  C3_10 
ROOT
HETATM    1  N1  UNL     1      15.917   0.127  16.774  1.00  0.00    -0.193 NA
HETATM    2  C1  UNL     1      16.153   0.896  15.938  1.00  0.00     0.113 C 
HETATM    3  C2  UNL     1      16.447   1.850  14.871  1.00  0.00     0.385 C 
ENDROOT
BRANCH   3   4
HETATM    4  N2  UNL     1      16.814   1.196  13.641  1.00  0.00    -0.046 N 
ATOM      5  H23 UNL     1      16.170   0.436  13.422  1.00  0.00     0.278 HD
ATOM      6  H22 UNL     1      16.636   1.797  12.837  1.00  0.00     0.278 HD
ATOM      7  H21 UNL     1      17.780   0.869  13.651  1.00  0.00     0.278 HD
ENDBRANCH   3   4
BRANCH   3   8
HETATM    8  N3  UNL     1      17.286   2.928  15.265  1.00  0.00    -0.381 N 
ATOM      9  H3  UNL     1      17.713   2.954  16.190  1.00  0.00     0.156 HD
BRANCH   8  10
HETATM   10  C3  UNL     1      17.508   3.972  14.323  1.00  0.00     0.079 C 
HETATM   11  C4  UNL     1      18.869   4.646  14.532  1.00  0.00     0.025 C 
HETATM   12  C5  UNL     1      18.644   6.133  14.392  1.00  0.00     0.002 C 
HETATM   13  C6  UNL     1      17.309   6.206  13.692  1.00  0.00     0.002 C 
HETATM   14  C7  UNL     1      16.540   5.126  14.462  1.00  0.00     0.025 C 
ENDBRANCH   8  10
ENDBRANCH   3   8
TORSDOF 3
ENDMDL
MODEL 3
REMARK VINA RESULT: -4.724349758      3.058      4.010
REMARK  3 active torsions:
REMARK  status: ('A' for Active; 'I' for Inactive)
REMARK    1  A    between atoms: C2_3  and  N2_4 
REMARK    2  A    between atoms: C2_3  and  N3_8 
REMARK    3  A    between atoms: N3_8  and  C3_10 
ROOT
HETATM    1  N1  UNL     1      19.274   0.845  10.645  1.00  0.00    -0.193 NA
HETATM    2  C1  UNL     1      18.248   0.903  11.182  1.00  0.00     0.113 C 
HETATM    3  C2  UNL     1      16.946   0.976  11.841  1.00  0.00     0.385 C 
ENDROOT
BRANCH   3   4
HETATM    4  N2  UNL     1      15.903   1.401  10.942  1.00  0.00    -0.046 N 
ATOM      5  H23 UNL     1      16.194   1.304   9.969  1.00  0.00     0.278 HD
ATOM      6  H22 UNL     1      15.123   0.743  10.946  1.00  0.00     0.278 HD
ATOM      7  H21 UNL     1      15.586   2.350  11.140  1.00  0.00     0.278 HD
ENDBRANCH   3   4
BRANCH   3   8
HETATM    8  N3  UNL     1      16.965   1.625  13.106  1.00  0.00    -0.381 N 
ATOM      9  H3  UNL     1      17.363   1.169  13.927  1.00  0.00     0.156 HD
BRANCH   8  10
HETATM   10  C3  UNL     1      16.409   2.933  13.188  1.00  0.00     0.079 C 
HETATM   11  C4  UNL     1      17.495   4.003  13.353  1.00  0.00     0.025 C 
HETATM   12  C5  UNL     1      16.994   4.974  14.395  1.00  0.00     0.002 C 
HETATM   13  C6  UNL     1      15.516   4.678  14.448  1.00  0.00     0.002 C 
HETATM   14  C7  UNL     1      15.545   3.145  14.412  1.00  0.00     0.025 C 
ENDBRANCH   8  10
ENDBRANCH   3   8
TORSDOF 3
ENDMDL
MODEL 4
REMARK VINA RESULT: -4.720644655      1.213      1.903
REMARK  3 active torsions:
REMARK  status: ('A' for Active; 'I' for Inactive)
REMARK    1  A    between atoms: C2_3  and  N2_4 
REMARK    2  A    between atoms: C2_3  and  N3_8 
REMARK    3  A    between atoms: N3_8  and  C3_10 
ROOT
HETATM    1  N1  UNL     1      16.092   0.083  16.469  1.00  0.00    -0.193 NA
HETATM    2  C1  UNL     1      16.320   0.913  15.693  1.00  0.00     0.113 C 
HETATM    3  C2  UNL     1      16.604   1.945  14.699  1.00  0.00     0.385 C 
ENDROOT
BRANCH   3   4
HETATM    4  N2  UNL     1      16.805   1.395  13.383  1.00  0.00    -0.046 N 
ATOM      5  H23 UNL     1      15.997   1.568  12.784  1.00  0.00     0.278 HD
ATOM      6  H22 UNL     1      17.508   1.923  12.865  1.00  0.00     0.278 HD
ATOM      7  H21 UNL     1      17.036   0.402  13.411  1.00  0.00     0.278 HD
ENDBRANCH   3   4
BRANCH   3   8
HETATM    8  N3  UNL     1      17.564   2.909  15.112  1.00  0.00    -0.381 N 
ATOM      9  H3  UNL     1      18.442   2.626  15.548  1.00  0.00     0.156 HD
BRANCH   8  10
HETATM   10  C3  UNL     1      17.260   4.283  14.897  1.00  0.00     0.079 C 
HETATM   11  C4  UNL     1      15.770   4.496  14.604  1.00  0.00     0.025 C 
HETATM   12  C5  UNL     1      15.688   5.489  13.470  1.00  0.00     0.002 C 
HETATM   13  C6  UNL     1      17.062   6.113  13.468  1.00  0.00     0.002 C 
HETATM   14  C7  UNL     1      17.927   4.863  13.669  1.00  0.00     0.025 C 
ENDBRANCH   8  10
ENDBRANCH   3   8
TORSDOF 3
ENDMDL
MODEL 5
REMARK VINA RESULT: -4.664413885      2.619      3.369
REMARK  3 active torsions:
REMARK  status: ('A' for Active; 'I' for Inactive)
REMARK    1  A    between atoms: C2_3  and  N2_4 
REMARK    2  A    between atoms: C2_3  and  N3_8 
REMARK    3  A    between atoms: N3_8  and  C3_10 
ROOT
HETATM    1  N1  UNL     1      16.743  -0.964  11.869  1.00  0.00    -0.193 NA
HETATM    2  C1  UNL     1      16.951   0.173  11.961  1.00  0.00     0.113 C 
HETATM    3  C2  UNL     1      17.227   1.604  12.064  1.00  0.00     0.385 C 
ENDROOT
BRANCH   3   4
HETATM    4  N2  UNL     1      18.526   1.948  11.546  1.00  0.00    -0.046 N 
ATOM      5  H23 UNL     1      18.784   1.342  10.768  1.00  0.00     0.278 HD
ATOM      6  H22 UNL     1      18.504   2.842  11.056  1.00  0.00     0.278 HD
ATOM      7  H21 UNL     1      19.244   1.942  12.271  1.00  0.00     0.278 HD
ENDBRANCH   3   4
BRANCH   3   8
HETATM    8  N3  UNL     1      16.900   2.175  13.325  1.00  0.00    -0.381 N 
ATOM      9  H3  UNL     1      17.120   1.692  14.196  1.00  0.00     0.156 HD
BRANCH   8  10
HETATM   10  C3  UNL     1      16.254   3.444  13.330  1.00  0.00     0.079 C 
HETATM   11  C4  UNL     1      17.240   4.582  13.616  1.00  0.00     0.025 C 
HETATM   12  C5  UNL     1      16.556   5.518  14.584  1.00  0.00     0.002 C 
HETATM   13  C6  UNL     1      15.104   5.125  14.462  1.00  0.00     0.002 C 
HETATM   14  C7  UNL     1      15.237   3.597  14.440  1.00  0.00     0.025 C 
ENDBRANCH   8  10
ENDBRANCH   3   8
TORSDOF 3
ENDMDL
