MODEL 1
REMARK VINA RESULT: -5.141965739      0.000      0.000
REMARK  1 active torsions:
REMARK  status: ('A' for Active; 'I' for Inactive)
REMARK    1  A    between atoms: C4_4  and  C5_5 
ROOT
HETATM    1  C1  UNL     1      14.240   0.843  17.542  1.00  0.00     0.029 C 
HETATM    2  C2  UNL     1      15.479   1.176  16.781  1.00  0.00     0.092 C 
HETATM    3  C3  UNL     1      15.207   2.165  15.637  1.00  0.00     0.045 C 
HETATM    4  C4  UNL     1      16.523   1.988  14.894  1.00  0.00     0.100 C 
HETATM    5  N1  UNL     1      16.658   0.568  14.917  1.00  0.00    -0.143 NA
HETATM    6  N2  UNL     1      16.049   0.080  16.062  1.00  0.00    -0.143 NA
ENDROOT
BRANCH   4   7
HETATM    7  C5  UNL     1      16.377   2.588  13.538  1.00  0.00    -0.002 C 
HETATM    8  C6  UNL     1      16.741   1.642  12.430  1.00  0.00     0.011 C 
HETATM    9  C7  UNL     1      17.325   3.790  13.468  1.00  0.00     0.011 C 
ENDBRANCH   4   7
TORSDOF 1
ENDMDL
MODEL 2
REMARK VINA RESULT: -5.068760267      0.707      1.276
REMARK  1 active torsions:
REMARK  status: ('A' for Active; 'I' for Inactive)
REMARK    1  A    between atoms: C4_4  and  C5_5 
ROOT
HETATM    1  C1  UNL     1      13.989   0.766  17.465  1.00  0.00     0.029 C 
HETATM    2  C2  UNL     1      15.325   1.095  16.888  1.00  0.00     0.092 C 
HETATM    3  C3  UNL     1      15.268   2.315  15.955  1.00  0.00     0.045 C 
HETATM    4  C4  UNL     1      16.627   2.134  15.295  1.00  0.00     0.100 C 
HETATM    5  N1  UNL     1      16.617   0.731  15.035  1.00  0.00    -0.143 NA
HETATM    6  N2  UNL     1      15.852   0.103  16.004  1.00  0.00    -0.143 NA
ENDROOT
BRANCH   4   7
HETATM    7  C5  UNL     1      16.677   3.001  14.086  1.00  0.00    -0.002 C 
HETATM    8  C6  UNL     1      15.585   4.031  14.048  1.00  0.00     0.011 C 
HETATM    9  C7  UNL     1      16.513   2.089  12.865  1.00  0.00     0.011 C 
ENDBRANCH   4   7
TORSDOF 1
ENDMDL
MODEL 3
REMARK VINA RESULT: -4.802192107      3.388      4.666
REMARK  1 active torsions:
REMARK  status: ('A' for Active; 'I' for Inactive)
REMARK    1  A    between atoms: C4_4  and  C5_5 
ROOT
HETATM    1  C1  UNL     1      16.349   3.003  13.544  1.00  0.00     0.029 C 
HETATM    2  C2  UNL     1      16.109   2.159  12.337  1.00  0.00     0.092 C 
HETATM    3  C3  UNL     1      17.085   0.976  12.254  1.00  0.00     0.045 C 
HETATM    4  C4  UNL     1      16.819   0.589  10.807  1.00  0.00     0.100 C 
HETATM    5  N1  UNL     1      16.815   1.871  10.180  1.00  0.00    -0.143 NA
HETATM    6  N2  UNL     1      16.369   2.812  11.092  1.00  0.00    -0.143 NA
ENDROOT
BRANCH   4   7
HETATM    7  C5  UNL     1      17.903  -0.330  10.363  1.00  0.00    -0.002 C 
HETATM    8  C6  UNL     1      17.951  -1.612  11.142  1.00  0.00     0.011 C 
HETATM    9  C7  UNL     1      19.233   0.403  10.570  1.00  0.00     0.011 C 
ENDBRANCH   4   7
TORSDOF 1
ENDMDL
MODEL 4
REMARK VINA RESULT: -4.583655920      2.613      4.264
REMARK  1 active torsions:
REMARK  status: ('A' for Active; 'I' for Inactive)
REMARK    1  A    between atoms: C4_4  and  C5_5 
ROOT
HETATM    1  C1  UNL     1      16.435   0.150  10.664  1.00  0.00     0.029 C 
HETATM    2  C2  UNL     1      16.946   1.386  11.327  1.00  0.00     0.092 C 
HETATM    3  C3  UNL     1      16.739   1.353  12.849  1.00  0.00     0.045 C 
HETATM    4  C4  UNL     1      17.003   2.826  13.124  1.00  0.00     0.100 C 
HETATM    5  N1  UNL     1      16.259   3.437  12.071  1.00  0.00    -0.143 NA
HETATM    6  N2  UNL     1      16.241   2.581  10.983  1.00  0.00    -0.143 NA
ENDROOT
BRANCH   4   7
HETATM    7  C5  UNL     1      16.525   3.137  14.500  1.00  0.00    -0.002 C 
HETATM    8  C6  UNL     1      16.397   1.921  15.372  1.00  0.00     0.011 C 
HETATM    9  C7  UNL     1      15.137   3.774  14.366  1.00  0.00     0.011 C 
ENDBRANCH   4   7
TORSDOF 1
ENDMDL
MODEL 5
REMARK VINA RESULT: -4.569843764      2.639      3.815
REMARK  1 active torsions:
REMARK  status: ('A' for Active; 'I' for Inactive)
REMARK    1  A    between atoms: C4_4  and  C5_5 
ROOT
HETATM    1  C1  UNL     1      17.520   0.160  10.915  1.00  0.00     0.029 C 
HETATM    2  C2  UNL     1      16.667   0.891  11.896  1.00  0.00     0.092 C 
HETATM    3  C3  UNL     1      16.990   2.393  11.938  1.00  0.00     0.045 C 
HETATM    4  C4  UNL     1      16.255   2.727  13.227  1.00  0.00     0.100 C 
HETATM    5  N1  UNL     1      16.658   1.639  14.058  1.00  0.00    -0.143 NA
HETATM    6  N2  UNL     1      16.886   0.529  13.262  1.00  0.00    -0.143 NA
ENDROOT
BRANCH   4   7
HETATM    7  C5  UNL     1      16.702   4.071  13.684  1.00  0.00    -0.002 C 
HETATM    8  C6  UNL     1      17.714   4.015  14.792  1.00  0.00     0.011 C 
HETATM    9  C7  UNL     1      15.464   4.809  14.208  1.00  0.00     0.011 C 
ENDBRANCH   4   7
TORSDOF 1
ENDMDL
