MODEL 1
REMARK VINA RESULT: -4.524783275      0.000      0.000
REMARK  1 active torsions:
REMARK  status: ('A' for Active; 'I' for Inactive)
REMARK    1  A    between atoms: C2_2  and  C3_3 
ROOT
HETATM    1  C3  UNL     1      18.236   2.692  11.038  1.00  0.00     0.175 C 
HETATM    2  N1  UNL     1      19.044   1.600  11.390  1.00  0.00    -0.381 N 
ATOM      3  H1  UNL     1      19.753   1.685  12.119  1.00  0.00     0.160 HD
HETATM    4  C4  UNL     1      18.851   0.391  10.712  1.00  0.00     0.062 C 
HETATM    5  C5  UNL     1      17.623  -0.314  11.252  1.00  0.00     0.027 C 
HETATM    6  C6  UNL     1      16.972   0.560  12.331  1.00  0.00     0.034 C 
HETATM    7  C7  UNL     1      16.271   1.289  11.245  1.00  0.00     0.080 C 
HETATM    8  C8  UNL     1      16.407   0.030  10.380  1.00  0.00     0.034 C 
HETATM    9  N2  UNL     1      16.882   2.417  10.706  1.00  0.00    -0.397 N 
ATOM     10  H2  UNL     1      16.366   3.037  10.082  1.00  0.00     0.155 HD
ENDROOT
BRANCH   1  11
HETATM   11  C2  UNL     1      18.258   3.780  12.089  1.00  0.00     0.042 C 
HETATM   12  C1  UNL     1      17.223   4.842  11.839  1.00  0.00     0.009 C 
ENDBRANCH   1  11
TORSDOF 1
ENDMDL
MODEL 2
REMARK VINA RESULT: -4.261703176      2.208      4.050
REMARK  1 active torsions:
REMARK  status: ('A' for Active; 'I' for Inactive)
REMARK    1  A    between atoms: C2_2  and  C3_3 
ROOT
HETATM    1  C3  UNL     1      17.132   2.056  12.128  1.00  0.00     0.175 C 
HETATM    2  N1  UNL     1      17.130   3.454  12.005  1.00  0.00    -0.381 N 
ATOM      3  H1  UNL     1      16.687   3.909  11.206  1.00  0.00     0.160 HD
HETATM    4  C4  UNL     1      17.753   4.206  13.008  1.00  0.00     0.062 C 
HETATM    5  C5  UNL     1      16.855   4.289  14.225  1.00  0.00     0.027 C 
HETATM    6  C6  UNL     1      15.579   3.477  13.968  1.00  0.00     0.034 C 
HETATM    7  C7  UNL     1      16.322   2.268  14.403  1.00  0.00     0.080 C 
HETATM    8  C8  UNL     1      17.237   3.187  15.222  1.00  0.00     0.034 C 
HETATM    9  N2  UNL     1      16.989   1.520  13.436  1.00  0.00    -0.397 N 
ATOM     10  H2  UNL     1      17.368   0.601  13.664  1.00  0.00     0.155 HD
ENDROOT
BRANCH   1  11
HETATM   11  C2  UNL     1      16.106   1.403  11.229  1.00  0.00     0.042 C 
HETATM   12  C1  UNL     1      16.551   0.054  10.734  1.00  0.00     0.009 C 
ENDBRANCH   1  11
TORSDOF 1
ENDMDL
MODEL 3
REMARK VINA RESULT: -4.085389885      3.478      5.229
REMARK  1 active torsions:
REMARK  status: ('A' for Active; 'I' for Inactive)
REMARK    1  A    between atoms: C2_2  and  C3_3 
ROOT
HETATM    1  C3  UNL     1      15.955   2.457  14.602  1.00  0.00     0.175 C 
HETATM    2  N1  UNL     1      15.245   3.574  15.068  1.00  0.00    -0.381 N 
ATOM      3  H1  UNL     1      14.974   3.651  16.048  1.00  0.00     0.160 HD
HETATM    4  C4  UNL     1      14.919   4.580  14.150  1.00  0.00     0.062 C 
HETATM    5  C5  UNL     1      16.135   5.440  13.872  1.00  0.00     0.027 C 
HETATM    6  C6  UNL     1      17.334   4.889  14.654  1.00  0.00     0.034 C 
HETATM    7  C7  UNL     1      17.557   3.934  13.540  1.00  0.00     0.080 C 
HETATM    8  C8  UNL     1      16.849   4.929  12.612  1.00  0.00     0.034 C 
HETATM    9  N2  UNL     1      16.945   2.686  13.607  1.00  0.00    -0.397 N 
ATOM     10  H2  UNL     1      17.203   1.947  12.954  1.00  0.00     0.155 HD
ENDROOT
BRANCH   1  11
HETATM   11  C2  UNL     1      16.584   1.669  15.729  1.00  0.00     0.042 C 
HETATM   12  C1  UNL     1      15.559   1.016  16.616  1.00  0.00     0.009 C 
ENDBRANCH   1  11
TORSDOF 1
ENDMDL
MODEL 4
REMARK VINA RESULT: -4.030477240      3.743      5.185
REMARK  1 active torsions:
REMARK  status: ('A' for Active; 'I' for Inactive)
REMARK    1  A    between atoms: C2_2  and  C3_3 
ROOT
HETATM    1  C3  UNL     1      16.287   2.317  15.979  1.00  0.00     0.175 C 
HETATM    2  N1  UNL     1      17.521   2.617  15.381  1.00  0.00    -0.381 N 
ATOM      3  H1  UNL     1      18.237   1.900  15.267  1.00  0.00     0.160 HD
HETATM    4  C4  UNL     1      17.741   3.929  14.944  1.00  0.00     0.062 C 
HETATM    5  C5  UNL     1      17.021   4.165  13.632  1.00  0.00     0.027 C 
HETATM    6  C6  UNL     1      16.248   2.898  13.244  1.00  0.00     0.034 C 
HETATM    7  C7  UNL     1      15.144   3.367  14.117  1.00  0.00     0.080 C 
HETATM    8  C8  UNL     1      15.650   4.799  13.905  1.00  0.00     0.034 C 
HETATM    9  N2  UNL     1      15.135   2.959  15.448  1.00  0.00    -0.397 N 
ATOM     10  H2  UNL     1      14.316   3.119  16.033  1.00  0.00     0.155 HD
ENDROOT
BRANCH   1  11
HETATM   11  C2  UNL     1      16.024   0.829  16.028  1.00  0.00     0.042 C 
HETATM   12  C1  UNL     1      15.100   0.445  17.151  1.00  0.00     0.009 C 
ENDBRANCH   1  11
TORSDOF 1
ENDMDL
MODEL 5
REMARK VINA RESULT: -4.026268433      2.065      3.315
REMARK  1 active torsions:
REMARK  status: ('A' for Active; 'I' for Inactive)
REMARK    1  A    between atoms: C2_2  and  C3_3 
ROOT
HETATM    1  C3  UNL     1      17.198   3.636  13.932  1.00  0.00     0.175 C 
HETATM    2  N1  UNL     1      16.207   2.941  13.221  1.00  0.00    -0.381 N 
ATOM      3  H1  UNL     1      15.222   3.193  13.313  1.00  0.00     0.160 HD
HETATM    4  C4  UNL     1      16.607   1.893  12.384  1.00  0.00     0.062 C 
HETATM    5  C5  UNL     1      17.174   2.450  11.094  1.00  0.00     0.027 C 
HETATM    6  C6  UNL     1      17.166   3.983  11.158  1.00  0.00     0.034 C 
HETATM    7  C7  UNL     1      18.460   3.908  11.881  1.00  0.00     0.080 C 
HETATM    8  C8  UNL     1      18.702   2.552  11.207  1.00  0.00     0.034 C 
HETATM    9  N2  UNL     1      18.437   3.854  13.272  1.00  0.00    -0.397 N 
ATOM     10  H2  UNL     1      19.297   3.970  13.808  1.00  0.00     0.155 HD
ENDROOT
BRANCH   1  11
HETATM   11  C2  UNL     1      16.697   4.962  14.460  1.00  0.00     0.042 C 
HETATM   12  C1  UNL     1      15.205   5.105  14.335  1.00  0.00     0.009 C 
ENDBRANCH   1  11
TORSDOF 1
ENDMDL
