MODEL 1
REMARK VINA RESULT: -5.603981775      0.000      0.000
REMARK  5 active torsions:
REMARK  status: ('A' for Active; 'I' for Inactive)
REMARK    1  A    between atoms: O1_2  and  C2_3 
REMARK    2  A    between atoms: C8_10  and  O3_11 
REMARK    3  A    between atoms: C8_10  and  C9_13 
REMARK    4  A    between atoms: C10_14  and  C11_15 
REMARK    5  A    between atoms: C14_18  and  N1_19 
ROOT
HETATM    1  C2  UNL     1     -20.266  39.455  -5.178  1.00  0.00     0.165 C 
HETATM    2  C3  UNL     1     -21.537  40.286  -4.998  1.00  0.00     0.048 C 
HETATM    3  C4  UNL     1     -22.630  39.953  -5.941  1.00  0.00     0.036 C 
HETATM    4  C5  UNL     1     -23.862  40.305  -5.098  1.00  0.00     0.168 C 
HETATM    5  O2  UNL     1     -23.522  39.944  -3.822  1.00  0.00    -0.385 OA
HETATM    6  C6  UNL     1     -22.156  40.136  -3.655  1.00  0.00     0.132 C 
HETATM    7  C7  UNL     1     -21.630  38.919  -2.951  1.00  0.00     0.086 C 
HETATM    8  C8  UNL     1     -20.115  38.974  -2.721  1.00  0.00     0.157 C 
HETATM    9  C14 UNL     1     -19.474  39.594  -3.913  1.00  0.00     0.301 C 
ENDROOT
BRANCH   8  10
HETATM   10  O3  UNL     1     -19.984  39.814  -1.581  1.00  0.00    -0.375 OA
ATOM     11  H3  UNL     1     -19.669  40.633  -1.946  1.00  0.00     0.211 HD
ENDBRANCH   8  10
BRANCH   8  12
HETATM   12  C9  UNL     1     -19.675  37.636  -2.434  1.00  0.00    -0.065 C 
HETATM   13  C10 UNL     1     -19.280  36.524  -2.179  1.00  0.00    -0.099 C 
BRANCH  13  14
HETATM   14  C11 UNL     1     -18.774  35.170  -1.884  1.00  0.00     0.065 A 
HETATM   15  C12 UNL     1     -18.184  34.936  -0.515  1.00  0.00     0.018 A 
HETATM   16  C13 UNL     1     -17.234  35.087  -1.635  1.00  0.00     0.018 A 
ENDBRANCH  13  14
ENDBRANCH   8  12
BRANCH   9  17
HETATM   17  N1  UNL     1     -18.071  39.589  -3.996  1.00  0.00     0.130 N 
HETATM   18  C15 UNL     1     -17.506  40.685  -4.781  1.00  0.00     0.307 C 
HETATM   19  C16 UNL     1     -16.275  40.089  -5.423  1.00  0.00     0.148 C 
HETATM   20  C17 UNL     1     -15.913  40.769  -6.720  1.00  0.00     0.041 C 
HETATM   21  O4  UNL     1     -16.715  38.794  -5.666  1.00  0.00    -0.351 OA
HETATM   22  C18 UNL     1     -17.341  38.488  -4.430  1.00  0.00     0.355 C 
HETATM   23  C19 UNL     1     -16.145  38.285  -3.483  1.00  0.00     0.074 C 
ENDBRANCH   9  17
BRANCH   1  24
HETATM   24  O1  UNL     1     -20.591  38.176  -5.555  1.00  0.00    -0.388 OA
HETATM   25  C1  UNL     1     -19.537  37.431  -6.076  1.00  0.00     0.202 C 
ENDBRANCH   1  24
TORSDOF 5
ENDMDL
MODEL 2
REMARK VINA RESULT: -5.345418657      6.906     10.233
REMARK  5 active torsions:
REMARK  status: ('A' for Active; 'I' for Inactive)
REMARK    1  A    between atoms: O1_2  and  C2_3 
REMARK    2  A    between atoms: C8_10  and  O3_11 
REMARK    3  A    between atoms: C8_10  and  C9_13 
REMARK    4  A    between atoms: C10_14  and  C11_15 
REMARK    5  A    between atoms: C14_18  and  N1_19 
ROOT
HETATM    1  C2  UNL     1     -16.062  29.872  -2.548  1.00  0.00     0.165 C 
HETATM    2  C3  UNL     1     -16.962  28.922  -1.757  1.00  0.00     0.048 C 
HETATM    3  C4  UNL     1     -17.090  27.566  -2.339  1.00  0.00     0.036 C 
HETATM    4  C5  UNL     1     -17.328  26.726  -1.078  1.00  0.00     0.168 C 
HETATM    5  O2  UNL     1     -16.547  27.313  -0.119  1.00  0.00    -0.385 OA
HETATM    6  C6  UNL     1     -16.489  28.679  -0.369  1.00  0.00     0.132 C 
HETATM    7  C7  UNL     1     -15.054  29.089  -0.208  1.00  0.00     0.086 C 
HETATM    8  C8  UNL     1     -14.828  30.581  -0.483  1.00  0.00     0.157 C 
HETATM    9  C14 UNL     1     -15.693  30.992  -1.623  1.00  0.00     0.301 C 
ENDROOT
BRANCH   8  10
HETATM   10  O3  UNL     1     -15.248  31.206   0.723  1.00  0.00    -0.375 OA
ATOM     11  H3  UNL     1     -15.302  32.125   0.488  1.00  0.00     0.211 HD
ENDBRANCH   8  10
BRANCH   8  12
HETATM   12  C9  UNL     1     -13.421  30.768  -0.704  1.00  0.00    -0.065 C 
HETATM   13  C10 UNL     1     -12.233  30.896  -0.879  1.00  0.00    -0.099 C 
BRANCH  13  14
HETATM   14  C11 UNL     1     -10.777  31.047  -1.067  1.00  0.00     0.065 A 
HETATM   15  C12 UNL     1     -10.045  31.944  -0.101  1.00  0.00     0.018 A 
HETATM   16  C13 UNL     1     -10.312  32.489  -1.447  1.00  0.00     0.018 A 
ENDBRANCH  13  14
ENDBRANCH   8  12
BRANCH   9  17
HETATM   17  N1  UNL     1     -15.523  32.279  -2.161  1.00  0.00     0.130 N 
HETATM   18  C15 UNL     1     -14.134  32.732  -2.219  1.00  0.00     0.307 C 
HETATM   19  C16 UNL     1     -14.218  34.223  -1.993  1.00  0.00     0.148 C 
HETATM   20  C17 UNL     1     -12.959  34.787  -1.382  1.00  0.00     0.041 C 
HETATM   21  O4  UNL     1     -15.264  34.285  -1.081  1.00  0.00    -0.351 OA
HETATM   22  C18 UNL     1     -16.194  33.397  -1.680  1.00  0.00     0.355 C 
HETATM   23  C19 UNL     1     -16.719  34.209  -2.877  1.00  0.00     0.074 C 
ENDBRANCH   9  17
BRANCH   1  24
HETATM   24  O1  UNL     1     -15.020  29.175  -3.106  1.00  0.00    -0.388 OA
HETATM   25  C1  UNL     1     -14.583  29.657  -4.337  1.00  0.00     0.202 C 
ENDBRANCH   1  24
TORSDOF 5
ENDMDL
MODEL 3
REMARK VINA RESULT: -4.877202912      9.226     11.455
REMARK  5 active torsions:
REMARK  status: ('A' for Active; 'I' for Inactive)
REMARK    1  A    between atoms: O1_2  and  C2_3 
REMARK    2  A    between atoms: C8_10  and  O3_11 
REMARK    3  A    between atoms: C8_10  and  C9_13 
REMARK    4  A    between atoms: C10_14  and  C11_15 
REMARK    5  A    between atoms: C14_18  and  N1_19 
ROOT
HETATM    1  C2  UNL     1     -10.694  35.601   1.401  1.00  0.00     0.165 C 
HETATM    2  C3  UNL     1     -11.520  36.658   2.134  1.00  0.00     0.048 C 
HETATM    3  C4  UNL     1     -11.026  36.996   3.489  1.00  0.00     0.036 C 
HETATM    4  C5  UNL     1     -11.483  38.455   3.612  1.00  0.00     0.168 C 
HETATM    5  O2  UNL     1     -11.330  38.973   2.354  1.00  0.00    -0.385 OA
HETATM    6  C6  UNL     1     -11.569  37.965   1.428  1.00  0.00     0.132 C 
HETATM    7  C7  UNL     1     -10.485  38.061   0.394  1.00  0.00     0.086 C 
HETATM    8  C8  UNL     1     -10.601  36.983  -0.691  1.00  0.00     0.157 C 
HETATM    9  C14 UNL     1     -11.041  35.711  -0.053  1.00  0.00     0.301 C 
ENDROOT
BRANCH   8  10
HETATM   10  O3  UNL     1     -11.611  37.491  -1.555  1.00  0.00    -0.375 OA
ATOM     11  H3  UNL     1     -12.209  36.760  -1.649  1.00  0.00     0.211 HD
ENDBRANCH   8  10
BRANCH   8  12
HETATM   12  C9  UNL     1      -9.333  36.908  -1.361  1.00  0.00    -0.065 C 
HETATM   13  C10 UNL     1      -8.265  36.877  -1.923  1.00  0.00    -0.099 C 
BRANCH  13  14
HETATM   14  C11 UNL     1      -6.971  36.853  -2.633  1.00  0.00     0.065 A 
HETATM   15  C12 UNL     1      -6.966  37.290  -4.077  1.00  0.00     0.018 A 
HETATM   16  C13 UNL     1      -6.893  35.838  -3.818  1.00  0.00     0.018 A 
ENDBRANCH  13  14
ENDBRANCH   8  12
BRANCH   9  17
HETATM   17  N1  UNL     1     -11.048  34.541  -0.832  1.00  0.00     0.130 N 
HETATM   18  C15 UNL     1     -12.346  34.211  -1.420  1.00  0.00     0.307 C 
HETATM   19  C16 UNL     1     -12.373  32.701  -1.440  1.00  0.00     0.148 C 
HETATM   20  C17 UNL     1     -13.776  32.148  -1.383  1.00  0.00     0.041 C 
HETATM   21  O4  UNL     1     -11.697  32.417  -0.261  1.00  0.00    -0.351 OA
HETATM   22  C18 UNL     1     -10.600  33.313  -0.359  1.00  0.00     0.355 C 
HETATM   23  C19 UNL     1      -9.721  32.659  -1.440  1.00  0.00     0.074 C 
ENDBRANCH   9  17
BRANCH   1  24
HETATM   24  O1  UNL     1      -9.367  35.738   1.721  1.00  0.00    -0.388 OA
HETATM   25  C1  UNL     1      -8.860  34.748   2.559  1.00  0.00     0.202 C 
ENDBRANCH   1  24
TORSDOF 5
ENDMDL
MODEL 4
REMARK VINA RESULT: -4.701998958      7.772     11.110
REMARK  5 active torsions:
REMARK  status: ('A' for Active; 'I' for Inactive)
REMARK    1  A    between atoms: O1_2  and  C2_3 
REMARK    2  A    between atoms: C8_10  and  O3_11 
REMARK    3  A    between atoms: C8_10  and  C9_13 
REMARK    4  A    between atoms: C10_14  and  C11_15 
REMARK    5  A    between atoms: C14_18  and  N1_19 
ROOT
HETATM    1  C2  UNL     1     -14.024  30.978  -2.358  1.00  0.00     0.165 C 
HETATM    2  C3  UNL     1     -14.198  32.463  -2.040  1.00  0.00     0.048 C 
HETATM    3  C4  UNL     1     -14.566  33.304  -3.202  1.00  0.00     0.036 C 
HETATM    4  C5  UNL     1     -15.369  34.417  -2.517  1.00  0.00     0.168 C 
HETATM    5  O2  UNL     1     -16.046  33.784  -1.509  1.00  0.00    -0.385 OA
HETATM    6  C6  UNL     1     -15.266  32.733  -1.042  1.00  0.00     0.132 C 
HETATM    7  C7  UNL     1     -16.177  31.550  -0.893  1.00  0.00     0.086 C 
HETATM    8  C8  UNL     1     -15.444  30.293  -0.407  1.00  0.00     0.157 C 
HETATM    9  C14 UNL     1     -14.104  30.243  -1.054  1.00  0.00     0.301 C 
ENDROOT
BRANCH   8  10
HETATM   10  O3  UNL     1     -15.322  30.504   0.994  1.00  0.00    -0.375 OA
ATOM     11  H3  UNL     1     -15.406  31.446   1.084  1.00  0.00     0.211 HD
ENDBRANCH   8  10
BRANCH   8  12
HETATM   12  C9  UNL     1     -16.288  29.166  -0.692  1.00  0.00    -0.065 C 
HETATM   13  C10 UNL     1     -17.023  28.238  -0.928  1.00  0.00    -0.099 C 
BRANCH  13  14
HETATM   14  C11 UNL     1     -17.933  27.106  -1.192  1.00  0.00     0.065 A 
HETATM   15  C12 UNL     1     -17.318  25.733  -1.294  1.00  0.00     0.018 A 
HETATM   16  C13 UNL     1     -17.705  26.388  -2.560  1.00  0.00     0.018 A 
ENDBRANCH  13  14
ENDBRANCH   8  12
BRANCH   9  17
HETATM   17  N1  UNL     1     -13.325  29.085  -0.888  1.00  0.00     0.130 N 
HETATM   18  C15 UNL     1     -14.065  27.831  -1.027  1.00  0.00     0.307 C 
HETATM   19  C16 UNL     1     -13.385  26.888  -0.063  1.00  0.00     0.148 C 
HETATM   20  C17 UNL     1     -14.312  25.808   0.440  1.00  0.00     0.041 C 
HETATM   21  O4  UNL     1     -13.062  27.761   0.967  1.00  0.00    -0.351 OA
HETATM   22  C18 UNL     1     -12.536  28.857   0.233  1.00  0.00     0.355 C 
HETATM   23  C19 UNL     1     -11.165  28.330  -0.228  1.00  0.00     0.074 C 
ENDBRANCH   9  17
BRANCH   1  24
HETATM   24  O1  UNL     1     -14.919  30.598  -3.327  1.00  0.00    -0.388 OA
HETATM   25  C1  UNL     1     -14.523  29.509  -4.098  1.00  0.00     0.202 C 
ENDBRANCH   1  24
TORSDOF 5
ENDMDL
MODEL 5
REMARK VINA RESULT: -4.689988263     11.595     15.065
REMARK  5 active torsions:
REMARK  status: ('A' for Active; 'I' for Inactive)
REMARK    1  A    between atoms: O1_2  and  C2_3 
REMARK    2  A    between atoms: C8_10  and  O3_11 
REMARK    3  A    between atoms: C8_10  and  C9_13 
REMARK    4  A    between atoms: C10_14  and  C11_15 
REMARK    5  A    between atoms: C14_18  and  N1_19 
ROOT
HETATM    1  C2  UNL     1      -7.530  33.951   4.441  1.00  0.00     0.165 C 
HETATM    2  C3  UNL     1      -7.623  35.336   5.083  1.00  0.00     0.048 C 
HETATM    3  C4  UNL     1      -6.395  36.154   4.965  1.00  0.00     0.036 C 
HETATM    4  C5  UNL     1      -6.984  37.570   4.956  1.00  0.00     0.168 C 
HETATM    5  O2  UNL     1      -8.155  37.453   4.258  1.00  0.00    -0.385 OA
HETATM    6  C6  UNL     1      -8.687  36.190   4.493  1.00  0.00     0.132 C 
HETATM    7  C7  UNL     1      -9.136  35.655   3.165  1.00  0.00     0.086 C 
HETATM    8  C8  UNL     1      -9.725  34.242   3.262  1.00  0.00     0.157 C 
HETATM    9  C14 UNL     1      -8.936  33.464   4.256  1.00  0.00     0.301 C 
ENDROOT
BRANCH   8  10
HETATM   10  O3  UNL     1     -11.049  34.468   3.732  1.00  0.00    -0.375 OA
ATOM     11  H3  UNL     1     -11.586  33.977   3.121  1.00  0.00     0.211 HD
ENDBRANCH   8  10
BRANCH   8  12
HETATM   12  C9  UNL     1      -9.731  33.687   1.937  1.00  0.00    -0.065 C 
HETATM   13  C10 UNL     1      -9.733  33.249   0.812  1.00  0.00    -0.099 C 
BRANCH  13  14
HETATM   14  C11 UNL     1      -9.759  32.730  -0.570  1.00  0.00     0.065 A 
HETATM   15  C12 UNL     1     -11.105  32.616  -1.240  1.00  0.00     0.018 A 
HETATM   16  C13 UNL     1     -10.498  31.365  -0.742  1.00  0.00     0.018 A 
ENDBRANCH  13  14
ENDBRANCH   8  12
BRANCH   9  17
HETATM   17  N1  UNL     1      -9.190  32.087   4.381  1.00  0.00     0.130 N 
HETATM   18  C15 UNL     1      -9.030  31.561   5.736  1.00  0.00     0.307 C 
HETATM   19  C16 UNL     1      -8.521  30.154   5.532  1.00  0.00     0.148 C 
HETATM   20  C17 UNL     1      -7.697  29.663   6.697  1.00  0.00     0.041 C 
HETATM   21  O4  UNL     1      -7.715  30.331   4.415  1.00  0.00    -0.351 OA
HETATM   22  C18 UNL     1      -8.561  31.126   3.598  1.00  0.00     0.355 C 
HETATM   23  C19 UNL     1      -9.617  30.115   3.117  1.00  0.00     0.074 C 
ENDBRANCH   9  17
BRANCH   1  24
HETATM   24  O1  UNL     1      -6.752  34.009   3.312  1.00  0.00    -0.388 OA
HETATM   25  C1  UNL     1      -5.683  33.117   3.289  1.00  0.00     0.202 C 
ENDBRANCH   1  24
TORSDOF 5
ENDMDL
