MODEL 1
REMARK VINA RESULT: -5.901768599      0.000      0.000
REMARK  5 active torsions:
REMARK  status: ('A' for Active; 'I' for Inactive)
REMARK    1  A    between atoms: C5_5  and  O1_6 
REMARK    2  A    between atoms: O1_6  and  C6_7 
REMARK    3  A    between atoms: C6_7  and  C7_9 
REMARK    4  A    between atoms: C12_14  and  C13_15 
REMARK    5  A    between atoms: C15_19  and  O5_21 
ROOT
HETATM    1  C1  UNL     1     -15.398  28.190  -3.000  1.00  0.00     0.017 C 
HETATM    2  C2  UNL     1     -15.411  29.073  -2.033  1.00  0.00    -0.051 C 
HETATM    3  C3  UNL     1     -16.649  29.703  -1.494  1.00  0.00     0.039 C 
HETATM    4  C4  UNL     1     -16.524  31.195  -1.370  1.00  0.00     0.038 C 
HETATM    5  C5  UNL     1     -15.189  31.581  -0.796  1.00  0.00     0.144 C 
HETATM    6  C10 UNL     1     -14.038  30.976  -1.581  1.00  0.00     0.037 C 
HETATM    7  C11 UNL     1     -14.252  31.213  -3.089  1.00  0.00     0.022 C 
HETATM    8  C12 UNL     1     -12.722  31.601  -1.216  1.00  0.00     0.134 C 
HETATM    9  C14 UNL     1     -11.650  30.622  -0.916  1.00  0.00     0.174 C 
HETATM   10  O4  UNL     1     -10.492  30.973  -1.055  1.00  0.00    -0.294 OA
HETATM   11  C15 UNL     1     -11.889  29.244  -0.455  1.00  0.00     0.144 C 
HETATM   12  C16 UNL     1     -11.761  29.247   1.073  1.00  0.00     0.057 C 
HETATM   13  C17 UNL     1     -13.200  28.696  -0.872  1.00  0.00     0.204 A 
HETATM   14  O6  UNL     1     -14.229  29.095   0.033  1.00  0.00    -0.360 OA
HETATM   15  C18 UNL     1     -14.130  29.513  -1.395  1.00  0.00     0.124 A 
ENDROOT
BRANCH   5  16
HETATM   16  O1  UNL     1     -15.059  32.912  -0.470  1.00  0.00    -0.315 OA
BRANCH  16  17
HETATM   17  C6  UNL     1     -15.421  34.023  -1.178  1.00  0.00     0.262 C 
HETATM   18  O2  UNL     1     -14.560  34.920  -1.255  1.00  0.00    -0.265 OA
BRANCH  17  19
HETATM   19  C7  UNL     1     -16.743  34.203  -1.830  1.00  0.00     0.077 C 
HETATM   20  C8  UNL     1     -16.681  35.082  -3.034  1.00  0.00     0.020 C 
HETATM   21  C9  UNL     1     -17.723  34.794  -0.843  1.00  0.00     0.020 C 
ENDBRANCH  17  19
ENDBRANCH  16  17
ENDBRANCH   5  16
BRANCH   8  22
HETATM   22  C13 UNL     1     -12.195  32.483  -2.294  1.00  0.00     0.244 C 
HETATM   23  O3  UNL     1     -11.902  33.623  -1.982  1.00  0.00    -0.306 OA
ENDBRANCH   8  22
BRANCH  11  24
HETATM   24  O5  UNL     1     -10.845  28.429  -0.932  1.00  0.00    -0.380 OA
ATOM     25  H5  UNL     1     -11.081  27.521  -0.780  1.00  0.00     0.211 HD
ENDBRANCH  11  24
TORSDOF 5
ENDMDL
MODEL 2
REMARK VINA RESULT: -5.847484249      2.047      3.042
REMARK  5 active torsions:
REMARK  status: ('A' for Active; 'I' for Inactive)
REMARK    1  A    between atoms: C5_5  and  O1_6 
REMARK    2  A    between atoms: O1_6  and  C6_7 
REMARK    3  A    between atoms: C6_7  and  C7_9 
REMARK    4  A    between atoms: C12_14  and  C13_15 
REMARK    5  A    between atoms: C15_19  and  O5_21 
ROOT
HETATM    1  C1  UNL     1     -17.049  26.321  -2.664  1.00  0.00     0.017 C 
HETATM    2  C2  UNL     1     -16.809  27.169  -1.695  1.00  0.00    -0.051 C 
HETATM    3  C3  UNL     1     -17.772  28.210  -1.239  1.00  0.00     0.039 C 
HETATM    4  C4  UNL     1     -17.129  29.561  -1.098  1.00  0.00     0.038 C 
HETATM    5  C5  UNL     1     -15.785  29.454  -0.432  1.00  0.00     0.144 C 
HETATM    6  C10 UNL     1     -14.879  28.463  -1.139  1.00  0.00     0.037 C 
HETATM    7  C11 UNL     1     -14.893  28.731  -2.656  1.00  0.00     0.022 C 
HETATM    8  C12 UNL     1     -13.454  28.582  -0.681  1.00  0.00     0.134 C 
HETATM    9  C14 UNL     1     -12.825  27.290  -0.313  1.00  0.00     0.174 C 
HETATM   10  O4  UNL     1     -11.612  27.201  -0.371  1.00  0.00    -0.294 OA
HETATM   11  C15 UNL     1     -13.572  26.099   0.122  1.00  0.00     0.144 C 
HETATM   12  C16 UNL     1     -13.553  26.084   1.655  1.00  0.00     0.057 C 
HETATM   13  C17 UNL     1     -14.962  26.048  -0.387  1.00  0.00     0.204 A 
HETATM   14  O6  UNL     1     -15.837  26.806   0.447  1.00  0.00    -0.360 OA
HETATM   15  C18 UNL     1     -15.501  27.133  -0.968  1.00  0.00     0.124 A 
ENDROOT
BRANCH   5  16
HETATM   16  O1  UNL     1     -15.209  30.657  -0.090  1.00  0.00    -0.315 OA
BRANCH  16  17
HETATM   17  C6  UNL     1     -15.368  31.892  -0.652  1.00  0.00     0.262 C 
HETATM   18  O2  UNL     1     -16.050  32.701   0.005  1.00  0.00    -0.265 OA
BRANCH  17  19
HETATM   19  C7  UNL     1     -14.791  32.294  -1.959  1.00  0.00     0.077 C 
HETATM   20  C8  UNL     1     -13.446  32.929  -1.829  1.00  0.00     0.020 C 
HETATM   21  C9  UNL     1     -15.722  33.260  -2.653  1.00  0.00     0.020 C 
ENDBRANCH  17  19
ENDBRANCH  16  17
ENDBRANCH   5  16
BRANCH   8  22
HETATM   22  C13 UNL     1     -12.575  29.196  -1.715  1.00  0.00     0.244 C 
HETATM   23  O3  UNL     1     -11.855  30.111  -1.357  1.00  0.00    -0.306 OA
ENDBRANCH   8  22
BRANCH  11  24
HETATM   24  O5  UNL     1     -12.860  24.955  -0.287  1.00  0.00    -0.380 OA
ATOM     25  H5  UNL     1     -12.177  24.784   0.351  1.00  0.00     0.211 HD
ENDBRANCH  11  24
TORSDOF 5
ENDMDL
MODEL 3
REMARK VINA RESULT: -5.726556951      6.590     10.180
REMARK  5 active torsions:
REMARK  status: ('A' for Active; 'I' for Inactive)
REMARK    1  A    between atoms: C5_5  and  O1_6 
REMARK    2  A    between atoms: O1_6  and  C6_7 
REMARK    3  A    between atoms: C6_7  and  C7_9 
REMARK    4  A    between atoms: C12_14  and  C13_15 
REMARK    5  A    between atoms: C15_19  and  O5_21 
ROOT
HETATM    1  C1  UNL     1     -16.847  41.023  -3.837  1.00  0.00     0.017 C 
HETATM    2  C2  UNL     1     -17.654  40.271  -4.543  1.00  0.00    -0.051 C 
HETATM    3  C3  UNL     1     -18.406  40.745  -5.737  1.00  0.00     0.039 C 
HETATM    4  C4  UNL     1     -19.855  40.351  -5.695  1.00  0.00     0.038 C 
HETATM    5  C5  UNL     1     -20.016  38.927  -5.238  1.00  0.00     0.144 C 
HETATM    6  C10 UNL     1     -19.317  38.674  -3.914  1.00  0.00     0.037 C 
HETATM    7  C11 UNL     1     -19.685  39.782  -2.908  1.00  0.00     0.022 C 
HETATM    8  C12 UNL     1     -19.730  37.366  -3.304  1.00  0.00     0.134 C 
HETATM    9  C14 UNL     1     -18.596  36.518  -2.863  1.00  0.00     0.174 C 
HETATM   10  O4  UNL     1     -18.796  35.697  -1.986  1.00  0.00    -0.294 OA
HETATM   11  C15 UNL     1     -17.235  36.599  -3.418  1.00  0.00     0.144 C 
HETATM   12  C16 UNL     1     -17.113  35.506  -4.486  1.00  0.00     0.057 C 
HETATM   13  C17 UNL     1     -16.900  37.926  -3.982  1.00  0.00     0.204 A 
HETATM   14  O6  UNL     1     -17.370  38.041  -5.325  1.00  0.00    -0.360 OA
HETATM   15  C18 UNL     1     -17.870  38.838  -4.168  1.00  0.00     0.124 A 
ENDROOT
BRANCH   5  16
HETATM   16  O1  UNL     1     -21.290  38.420  -5.350  1.00  0.00    -0.315 OA
BRANCH  16  17
HETATM   17  C6  UNL     1     -22.480  38.953  -4.941  1.00  0.00     0.262 C 
HETATM   18  O2  UNL     1     -23.297  38.145  -4.459  1.00  0.00    -0.265 OA
BRANCH  17  19
HETATM   19  C7  UNL     1     -22.829  40.392  -5.043  1.00  0.00     0.077 C 
HETATM   20  C8  UNL     1     -23.654  40.872  -3.895  1.00  0.00     0.020 C 
HETATM   21  C9  UNL     1     -23.585  40.645  -6.327  1.00  0.00     0.020 C 
ENDBRANCH  17  19
ENDBRANCH  16  17
ENDBRANCH   5  16
BRANCH   8  22
HETATM   22  C13 UNL     1     -20.606  37.547  -2.113  1.00  0.00     0.244 C 
HETATM   23  O3  UNL     1     -21.680  36.973  -2.124  1.00  0.00    -0.306 OA
ENDBRANCH   8  22
BRANCH  11  24
HETATM   24  O5  UNL     1     -16.321  36.255  -2.403  1.00  0.00    -0.380 OA
ATOM     25  H5  UNL     1     -16.808  35.897  -1.670  1.00  0.00     0.211 HD
ENDBRANCH  11  24
TORSDOF 5
ENDMDL
MODEL 4
REMARK VINA RESULT: -4.937277394      7.016      9.856
REMARK  5 active torsions:
REMARK  status: ('A' for Active; 'I' for Inactive)
REMARK    1  A    between atoms: C5_5  and  O1_6 
REMARK    2  A    between atoms: O1_6  and  C6_7 
REMARK    3  A    between atoms: C6_7  and  C7_9 
REMARK    4  A    between atoms: C12_14  and  C13_15 
REMARK    5  A    between atoms: C15_19  and  O5_21 
ROOT
HETATM    1  C1  UNL     1     -16.783  35.432  -4.822  1.00  0.00     0.017 C 
HETATM    2  C2  UNL     1     -17.334  36.223  -3.936  1.00  0.00    -0.051 C 
HETATM    3  C3  UNL     1     -17.809  35.776  -2.597  1.00  0.00     0.039 C 
HETATM    4  C4  UNL     1     -19.190  36.276  -2.283  1.00  0.00     0.038 C 
HETATM    5  C5  UNL     1     -19.345  37.719  -2.678  1.00  0.00     0.144 C 
HETATM    6  C10 UNL     1     -18.970  37.953  -4.131  1.00  0.00     0.037 C 
HETATM    7  C11 UNL     1     -19.656  36.901  -5.024  1.00  0.00     0.022 C 
HETATM    8  C12 UNL     1     -19.416  39.304  -4.613  1.00  0.00     0.134 C 
HETATM    9  C14 UNL     1     -18.361  40.076  -5.311  1.00  0.00     0.174 C 
HETATM   10  O4  UNL     1     -18.702  40.932  -6.108  1.00  0.00    -0.294 OA
HETATM   11  C15 UNL     1     -16.916  39.881  -5.105  1.00  0.00     0.144 C 
HETATM   12  C16 UNL     1     -16.454  40.935  -4.092  1.00  0.00     0.057 C 
HETATM   13  C17 UNL     1     -16.559  38.519  -4.647  1.00  0.00     0.204 A 
HETATM   14  O6  UNL     1     -16.697  38.406  -3.232  1.00  0.00    -0.360 OA
HETATM   15  C18 UNL     1     -17.523  37.677  -4.237  1.00  0.00     0.124 A 
ENDROOT
BRANCH   5  16
HETATM   16  O1  UNL     1     -20.512  38.316  -2.255  1.00  0.00    -0.315 OA
BRANCH  16  17
HETATM   17  C6  UNL     1     -21.792  37.840  -2.276  1.00  0.00     0.262 C 
HETATM   18  O2  UNL     1     -22.017  36.861  -1.540  1.00  0.00    -0.265 OA
BRANCH  17  19
HETATM   19  C7  UNL     1     -22.882  38.412  -3.106  1.00  0.00     0.077 C 
HETATM   20  C8  UNL     1     -23.907  39.136  -2.299  1.00  0.00     0.020 C 
HETATM   21  C9  UNL     1     -23.563  37.311  -3.885  1.00  0.00     0.020 C 
ENDBRANCH  17  19
ENDBRANCH  16  17
ENDBRANCH   5  16
BRANCH   8  22
HETATM   22  C13 UNL     1     -20.566  39.217  -5.557  1.00  0.00     0.244 C 
HETATM   23  O3  UNL     1     -21.469  40.020  -5.403  1.00  0.00    -0.306 OA
ENDBRANCH   8  22
BRANCH  11  24
HETATM   24  O5  UNL     1     -16.251  40.182  -6.309  1.00  0.00    -0.380 OA
ATOM     25  H5  UNL     1     -16.902  40.285  -6.993  1.00  0.00     0.211 HD
ENDBRANCH  11  24
TORSDOF 5
ENDMDL
MODEL 5
REMARK VINA RESULT: -4.802265048      6.104      8.245
REMARK  5 active torsions:
REMARK  status: ('A' for Active; 'I' for Inactive)
REMARK    1  A    between atoms: C5_5  and  O1_6 
REMARK    2  A    between atoms: O1_6  and  C6_7 
REMARK    3  A    between atoms: C6_7  and  C7_9 
REMARK    4  A    between atoms: C12_14  and  C13_15 
REMARK    5  A    between atoms: C15_19  and  O5_21 
ROOT
HETATM    1  C1  UNL     1      -8.763  32.475   6.624  1.00  0.00     0.017 C 
HETATM    2  C2  UNL     1      -9.293  32.607   5.433  1.00  0.00    -0.051 C 
HETATM    3  C3  UNL     1      -9.345  31.519   4.418  1.00  0.00     0.039 C 
HETATM    4  C4  UNL     1      -8.892  31.980   3.061  1.00  0.00     0.038 C 
HETATM    5  C5  UNL     1      -9.466  33.329   2.729  1.00  0.00     0.144 C 
HETATM    6  C10 UNL     1      -9.167  34.354   3.808  1.00  0.00     0.037 C 
HETATM    7  C11 UNL     1      -7.674  34.298   4.185  1.00  0.00     0.022 C 
HETATM    8  C12 UNL     1      -9.456  35.754   3.347  1.00  0.00     0.134 C 
HETATM    9  C14 UNL     1     -10.276  36.547   4.293  1.00  0.00     0.174 C 
HETATM   10  O4  UNL     1     -10.190  37.761   4.255  1.00  0.00    -0.294 OA
HETATM   11  C15 UNL     1     -11.197  35.965   5.283  1.00  0.00     0.144 C 
HETATM   12  C16 UNL     1     -12.602  35.993   4.670  1.00  0.00     0.057 C 
HETATM   13  C17 UNL     1     -10.832  34.591   5.699  1.00  0.00     0.204 A 
HETATM   14  O6  UNL     1     -11.340  33.629   4.776  1.00  0.00    -0.360 OA
HETATM   15  C18 UNL     1      -9.895  33.912   5.016  1.00  0.00     0.124 A 
ENDROOT
BRANCH   5  16
HETATM   16  O1  UNL     1      -9.261  33.745   1.433  1.00  0.00    -0.315 OA
BRANCH  16  17
HETATM   17  C6  UNL     1     -10.047  33.579   0.328  1.00  0.00     0.262 C 
HETATM   18  O2  UNL     1      -9.905  32.501  -0.280  1.00  0.00    -0.265 OA
BRANCH  17  19
HETATM   19  C7  UNL     1     -11.022  34.585  -0.162  1.00  0.00     0.077 C 
HETATM   20  C8  UNL     1     -11.885  34.069  -1.265  1.00  0.00     0.020 C 
HETATM   21  C9  UNL     1     -10.288  35.813  -0.649  1.00  0.00     0.020 C 
ENDBRANCH  17  19
ENDBRANCH  16  17
ENDBRANCH   5  16
BRANCH   8  22
HETATM   22  C13 UNL     1      -8.213  36.540   3.108  1.00  0.00     0.244 C 
HETATM   23  O3  UNL     1      -8.002  36.908   1.966  1.00  0.00    -0.306 OA
ENDBRANCH   8  22
BRANCH  11  24
HETATM   24  O5  UNL     1     -11.244  36.818   6.402  1.00  0.00    -0.380 OA
ATOM     25  H5  UNL     1     -11.819  36.430   7.050  1.00  0.00     0.211 HD
ENDBRANCH  11  24
TORSDOF 5
ENDMDL
