MODEL 1
REMARK VINA RESULT: -7.574533243      0.000      0.000
REMARK  3 active torsions:
REMARK  status: ('A' for Active; 'I' for Inactive)
REMARK    1  A    between atoms: C9_15  and  C10_16 
REMARK    2  A    between atoms: C11_17  and  C12_18 
REMARK    3  A    between atoms: C12_18  and  O5_19 
ROOT
HETATM    1  O1  UNL     1     -15.566  28.336  -3.147  1.00  0.00    -0.217 OA
HETATM    2  S1  UNL     1     -15.574  28.856  -1.725  1.00  0.00     0.209 S 
HETATM    3  O2  UNL     1     -17.024  28.827  -1.271  1.00  0.00    -0.217 OA
HETATM    4  C1  UNL     1     -14.696  27.739  -0.719  1.00  0.00     0.086 A 
HETATM    5  C2  UNL     1     -15.334  26.662  -0.196  1.00  0.00     0.025 A 
HETATM    6  C3  UNL     1     -14.587  25.799   0.601  1.00  0.00     0.002 A 
HETATM    7  C4  UNL     1     -13.250  26.043   0.844  1.00  0.00     0.002 A 
HETATM    8  C5  UNL     1     -12.609  27.159   0.297  1.00  0.00     0.025 A 
HETATM    9  C6  UNL     1     -13.367  27.999  -0.488  1.00  0.00     0.086 A 
HETATM   10  S2  UNL     1     -12.607  29.402  -1.190  1.00  0.00     0.209 S 
HETATM   11  O3  UNL     1     -11.495  29.834  -0.245  1.00  0.00    -0.217 OA
HETATM   12  O4  UNL     1     -11.974  28.981  -2.496  1.00  0.00    -0.217 OA
HETATM   13  C7  UNL     1     -13.693  30.726  -1.363  1.00  0.00     0.086 A 
HETATM   14  C8  UNL     1     -13.227  32.014  -1.261  1.00  0.00     0.036 A 
HETATM   15  C9  UNL     1     -14.115  33.088  -1.403  1.00  0.00    -0.035 A 
HETATM   16  C13 UNL     1     -15.449  32.853  -1.643  1.00  0.00     0.013 A 
HETATM   17  C14 UNL     1     -15.886  31.536  -1.740  1.00  0.00     0.026 A 
HETATM   18  C15 UNL     1     -15.026  30.483  -1.603  1.00  0.00     0.086 A 
ENDROOT
BRANCH  15  19
HETATM   19  C10 UNL     1     -13.598  34.457  -1.290  1.00  0.00     0.009 C 
HETATM   20  C11 UNL     1     -12.372  34.740  -0.970  1.00  0.00    -0.000 C 
BRANCH  20  21
HETATM   21  C12 UNL     1     -11.953  36.170  -0.883  1.00  0.00     0.191 C 
BRANCH  21  22
HETATM   22  O5  UNL     1     -12.673  36.947  -1.798  1.00  0.00    -0.397 OA
ATOM     23  H5  UNL     1     -13.302  36.411  -2.266  1.00  0.00     0.209 HD
ENDBRANCH  21  22
ENDBRANCH  20  21
ENDBRANCH  15  19
TORSDOF 3
ENDMDL
MODEL 2
REMARK VINA RESULT: -7.474112507      1.169      1.357
REMARK  3 active torsions:
REMARK  status: ('A' for Active; 'I' for Inactive)
REMARK    1  A    between atoms: C9_15  and  C10_16 
REMARK    2  A    between atoms: C11_17  and  C12_18 
REMARK    3  A    between atoms: C12_18  and  O5_19 
ROOT
HETATM    1  O1  UNL     1     -14.675  29.182  -3.914  1.00  0.00    -0.217 OA
HETATM    2  S1  UNL     1     -15.062  29.685  -2.539  1.00  0.00     0.209 S 
HETATM    3  O2  UNL     1     -16.526  30.083  -2.630  1.00  0.00    -0.217 OA
HETATM    4  C1  UNL     1     -14.956  28.362  -1.413  1.00  0.00     0.086 A 
HETATM    5  C2  UNL     1     -16.009  27.520  -1.265  1.00  0.00     0.025 A 
HETATM    6  C3  UNL     1     -15.873  26.478  -0.352  1.00  0.00     0.002 A 
HETATM    7  C4  UNL     1     -14.707  26.320   0.370  1.00  0.00     0.002 A 
HETATM    8  C5  UNL     1     -13.632  27.199   0.204  1.00  0.00     0.025 A 
HETATM    9  C6  UNL     1     -13.788  28.222  -0.704  1.00  0.00     0.086 A 
HETATM   10  S2  UNL     1     -12.471  29.339  -0.940  1.00  0.00     0.209 S 
HETATM   11  O3  UNL     1     -11.711  29.429   0.376  1.00  0.00    -0.217 OA
HETATM   12  O4  UNL     1     -11.544  28.749  -1.977  1.00  0.00    -0.217 OA
HETATM   13  C7  UNL     1     -13.012  30.922  -1.343  1.00  0.00     0.086 A 
HETATM   14  C8  UNL     1     -12.283  32.018  -0.948  1.00  0.00     0.036 A 
HETATM   15  C9  UNL     1     -12.727  33.304  -1.279  1.00  0.00    -0.035 A 
HETATM   16  C13 UNL     1     -13.889  33.470  -1.996  1.00  0.00     0.013 A 
HETATM   17  C14 UNL     1     -14.601  32.339  -2.380  1.00  0.00     0.026 A 
HETATM   18  C15 UNL     1     -14.175  31.081  -2.061  1.00  0.00     0.086 A 
ENDROOT
BRANCH  15  19
HETATM   19  C10 UNL     1     -11.935  34.463  -0.847  1.00  0.00     0.009 C 
HETATM   20  C11 UNL     1     -12.382  35.682  -0.852  1.00  0.00    -0.000 C 
BRANCH  20  21
HETATM   21  C12 UNL     1     -11.490  36.787  -0.392  1.00  0.00     0.191 C 
BRANCH  21  22
HETATM   22  O5  UNL     1     -12.070  37.468   0.684  1.00  0.00    -0.397 OA
ATOM     23  H5  UNL     1     -11.790  38.376   0.693  1.00  0.00     0.209 HD
ENDBRANCH  21  22
ENDBRANCH  20  21
ENDBRANCH  15  19
TORSDOF 3
ENDMDL
MODEL 3
REMARK VINA RESULT: -7.218225069      1.646      2.065
REMARK  3 active torsions:
REMARK  status: ('A' for Active; 'I' for Inactive)
REMARK    1  A    between atoms: C9_15  and  C10_16 
REMARK    2  A    between atoms: C11_17  and  C12_18 
REMARK    3  A    between atoms: C12_18  and  O5_19 
ROOT
HETATM    1  O1  UNL     1     -15.070  30.042  -3.855  1.00  0.00    -0.217 OA
HETATM    2  S1  UNL     1     -15.202  30.470  -2.409  1.00  0.00     0.209 S 
HETATM    3  O2  UNL     1     -16.539  31.182  -2.297  1.00  0.00    -0.217 OA
HETATM    4  C1  UNL     1     -15.290  29.046  -1.412  1.00  0.00     0.086 A 
HETATM    5  C2  UNL     1     -16.486  28.440  -1.211  1.00  0.00     0.025 A 
HETATM    6  C3  UNL     1     -16.503  27.304  -0.407  1.00  0.00     0.002 A 
HETATM    7  C4  UNL     1     -15.339  26.824   0.159  1.00  0.00     0.002 A 
HETATM    8  C5  UNL     1     -14.114  27.462  -0.059  1.00  0.00     0.025 A 
HETATM    9  C6  UNL     1     -14.121  28.584  -0.857  1.00  0.00     0.086 A 
HETATM   10  S2  UNL     1     -12.615  29.409  -1.154  1.00  0.00     0.209 S 
HETATM   11  O3  UNL     1     -11.733  29.196   0.068  1.00  0.00    -0.217 OA
HETATM   12  O4  UNL     1     -11.948  28.745  -2.336  1.00  0.00    -0.217 OA
HETATM   13  C7  UNL     1     -12.820  31.105  -1.363  1.00  0.00     0.086 A 
HETATM   14  C8  UNL     1     -11.829  31.971  -0.968  1.00  0.00     0.036 A 
HETATM   15  C9  UNL     1     -12.001  33.350  -1.141  1.00  0.00    -0.035 A 
HETATM   16  C13 UNL     1     -13.159  33.836  -1.703  1.00  0.00     0.013 A 
HETATM   17  C14 UNL     1     -14.141  32.931  -2.091  1.00  0.00     0.026 A 
HETATM   18  C15 UNL     1     -13.981  31.584  -1.926  1.00  0.00     0.086 A 
ENDROOT
BRANCH  15  19
HETATM   19  C10 UNL     1     -10.931  34.259  -0.712  1.00  0.00     0.009 C 
HETATM   20  C11 UNL     1     -11.037  35.553  -0.727  1.00  0.00    -0.000 C 
BRANCH  20  21
HETATM   21  C12 UNL     1      -9.884  36.385  -0.270  1.00  0.00     0.191 C 
BRANCH  21  22
HETATM   22  O5  UNL     1      -9.370  35.887   0.933  1.00  0.00    -0.397 OA
ATOM     23  H5  UNL     1      -8.591  35.368   0.771  1.00  0.00     0.209 HD
ENDBRANCH  21  22
ENDBRANCH  20  21
ENDBRANCH  15  19
TORSDOF 3
ENDMDL
MODEL 4
REMARK VINA RESULT: -6.964070470      2.167      7.097
REMARK  3 active torsions:
REMARK  status: ('A' for Active; 'I' for Inactive)
REMARK    1  A    between atoms: C9_15  and  C10_16 
REMARK    2  A    between atoms: C11_17  and  C12_18 
REMARK    3  A    between atoms: C12_18  and  O5_19 
ROOT
HETATM    1  O1  UNL     1     -10.169  31.232  -2.094  1.00  0.00    -0.217 OA
HETATM    2  S1  UNL     1     -11.031  31.379  -0.859  1.00  0.00     0.209 S 
HETATM    3  O2  UNL     1     -10.078  31.657   0.292  1.00  0.00    -0.217 OA
HETATM    4  C1  UNL     1     -12.038  32.787  -1.047  1.00  0.00     0.086 A 
HETATM    5  C2  UNL     1     -11.556  34.008  -0.704  1.00  0.00     0.025 A 
HETATM    6  C3  UNL     1     -12.401  35.101  -0.874  1.00  0.00     0.002 A 
HETATM    7  C4  UNL     1     -13.677  34.935  -1.372  1.00  0.00     0.002 A 
HETATM    8  C5  UNL     1     -14.157  33.668  -1.720  1.00  0.00     0.025 A 
HETATM    9  C6  UNL     1     -13.305  32.601  -1.543  1.00  0.00     0.086 A 
HETATM   10  S2  UNL     1     -13.864  31.005  -1.964  1.00  0.00     0.209 S 
HETATM   11  O3  UNL     1     -15.371  30.981  -1.751  1.00  0.00    -0.217 OA
HETATM   12  O4  UNL     1     -13.596  30.794  -3.436  1.00  0.00    -0.217 OA
HETATM   13  C7  UNL     1     -13.174  29.779  -0.972  1.00  0.00     0.086 A 
HETATM   14  C8  UNL     1     -13.893  28.645  -0.682  1.00  0.00     0.036 A 
HETATM   15  C9  UNL     1     -13.328  27.651   0.126  1.00  0.00    -0.035 A 
HETATM   16  C13 UNL     1     -12.056  27.810   0.627  1.00  0.00     0.013 A 
HETATM   17  C14 UNL     1     -11.357  28.970   0.313  1.00  0.00     0.026 A 
HETATM   18  C15 UNL     1     -11.902  29.945  -0.474  1.00  0.00     0.086 A 
ENDROOT
BRANCH  15  19
HETATM   19  C10 UNL     1     -14.111  26.446   0.425  1.00  0.00     0.009 C 
HETATM   20  C11 UNL     1     -15.237  26.158  -0.154  1.00  0.00    -0.000 C 
BRANCH  20  21
HETATM   21  C12 UNL     1     -15.953  24.904   0.228  1.00  0.00     0.191 C 
BRANCH  21  22
HETATM   22  O5  UNL     1     -16.126  24.080  -0.890  1.00  0.00    -0.397 OA
ATOM     23  H5  UNL     1     -16.340  24.600  -1.656  1.00  0.00     0.209 HD
ENDBRANCH  21  22
ENDBRANCH  20  21
ENDBRANCH  15  19
TORSDOF 3
ENDMDL
MODEL 5
REMARK VINA RESULT: -6.836719775      1.563      1.778
REMARK  3 active torsions:
REMARK  status: ('A' for Active; 'I' for Inactive)
REMARK    1  A    between atoms: C9_15  and  C10_16 
REMARK    2  A    between atoms: C11_17  and  C12_18 
REMARK    3  A    between atoms: C12_18  and  O5_19 
ROOT
HETATM    1  O1  UNL     1     -15.933  27.353  -2.718  1.00  0.00    -0.217 OA
HETATM    2  S1  UNL     1     -15.832  28.061  -1.383  1.00  0.00     0.209 S 
HETATM    3  O2  UNL     1     -17.099  27.713  -0.621  1.00  0.00    -0.217 OA
HETATM    4  C1  UNL     1     -14.494  27.388  -0.496  1.00  0.00     0.086 A 
HETATM    5  C2  UNL     1     -14.678  26.271   0.252  1.00  0.00     0.025 A 
HETATM    6  C3  UNL     1     -13.577  25.772   0.941  1.00  0.00     0.002 A 
HETATM    7  C4  UNL     1     -12.351  26.400   0.860  1.00  0.00     0.002 A 
HETATM    8  C5  UNL     1     -12.179  27.551   0.085  1.00  0.00     0.025 A 
HETATM    9  C6  UNL     1     -13.282  28.027  -0.589  1.00  0.00     0.086 A 
HETATM   10  S2  UNL     1     -13.111  29.460  -1.567  1.00  0.00     0.209 S 
HETATM   11  O3  UNL     1     -12.022  30.313  -0.934  1.00  0.00    -0.217 OA
HETATM   12  O4  UNL     1     -12.635  29.032  -2.935  1.00  0.00    -0.217 OA
HETATM   13  C7  UNL     1     -14.552  30.401  -1.618  1.00  0.00     0.086 A 
HETATM   14  C8  UNL     1     -14.476  31.767  -1.741  1.00  0.00     0.036 A 
HETATM   15  C9  UNL     1     -15.650  32.528  -1.783  1.00  0.00    -0.035 A 
HETATM   16  C13 UNL     1     -16.876  31.909  -1.701  1.00  0.00     0.013 A 
HETATM   17  C14 UNL     1     -16.916  30.525  -1.578  1.00  0.00     0.026 A 
HETATM   18  C15 UNL     1     -15.774  29.775  -1.536  1.00  0.00     0.086 A 
ENDROOT
BRANCH  15  19
HETATM   19  C10 UNL     1     -15.549  33.986  -1.914  1.00  0.00     0.009 C 
HETATM   20  C11 UNL     1     -16.281  34.689  -2.724  1.00  0.00    -0.000 C 
BRANCH  20  21
HETATM   21  C12 UNL     1     -16.094  36.169  -2.777  1.00  0.00     0.191 C 
BRANCH  21  22
HETATM   22  O5  UNL     1     -14.756  36.502  -2.536  1.00  0.00    -0.397 OA
ATOM     23  H5  UNL     1     -14.680  37.418  -2.296  1.00  0.00     0.209 HD
ENDBRANCH  21  22
ENDBRANCH  20  21
ENDBRANCH  15  19
TORSDOF 3
ENDMDL
