MODEL 1
REMARK VINA RESULT: -7.501088985      0.000      0.000
REMARK  2 active torsions:
REMARK  status: ('A' for Active; 'I' for Inactive)
REMARK    1  A    between atoms: C5_5  and  C6_6 
REMARK    2  A    between atoms: C8_12  and  C9_13 
ROOT
HETATM    1  C6  UNL     1       8.284  54.165   1.532  1.00  0.00     0.053 A 
HETATM    2  N1  UNL     1       9.500  54.509   1.846  1.00  0.00    -0.316 N 
ATOM      3  H1  UNL     1       9.692  55.414   2.275  1.00  0.00     0.170 HD
HETATM    4  C7  UNL     1      10.495  53.646   1.595  1.00  0.00     0.289 A 
HETATM    5  O1  UNL     1      11.742  53.828   1.839  1.00  0.00    -0.260 OA
HETATM    6  S1  UNL     1       9.691  52.322   0.902  1.00  0.00    -0.027 SA
HETATM    7  C8  UNL     1       8.103  52.928   0.961  1.00  0.00     0.037 A 
ENDROOT
BRANCH   7   8
HETATM    8  C9  UNL     1       6.821  52.338   0.512  1.00  0.00     0.034 C 
HETATM    9  C10 UNL     1       6.241  51.372   1.175  1.00  0.00     0.018 C 
HETATM   10  C11 UNL     1       6.664  50.684   2.418  1.00  0.00     0.114 C 
HETATM   11  C13 UNL     1       4.964  50.730   0.813  1.00  0.00     0.253 C 
HETATM   12  C12 UNL     1       5.422  50.079   2.982  1.00  0.00     0.084 C 
HETATM   13  S2  UNL     1       5.278  49.673   4.553  1.00  0.00    -0.065 SA
HETATM   14  N2  UNL     1       4.501  49.965   1.915  1.00  0.00    -0.317 N 
ATOM     15  H2  UNL     1       3.640  49.419   1.935  1.00  0.00     0.169 HD
HETATM   16  O2  UNL     1       4.381  50.841  -0.288  1.00  0.00    -0.268 OA
ENDBRANCH   7   8
BRANCH   1  17
HETATM   17  C5  UNL     1       7.094  55.037   1.745  1.00  0.00     0.039 C 
HETATM   18  C4  UNL     1       7.033  56.311   1.414  1.00  0.00    -0.045 C 
HETATM   19  C3  UNL     1       8.016  57.163   0.796  1.00  0.00     0.021 C 
HETATM   20  C14 UNL     1       5.742  57.071   1.705  1.00  0.00     0.117 C 
HETATM   21  C2  UNL     1       7.575  58.183   0.104  1.00  0.00    -0.025 C 
HETATM   22  C1  UNL     1       8.355  59.190  -0.614  1.00  0.00     0.056 C 
HETATM   23  S3  UNL     1       5.798  58.144   0.205  1.00  0.00    -0.130 SA
ENDBRANCH   1  17
TORSDOF 2
ENDMDL
MODEL 2
REMARK VINA RESULT: -7.493450905      2.411      6.274
REMARK  2 active torsions:
REMARK  status: ('A' for Active; 'I' for Inactive)
REMARK    1  A    between atoms: C5_5  and  C6_6 
REMARK    2  A    between atoms: C8_12  and  C9_13 
ROOT
HETATM    1  C6  UNL     1       7.868  53.632   0.792  1.00  0.00     0.053 A 
HETATM    2  N1  UNL     1       9.153  53.422   0.749  1.00  0.00    -0.316 N 
ATOM      3  H1  UNL     1       9.527  52.566   0.340  1.00  0.00     0.170 HD
HETATM    4  C7  UNL     1       9.972  54.355   1.253  1.00  0.00     0.289 A 
HETATM    5  O1  UNL     1      11.254  54.304   1.292  1.00  0.00    -0.260 OA
HETATM    6  S1  UNL     1       8.902  55.555   1.798  1.00  0.00    -0.027 SA
HETATM    7  C8  UNL     1       7.438  54.810   1.355  1.00  0.00     0.037 A 
ENDROOT
BRANCH   7   8
HETATM    8  C9  UNL     1       6.034  55.252   1.525  1.00  0.00     0.034 C 
HETATM    9  C10 UNL     1       5.708  56.518   1.519  1.00  0.00     0.018 C 
HETATM   10  C11 UNL     1       6.561  57.719   1.358  1.00  0.00     0.114 C 
HETATM   11  C13 UNL     1       4.343  57.052   1.670  1.00  0.00     0.253 C 
HETATM   12  C12 UNL     1       5.642  58.805   0.912  1.00  0.00     0.084 C 
HETATM   13  S2  UNL     1       6.167  60.135   0.131  1.00  0.00    -0.065 SA
HETATM   14  N2  UNL     1       4.337  58.422   1.298  1.00  0.00    -0.317 N 
ATOM     15  H2  UNL     1       3.520  59.033   1.307  1.00  0.00     0.169 HD
HETATM   16  O2  UNL     1       3.347  56.404   2.061  1.00  0.00    -0.268 OA
ENDBRANCH   7   8
BRANCH   1  17
HETATM   17  C5  UNL     1       6.851  52.670   0.281  1.00  0.00     0.039 C 
HETATM   18  C4  UNL     1       6.339  51.681   0.985  1.00  0.00    -0.045 C 
HETATM   19  C3  UNL     1       6.588  51.276   2.345  1.00  0.00     0.021 C 
HETATM   20  C14 UNL     1       5.311  50.775   0.315  1.00  0.00     0.117 C 
HETATM   21  C2  UNL     1       5.625  50.647   2.968  1.00  0.00    -0.025 C 
HETATM   22  C1  UNL     1       5.621  50.133   4.337  1.00  0.00     0.056 C 
HETATM   23  S3  UNL     1       4.276  50.499   1.817  1.00  0.00    -0.130 SA
ENDBRANCH   1  17
TORSDOF 2
ENDMDL
MODEL 3
REMARK VINA RESULT: -7.316873052      6.921      9.283
REMARK  2 active torsions:
REMARK  status: ('A' for Active; 'I' for Inactive)
REMARK    1  A    between atoms: C5_5  and  C6_6 
REMARK    2  A    between atoms: C8_12  and  C9_13 
ROOT
HETATM    1  C6  UNL     1       1.576  47.929   0.815  1.00  0.00     0.053 A 
HETATM    2  N1  UNL     1       0.548  48.726   0.880  1.00  0.00    -0.316 N 
ATOM      3  H1  UNL     1       0.642  49.716   0.655  1.00  0.00     0.170 HD
HETATM    4  C7  UNL     1      -0.635  48.217   1.249  1.00  0.00     0.289 A 
HETATM    5  O1  UNL     1      -1.739  48.861   1.365  1.00  0.00    -0.260 OA
HETATM    6  S1  UNL     1      -0.287  46.577   1.507  1.00  0.00    -0.027 SA
HETATM    7  C8  UNL     1       1.372  46.606   1.129  1.00  0.00     0.037 A 
ENDROOT
BRANCH   7   8
HETATM    8  C9  UNL     1       2.389  45.530   1.140  1.00  0.00     0.034 C 
HETATM    9  C10 UNL     1       2.738  44.927   2.247  1.00  0.00     0.018 C 
HETATM   10  C11 UNL     1       2.263  45.137   3.635  1.00  0.00     0.114 C 
HETATM   11  C13 UNL     1       3.730  43.842   2.356  1.00  0.00     0.253 C 
HETATM   12  C12 UNL     1       2.586  43.876   4.363  1.00  0.00     0.084 C 
HETATM   13  S2  UNL     1       1.825  43.433   5.733  1.00  0.00    -0.065 SA
HETATM   14  N2  UNL     1       3.612  43.233   3.633  1.00  0.00    -0.317 N 
ATOM     15  H2  UNL     1       4.178  42.455   3.970  1.00  0.00     0.169 HD
HETATM   16  O2  UNL     1       4.544  43.509   1.467  1.00  0.00    -0.268 OA
ENDBRANCH   7   8
BRANCH   1  17
HETATM   17  C5  UNL     1       2.948  48.371   0.434  1.00  0.00     0.039 C 
HETATM   18  C4  UNL     1       3.821  48.897   1.268  1.00  0.00    -0.045 C 
HETATM   19  C3  UNL     1       3.716  49.172   2.678  1.00  0.00     0.021 C 
HETATM   20  C14 UNL     1       5.185  49.306   0.720  1.00  0.00     0.117 C 
HETATM   21  C2  UNL     1       4.828  49.186   3.369  1.00  0.00    -0.025 C 
HETATM   22  C1  UNL     1       4.997  49.438   4.799  1.00  0.00     0.056 C 
HETATM   23  S3  UNL     1       6.150  48.853   2.225  1.00  0.00    -0.130 SA
ENDBRANCH   1  17
TORSDOF 2
ENDMDL
MODEL 4
REMARK VINA RESULT: -7.292805099      6.218     10.448
REMARK  2 active torsions:
REMARK  status: ('A' for Active; 'I' for Inactive)
REMARK    1  A    between atoms: C5_5  and  C6_6 
REMARK    2  A    between atoms: C8_12  and  C9_13 
ROOT
HETATM    1  C6  UNL     1       0.864  46.354   1.623  1.00  0.00     0.053 A 
HETATM    2  N1  UNL     1      -0.235  45.907   2.159  1.00  0.00    -0.316 N 
ATOM      3  H1  UNL     1      -0.307  44.938   2.468  1.00  0.00     0.170 HD
HETATM    4  C7  UNL     1      -1.268  46.749   2.299  1.00  0.00     0.289 A 
HETATM    5  O1  UNL     1      -2.416  46.471   2.802  1.00  0.00    -0.260 OA
HETATM    6  S1  UNL     1      -0.672  48.203   1.659  1.00  0.00    -0.027 SA
HETATM    7  C8  UNL     1       0.889  47.673   1.235  1.00  0.00     0.037 A 
ENDROOT
BRANCH   7   8
HETATM    8  C9  UNL     1       2.016  48.387   0.593  1.00  0.00     0.034 C 
HETATM    9  C10 UNL     1       2.889  49.063   1.295  1.00  0.00     0.018 C 
HETATM   10  C11 UNL     1       2.974  49.271   2.760  1.00  0.00     0.114 C 
HETATM   11  C13 UNL     1       4.045  49.795   0.749  1.00  0.00     0.253 C 
HETATM   12  C12 UNL     1       4.393  49.645   3.028  1.00  0.00     0.084 C 
HETATM   13  S2  UNL     1       5.084  49.476   4.493  1.00  0.00    -0.065 SA
HETATM   14  N2  UNL     1       4.926  50.128   1.811  1.00  0.00    -0.317 N 
ATOM     15  H2  UNL     1       5.805  50.636   1.712  1.00  0.00     0.169 HD
HETATM   16  O2  UNL     1       4.224  50.078  -0.456  1.00  0.00    -0.268 OA
ENDBRANCH   7   8
BRANCH   1  17
HETATM   17  C5  UNL     1       2.078  45.519   1.398  1.00  0.00     0.039 C 
HETATM   18  C4  UNL     1       2.982  45.253   2.319  1.00  0.00    -0.045 C 
HETATM   19  C3  UNL     1       3.054  45.655   3.700  1.00  0.00     0.021 C 
HETATM   20  C14 UNL     1       4.175  44.386   1.929  1.00  0.00     0.117 C 
HETATM   21  C2  UNL     1       3.710  44.872   4.518  1.00  0.00    -0.025 C 
HETATM   22  C1  UNL     1       3.931  45.049   5.953  1.00  0.00     0.056 C 
HETATM   23  S3  UNL     1       4.328  43.514   3.547  1.00  0.00    -0.130 SA
ENDBRANCH   1  17
TORSDOF 2
ENDMDL
MODEL 5
REMARK VINA RESULT: -7.197875844      7.197     10.163
REMARK  2 active torsions:
REMARK  status: ('A' for Active; 'I' for Inactive)
REMARK    1  A    between atoms: C5_5  and  C6_6 
REMARK    2  A    between atoms: C8_12  and  C9_13 
ROOT
HETATM    1  C6  UNL     1       0.380  47.895   3.102  1.00  0.00     0.053 A 
HETATM    2  N1  UNL     1      -0.591  48.711   2.806  1.00  0.00    -0.316 N 
ATOM      3  H1  UNL     1      -0.480  49.718   2.925  1.00  0.00     0.170 HD
HETATM    4  C7  UNL     1      -1.739  48.199   2.341  1.00  0.00     0.289 A 
HETATM    5  O1  UNL     1      -2.787  48.859   2.005  1.00  0.00    -0.260 OA
HETATM    6  S1  UNL     1      -1.437  46.529   2.320  1.00  0.00    -0.027 SA
HETATM    7  C8  UNL     1       0.159  46.552   2.912  1.00  0.00     0.037 A 
ENDROOT
BRANCH   7   8
HETATM    8  C9  UNL     1       1.105  45.448   3.193  1.00  0.00     0.034 C 
HETATM    9  C10 UNL     1       0.973  44.683   4.246  1.00  0.00     0.018 C 
HETATM   10  C11 UNL     1      -0.046  44.713   5.321  1.00  0.00     0.114 C 
HETATM   11  C13 UNL     1       1.856  43.558   4.604  1.00  0.00     0.253 C 
HETATM   12  C12 UNL     1      -0.025  43.351   5.929  1.00  0.00     0.084 C 
HETATM   13  S2  UNL     1      -1.279  42.747   6.776  1.00  0.00    -0.065 SA
HETATM   14  N2  UNL     1       1.229  42.780   5.612  1.00  0.00    -0.317 N 
ATOM     15  H2  UNL     1       1.622  41.942   6.040  1.00  0.00     0.169 HD
HETATM   16  O2  UNL     1       2.976  43.324   4.099  1.00  0.00    -0.268 OA
ENDBRANCH   7   8
BRANCH   1  17
HETATM   17  C5  UNL     1       1.699  48.334   3.641  1.00  0.00     0.039 C 
HETATM   18  C4  UNL     1       2.716  48.722   2.899  1.00  0.00    -0.045 C 
HETATM   19  C3  UNL     1       2.841  48.830   1.469  1.00  0.00     0.021 C 
HETATM   20  C14 UNL     1       4.005  49.136   3.604  1.00  0.00     0.117 C 
HETATM   21  C2  UNL     1       3.699  49.704   1.007  1.00  0.00    -0.025 C 
HETATM   22  C1  UNL     1       4.015  50.007  -0.388  1.00  0.00     0.056 C 
HETATM   23  S3  UNL     1       4.460  50.475   2.420  1.00  0.00    -0.130 SA
ENDBRANCH   1  17
TORSDOF 2
ENDMDL
