MODEL 1
REMARK VINA RESULT: -9.623111553      0.000      0.000
REMARK  3 active torsions:
REMARK  status: ('A' for Active; 'I' for Inactive)
REMARK    1  A    between atoms: C2_3  and  C3_4 
REMARK    2  A    between atoms: C3_4  and  C4_5 
REMARK    3  A    between atoms: C13_14  and  O1_15 
ROOT
HETATM    1  N1  UNL     1       9.677  53.974   0.593  1.00  0.00    -0.195 NA
HETATM    2  C1  UNL     1       8.552  53.812   0.918  1.00  0.00     0.090 C 
HETATM    3  C2  UNL     1       7.156  53.570   1.364  1.00  0.00     0.197 C 
HETATM    4  C14 UNL     1       7.185  53.364   2.817  1.00  0.00     0.153 C 
HETATM    5  N2  UNL     1       6.530  53.862   3.756  1.00  0.00    -0.381 N 
ATOM      6  H21 UNL     1       6.551  53.719   4.766  1.00  0.00     0.158 HD
ATOM      7  H22 UNL     1       5.839  54.549   3.455  1.00  0.00     0.158 HD
HETATM    8  O2  UNL     1       8.153  52.402   3.238  1.00  0.00    -0.295 OA
HETATM    9  C15 UNL     1       8.508  51.301   2.491  1.00  0.00     0.091 A 
HETATM   10  C16 UNL     1       9.440  50.357   2.901  1.00  0.00     0.038 A 
HETATM   11  C17 UNL     1       9.736  49.274   2.091  1.00  0.00     0.003 A 
HETATM   12  C18 UNL     1       9.114  49.108   0.859  1.00  0.00     0.001 A 
HETATM   13  C19 UNL     1       8.193  50.033   0.440  1.00  0.00     0.018 A 
HETATM   14  C20 UNL     1       7.896  51.133   1.269  1.00  0.00     0.046 A 
HETATM   15  C21 UNL     1       6.930  52.124   0.854  1.00  0.00     0.197 C 
HETATM   16  O3  UNL     1       5.968  51.868   0.133  1.00  0.00    -0.289 OA
ENDROOT
BRANCH   3  17
HETATM   17  C3  UNL     1       6.168  54.424   0.738  1.00  0.00     0.028 C 
BRANCH  17  18
HETATM   18  C4  UNL     1       6.095  55.853   0.862  1.00  0.00    -0.003 A 
HETATM   19  C5  UNL     1       6.977  56.641   0.151  1.00  0.00     0.026 A 
HETATM   20  C6  UNL     1       6.963  58.011   0.206  1.00  0.00    -0.025 A 
HETATM   21  C7  UNL     1       7.853  58.794  -0.513  1.00  0.00     0.012 A 
HETATM   22  C11 UNL     1       6.037  58.672   0.999  1.00  0.00    -0.023 A 
HETATM   23  C8  UNL     1       7.832  60.174  -0.453  1.00  0.00     0.001 A 
HETATM   24  C9  UNL     1       6.907  60.824   0.338  1.00  0.00     0.001 A 
HETATM   25  C10 UNL     1       6.016  60.044   1.058  1.00  0.00     0.012 A 
HETATM   26  C12 UNL     1       5.167  57.877   1.701  1.00  0.00     0.049 A 
HETATM   27  C13 UNL     1       5.178  56.502   1.651  1.00  0.00     0.076 A 
BRANCH  27  28
HETATM   28  O1  UNL     1       4.239  55.831   2.425  1.00  0.00    -0.360 OA
ATOM     29  H1  UNL     1       3.526  56.273   2.870  1.00  0.00     0.217 HD
ENDBRANCH  27  28
ENDBRANCH  17  18
ENDBRANCH   3  17
TORSDOF 3
ENDMDL
MODEL 2
REMARK VINA RESULT: -9.398518541      9.804     12.183
REMARK  3 active torsions:
REMARK  status: ('A' for Active; 'I' for Inactive)
REMARK    1  A    between atoms: C2_3  and  C3_4 
REMARK    2  A    between atoms: C3_4  and  C4_5 
REMARK    3  A    between atoms: C13_14  and  O1_15 
ROOT
HETATM    1  N1  UNL     1       1.623  48.423   4.153  1.00  0.00    -0.195 NA
HETATM    2  C1  UNL     1       1.533  47.407   3.556  1.00  0.00     0.090 C 
HETATM    3  C2  UNL     1       1.400  46.159   2.761  1.00  0.00     0.197 C 
HETATM    4  C14 UNL     1       1.734  46.483   1.369  1.00  0.00     0.153 C 
HETATM    5  N2  UNL     1       2.504  45.958   0.538  1.00  0.00    -0.381 N 
ATOM      6  H21 UNL     1       2.736  46.184  -0.429  1.00  0.00     0.158 HD
ATOM      7  H22 UNL     1       3.001  45.143   0.897  1.00  0.00     0.158 HD
HETATM    8  O2  UNL     1       1.037  47.624   0.866  1.00  0.00    -0.295 OA
HETATM    9  C15 UNL     1      -0.241  47.967   1.250  1.00  0.00     0.091 A 
HETATM   10  C16 UNL     1      -0.927  49.068   0.755  1.00  0.00     0.038 A 
HETATM   11  C17 UNL     1      -2.213  49.339   1.190  1.00  0.00     0.003 A 
HETATM   12  C18 UNL     1      -2.842  48.524   2.123  1.00  0.00     0.001 A 
HETATM   13  C19 UNL     1      -2.177  47.434   2.621  1.00  0.00     0.018 A 
HETATM   14  C20 UNL     1      -0.868  47.163   2.176  1.00  0.00     0.046 A 
HETATM   15  C21 UNL     1      -0.141  46.022   2.683  1.00  0.00     0.197 C 
HETATM   16  O3  UNL     1      -0.687  44.982   3.045  1.00  0.00    -0.289 OA
ENDROOT
BRANCH   3  17
HETATM   17  C3  UNL     1       1.922  44.974   3.410  1.00  0.00     0.028 C 
BRANCH  17  18
HETATM   18  C4  UNL     1       3.287  44.766   3.805  1.00  0.00    -0.003 A 
HETATM   19  C5  UNL     1       3.711  45.216   5.039  1.00  0.00     0.026 A 
HETATM   20  C6  UNL     1       4.994  45.045   5.493  1.00  0.00    -0.025 A 
HETATM   21  C7  UNL     1       5.410  45.499   6.735  1.00  0.00     0.012 A 
HETATM   22  C11 UNL     1       5.936  44.395   4.709  1.00  0.00    -0.023 A 
HETATM   23  C8  UNL     1       6.704  45.322   7.187  1.00  0.00     0.001 A 
HETATM   24  C9  UNL     1       7.635  44.675   6.400  1.00  0.00     0.001 A 
HETATM   25  C10 UNL     1       7.221  44.219   5.159  1.00  0.00     0.012 A 
HETATM   26  C12 UNL     1       5.501  43.955   3.485  1.00  0.00     0.049 A 
HETATM   27  C13 UNL     1       4.216  44.125   3.024  1.00  0.00     0.076 A 
BRANCH  27  28
HETATM   28  O1  UNL     1       3.925  43.631   1.758  1.00  0.00    -0.360 OA
ATOM     29  H1  UNL     1       4.240  42.791   1.446  1.00  0.00     0.217 HD
ENDBRANCH  27  28
ENDBRANCH  17  18
ENDBRANCH   3  17
TORSDOF 3
ENDMDL
MODEL 3
REMARK VINA RESULT: -9.360644435      6.685      9.440
REMARK  3 active torsions:
REMARK  status: ('A' for Active; 'I' for Inactive)
REMARK    1  A    between atoms: C2_3  and  C3_4 
REMARK    2  A    between atoms: C3_4  and  C4_5 
REMARK    3  A    between atoms: C13_14  and  O1_15 
ROOT
HETATM    1  N1  UNL     1       3.229  49.757   3.560  1.00  0.00    -0.195 NA
HETATM    2  C1  UNL     1       3.498  49.072   2.636  1.00  0.00     0.090 C 
HETATM    3  C2  UNL     1       3.892  48.218   1.486  1.00  0.00     0.197 C 
HETATM    4  C14 UNL     1       5.065  47.438   1.895  1.00  0.00     0.153 C 
HETATM    5  N2  UNL     1       5.336  46.220   1.837  1.00  0.00    -0.381 N 
ATOM      6  H21 UNL     1       6.151  45.678   2.122  1.00  0.00     0.158 HD
ATOM      7  H22 UNL     1       4.594  45.655   1.424  1.00  0.00     0.158 HD
HETATM    8  O2  UNL     1       6.105  48.229   2.473  1.00  0.00    -0.295 OA
HETATM    9  C15 UNL     1       6.376  49.526   2.093  1.00  0.00     0.091 A 
HETATM   10  C16 UNL     1       7.392  50.295   2.643  1.00  0.00     0.038 A 
HETATM   11  C17 UNL     1       7.602  51.590   2.200  1.00  0.00     0.003 A 
HETATM   12  C18 UNL     1       6.808  52.145   1.203  1.00  0.00     0.001 A 
HETATM   13  C19 UNL     1       5.800  51.397   0.652  1.00  0.00     0.018 A 
HETATM   14  C20 UNL     1       5.591  50.081   1.107  1.00  0.00     0.046 A 
HETATM   15  C21 UNL     1       4.536  49.269   0.546  1.00  0.00     0.197 C 
HETATM   16  O3  UNL     1       4.144  49.381  -0.614  1.00  0.00    -0.289 OA
ENDROOT
BRANCH   3  17
HETATM   17  C3  UNL     1       2.783  47.608   0.781  1.00  0.00     0.028 C 
BRANCH  17  18
HETATM   18  C4  UNL     1       1.391  47.808   1.076  1.00  0.00    -0.003 A 
HETATM   19  C5  UNL     1       0.731  46.898   1.875  1.00  0.00     0.026 A 
HETATM   20  C6  UNL     1      -0.592  47.025   2.212  1.00  0.00    -0.025 A 
HETATM   21  C7  UNL     1      -1.247  46.106   3.017  1.00  0.00     0.012 A 
HETATM   22  C11 UNL     1      -1.334  48.103   1.750  1.00  0.00    -0.023 A 
HETATM   23  C8  UNL     1      -2.581  46.242   3.353  1.00  0.00     0.001 A 
HETATM   24  C9  UNL     1      -3.311  47.317   2.889  1.00  0.00     0.001 A 
HETATM   25  C10 UNL     1      -2.659  48.238   2.085  1.00  0.00     0.012 A 
HETATM   26  C12 UNL     1      -0.665  48.999   0.956  1.00  0.00     0.049 A 
HETATM   27  C13 UNL     1       0.662  48.875   0.613  1.00  0.00     0.076 A 
BRANCH  27  28
HETATM   28  O1  UNL     1       1.200  49.859  -0.207  1.00  0.00    -0.360 OA
ATOM     29  H1  UNL     1       0.713  50.627  -0.480  1.00  0.00     0.217 HD
ENDBRANCH  27  28
ENDBRANCH  17  18
ENDBRANCH   3  17
TORSDOF 3
ENDMDL
MODEL 4
REMARK VINA RESULT: -9.276668898      1.869      2.457
REMARK  3 active torsions:
REMARK  status: ('A' for Active; 'I' for Inactive)
REMARK    1  A    between atoms: C2_3  and  C3_4 
REMARK    2  A    between atoms: C3_4  and  C4_5 
REMARK    3  A    between atoms: C13_14  and  O1_15 
ROOT
HETATM    1  N1  UNL     1       9.342  52.379   2.000  1.00  0.00    -0.195 NA
HETATM    2  C1  UNL     1       8.301  52.810   1.643  1.00  0.00     0.090 C 
HETATM    3  C2  UNL     1       6.967  53.326   1.240  1.00  0.00     0.197 C 
HETATM    4  C14 UNL     1       6.237  53.670   2.466  1.00  0.00     0.153 C 
HETATM    5  N2  UNL     1       5.615  54.693   2.822  1.00  0.00    -0.381 N 
ATOM      6  H21 UNL     1       5.107  54.932   3.674  1.00  0.00     0.158 HD
ATOM      7  H22 UNL     1       5.615  55.437   2.125  1.00  0.00     0.158 HD
HETATM    8  O2  UNL     1       6.236  52.628   3.442  1.00  0.00    -0.295 OA
HETATM    9  C15 UNL     1       6.235  51.287   3.125  1.00  0.00     0.091 A 
HETATM   10  C16 UNL     1       6.222  50.270   4.071  1.00  0.00     0.038 A 
HETATM   11  C17 UNL     1       6.216  48.946   3.667  1.00  0.00     0.003 A 
HETATM   12  C18 UNL     1       6.223  48.606   2.319  1.00  0.00     0.001 A 
HETATM   13  C19 UNL     1       6.236  49.600   1.375  1.00  0.00     0.018 A 
HETATM   14  C20 UNL     1       6.243  50.945   1.791  1.00  0.00     0.046 A 
HETATM   15  C21 UNL     1       6.258  52.014   0.819  1.00  0.00     0.197 C 
HETATM   16  O3  UNL     1       5.746  51.920  -0.294  1.00  0.00    -0.289 OA
ENDROOT
BRANCH   3  17
HETATM   17  C3  UNL     1       6.986  54.211   0.094  1.00  0.00     0.028 C 
BRANCH  17  18
HETATM   18  C4  UNL     1       7.380  55.593   0.108  1.00  0.00    -0.003 A 
HETATM   19  C5  UNL     1       6.410  56.574   0.091  1.00  0.00     0.026 A 
HETATM   20  C6  UNL     1       6.705  57.913   0.116  1.00  0.00    -0.025 A 
HETATM   21  C7  UNL     1       5.723  58.891   0.100  1.00  0.00     0.012 A 
HETATM   22  C11 UNL     1       8.024  58.341   0.160  1.00  0.00    -0.023 A 
HETATM   23  C8  UNL     1       6.028  60.239   0.125  1.00  0.00     0.001 A 
HETATM   24  C9  UNL     1       7.342  60.656   0.170  1.00  0.00     0.001 A 
HETATM   25  C10 UNL     1       8.326  59.680   0.187  1.00  0.00     0.012 A 
HETATM   26  C12 UNL     1       8.977  57.355   0.175  1.00  0.00     0.049 A 
HETATM   27  C13 UNL     1       8.687  56.010   0.149  1.00  0.00     0.076 A 
BRANCH  27  28
HETATM   28  O1  UNL     1       9.761  55.129   0.160  1.00  0.00    -0.360 OA
ATOM     29  H1  UNL     1      10.639  55.387   0.418  1.00  0.00     0.217 HD
ENDBRANCH  27  28
ENDBRANCH  17  18
ENDBRANCH   3  17
TORSDOF 3
ENDMDL
MODEL 5
REMARK VINA RESULT: -9.174053050      2.059      7.431
REMARK  3 active torsions:
REMARK  status: ('A' for Active; 'I' for Inactive)
REMARK    1  A    between atoms: C2_3  and  C3_4 
REMARK    2  A    between atoms: C3_4  and  C4_5 
REMARK    3  A    between atoms: C13_14  and  O1_15 
ROOT
HETATM    1  N1  UNL     1       6.763  54.353  -0.369  1.00  0.00    -0.195 NA
HETATM    2  C1  UNL     1       7.496  54.630   0.515  1.00  0.00     0.090 C 
HETATM    3  C2  UNL     1       8.378  55.014   1.647  1.00  0.00     0.197 C 
HETATM    4  C14 UNL     1       7.524  55.243   2.817  1.00  0.00     0.153 C 
HETATM    5  N2  UNL     1       7.570  54.829   3.994  1.00  0.00    -0.381 N 
ATOM      6  H21 UNL     1       6.975  54.988   4.808  1.00  0.00     0.158 HD
ATOM      7  H22 UNL     1       8.357  54.207   4.179  1.00  0.00     0.158 HD
HETATM    8  O2  UNL     1       6.422  56.115   2.558  1.00  0.00    -0.295 OA
HETATM    9  C15 UNL     1       6.473  57.163   1.664  1.00  0.00     0.091 A 
HETATM   10  C16 UNL     1       5.408  58.019   1.418  1.00  0.00     0.038 A 
HETATM   11  C17 UNL     1       5.545  59.053   0.507  1.00  0.00     0.003 A 
HETATM   12  C18 UNL     1       6.738  59.256  -0.176  1.00  0.00     0.001 A 
HETATM   13  C19 UNL     1       7.797  58.417   0.057  1.00  0.00     0.018 A 
HETATM   14  C20 UNL     1       7.652  57.366   0.984  1.00  0.00     0.046 A 
HETATM   15  C21 UNL     1       8.751  56.465   1.250  1.00  0.00     0.197 C 
HETATM   16  O3  UNL     1       9.931  56.800   1.174  1.00  0.00    -0.289 OA
ENDROOT
BRANCH   3  17
HETATM   17  C3  UNL     1       9.605  54.249   1.740  1.00  0.00     0.028 C 
BRANCH  17  18
HETATM   18  C4  UNL     1       9.738  52.843   1.475  1.00  0.00    -0.003 A 
HETATM   19  C5  UNL     1      10.265  52.428   0.269  1.00  0.00     0.026 A 
HETATM   20  C6  UNL     1      10.436  51.107  -0.054  1.00  0.00    -0.025 A 
HETATM   21  C7  UNL     1      10.968  50.700  -1.267  1.00  0.00     0.012 A 
HETATM   22  C11 UNL     1      10.076  50.112   0.844  1.00  0.00    -0.023 A 
HETATM   23  C8  UNL     1      11.138  49.366  -1.586  1.00  0.00     0.001 A 
HETATM   24  C9  UNL     1      10.778  48.383  -0.686  1.00  0.00     0.001 A 
HETATM   25  C10 UNL     1      10.247  48.787   0.528  1.00  0.00     0.012 A 
HETATM   26  C12 UNL     1       9.552  50.539   2.038  1.00  0.00     0.049 A 
HETATM   27  C13 UNL     1       9.377  51.863   2.366  1.00  0.00     0.076 A 
BRANCH  27  28
HETATM   28  O1  UNL     1       8.826  52.141   3.611  1.00  0.00    -0.360 OA
ATOM     29  H1  UNL     1       7.940  52.468   3.722  1.00  0.00     0.217 HD
ENDBRANCH  27  28
ENDBRANCH  17  18
ENDBRANCH   3  17
TORSDOF 3
ENDMDL
