MODEL 1
REMARK VINA RESULT: -8.433801803      0.000      0.000
REMARK  5 active torsions:
REMARK  status: ('A' for Active; 'I' for Inactive)
REMARK    1  A    between atoms: C3_4  and  C4_5 
REMARK    2  A    between atoms: C9_10  and  S1_11 
REMARK    3  A    between atoms: S1_11  and  N2_12 
REMARK    4  A    between atoms: C16_23  and  S2_24 
REMARK    5  A    between atoms: S2_24  and  N3_25 
ROOT
HETATM    1  C4  UNL     1       6.330  54.828   1.193  1.00  0.00    -0.013 A 
HETATM    2  C5  UNL     1       5.216  53.999   1.326  1.00  0.00     0.013 A 
HETATM    3  C6  UNL     1       5.396  52.643   1.476  1.00  0.00     0.002 A 
HETATM    4  C7  UNL     1       6.666  52.142   1.489  1.00  0.00     0.014 A 
HETATM    5  C8  UNL     1       7.782  52.947   1.359  1.00  0.00    -0.002 A 
HETATM    6  C9  UNL     1       9.058  52.440   1.386  1.00  0.00     0.090 A 
HETATM    7  C10 UNL     1      10.146  53.293   1.266  1.00  0.00     0.026 A 
HETATM    8  C11 UNL     1       9.985  54.647   1.119  1.00  0.00     0.002 A 
HETATM    9  C12 UNL     1       8.704  55.156   1.091  1.00  0.00     0.013 A 
HETATM   10  C13 UNL     1       7.607  54.338   1.206  1.00  0.00    -0.013 A 
ENDROOT
BRANCH   1  11
HETATM   11  C3  UNL     1       6.041  56.254   0.990  1.00  0.00    -0.009 A 
HETATM   12  C2  UNL     1       6.982  57.018   0.290  1.00  0.00     0.103 A 
HETATM   13  N1  UNL     1       6.808  58.328   0.102  1.00  0.00    -0.350 N 
HETATM   14  C1  UNL     1       7.802  59.074  -0.633  1.00  0.00     0.156 C 
HETATM   15  C16 UNL     1       5.729  58.931   0.585  1.00  0.00     0.150 A 
HETATM   16  C15 UNL     1       4.751  58.214   1.296  1.00  0.00     0.045 A 
HETATM   17  C14 UNL     1       4.918  56.869   1.495  1.00  0.00     0.017 A 
BRANCH  15  18
HETATM   18  S2  UNL     1       5.523  60.644   0.339  1.00  0.00     0.272 S 
HETATM   19  O3  UNL     1       5.267  61.006  -1.091  1.00  0.00    -0.199 OA
HETATM   20  O4  UNL     1       6.687  61.443   0.917  1.00  0.00    -0.199 OA
BRANCH  18  21
HETATM   21  N3  UNL     1       4.147  61.137   1.301  1.00  0.00    -0.323 N 
ATOM     22  H32 UNL     1       3.188  60.809   1.182  1.00  0.00     0.169 HD
ATOM     23  H31 UNL     1       4.490  61.804   1.992  1.00  0.00     0.169 HD
ENDBRANCH  18  21
ENDBRANCH  15  18
ENDBRANCH   1  11
BRANCH   6  24
HETATM   24  S1  UNL     1       9.276  50.715   1.560  1.00  0.00     0.257 S 
HETATM   25  O1  UNL     1       8.578  50.258   2.803  1.00  0.00    -0.201 OA
HETATM   26  O2  UNL     1      10.754  50.457   1.714  1.00  0.00    -0.201 OA
BRANCH  24  27
HETATM   27  N2  UNL     1       8.744  49.868   0.152  1.00  0.00    -0.324 N 
ATOM     28  H22 UNL     1       8.278  50.320  -0.634  1.00  0.00     0.169 HD
ATOM     29  H21 UNL     1       8.957  48.873   0.215  1.00  0.00     0.169 HD
ENDBRANCH  24  27
ENDBRANCH   6  24
TORSDOF 5
ENDMDL
MODEL 2
REMARK VINA RESULT: -8.227564433      1.234      7.753
REMARK  5 active torsions:
REMARK  status: ('A' for Active; 'I' for Inactive)
REMARK    1  A    between atoms: C3_4  and  C4_5 
REMARK    2  A    between atoms: C9_10  and  S1_11 
REMARK    3  A    between atoms: S1_11  and  N2_12 
REMARK    4  A    between atoms: C16_23  and  S2_24 
REMARK    5  A    between atoms: S2_24  and  N3_25 
ROOT
HETATM    1  C4  UNL     1       5.570  55.772   1.234  1.00  0.00    -0.013 A 
HETATM    2  C5  UNL     1       4.249  55.771   1.683  1.00  0.00     0.013 A 
HETATM    3  C6  UNL     1       3.536  56.948   1.690  1.00  0.00     0.002 A 
HETATM    4  C7  UNL     1       4.144  58.092   1.257  1.00  0.00     0.014 A 
HETATM    5  C8  UNL     1       5.451  58.113   0.809  1.00  0.00    -0.002 A 
HETATM    6  C9  UNL     1       6.053  59.264   0.363  1.00  0.00     0.090 A 
HETATM    7  C10 UNL     1       7.364  59.230  -0.091  1.00  0.00     0.026 A 
HETATM    8  C11 UNL     1       8.088  58.065  -0.109  1.00  0.00     0.002 A 
HETATM    9  C12 UNL     1       7.484  56.910   0.340  1.00  0.00     0.013 A 
HETATM   10  C13 UNL     1       6.188  56.911   0.797  1.00  0.00    -0.013 A 
ENDROOT
BRANCH   1  11
HETATM   11  C3  UNL     1       6.267  54.481   1.306  1.00  0.00    -0.009 A 
HETATM   12  C2  UNL     1       7.655  54.478   1.123  1.00  0.00     0.103 A 
HETATM   13  N1  UNL     1       8.352  53.340   1.134  1.00  0.00    -0.350 N 
HETATM   14  C1  UNL     1       9.783  53.385   0.949  1.00  0.00     0.156 C 
HETATM   15  C16 UNL     1       7.730  52.182   1.318  1.00  0.00     0.150 A 
HETATM   16  C15 UNL     1       6.338  52.125   1.507  1.00  0.00     0.045 A 
HETATM   17  C14 UNL     1       5.612  53.287   1.498  1.00  0.00     0.017 A 
BRANCH  15  18
HETATM   18  S2  UNL     1       8.654  50.704   1.319  1.00  0.00     0.272 S 
HETATM   19  O3  UNL     1       9.984  50.843   1.993  1.00  0.00    -0.199 OA
HETATM   20  O4  UNL     1       8.797  50.124  -0.084  1.00  0.00    -0.199 OA
BRANCH  18  21
HETATM   21  N3  UNL     1       7.708  49.510   2.181  1.00  0.00    -0.323 N 
ATOM     22  H32 UNL     1       8.081  48.769   2.774  1.00  0.00     0.169 HD
ATOM     23  H31 UNL     1       6.727  49.702   1.975  1.00  0.00     0.169 HD
ENDBRANCH  18  21
ENDBRANCH  15  18
ENDBRANCH   1  11
BRANCH   6  24
HETATM   24  S1  UNL     1       5.145  60.757   0.391  1.00  0.00     0.257 S 
HETATM   25  O1  UNL     1       4.785  61.136  -1.012  1.00  0.00    -0.201 OA
HETATM   26  O2  UNL     1       6.042  61.824   0.965  1.00  0.00    -0.201 OA
BRANCH  24  27
HETATM   27  N2  UNL     1       3.762  60.632   1.419  1.00  0.00    -0.324 N 
ATOM     28  H22 UNL     1       3.585  59.835   2.030  1.00  0.00     0.169 HD
ATOM     29  H21 UNL     1       3.160  61.450   1.332  1.00  0.00     0.169 HD
ENDBRANCH  24  27
ENDBRANCH   6  24
TORSDOF 5
ENDMDL
MODEL 3
REMARK VINA RESULT: -8.162217813      1.183      7.930
REMARK  5 active torsions:
REMARK  status: ('A' for Active; 'I' for Inactive)
REMARK    1  A    between atoms: C3_4  and  C4_5 
REMARK    2  A    between atoms: C9_10  and  S1_11 
REMARK    3  A    between atoms: S1_11  and  N2_12 
REMARK    4  A    between atoms: C16_23  and  S2_24 
REMARK    5  A    between atoms: S2_24  and  N3_25 
ROOT
HETATM    1  C4  UNL     1       5.887  55.856   1.252  1.00  0.00    -0.013 A 
HETATM    2  C5  UNL     1       4.563  55.741   1.677  1.00  0.00     0.013 A 
HETATM    3  C6  UNL     1       3.752  56.854   1.671  1.00  0.00     0.002 A 
HETATM    4  C7  UNL     1       4.267  58.046   1.248  1.00  0.00     0.014 A 
HETATM    5  C8  UNL     1       5.575  58.178   0.822  1.00  0.00    -0.002 A 
HETATM    6  C9  UNL     1       6.085  59.376   0.385  1.00  0.00     0.090 A 
HETATM    7  C10 UNL     1       7.402  59.454  -0.046  1.00  0.00     0.026 A 
HETATM    8  C11 UNL     1       8.223  58.355  -0.050  1.00  0.00     0.002 A 
HETATM    9  C12 UNL     1       7.712  57.153   0.390  1.00  0.00     0.013 A 
HETATM   10  C13 UNL     1       6.413  57.044   0.824  1.00  0.00    -0.013 A 
ENDROOT
BRANCH   1  11
HETATM   11  C3  UNL     1       6.690  54.629   1.337  1.00  0.00    -0.009 A 
HETATM   12  C2  UNL     1       6.029  53.437   1.660  1.00  0.00     0.103 A 
HETATM   13  N1  UNL     1       6.697  52.291   1.796  1.00  0.00    -0.350 N 
HETATM   14  C1  UNL     1       5.973  51.085   2.122  1.00  0.00     0.156 C 
HETATM   15  C16 UNL     1       8.013  52.264   1.626  1.00  0.00     0.150 A 
HETATM   16  C15 UNL     1       8.729  53.430   1.301  1.00  0.00     0.045 A 
HETATM   17  C14 UNL     1       8.054  54.614   1.159  1.00  0.00     0.017 A 
BRANCH  15  18
HETATM   18  S2  UNL     1       8.871  50.760   1.817  1.00  0.00     0.272 S 
HETATM   19  O3  UNL     1       8.467  50.004   3.045  1.00  0.00    -0.199 OA
HETATM   20  O4  UNL     1      10.382  50.958   1.756  1.00  0.00    -0.199 OA
BRANCH  18  21
HETATM   21  N3  UNL     1       8.510  49.783   0.410  1.00  0.00    -0.323 N 
ATOM     22  H32 UNL     1       9.107  49.676  -0.410  1.00  0.00     0.169 HD
ATOM     23  H31 UNL     1       7.600  49.352   0.572  1.00  0.00     0.169 HD
ENDBRANCH  18  21
ENDBRANCH  15  18
ENDBRANCH   1  11
BRANCH   6  24
HETATM   24  S1  UNL     1       5.053  60.786   0.396  1.00  0.00     0.257 S 
HETATM   25  O1  UNL     1       4.758  61.186  -1.016  1.00  0.00    -0.201 OA
HETATM   26  O2  UNL     1       5.814  61.902   1.066  1.00  0.00    -0.201 OA
BRANCH  24  27
HETATM   27  N2  UNL     1       3.619  60.509   1.319  1.00  0.00    -0.324 N 
ATOM     28  H22 UNL     1       2.841  61.166   1.362  1.00  0.00     0.169 HD
ATOM     29  H21 UNL     1       3.659  59.613   1.806  1.00  0.00     0.169 HD
ENDBRANCH  24  27
ENDBRANCH   6  24
TORSDOF 5
ENDMDL
MODEL 4
REMARK VINA RESULT: -8.054618213      1.032      2.332
REMARK  5 active torsions:
REMARK  status: ('A' for Active; 'I' for Inactive)
REMARK    1  A    between atoms: C3_4  and  C4_5 
REMARK    2  A    between atoms: C9_10  and  S1_11 
REMARK    3  A    between atoms: S1_11  and  N2_12 
REMARK    4  A    between atoms: C16_23  and  S2_24 
REMARK    5  A    between atoms: S2_24  and  N3_25 
ROOT
HETATM    1  C4  UNL     1       7.769  55.557   0.963  1.00  0.00    -0.013 A 
HETATM    2  C5  UNL     1       9.158  55.695   0.938  1.00  0.00     0.013 A 
HETATM    3  C6  UNL     1       9.951  54.577   1.066  1.00  0.00     0.002 A 
HETATM    4  C7  UNL     1       9.355  53.357   1.216  1.00  0.00     0.014 A 
HETATM    5  C8  UNL     1       7.982  53.201   1.242  1.00  0.00    -0.002 A 
HETATM    6  C9  UNL     1       7.387  51.970   1.380  1.00  0.00     0.090 A 
HETATM    7  C10 UNL     1       6.004  51.865   1.386  1.00  0.00     0.026 A 
HETATM    8  C11 UNL     1       5.199  52.968   1.257  1.00  0.00     0.002 A 
HETATM    9  C12 UNL     1       5.795  54.203   1.120  1.00  0.00     0.013 A 
HETATM   10  C13 UNL     1       7.162  54.341   1.111  1.00  0.00    -0.013 A 
ENDROOT
BRANCH   1  11
HETATM   11  C3  UNL     1       7.005  56.808   0.868  1.00  0.00    -0.009 A 
HETATM   12  C2  UNL     1       7.556  57.854   0.119  1.00  0.00     0.103 A 
HETATM   13  N1  UNL     1       6.941  59.034   0.020  1.00  0.00    -0.350 N 
HETATM   14  C1  UNL     1       7.544  60.082  -0.770  1.00  0.00     0.156 C 
HETATM   15  C16 UNL     1       5.784  59.234   0.640  1.00  0.00     0.150 A 
HETATM   16  C15 UNL     1       5.184  58.219   1.406  1.00  0.00     0.045 A 
HETATM   17  C14 UNL     1       5.806  57.004   1.515  1.00  0.00     0.017 A 
BRANCH  15  18
HETATM   18  S2  UNL     1       4.999  60.784   0.508  1.00  0.00     0.272 S 
HETATM   19  O3  UNL     1       4.644  61.145  -0.901  1.00  0.00    -0.199 OA
HETATM   20  O4  UNL     1       5.808  61.888   1.181  1.00  0.00    -0.199 OA
BRANCH  18  21
HETATM   21  N3  UNL     1       3.529  60.694   1.454  1.00  0.00    -0.323 N 
ATOM     22  H32 UNL     1       3.323  61.243   2.288  1.00  0.00     0.169 HD
ATOM     23  H31 UNL     1       2.932  59.995   1.011  1.00  0.00     0.169 HD
ENDBRANCH  18  21
ENDBRANCH  15  18
ENDBRANCH   1  11
BRANCH   6  24
HETATM   24  S1  UNL     1       8.403  50.559   1.557  1.00  0.00     0.257 S 
HETATM   25  O1  UNL     1       9.679  50.957   2.231  1.00  0.00    -0.201 OA
HETATM   26  O2  UNL     1       8.724  50.053   0.174  1.00  0.00    -0.201 OA
BRANCH  24  27
HETATM   27  N2  UNL     1       7.578  49.293   2.395  1.00  0.00    -0.324 N 
ATOM     28  H22 UNL     1       6.792  49.453   3.025  1.00  0.00     0.169 HD
ATOM     29  H21 UNL     1       7.979  48.381   2.177  1.00  0.00     0.169 HD
ENDBRANCH  24  27
ENDBRANCH   6  24
TORSDOF 5
ENDMDL
MODEL 5
REMARK VINA RESULT: -8.021647032      1.093      1.893
REMARK  5 active torsions:
REMARK  status: ('A' for Active; 'I' for Inactive)
REMARK    1  A    between atoms: C3_4  and  C4_5 
REMARK    2  A    between atoms: C9_10  and  S1_11 
REMARK    3  A    between atoms: S1_11  and  N2_12 
REMARK    4  A    between atoms: C16_23  and  S2_24 
REMARK    5  A    between atoms: S2_24  and  N3_25 
ROOT
HETATM    1  C4  UNL     1       7.230  54.690   1.321  1.00  0.00    -0.013 A 
HETATM    2  C5  UNL     1       6.000  54.105   1.624  1.00  0.00     0.013 A 
HETATM    3  C6  UNL     1       5.941  52.759   1.904  1.00  0.00     0.002 A 
HETATM    4  C7  UNL     1       7.094  52.027   1.877  1.00  0.00     0.014 A 
HETATM    5  C8  UNL     1       8.322  52.588   1.579  1.00  0.00    -0.002 A 
HETATM    6  C9  UNL     1       9.480  51.851   1.565  1.00  0.00     0.090 A 
HETATM    7  C10 UNL     1      10.690  52.465   1.274  1.00  0.00     0.026 A 
HETATM    8  C11 UNL     1      10.767  53.806   0.996  1.00  0.00     0.002 A 
HETATM    9  C12 UNL     1       9.604  54.546   1.009  1.00  0.00     0.013 A 
HETATM   10  C13 UNL     1       8.390  53.967   1.292  1.00  0.00    -0.013 A 
ENDROOT
BRANCH   1  11
HETATM   11  C3  UNL     1       7.189  56.120   0.990  1.00  0.00    -0.009 A 
HETATM   12  C2  UNL     1       5.986  56.805   1.200  1.00  0.00     0.103 A 
HETATM   13  N1  UNL     1       5.860  58.095   0.885  1.00  0.00    -0.350 N 
HETATM   14  C1  UNL     1       4.602  58.762   1.126  1.00  0.00     0.156 C 
HETATM   15  C16 UNL     1       6.885  58.754   0.360  1.00  0.00     0.150 A 
HETATM   16  C15 UNL     1       8.117  58.118   0.127  1.00  0.00     0.045 A 
HETATM   17  C14 UNL     1       8.259  56.793   0.446  1.00  0.00     0.017 A 
BRANCH  15  18
HETATM   18  S2  UNL     1       6.700  60.437  -0.055  1.00  0.00     0.272 S 
HETATM   19  O3  UNL     1       6.806  61.349   1.127  1.00  0.00    -0.199 OA
HETATM   20  O4  UNL     1       5.417  60.688  -0.841  1.00  0.00    -0.199 OA
BRANCH  18  21
HETATM   21  N3  UNL     1       7.977  60.828  -1.186  1.00  0.00    -0.323 N 
ATOM     22  H32 UNL     1       8.952  61.003  -0.946  1.00  0.00     0.169 HD
ATOM     23  H31 UNL     1       7.557  60.844  -2.116  1.00  0.00     0.169 HD
ENDBRANCH  18  21
ENDBRANCH  15  18
ENDBRANCH   1  11
BRANCH   6  24
HETATM   24  S1  UNL     1       9.394  50.139   1.906  1.00  0.00     0.257 S 
HETATM   25  O1  UNL     1       8.637  49.933   3.182  1.00  0.00    -0.201 OA
HETATM   26  O2  UNL     1      10.804  49.641   2.096  1.00  0.00    -0.201 OA
BRANCH  24  27
HETATM   27  N2  UNL     1       8.709  49.267   0.581  1.00  0.00    -0.324 N 
ATOM     28  H22 UNL     1       8.252  49.717  -0.212  1.00  0.00     0.169 HD
ATOM     29  H21 UNL     1       8.821  48.261   0.701  1.00  0.00     0.169 HD
ENDBRANCH  24  27
ENDBRANCH   6  24
TORSDOF 5
ENDMDL
