MODEL 1
REMARK VINA RESULT: -9.988222157      0.000      0.000
REMARK  5 active torsions:
REMARK  status: ('A' for Active; 'I' for Inactive)
REMARK    1  A    between atoms: C3_3  and  C4_4 
REMARK    2  A    between atoms: N2_13  and  O1_14 
REMARK    3  A    between atoms: C15_20  and  N3_21 
REMARK    4  A    between atoms: N3_21  and  S1_23 
REMARK    5  A    between atoms: N4_29  and  O4_30 
ROOT
HETATM    1  C1  UNL     1       9.698  55.154   1.027  1.00  0.00     0.072 C 
HETATM    2  C2  UNL     1       8.474  54.355   1.350  1.00  0.00     0.051 A 
HETATM    3  C3  UNL     1       7.217  54.892   1.346  1.00  0.00     0.036 A 
HETATM    4  C11 UNL     1       6.203  54.008   1.723  1.00  0.00     0.031 A 
HETATM    5  C12 UNL     1       6.445  52.688   2.074  1.00  0.00    -0.006 A 
HETATM    6  C13 UNL     1       5.446  51.825   2.442  1.00  0.00     0.016 A 
HETATM    7  C14 UNL     1       5.700  50.488   2.796  1.00  0.00     0.031 A 
HETATM    8  C15 UNL     1       6.981  50.011   2.779  1.00  0.00     0.044 A 
HETATM    9  C17 UNL     1       7.988  50.896   2.403  1.00  0.00     0.063 A 
HETATM   10  C18 UNL     1       7.725  52.197   2.061  1.00  0.00     0.075 A 
HETATM   11  N4  UNL     1       8.706  53.047   1.697  1.00  0.00    -0.228 N 
ENDROOT
BRANCH   3  12
HETATM   12  C4  UNL     1       6.940  56.252   0.900  1.00  0.00     0.146 A 
HETATM   13  N1  UNL     1       7.634  57.117   0.171  1.00  0.00    -0.338 N 
HETATM   14  C5  UNL     1       7.012  58.313   0.065  1.00  0.00     0.063 A 
ATOM     15  H1  UNL     1       8.533  56.904  -0.261  1.00  0.00     0.167 HD
HETATM   16  C6  UNL     1       7.308  59.505  -0.562  1.00  0.00     0.032 A 
HETATM   17  C10 UNL     1       5.852  58.208   0.769  1.00  0.00     0.091 A 
HETATM   18  C7  UNL     1       6.429  60.582  -0.476  1.00  0.00     0.002 A 
HETATM   19  C8  UNL     1       5.262  60.432   0.248  1.00  0.00     0.002 A 
HETATM   20  C9  UNL     1       4.950  59.251   0.881  1.00  0.00     0.034 A 
HETATM   21  N2  UNL     1       5.825  56.956   1.267  1.00  0.00    -0.205 N 
BRANCH  21  22
HETATM   22  O1  UNL     1       4.807  56.484   2.057  1.00  0.00    -0.281 OA
ATOM     23  H1  UNL     1       4.188  57.020   2.539  1.00  0.00     0.245 HD
ENDBRANCH  21  22
ENDBRANCH   3  12
BRANCH  11  24
HETATM   24  O4  UNL     1       9.985  52.577   1.678  1.00  0.00    -0.282 OA
ATOM     25  H4  UNL     1      10.170  51.731   2.069  1.00  0.00     0.245 HD
ENDBRANCH  11  24
BRANCH   8  26
HETATM   26  N3  UNL     1       7.336  48.700   3.130  1.00  0.00    -0.285 N 
ATOM     27  H3  UNL     1       8.290  48.398   2.933  1.00  0.00     0.178 HD
BRANCH  26  28
HETATM   28  S1  UNL     1       6.290  47.582   3.858  1.00  0.00     0.227 S 
HETATM   29  C16 UNL     1       6.037  46.169   2.832  1.00  0.00     0.186 C 
HETATM   30  O2  UNL     1       6.891  47.050   5.165  1.00  0.00    -0.206 OA
HETATM   31  O3  UNL     1       4.959  48.221   4.227  1.00  0.00    -0.206 OA
ENDBRANCH  26  28
ENDBRANCH   8  26
TORSDOF 5
ENDMDL
MODEL 2
REMARK VINA RESULT: -9.759123657      1.930      2.099
REMARK  5 active torsions:
REMARK  status: ('A' for Active; 'I' for Inactive)
REMARK    1  A    between atoms: C3_3  and  C4_4 
REMARK    2  A    between atoms: N2_13  and  O1_14 
REMARK    3  A    between atoms: C15_20  and  N3_21 
REMARK    4  A    between atoms: N3_21  and  S1_23 
REMARK    5  A    between atoms: N4_29  and  O4_30 
ROOT
HETATM    1  C1  UNL     1       9.624  56.198   0.981  1.00  0.00     0.072 C 
HETATM    2  C2  UNL     1       8.524  55.207   1.202  1.00  0.00     0.051 A 
HETATM    3  C3  UNL     1       7.202  55.559   1.208  1.00  0.00     0.036 A 
HETATM    4  C11 UNL     1       6.320  54.510   1.481  1.00  0.00     0.031 A 
HETATM    5  C12 UNL     1       6.744  53.212   1.726  1.00  0.00    -0.006 A 
HETATM    6  C13 UNL     1       5.875  52.187   1.993  1.00  0.00     0.016 A 
HETATM    7  C14 UNL     1       6.313  50.875   2.240  1.00  0.00     0.031 A 
HETATM    8  C15 UNL     1       7.650  50.588   2.218  1.00  0.00     0.044 A 
HETATM    9  C17 UNL     1       8.524  51.637   1.946  1.00  0.00     0.063 A 
HETATM   10  C18 UNL     1       8.082  52.911   1.708  1.00  0.00     0.075 A 
HETATM   11  N4  UNL     1       8.936  53.920   1.444  1.00  0.00    -0.228 N 
ENDROOT
BRANCH   3  12
HETATM   12  C4  UNL     1       6.739  56.900   0.871  1.00  0.00     0.146 A 
HETATM   13  N1  UNL     1       7.268  57.876   0.143  1.00  0.00    -0.338 N 
HETATM   14  C5  UNL     1       6.511  58.995   0.162  1.00  0.00     0.063 A 
ATOM     15  H1  UNL     1       8.144  57.790  -0.371  1.00  0.00     0.167 HD
HETATM   16  C6  UNL     1       6.617  60.245  -0.412  1.00  0.00     0.032 A 
HETATM   17  C10 UNL     1       5.434  58.721   0.948  1.00  0.00     0.091 A 
HETATM   18  C7  UNL     1       5.636  61.208  -0.190  1.00  0.00     0.002 A 
HETATM   19  C8  UNL     1       4.559  60.886   0.614  1.00  0.00     0.002 A 
HETATM   20  C9  UNL     1       4.435  59.646   1.196  1.00  0.00     0.034 A 
HETATM   21  N2  UNL     1       5.589  57.450   1.368  1.00  0.00    -0.205 N 
BRANCH  21  22
HETATM   22  O1  UNL     1       4.702  56.823   2.206  1.00  0.00    -0.281 OA
ATOM     23  H1  UNL     1       4.838  56.659   3.132  1.00  0.00     0.245 HD
ENDBRANCH  21  22
ENDBRANCH   3  12
BRANCH  11  24
HETATM   24  O4  UNL     1      10.270  53.641   1.421  1.00  0.00    -0.282 OA
ATOM     25  H4  UNL     1      10.712  53.446   2.238  1.00  0.00     0.245 HD
ENDBRANCH  11  24
BRANCH   8  26
HETATM   26  N3  UNL     1       8.184  49.315   2.467  1.00  0.00    -0.285 N 
ATOM     27  H3  UNL     1       7.768  48.766   3.221  1.00  0.00     0.178 HD
BRANCH  26  28
HETATM   28  S1  UNL     1       9.469  48.623   1.606  1.00  0.00     0.227 S 
HETATM   29  C16 UNL     1       9.370  48.995  -0.115  1.00  0.00     0.186 C 
HETATM   30  O2  UNL     1      10.810  49.195   2.083  1.00  0.00    -0.206 OA
HETATM   31  O3  UNL     1       9.543  47.119   1.825  1.00  0.00    -0.206 OA
ENDBRANCH  26  28
ENDBRANCH   8  26
TORSDOF 5
ENDMDL
MODEL 3
REMARK VINA RESULT: -9.522879843      2.328      3.177
REMARK  5 active torsions:
REMARK  status: ('A' for Active; 'I' for Inactive)
REMARK    1  A    between atoms: C3_3  and  C4_4 
REMARK    2  A    between atoms: N2_13  and  O1_14 
REMARK    3  A    between atoms: C15_20  and  N3_21 
REMARK    4  A    between atoms: N3_21  and  S1_23 
REMARK    5  A    between atoms: N4_29  and  O4_30 
ROOT
HETATM    1  C1  UNL     1       4.330  54.775   1.510  1.00  0.00     0.072 C 
HETATM    2  C2  UNL     1       5.751  54.308   1.472  1.00  0.00     0.051 A 
HETATM    3  C3  UNL     1       6.789  55.125   1.118  1.00  0.00     0.036 A 
HETATM    4  C11 UNL     1       8.040  54.500   1.089  1.00  0.00     0.031 A 
HETATM    5  C12 UNL     1       8.221  53.160   1.394  1.00  0.00    -0.006 A 
HETATM    6  C13 UNL     1       9.449  52.553   1.364  1.00  0.00     0.016 A 
HETATM    7  C14 UNL     1       9.624  51.194   1.676  1.00  0.00     0.031 A 
HETATM    8  C15 UNL     1       8.544  50.431   2.024  1.00  0.00     0.044 A 
HETATM    9  C17 UNL     1       7.301  51.057   2.051  1.00  0.00     0.063 A 
HETATM   10  C18 UNL     1       7.146  52.383   1.745  1.00  0.00     0.075 A 
HETATM   11  N4  UNL     1       5.939  52.981   1.774  1.00  0.00    -0.228 N 
ENDROOT
BRANCH   3  12
HETATM   12  C4  UNL     1       6.624  56.552   0.874  1.00  0.00     0.146 A 
HETATM   13  N1  UNL     1       5.618  57.390   1.092  1.00  0.00    -0.338 N 
HETATM   14  C5  UNL     1       5.880  58.634   0.635  1.00  0.00     0.063 A 
ATOM     15  H1  UNL     1       4.747  57.124   1.551  1.00  0.00     0.167 HD
HETATM   16  C6  UNL     1       5.184  59.826   0.618  1.00  0.00     0.032 A 
HETATM   17  C10 UNL     1       7.128  58.593   0.093  1.00  0.00     0.091 A 
HETATM   18  C7  UNL     1       5.753  60.965   0.054  1.00  0.00     0.002 A 
HETATM   19  C8  UNL     1       7.022  60.877  -0.484  1.00  0.00     0.002 A 
HETATM   20  C9  UNL     1       7.732  59.699  -0.477  1.00  0.00     0.034 A 
HETATM   21  N2  UNL     1       7.562  57.326   0.246  1.00  0.00    -0.205 N 
BRANCH  21  22
HETATM   22  O1  UNL     1       8.784  56.892  -0.203  1.00  0.00    -0.281 OA
ATOM     23  H1  UNL     1       9.466  57.443  -0.568  1.00  0.00     0.245 HD
ENDBRANCH  21  22
ENDBRANCH   3  12
BRANCH  11  24
HETATM   24  O4  UNL     1       4.858  52.227   2.121  1.00  0.00    -0.282 OA
ATOM     25  H4  UNL     1       4.947  51.281   2.143  1.00  0.00     0.245 HD
ENDBRANCH  11  24
BRANCH   8  26
HETATM   26  N3  UNL     1       8.616  49.065   2.337  1.00  0.00    -0.285 N 
ATOM     27  H3  UNL     1       8.062  48.729   3.125  1.00  0.00     0.178 HD
BRANCH  26  28
HETATM   28  S1  UNL     1       9.558  47.933   1.497  1.00  0.00     0.227 S 
HETATM   29  C16 UNL     1       9.601  48.281  -0.232  1.00  0.00     0.186 C 
HETATM   30  O2  UNL     1      11.015  47.981   1.972  1.00  0.00    -0.206 OA
HETATM   31  O3  UNL     1       9.074  46.511   1.745  1.00  0.00    -0.206 OA
ENDBRANCH  26  28
ENDBRANCH   8  26
TORSDOF 5
ENDMDL
MODEL 4
REMARK VINA RESULT: -9.477366719      2.631      3.528
REMARK  5 active torsions:
REMARK  status: ('A' for Active; 'I' for Inactive)
REMARK    1  A    between atoms: C3_3  and  C4_4 
REMARK    2  A    between atoms: N2_13  and  O1_14 
REMARK    3  A    between atoms: C15_20  and  N3_21 
REMARK    4  A    between atoms: N3_21  and  S1_23 
REMARK    5  A    between atoms: N4_29  and  O4_30 
ROOT
HETATM    1  C1  UNL     1       5.069  53.871   1.274  1.00  0.00     0.072 C 
HETATM    2  C2  UNL     1       6.561  53.995   1.273  1.00  0.00     0.051 A 
HETATM    3  C3  UNL     1       7.204  55.197   1.167  1.00  0.00     0.036 A 
HETATM    4  C11 UNL     1       8.599  55.112   1.131  1.00  0.00     0.031 A 
HETATM    5  C12 UNL     1       9.283  53.907   1.197  1.00  0.00    -0.006 A 
HETATM    6  C13 UNL     1      10.650  53.830   1.162  1.00  0.00     0.016 A 
HETATM    7  C14 UNL     1      11.336  52.605   1.230  1.00  0.00     0.031 A 
HETATM    8  C15 UNL     1      10.634  51.436   1.336  1.00  0.00     0.044 A 
HETATM    9  C17 UNL     1       9.245  51.527   1.371  1.00  0.00     0.063 A 
HETATM   10  C18 UNL     1       8.591  52.728   1.303  1.00  0.00     0.075 A 
HETATM   11  N4  UNL     1       7.245  52.806   1.339  1.00  0.00    -0.228 N 
ENDROOT
BRANCH   3  12
HETATM   12  C4  UNL     1       6.500  56.473   1.180  1.00  0.00     0.146 A 
HETATM   13  N1  UNL     1       5.399  56.886   1.796  1.00  0.00    -0.338 N 
HETATM   14  C5  UNL     1       5.066  58.151   1.456  1.00  0.00     0.063 A 
ATOM     15  H1  UNL     1       4.866  56.314   2.450  1.00  0.00     0.167 HD
HETATM   16  C6  UNL     1       4.046  59.010   1.806  1.00  0.00     0.032 A 
HETATM   17  C10 UNL     1       6.009  58.574   0.570  1.00  0.00     0.091 A 
HETATM   18  C7  UNL     1       3.984  60.290   1.260  1.00  0.00     0.002 A 
HETATM   19  C8  UNL     1       4.963  60.679   0.366  1.00  0.00     0.002 A 
HETATM   20  C9  UNL     1       5.989  59.836   0.004  1.00  0.00     0.034 A 
HETATM   21  N2  UNL     1       6.868  57.547   0.415  1.00  0.00    -0.205 N 
BRANCH  21  22
HETATM   22  O1  UNL     1       7.949  57.593  -0.428  1.00  0.00    -0.281 OA
ATOM     23  H1  UNL     1       8.856  57.469  -0.171  1.00  0.00     0.245 HD
ENDBRANCH  21  22
ENDBRANCH   3  12
BRANCH  11  24
HETATM   24  O4  UNL     1       6.539  51.645   1.445  1.00  0.00    -0.282 OA
ATOM     25  H4  UNL     1       5.768  51.626   1.999  1.00  0.00     0.245 HD
ENDBRANCH  11  24
BRANCH   8  26
HETATM   26  N3  UNL     1      11.227  50.166   1.394  1.00  0.00    -0.285 N 
ATOM     27  H3  UNL     1      12.246  50.118   1.375  1.00  0.00     0.178 HD
BRANCH  26  28
HETATM   28  S1  UNL     1      10.371  48.707   1.493  1.00  0.00     0.227 S 
HETATM   29  C16 UNL     1       9.851  48.151  -0.098  1.00  0.00     0.186 C 
HETATM   30  O2  UNL     1      11.262  47.593   2.056  1.00  0.00    -0.206 OA
HETATM   31  O3  UNL     1       9.181  48.820   2.436  1.00  0.00    -0.206 OA
ENDBRANCH  26  28
ENDBRANCH   8  26
TORSDOF 5
ENDMDL
MODEL 5
REMARK VINA RESULT: -9.300830172      1.322      1.581
REMARK  5 active torsions:
REMARK  status: ('A' for Active; 'I' for Inactive)
REMARK    1  A    between atoms: C3_3  and  C4_4 
REMARK    2  A    between atoms: N2_13  and  O1_14 
REMARK    3  A    between atoms: C15_20  and  N3_21 
REMARK    4  A    between atoms: N3_21  and  S1_23 
REMARK    5  A    between atoms: N4_29  and  O4_30 
ROOT
HETATM    1  C1  UNL     1       9.333  53.696   1.067  1.00  0.00     0.072 C 
HETATM    2  C2  UNL     1       8.106  53.030   1.607  1.00  0.00     0.051 A 
HETATM    3  C3  UNL     1       6.916  53.686   1.761  1.00  0.00     0.036 A 
HETATM    4  C11 UNL     1       5.895  52.917   2.327  1.00  0.00     0.031 A 
HETATM    5  C12 UNL     1       6.069  51.594   2.706  1.00  0.00    -0.006 A 
HETATM    6  C13 UNL     1       5.065  50.845   3.261  1.00  0.00     0.016 A 
HETATM    7  C14 UNL     1       5.249  49.504   3.641  1.00  0.00     0.031 A 
HETATM    8  C15 UNL     1       6.465  48.906   3.460  1.00  0.00     0.044 A 
HETATM    9  C17 UNL     1       7.478  49.676   2.895  1.00  0.00     0.063 A 
HETATM   10  C18 UNL     1       7.283  50.982   2.530  1.00  0.00     0.075 A 
HETATM   11  N4  UNL     1       8.270  51.720   1.983  1.00  0.00    -0.228 N 
ENDROOT
BRANCH   3  12
HETATM   12  C4  UNL     1       6.698  55.049   1.292  1.00  0.00     0.146 A 
HETATM   13  N1  UNL     1       7.448  55.887   0.589  1.00  0.00    -0.338 N 
HETATM   14  C5  UNL     1       6.865  57.098   0.446  1.00  0.00     0.063 A 
ATOM     15  H1  UNL     1       8.360  55.646   0.202  1.00  0.00     0.167 HD
HETATM   16  C6  UNL     1       7.222  58.276  -0.177  1.00  0.00     0.032 A 
HETATM   17  C10 UNL     1       5.670  57.032   1.094  1.00  0.00     0.091 A 
HETATM   18  C7  UNL     1       6.370  59.378  -0.140  1.00  0.00     0.002 A 
HETATM   19  C8  UNL     1       5.166  59.266   0.529  1.00  0.00     0.002 A 
HETATM   20  C9  UNL     1       4.793  58.100   1.156  1.00  0.00     0.034 A 
HETATM   21  N2  UNL     1       5.586  55.785   1.600  1.00  0.00    -0.205 N 
BRANCH  21  22
HETATM   22  O1  UNL     1       4.520  55.348   2.346  1.00  0.00    -0.281 OA
ATOM     23  H1  UNL     1       4.288  55.659   3.213  1.00  0.00     0.245 HD
ENDBRANCH  21  22
ENDBRANCH   3  12
BRANCH  11  24
HETATM   24  O4  UNL     1       9.485  51.130   1.799  1.00  0.00    -0.282 OA
ATOM     25  H4  UNL     1       9.775  50.473   2.421  1.00  0.00     0.245 HD
ENDBRANCH  11  24
BRANCH   8  26
HETATM   26  N3  UNL     1       6.750  47.581   3.821  1.00  0.00    -0.285 N 
ATOM     27  H3  UNL     1       7.725  47.282   3.797  1.00  0.00     0.178 HD
BRANCH  26  28
HETATM   28  S1  UNL     1       5.589  46.441   4.296  1.00  0.00     0.227 S 
HETATM   29  C16 UNL     1       6.105  45.546   5.726  1.00  0.00     0.186 C 
HETATM   30  O2  UNL     1       4.276  47.133   4.684  1.00  0.00    -0.206 OA
HETATM   31  O3  UNL     1       5.248  45.485   3.160  1.00  0.00    -0.206 OA
ENDBRANCH  26  28
ENDBRANCH   8  26
TORSDOF 5
ENDMDL
