MODEL 1
REMARK VINA RESULT: -8.862613027      0.000      0.000
REMARK  4 active torsions:
REMARK  status: ('A' for Active; 'I' for Inactive)
REMARK    1  A    between atoms: O1_2  and  N1_3 
REMARK    2  A    between atoms: C6_9  and  S1_10 
REMARK    3  A    between atoms: S1_10  and  N2_13 
REMARK    4  A    between atoms: N2_13  and  C7_15 
ROOT
HETATM    1  N1  UNL     1      13.284  51.407   0.760  1.00  0.00    -0.268 N 
ATOM      2  H1  UNL     1      13.714  52.294   0.498  1.00  0.00     0.194 HD
HETATM    3  C2  UNL     1      11.998  51.364   1.041  1.00  0.00     0.081 A 
HETATM    4  C3  UNL     1      11.176  52.577   0.981  1.00  0.00     0.104 A 
HETATM    5  C4  UNL     1       9.765  52.341   1.325  1.00  0.00    -0.017 A 
HETATM    6  C5  UNL     1       8.892  53.449   1.296  1.00  0.00     0.035 A 
HETATM    7  C6  UNL     1       7.565  53.350   1.596  1.00  0.00     0.080 A 
HETATM    8  C15 UNL     1       7.098  52.085   1.939  1.00  0.00     0.028 A 
HETATM    9  C16 UNL     1       7.927  50.992   1.976  1.00  0.00     0.039 A 
HETATM   10  C17 UNL     1       9.292  51.102   1.665  1.00  0.00     0.084 A 
HETATM   11  O4  UNL     1      10.086  49.972   1.715  1.00  0.00    -0.297 OA
HETATM   12  C18 UNL     1      11.424  50.079   1.410  1.00  0.00     0.167 A 
HETATM   13  S2  UNL     1      12.423  48.760   1.454  1.00  0.00    -0.050 SA
ENDROOT
BRANCH   7  14
HETATM   14  S1  UNL     1       6.466  54.699   1.571  1.00  0.00     0.263 S 
HETATM   15  O2  UNL     1       6.542  55.404   2.913  1.00  0.00    -0.200 OA
HETATM   16  O3  UNL     1       5.027  54.204   1.477  1.00  0.00    -0.200 OA
BRANCH  14  17
HETATM   17  N2  UNL     1       6.804  55.848   0.352  1.00  0.00    -0.280 N 
ATOM     18  H2  UNL     1       7.361  55.534  -0.443  1.00  0.00     0.179 HD
BRANCH  17  19
HETATM   19  C7  UNL     1       6.377  57.200   0.352  1.00  0.00     0.048 A 
HETATM   20  C8  UNL     1       5.090  57.520   0.718  1.00  0.00     0.031 A 
HETATM   21  C9  UNL     1       4.662  58.842   0.733  1.00  0.00     0.009 A 
HETATM   22  C10 UNL     1       5.506  59.855   0.384  1.00  0.00    -0.061 A 
HETATM   23  C11 UNL     1       5.088  61.296   0.385  1.00  0.00     0.048 C 
HETATM   24  C12 UNL     1       6.793  59.564   0.015  1.00  0.00     0.015 A 
HETATM   25  C13 UNL     1       7.199  58.252   0.006  1.00  0.00    -0.034 A 
HETATM   26  C14 UNL     1       8.589  57.946  -0.393  1.00  0.00     0.050 C 
ENDBRANCH  17  19
ENDBRANCH  14  17
ENDBRANCH   7  14
BRANCH   1  27
HETATM   27  O1  UNL     1      14.053  50.275   0.816  1.00  0.00    -0.285 OA
HETATM   28  C1  UNL     1      15.461  50.301   0.617  1.00  0.00     0.237 C 
ENDBRANCH   1  27
TORSDOF 4
ENDMDL
MODEL 2
REMARK VINA RESULT: -8.807505150      1.258      1.871
REMARK  4 active torsions:
REMARK  status: ('A' for Active; 'I' for Inactive)
REMARK    1  A    between atoms: O1_2  and  N1_3 
REMARK    2  A    between atoms: C6_9  and  S1_10 
REMARK    3  A    between atoms: S1_10  and  N2_13 
REMARK    4  A    between atoms: N2_13  and  C7_15 
ROOT
HETATM    1  N1  UNL     1      13.288  53.467   0.256  1.00  0.00    -0.268 N 
ATOM      2  H1  UNL     1      13.405  54.443  -0.015  1.00  0.00     0.194 HD
HETATM    3  C2  UNL     1      12.103  53.033   0.630  1.00  0.00     0.081 A 
HETATM    4  C3  UNL     1      10.949  53.937   0.663  1.00  0.00     0.104 A 
HETATM    5  C4  UNL     1       9.707  53.281   1.105  1.00  0.00    -0.017 A 
HETATM    6  C5  UNL     1       8.540  54.070   1.170  1.00  0.00     0.035 A 
HETATM    7  C6  UNL     1       7.333  53.570   1.566  1.00  0.00     0.080 A 
HETATM    8  C15 UNL     1       7.302  52.222   1.910  1.00  0.00     0.028 A 
HETATM    9  C16 UNL     1       8.424  51.434   1.856  1.00  0.00     0.039 A 
HETATM   10  C17 UNL     1       9.663  51.956   1.447  1.00  0.00     0.084 A 
HETATM   11  O4  UNL     1      10.764  51.122   1.408  1.00  0.00    -0.297 OA
HETATM   12  C18 UNL     1      11.978  51.634   1.008  1.00  0.00     0.167 A 
HETATM   13  S2  UNL     1      13.330  50.682   0.943  1.00  0.00    -0.050 SA
ENDROOT
BRANCH   7  14
HETATM   14  S1  UNL     1       5.878  54.519   1.658  1.00  0.00     0.263 S 
HETATM   15  O2  UNL     1       5.934  55.362   2.919  1.00  0.00    -0.200 OA
HETATM   16  O3  UNL     1       4.669  53.611   1.854  1.00  0.00    -0.200 OA
BRANCH  14  17
HETATM   17  N2  UNL     1       5.650  55.571   0.330  1.00  0.00    -0.280 N 
ATOM     18  H2  UNL     1       5.326  55.157  -0.543  1.00  0.00     0.179 HD
BRANCH  17  19
HETATM   19  C7  UNL     1       5.875  56.971   0.341  1.00  0.00     0.048 A 
HETATM   20  C8  UNL     1       7.089  57.482  -0.056  1.00  0.00     0.031 A 
HETATM   21  C9  UNL     1       7.319  58.852  -0.061  1.00  0.00     0.009 A 
HETATM   22  C10 UNL     1       6.346  59.726   0.328  1.00  0.00    -0.061 A 
HETATM   23  C11 UNL     1       6.549  61.212   0.339  1.00  0.00     0.048 C 
HETATM   24  C12 UNL     1       5.127  59.244   0.728  1.00  0.00     0.015 A 
HETATM   25  C13 UNL     1       4.919  57.887   0.727  1.00  0.00    -0.034 A 
HETATM   26  C14 UNL     1       3.600  57.376   1.159  1.00  0.00     0.050 C 
ENDBRANCH  17  19
ENDBRANCH  14  17
ENDBRANCH   7  14
BRANCH   1  27
HETATM   27  O1  UNL     1      14.366  52.623   0.225  1.00  0.00    -0.285 OA
HETATM   28  C1  UNL     1      15.461  52.820  -0.662  1.00  0.00     0.237 C 
ENDBRANCH   1  27
TORSDOF 4
ENDMDL
MODEL 3
REMARK VINA RESULT: -8.800004281      1.471      2.087
REMARK  4 active torsions:
REMARK  status: ('A' for Active; 'I' for Inactive)
REMARK    1  A    between atoms: O1_2  and  N1_3 
REMARK    2  A    between atoms: C6_9  and  S1_10 
REMARK    3  A    between atoms: S1_10  and  N2_13 
REMARK    4  A    between atoms: N2_13  and  C7_15 
ROOT
HETATM    1  N1  UNL     1      11.045  48.443   1.761  1.00  0.00    -0.268 N 
ATOM      2  H1  UNL     1      10.228  47.905   2.049  1.00  0.00     0.194 HD
HETATM    3  C2  UNL     1      10.932  49.739   1.555  1.00  0.00     0.081 A 
HETATM    4  C3  UNL     1       9.645  50.418   1.735  1.00  0.00     0.104 A 
HETATM    5  C4  UNL     1       9.707  51.863   1.462  1.00  0.00    -0.017 A 
HETATM    6  C5  UNL     1       8.516  52.606   1.608  1.00  0.00     0.035 A 
HETATM    7  C6  UNL     1       8.454  53.950   1.381  1.00  0.00     0.080 A 
HETATM    8  C15 UNL     1       9.637  54.571   0.993  1.00  0.00     0.028 A 
HETATM    9  C16 UNL     1      10.808  53.870   0.844  1.00  0.00     0.039 A 
HETATM   10  C17 UNL     1      10.864  52.486   1.079  1.00  0.00     0.084 A 
HETATM   11  O4  UNL     1      12.067  51.825   0.916  1.00  0.00    -0.297 OA
HETATM   12  C18 UNL     1      12.122  50.469   1.147  1.00  0.00     0.167 A 
HETATM   13  S2  UNL     1      13.535  49.625   0.967  1.00  0.00    -0.050 SA
ENDROOT
BRANCH   7  14
HETATM   14  S1  UNL     1       7.000  54.891   1.550  1.00  0.00     0.263 S 
HETATM   15  O2  UNL     1       7.136  55.766   2.783  1.00  0.00    -0.200 OA
HETATM   16  O3  UNL     1       5.815  53.981   1.851  1.00  0.00    -0.200 OA
BRANCH  14  17
HETATM   17  N2  UNL     1       6.674  55.909   0.216  1.00  0.00    -0.280 N 
ATOM     18  H2  UNL     1       6.769  55.503  -0.715  1.00  0.00     0.179 HD
BRANCH  17  19
HETATM   19  C7  UNL     1       6.281  57.269   0.294  1.00  0.00     0.048 A 
HETATM   20  C8  UNL     1       5.014  57.603   0.714  1.00  0.00     0.031 A 
HETATM   21  C9  UNL     1       4.621  58.932   0.805  1.00  0.00     0.009 A 
HETATM   22  C10 UNL     1       5.480  59.941   0.479  1.00  0.00    -0.061 A 
HETATM   23  C11 UNL     1       5.099  61.389   0.562  1.00  0.00     0.048 C 
HETATM   24  C12 UNL     1       6.748  59.636   0.058  1.00  0.00     0.015 A 
HETATM   25  C13 UNL     1       7.119  58.317  -0.027  1.00  0.00    -0.034 A 
HETATM   26  C14 UNL     1       8.489  57.997  -0.482  1.00  0.00     0.050 C 
ENDBRANCH  17  19
ENDBRANCH  14  17
ENDBRANCH   7  14
BRANCH   1  27
HETATM   27  O1  UNL     1      12.246  47.808   1.594  1.00  0.00    -0.285 OA
HETATM   28  C1  UNL     1      12.461  46.463   2.008  1.00  0.00     0.237 C 
ENDBRANCH   1  27
TORSDOF 4
ENDMDL
MODEL 4
REMARK VINA RESULT: -8.675582539      1.496      2.422
REMARK  4 active torsions:
REMARK  status: ('A' for Active; 'I' for Inactive)
REMARK    1  A    between atoms: O1_2  and  N1_3 
REMARK    2  A    between atoms: C6_9  and  S1_10 
REMARK    3  A    between atoms: S1_10  and  N2_13 
REMARK    4  A    between atoms: N2_13  and  C7_15 
ROOT
HETATM    1  N1  UNL     1      11.620  48.598   1.667  1.00  0.00    -0.268 N 
ATOM      2  H1  UNL     1      10.876  47.973   1.978  1.00  0.00     0.194 HD
HETATM    3  C2  UNL     1      11.363  49.878   1.492  1.00  0.00     0.081 A 
HETATM    4  C3  UNL     1      10.021  50.415   1.737  1.00  0.00     0.104 A 
HETATM    5  C4  UNL     1       9.919  51.863   1.491  1.00  0.00    -0.017 A 
HETATM    6  C5  UNL     1       8.664  52.473   1.699  1.00  0.00     0.035 A 
HETATM    7  C6  UNL     1       8.452  53.807   1.502  1.00  0.00     0.080 A 
HETATM    8  C15 UNL     1       9.546  54.554   1.078  1.00  0.00     0.028 A 
HETATM    9  C16 UNL     1      10.776  53.983   0.868  1.00  0.00     0.039 A 
HETATM   10  C17 UNL     1      10.987  52.610   1.072  1.00  0.00     0.084 A 
HETATM   11  O4  UNL     1      12.245  52.082   0.848  1.00  0.00    -0.297 OA
HETATM   12  C18 UNL     1      12.451  50.736   1.049  1.00  0.00     0.167 A 
HETATM   13  S2  UNL     1      13.935  50.048   0.795  1.00  0.00    -0.050 SA
ENDROOT
BRANCH   7  14
HETATM   14  S1  UNL     1       6.916  54.587   1.749  1.00  0.00     0.263 S 
HETATM   15  O2  UNL     1       7.033  55.505   2.951  1.00  0.00    -0.200 OA
HETATM   16  O3  UNL     1       5.862  53.561   2.148  1.00  0.00    -0.200 OA
BRANCH  14  17
HETATM   17  N2  UNL     1       6.393  55.524   0.419  1.00  0.00    -0.280 N 
ATOM     18  H2  UNL     1       6.064  55.022  -0.405  1.00  0.00     0.179 HD
BRANCH  17  19
HETATM   19  C7  UNL     1       6.378  56.941   0.365  1.00  0.00     0.048 A 
HETATM   20  C8  UNL     1       7.471  57.629  -0.111  1.00  0.00     0.031 A 
HETATM   21  C9  UNL     1       7.465  59.016  -0.180  1.00  0.00     0.009 A 
HETATM   22  C10 UNL     1       6.377  59.733   0.223  1.00  0.00    -0.061 A 
HETATM   23  C11 UNL     1       6.326  61.231   0.168  1.00  0.00     0.048 C 
HETATM   24  C12 UNL     1       5.274  59.073   0.702  1.00  0.00     0.015 A 
HETATM   25  C13 UNL     1       5.298  57.701   0.763  1.00  0.00    -0.034 A 
HETATM   26  C14 UNL     1       4.105  56.998   1.279  1.00  0.00     0.050 C 
ENDBRANCH  17  19
ENDBRANCH  14  17
ENDBRANCH   7  14
BRANCH   1  27
HETATM   27  O1  UNL     1      12.872  48.096   1.439  1.00  0.00    -0.285 OA
HETATM   28  C1  UNL     1      13.191  46.724   1.642  1.00  0.00     0.237 C 
ENDBRANCH   1  27
TORSDOF 4
ENDMDL
MODEL 5
REMARK VINA RESULT: -8.611396117      3.158      5.085
REMARK  4 active torsions:
REMARK  status: ('A' for Active; 'I' for Inactive)
REMARK    1  A    between atoms: O1_2  and  N1_3 
REMARK    2  A    between atoms: C6_9  and  S1_10 
REMARK    3  A    between atoms: S1_10  and  N2_13 
REMARK    4  A    between atoms: N2_13  and  C7_15 
ROOT
HETATM    1  N1  UNL     1       4.257  49.383   4.172  1.00  0.00    -0.268 N 
ATOM      2  H1  UNL     1       3.457  49.988   4.358  1.00  0.00     0.194 HD
HETATM    3  C2  UNL     1       5.349  49.892   3.641  1.00  0.00     0.081 A 
HETATM    4  C3  UNL     1       5.429  51.320   3.315  1.00  0.00     0.104 A 
HETATM    5  C4  UNL     1       6.723  51.711   2.731  1.00  0.00    -0.017 A 
HETATM    6  C5  UNL     1       6.898  53.067   2.383  1.00  0.00     0.035 A 
HETATM    7  C6  UNL     1       8.053  53.544   1.835  1.00  0.00     0.080 A 
HETATM    8  C15 UNL     1       9.072  52.619   1.630  1.00  0.00     0.028 A 
HETATM    9  C16 UNL     1       8.926  51.295   1.960  1.00  0.00     0.039 A 
HETATM   10  C17 UNL     1       7.733  50.812   2.524  1.00  0.00     0.084 A 
HETATM   11  O4  UNL     1       7.635  49.469   2.840  1.00  0.00    -0.297 OA
HETATM   12  C18 UNL     1       6.467  48.995   3.392  1.00  0.00     0.167 A 
HETATM   13  S2  UNL     1       6.292  47.398   3.790  1.00  0.00    -0.050 SA
ENDROOT
BRANCH   7  14
HETATM   14  S1  UNL     1       8.297  55.209   1.394  1.00  0.00     0.263 S 
HETATM   15  O2  UNL     1       9.641  55.329   0.700  1.00  0.00    -0.200 OA
HETATM   16  O3  UNL     1       8.429  56.072   2.643  1.00  0.00    -0.200 OA
BRANCH  14  17
HETATM   17  N2  UNL     1       7.102  55.829   0.339  1.00  0.00    -0.280 N 
ATOM     18  H2  UNL     1       6.706  55.187  -0.347  1.00  0.00     0.179 HD
BRANCH  17  19
HETATM   19  C7  UNL     1       6.616  57.162   0.338  1.00  0.00     0.048 A 
HETATM   20  C8  UNL     1       7.395  58.184  -0.153  1.00  0.00     0.031 A 
HETATM   21  C9  UNL     1       6.926  59.492  -0.170  1.00  0.00     0.009 A 
HETATM   22  C10 UNL     1       5.682  59.796   0.299  1.00  0.00    -0.061 A 
HETATM   23  C11 UNL     1       5.135  61.192   0.301  1.00  0.00     0.048 C 
HETATM   24  C12 UNL     1       4.885  58.796   0.794  1.00  0.00     0.015 A 
HETATM   25  C13 UNL     1       5.365  57.510   0.803  1.00  0.00    -0.034 A 
HETATM   26  C14 UNL     1       4.499  56.437   1.338  1.00  0.00     0.050 C 
ENDBRANCH  17  19
ENDBRANCH  14  17
ENDBRANCH   7  14
BRANCH   1  27
HETATM   27  O1  UNL     1       4.180  48.050   4.477  1.00  0.00    -0.285 OA
HETATM   28  C1  UNL     1       3.313  47.549   5.487  1.00  0.00     0.237 C 
ENDBRANCH   1  27
TORSDOF 4
ENDMDL
