MODEL 1
REMARK VINA RESULT: -8.331806784      0.000      0.000
REMARK  5 active torsions:
REMARK  status: ('A' for Active; 'I' for Inactive)
REMARK    1  A    between atoms: C5_5  and  C6_6 
REMARK    2  A    between atoms: N1_7  and  N2_8 
REMARK    3  A    between atoms: N1_7  and  C14_23 
REMARK    4  A    between atoms: N2_8  and  C7_10 
REMARK    5  A    between atoms: C7_10  and  C8_11 
ROOT
HETATM    1  C6  UNL     1      10.444  55.172   0.644  1.00  0.00     0.128 C 
HETATM    2  N1  UNL     1       9.436  55.827   0.945  1.00  0.00    -0.267 N 
ENDROOT
BRANCH   2   3
HETATM    3  N2  UNL     1       9.427  57.227   0.574  1.00  0.00    -0.304 N 
ATOM      4  H2  UNL     1      10.049  57.878   1.051  1.00  0.00     0.186 HD
BRANCH   3   5
HETATM    5  C7  UNL     1       8.565  57.701  -0.441  1.00  0.00     0.126 C 
BRANCH   5   6
HETATM    6  C8  UNL     1       7.473  58.391  -0.063  1.00  0.00     0.025 A 
HETATM    7  C9  UNL     1       6.297  57.875   0.411  1.00  0.00     0.040 A 
HETATM    8  C10 UNL     1       5.324  58.744   0.734  1.00  0.00     0.067 A 
HETATM    9  C11 UNL     1       5.575  60.071   0.568  1.00  0.00     0.087 A 
HETATM   10  C13 UNL     1       3.965  58.432   1.264  1.00  0.00     0.255 A 
HETATM   11  S1  UNL     1       7.195  60.065  -0.046  1.00  0.00    -0.070 SA
HETATM   12  N3  UNL     1       4.739  61.040   0.835  1.00  0.00    -0.367 N 
HETATM   13  C12 UNL     1       3.414  60.896   1.347  1.00  0.00     0.247 A 
ATOM     14  H3  UNL     1       5.065  61.990   0.661  1.00  0.00     0.161 HD
HETATM   15  N4  UNL     1       3.090  59.510   1.537  1.00  0.00    -0.341 N 
ATOM     16  H4  UNL     1       2.161  59.287   1.895  1.00  0.00     0.164 HD
HETATM   17  O1  UNL     1       3.583  57.255   1.471  1.00  0.00    -0.268 OA
ENDBRANCH   5   6
ENDBRANCH   3   5
ENDBRANCH   2   3
BRANCH   2  18
HETATM   18  C14 UNL     1       8.268  55.440   1.599  1.00  0.00     0.056 A 
HETATM   19  C15 UNL     1       7.948  55.878   2.884  1.00  0.00     0.031 A 
HETATM   20  C16 UNL     1       6.769  55.493   3.447  1.00  0.00     0.002 A 
HETATM   21  C17 UNL     1       5.870  54.688   2.805  1.00  0.00     0.000 A 
HETATM   22  C18 UNL     1       6.168  54.243   1.527  1.00  0.00     0.002 A 
HETATM   23  C19 UNL     1       7.355  54.624   0.946  1.00  0.00     0.031 A 
ENDBRANCH   2  18
BRANCH   1  24
HETATM   24  C5  UNL     1      10.854  53.808   0.816  1.00  0.00    -0.019 A 
HETATM   25  C4  UNL     1      10.057  52.711   0.955  1.00  0.00     0.013 A 
HETATM   26  C3  UNL     1      10.555  51.406   1.119  1.00  0.00     0.007 A 
HETATM   27  C2  UNL     1      11.891  51.194   1.143  1.00  0.00    -0.062 A 
HETATM   28  C1  UNL     1      12.377  49.803   1.319  1.00  0.00     0.048 C 
HETATM   29  C21 UNL     1      12.730  52.265   1.007  1.00  0.00     0.007 A 
HETATM   30  C20 UNL     1      12.233  53.535   0.847  1.00  0.00     0.013 A 
ENDBRANCH   1  24
TORSDOF 5
ENDMDL
MODEL 2
REMARK VINA RESULT: -8.323985862      2.465      3.278
REMARK  5 active torsions:
REMARK  status: ('A' for Active; 'I' for Inactive)
REMARK    1  A    between atoms: C5_5  and  C6_6 
REMARK    2  A    between atoms: N1_7  and  N2_8 
REMARK    3  A    between atoms: N1_7  and  C14_23 
REMARK    4  A    between atoms: N2_8  and  C7_10 
REMARK    5  A    between atoms: C7_10  and  C8_11 
ROOT
HETATM    1  C6  UNL     1       8.853  53.793   0.984  1.00  0.00     0.128 C 
HETATM    2  N1  UNL     1       7.857  53.348   1.571  1.00  0.00    -0.267 N 
ENDROOT
BRANCH   2   3
HETATM    3  N2  UNL     1       6.743  54.255   1.757  1.00  0.00    -0.304 N 
ATOM      4  H2  UNL     1       6.456  54.513   2.700  1.00  0.00     0.186 HD
BRANCH   3   5
HETATM    5  C7  UNL     1       6.049  54.785   0.646  1.00  0.00     0.126 C 
BRANCH   5   6
HETATM    6  C8  UNL     1       5.863  56.118   0.602  1.00  0.00     0.025 A 
HETATM    7  C9  UNL     1       6.715  57.050   0.074  1.00  0.00     0.040 A 
HETATM    8  C10 UNL     1       6.337  58.338   0.132  1.00  0.00     0.067 A 
HETATM    9  C11 UNL     1       5.140  58.625   0.711  1.00  0.00     0.087 A 
HETATM   10  C13 UNL     1       7.084  59.529  -0.368  1.00  0.00     0.255 A 
HETATM   11  S1  UNL     1       4.565  57.055   1.165  1.00  0.00    -0.070 SA
HETATM   12  N3  UNL     1       4.629  59.821   0.845  1.00  0.00    -0.367 N 
HETATM   13  C12 UNL     1       5.223  61.047   0.416  1.00  0.00     0.247 A 
ATOM     14  H3  UNL     1       3.719  59.885   1.301  1.00  0.00     0.161 HD
HETATM   15  N4  UNL     1       6.497  60.806  -0.200  1.00  0.00    -0.341 N 
ATOM     16  H4  UNL     1       7.017  61.614  -0.542  1.00  0.00     0.164 HD
HETATM   17  O1  UNL     1       8.204  59.429  -0.927  1.00  0.00    -0.268 OA
ENDBRANCH   5   6
ENDBRANCH   3   5
ENDBRANCH   2   3
BRANCH   2  18
HETATM   18  C14 UNL     1       7.610  52.083   2.102  1.00  0.00     0.056 A 
HETATM   19  C15 UNL     1       8.634  51.209   2.467  1.00  0.00     0.031 A 
HETATM   20  C16 UNL     1       8.320  50.004   3.018  1.00  0.00     0.002 A 
HETATM   21  C17 UNL     1       7.031  49.604   3.236  1.00  0.00     0.000 A 
HETATM   22  C18 UNL     1       5.999  50.456   2.881  1.00  0.00     0.002 A 
HETATM   23  C19 UNL     1       6.301  51.677   2.323  1.00  0.00     0.031 A 
ENDBRANCH   2  18
BRANCH   1  24
HETATM   24  C5  UNL     1      10.128  53.257   0.603  1.00  0.00    -0.019 A 
HETATM   25  C4  UNL     1      10.392  52.372  -0.399  1.00  0.00     0.013 A 
HETATM   26  C3  UNL     1      11.683  51.902  -0.698  1.00  0.00     0.007 A 
HETATM   27  C2  UNL     1      12.741  52.332   0.027  1.00  0.00    -0.062 A 
HETATM   28  C1  UNL     1      14.088  51.813  -0.320  1.00  0.00     0.048 C 
HETATM   29  C21 UNL     1      12.524  53.222   1.043  1.00  0.00     0.007 A 
HETATM   30  C20 UNL     1      11.259  53.675   1.326  1.00  0.00     0.013 A 
ENDBRANCH   1  24
TORSDOF 5
ENDMDL
MODEL 3
REMARK VINA RESULT: -8.316387042      5.012      8.391
REMARK  5 active torsions:
REMARK  status: ('A' for Active; 'I' for Inactive)
REMARK    1  A    between atoms: C5_5  and  C6_6 
REMARK    2  A    between atoms: N1_7  and  N2_8 
REMARK    3  A    between atoms: N1_7  and  C14_23 
REMARK    4  A    between atoms: N2_8  and  C7_10 
REMARK    5  A    between atoms: C7_10  and  C8_11 
ROOT
HETATM    1  C6  UNL     1       8.342  54.422   1.760  1.00  0.00     0.128 C 
HETATM    2  N1  UNL     1       9.067  53.420   1.697  1.00  0.00    -0.267 N 
ENDROOT
BRANCH   2   3
HETATM    3  N2  UNL     1       8.712  52.297   2.539  1.00  0.00    -0.304 N 
ATOM      4  H2  UNL     1       8.818  52.372   3.550  1.00  0.00     0.186 HD
BRANCH   3   5
HETATM    5  C7  UNL     1       8.221  51.097   1.976  1.00  0.00     0.126 C 
BRANCH   5   6
HETATM    6  C8  UNL     1       7.247  50.447   2.641  1.00  0.00     0.025 A 
HETATM    7  C9  UNL     1       7.298  49.170   3.130  1.00  0.00     0.040 A 
HETATM    8  C10 UNL     1       6.209  48.706   3.767  1.00  0.00     0.067 A 
HETATM    9  C11 UNL     1       5.137  49.536   3.881  1.00  0.00     0.087 A 
HETATM   10  C13 UNL     1       6.019  47.360   4.383  1.00  0.00     0.255 A 
HETATM   11  S1  UNL     1       5.693  50.967   3.078  1.00  0.00    -0.070 SA
HETATM   12  N3  UNL     1       4.008  49.239   4.469  1.00  0.00    -0.367 N 
HETATM   13  C12 UNL     1       3.683  48.000   5.100  1.00  0.00     0.247 A 
ATOM     14  H3  UNL     1       3.289  49.963   4.478  1.00  0.00     0.161 HD
HETATM   15  N4  UNL     1       4.780  47.079   5.007  1.00  0.00    -0.341 N 
ATOM     16  H4  UNL     1       4.658  46.155   5.421  1.00  0.00     0.164 HD
HETATM   17  O1  UNL     1       6.916  46.483   4.361  1.00  0.00    -0.268 OA
ENDBRANCH   5   6
ENDBRANCH   3   5
ENDBRANCH   2   3
BRANCH   2  18
HETATM   18  C14 UNL     1      10.204  53.173   0.929  1.00  0.00     0.056 A 
HETATM   19  C15 UNL     1      10.137  52.670  -0.370  1.00  0.00     0.031 A 
HETATM   20  C16 UNL     1      11.287  52.492  -1.077  1.00  0.00     0.002 A 
HETATM   21  C17 UNL     1      12.522  52.788  -0.570  1.00  0.00     0.000 A 
HETATM   22  C18 UNL     1      12.611  53.288   0.718  1.00  0.00     0.002 A 
HETATM   23  C19 UNL     1      11.457  53.474   1.445  1.00  0.00     0.031 A 
ENDBRANCH   2  18
BRANCH   1  24
HETATM   24  C5  UNL     1       8.331  55.707   1.122  1.00  0.00    -0.019 A 
HETATM   25  C4  UNL     1       9.404  56.460   0.751  1.00  0.00     0.013 A 
HETATM   26  C3  UNL     1       9.293  57.716   0.128  1.00  0.00     0.007 A 
HETATM   27  C2  UNL     1       8.070  58.232  -0.132  1.00  0.00    -0.062 A 
HETATM   28  C1  UNL     1       7.994  59.560  -0.791  1.00  0.00     0.048 C 
HETATM   29  C21 UNL     1       6.963  57.511   0.223  1.00  0.00     0.007 A 
HETATM   30  C20 UNL     1       7.083  56.286   0.831  1.00  0.00     0.013 A 
ENDBRANCH   1  24
TORSDOF 5
ENDMDL
MODEL 4
REMARK VINA RESULT: -8.257730994      1.962      2.526
REMARK  5 active torsions:
REMARK  status: ('A' for Active; 'I' for Inactive)
REMARK    1  A    between atoms: C5_5  and  C6_6 
REMARK    2  A    between atoms: N1_7  and  N2_8 
REMARK    3  A    between atoms: N1_7  and  C14_23 
REMARK    4  A    between atoms: N2_8  and  C7_10 
REMARK    5  A    between atoms: C7_10  and  C8_11 
ROOT
HETATM    1  C6  UNL     1      10.428  54.460   0.726  1.00  0.00     0.128 C 
HETATM    2  N1  UNL     1       9.284  54.370   1.194  1.00  0.00    -0.267 N 
ENDROOT
BRANCH   2   3
HETATM    3  N2  UNL     1       8.609  55.607   1.524  1.00  0.00    -0.304 N 
ATOM      4  H2  UNL     1       8.476  55.863   2.502  1.00  0.00     0.186 HD
BRANCH   3   5
HETATM    5  C7  UNL     1       8.132  56.464   0.507  1.00  0.00     0.126 C 
BRANCH   5   6
HETATM    6  C8  UNL     1       7.049  57.217   0.779  1.00  0.00     0.025 A 
HETATM    7  C9  UNL     1       6.837  58.517   0.405  1.00  0.00     0.040 A 
HETATM    8  C10 UNL     1       5.680  59.089   0.783  1.00  0.00     0.067 A 
HETATM    9  C11 UNL     1       4.806  58.340   1.507  1.00  0.00     0.087 A 
HETATM   10  C13 UNL     1       5.220  60.481   0.503  1.00  0.00     0.255 A 
HETATM   11  S1  UNL     1       5.642  56.828   1.642  1.00  0.00    -0.070 SA
HETATM   12  N3  UNL     1       3.644  58.746   1.948  1.00  0.00    -0.367 N 
HETATM   13  C12 UNL     1       3.072  60.040   1.758  1.00  0.00     0.247 A 
ATOM     14  H3  UNL     1       3.093  58.072   2.480  1.00  0.00     0.161 HD
HETATM   15  N4  UNL     1       3.958  60.880   1.001  1.00  0.00    -0.341 N 
ATOM     16  H4  UNL     1       3.653  61.835   0.808  1.00  0.00     0.164 HD
HETATM   17  O1  UNL     1       5.914  61.294  -0.154  1.00  0.00    -0.268 OA
ENDBRANCH   5   6
ENDBRANCH   3   5
ENDBRANCH   2   3
BRANCH   2  18
HETATM   18  C14 UNL     1       8.505  53.247   1.467  1.00  0.00     0.056 A 
HETATM   19  C15 UNL     1       9.040  52.071   1.992  1.00  0.00     0.031 A 
HETATM   20  C16 UNL     1       8.213  51.027   2.273  1.00  0.00     0.002 A 
HETATM   21  C17 UNL     1       6.863  51.075   2.064  1.00  0.00     0.000 A 
HETATM   22  C18 UNL     1       6.310  52.233   1.544  1.00  0.00     0.002 A 
HETATM   23  C19 UNL     1       7.134  53.296   1.255  1.00  0.00     0.031 A 
ENDBRANCH   2  18
BRANCH   1  24
HETATM   24  C5  UNL     1      11.417  53.522   0.279  1.00  0.00    -0.019 A 
HETATM   25  C4  UNL     1      11.438  52.832  -0.896  1.00  0.00     0.013 A 
HETATM   26  C3  UNL     1      12.456  51.928  -1.247  1.00  0.00     0.007 A 
HETATM   27  C2  UNL     1      13.485  51.710  -0.396  1.00  0.00    -0.062 A 
HETATM   28  C1  UNL     1      14.540  50.749  -0.802  1.00  0.00     0.048 C 
HETATM   29  C21 UNL     1      13.507  52.381   0.796  1.00  0.00     0.007 A 
HETATM   30  C20 UNL     1      12.507  53.261   1.129  1.00  0.00     0.013 A 
ENDBRANCH   1  24
TORSDOF 5
ENDMDL
MODEL 5
REMARK VINA RESULT: -8.255993448      6.441      9.827
REMARK  5 active torsions:
REMARK  status: ('A' for Active; 'I' for Inactive)
REMARK    1  A    between atoms: C5_5  and  C6_6 
REMARK    2  A    between atoms: N1_7  and  N2_8 
REMARK    3  A    between atoms: N1_7  and  C14_23 
REMARK    4  A    between atoms: N2_8  and  C7_10 
REMARK    5  A    between atoms: C7_10  and  C8_11 
ROOT
HETATM    1  C6  UNL     1       5.866  52.637   1.905  1.00  0.00     0.128 C 
HETATM    2  N1  UNL     1       6.743  51.764   1.940  1.00  0.00    -0.267 N 
ENDROOT
BRANCH   2   3
HETATM    3  N2  UNL     1       6.337  50.439   2.363  1.00  0.00    -0.304 N 
ATOM      4  H2  UNL     1       6.609  49.628   1.809  1.00  0.00     0.186 HD
BRANCH   3   5
HETATM    5  C7  UNL     1       5.568  50.258   3.535  1.00  0.00     0.126 C 
BRANCH   5   6
HETATM    6  C8  UNL     1       5.374  48.998   3.968  1.00  0.00     0.025 A 
HETATM    7  C9  UNL     1       6.196  47.923   3.762  1.00  0.00     0.040 A 
HETATM    8  C10 UNL     1       5.815  46.744   4.282  1.00  0.00     0.067 A 
HETATM    9  C11 UNL     1       4.645  46.701   4.974  1.00  0.00     0.087 A 
HETATM   10  C13 UNL     1       6.532  45.437   4.195  1.00  0.00     0.255 A 
HETATM   11  S1  UNL     1       4.100  48.343   4.875  1.00  0.00    -0.070 SA
HETATM   12  N3  UNL     1       4.137  45.638   5.540  1.00  0.00    -0.367 N 
HETATM   13  C12 UNL     1       4.705  44.328   5.543  1.00  0.00     0.247 A 
ATOM     14  H3  UNL     1       3.249  45.756   6.027  1.00  0.00     0.161 HD
HETATM   15  N4  UNL     1       5.946  44.311   4.820  1.00  0.00    -0.341 N 
ATOM     16  H4  UNL     1       6.440  43.421   4.751  1.00  0.00     0.164 HD
HETATM   17  O1  UNL     1       7.625  45.314   3.591  1.00  0.00    -0.268 OA
ENDBRANCH   5   6
ENDBRANCH   3   5
ENDBRANCH   2   3
BRANCH   2  18
HETATM   18  C14 UNL     1       8.101  51.832   1.632  1.00  0.00     0.056 A 
HETATM   19  C15 UNL     1       8.731  53.026   1.282  1.00  0.00     0.031 A 
HETATM   20  C16 UNL     1      10.070  53.027   1.033  1.00  0.00     0.002 A 
HETATM   21  C17 UNL     1      10.839  51.899   1.112  1.00  0.00     0.000 A 
HETATM   22  C18 UNL     1      10.232  50.703   1.458  1.00  0.00     0.002 A 
HETATM   23  C19 UNL     1       8.880  50.687   1.712  1.00  0.00     0.031 A 
ENDBRANCH   2  18
BRANCH   1  24
HETATM   24  C5  UNL     1       5.834  54.029   1.558  1.00  0.00    -0.019 A 
HETATM   25  C4  UNL     1       5.681  54.573   0.319  1.00  0.00     0.013 A 
HETATM   26  C3  UNL     1       5.664  55.959   0.076  1.00  0.00     0.007 A 
HETATM   27  C2  UNL     1       5.802  56.824   1.107  1.00  0.00    -0.062 A 
HETATM   28  C1  UNL     1       5.779  58.278   0.811  1.00  0.00     0.048 C 
HETATM   29  C21 UNL     1       5.958  56.322   2.371  1.00  0.00     0.007 A 
HETATM   30  C20 UNL     1       5.974  54.968   2.595  1.00  0.00     0.013 A 
ENDBRANCH   1  24
TORSDOF 5
ENDMDL
