MODEL 1
REMARK VINA RESULT: -7.019976669      0.000      0.000
REMARK  3 active torsions:
REMARK  status: ('A' for Active; 'I' for Inactive)
REMARK    1  A    between atoms: C2_2  and  O2_4 
REMARK    2  A    between atoms: O2_4  and  C3_5 
REMARK    3  A    between atoms: C17_21  and  O5_22 
ROOT
HETATM    1  C3  UNL     1       0.276 -48.661 -18.553  1.00  0.00     0.194 C 
HETATM    2  C4  UNL     1      -1.124 -48.891 -19.070  1.00  0.00     0.039 C 
HETATM    3  C5  UNL     1      -1.647 -47.784 -19.902  1.00  0.00     0.012 C 
HETATM    4  C6  UNL     1      -0.631 -46.963 -20.608  1.00  0.00    -0.036 C 
HETATM    5  C7  UNL     1      -0.469 -45.666 -19.876  1.00  0.00     0.015 C 
HETATM    6  C8  UNL     1      -1.216 -46.612 -21.985  1.00  0.00     0.015 C 
HETATM    7  C9  UNL     1       0.638 -47.701 -20.857  1.00  0.00     0.088 C 
HETATM    8  C10 UNL     1       1.712 -46.850 -21.468  1.00  0.00     0.139 C 
HETATM    9  O3  UNL     1       1.608 -46.630 -22.804  1.00  0.00    -0.375 OA
HETATM   10  C11 UNL     1       2.853 -46.441 -23.349  1.00  0.00     0.054 C 
HETATM   11  C12 UNL     1       3.058 -47.515 -24.411  1.00  0.00     0.045 C 
HETATM   12  C13 UNL     1       3.052 -45.100 -23.987  1.00  0.00     0.045 C 
HETATM   13  C14 UNL     1       3.880 -46.692 -22.237  1.00  0.00     0.046 C 
HETATM   14  C15 UNL     1       3.025 -47.646 -21.390  1.00  0.00     0.042 C 
HETATM   15  C16 UNL     1       3.431 -47.702 -19.974  1.00  0.00     0.178 C 
HETATM   16  O4  UNL     1       2.274 -47.600 -19.165  1.00  0.00    -0.352 OA
HETATM   17  C17 UNL     1       1.233 -48.386 -19.674  1.00  0.00     0.195 C 
ENDROOT
BRANCH   1  18
HETATM   18  O2  UNL     1       0.668 -49.848 -17.889  1.00  0.00    -0.311 OA
BRANCH  18  19
HETATM   19  C2  UNL     1       0.612 -49.971 -16.517  1.00  0.00     0.255 C 
HETATM   20  C1  UNL     1       1.509 -49.179 -15.637  1.00  0.00     0.126 C 
HETATM   21  O1  UNL     1      -0.217 -50.770 -16.020  1.00  0.00    -0.266 OA
ENDBRANCH  18  19
ENDBRANCH   1  18
BRANCH  17  22
HETATM   22  O5  UNL     1       1.777 -49.633 -20.062  1.00  0.00    -0.363 OA
ATOM     23  H5  UNL     1       1.046 -50.233 -20.157  1.00  0.00     0.213 HD
ENDBRANCH  17  22
TORSDOF 3
ENDMDL
MODEL 2
REMARK VINA RESULT: -6.993658488      2.591      4.422
REMARK  3 active torsions:
REMARK  status: ('A' for Active; 'I' for Inactive)
REMARK    1  A    between atoms: C2_2  and  O2_4 
REMARK    2  A    between atoms: O2_4  and  C3_5 
REMARK    3  A    between atoms: C17_21  and  O5_22 
ROOT
HETATM    1  C3  UNL     1      -1.739 -46.399 -20.107  1.00  0.00     0.194 C 
HETATM    2  C4  UNL     1      -1.353 -46.492 -18.650  1.00  0.00     0.039 C 
HETATM    3  C5  UNL     1      -0.279 -47.473 -18.375  1.00  0.00     0.012 C 
HETATM    4  C6  UNL     1       0.655 -47.749 -19.495  1.00  0.00    -0.036 C 
HETATM    5  C7  UNL     1       0.298 -49.069 -20.105  1.00  0.00     0.015 C 
HETATM    6  C8  UNL     1       2.054 -47.921 -18.882  1.00  0.00     0.015 C 
HETATM    7  C9  UNL     1       0.748 -46.620 -20.462  1.00  0.00     0.088 C 
HETATM    8  C10 UNL     1       1.601 -46.927 -21.658  1.00  0.00     0.139 C 
HETATM    9  O3  UNL     1       2.943 -46.842 -21.469  1.00  0.00    -0.375 OA
HETATM   10  C11 UNL     1       3.564 -46.503 -22.644  1.00  0.00     0.054 C 
HETATM   11  C12 UNL     1       4.312 -45.197 -22.410  1.00  0.00     0.045 C 
HETATM   12  C13 UNL     1       4.539 -47.524 -23.145  1.00  0.00     0.045 C 
HETATM   13  C14 UNL     1       2.464 -46.224 -23.677  1.00  0.00     0.046 C 
HETATM   14  C15 UNL     1       1.365 -45.811 -22.687  1.00  0.00     0.042 C 
HETATM   15  C16 UNL     1      -0.001 -45.974 -23.219  1.00  0.00     0.178 C 
HETATM   16  O4  UNL     1      -0.797 -46.617 -22.241  1.00  0.00    -0.352 OA
HETATM   17  C17 UNL     1      -0.550 -46.090 -20.968  1.00  0.00     0.195 C 
ENDROOT
BRANCH   1  18
HETATM   18  O2  UNL     1      -2.677 -45.345 -20.216  1.00  0.00    -0.311 OA
BRANCH  18  19
HETATM   19  C2  UNL     1      -3.937 -45.538 -20.743  1.00  0.00     0.255 C 
HETATM   20  C1  UNL     1      -4.162 -45.544 -22.212  1.00  0.00     0.126 C 
HETATM   21  O1  UNL     1      -4.897 -45.709 -19.956  1.00  0.00    -0.266 OA
ENDBRANCH  18  19
ENDBRANCH   1  18
BRANCH  17  22
HETATM   22  O5  UNL     1      -0.485 -44.681 -21.082  1.00  0.00    -0.363 OA
ATOM     23  H5  UNL     1       0.365 -44.476 -21.455  1.00  0.00     0.213 HD
ENDBRANCH  17  22
TORSDOF 3
ENDMDL
MODEL 3
REMARK VINA RESULT: -6.984307197      1.862      6.415
REMARK  3 active torsions:
REMARK  status: ('A' for Active; 'I' for Inactive)
REMARK    1  A    between atoms: C2_2  and  O2_4 
REMARK    2  A    between atoms: O2_4  and  C3_5 
REMARK    3  A    between atoms: C17_21  and  O5_22 
ROOT
HETATM    1  C3  UNL     1       1.201 -45.666 -23.192  1.00  0.00     0.194 C 
HETATM    2  C4  UNL     1       2.111 -46.521 -24.041  1.00  0.00     0.039 C 
HETATM    3  C5  UNL     1       3.095 -47.307 -23.263  1.00  0.00     0.012 C 
HETATM    4  C6  UNL     1       2.704 -47.646 -21.872  1.00  0.00    -0.036 C 
HETATM    5  C7  UNL     1       3.439 -46.741 -20.932  1.00  0.00     0.015 C 
HETATM    6  C8  UNL     1       3.221 -49.067 -21.595  1.00  0.00     0.015 C 
HETATM    7  C9  UNL     1       1.229 -47.682 -21.677  1.00  0.00     0.088 C 
HETATM    8  C10 UNL     1       0.820 -47.914 -20.252  1.00  0.00     0.139 C 
HETATM    9  O3  UNL     1       0.882 -49.198 -19.817  1.00  0.00    -0.375 OA
HETATM   10  C11 UNL     1      -0.051 -49.408 -18.833  1.00  0.00     0.054 C 
HETATM   11  C12 UNL     1      -0.980 -50.518 -19.311  1.00  0.00     0.045 C 
HETATM   12  C13 UNL     1       0.525 -49.809 -17.509  1.00  0.00     0.045 C 
HETATM   13  C14 UNL     1      -0.888 -48.127 -18.718  1.00  0.00     0.046 C 
HETATM   14  C15 UNL     1      -0.687 -47.631 -20.157  1.00  0.00     0.042 C 
HETATM   15  C16 UNL     1      -0.881 -46.177 -20.312  1.00  0.00     0.178 C 
HETATM   16  O4  UNL     1       0.188 -45.655 -21.079  1.00  0.00    -0.352 OA
HETATM   17  C17 UNL     1       0.481 -46.488 -22.165  1.00  0.00     0.195 C 
ENDROOT
BRANCH   1  18
HETATM   18  O2  UNL     1       0.253 -45.083 -24.066  1.00  0.00    -0.311 OA
BRANCH  18  19
HETATM   19  C2  UNL     1       0.615 -44.538 -25.281  1.00  0.00     0.255 C 
HETATM   20  C1  UNL     1       0.089 -45.088 -26.557  1.00  0.00     0.126 C 
HETATM   21  O1  UNL     1       1.402 -43.563 -25.290  1.00  0.00    -0.266 OA
ENDBRANCH  18  19
ENDBRANCH   1  18
BRANCH  17  22
HETATM   22  O5  UNL     1      -0.743 -46.891 -22.750  1.00  0.00    -0.363 OA
ATOM     23  H5  UNL     1      -0.631 -47.794 -23.025  1.00  0.00     0.213 HD
ENDBRANCH  17  22
TORSDOF 3
ENDMDL
MODEL 4
REMARK VINA RESULT: -6.691109611      1.414      1.662
REMARK  3 active torsions:
REMARK  status: ('A' for Active; 'I' for Inactive)
REMARK    1  A    between atoms: C2_2  and  O2_4 
REMARK    2  A    between atoms: O2_4  and  C3_5 
REMARK    3  A    between atoms: C17_21  and  O5_22 
ROOT
HETATM    1  C3  UNL     1      -0.004 -48.384 -19.911  1.00  0.00     0.194 C 
HETATM    2  C4  UNL     1      -1.116 -48.314 -20.930  1.00  0.00     0.039 C 
HETATM    3  C5  UNL     1      -1.155 -47.044 -21.690  1.00  0.00     0.012 C 
HETATM    4  C6  UNL     1       0.138 -46.327 -21.828  1.00  0.00    -0.036 C 
HETATM    5  C7  UNL     1       0.150 -45.171 -20.876  1.00  0.00     0.015 C 
HETATM    6  C8  UNL     1       0.167 -45.723 -23.241  1.00  0.00     0.015 C 
HETATM    7  C9  UNL     1       1.315 -47.232 -21.725  1.00  0.00     0.088 C 
HETATM    8  C10 UNL     1       2.629 -46.508 -21.751  1.00  0.00     0.139 C 
HETATM    9  O3  UNL     1       3.069 -46.117 -22.975  1.00  0.00    -0.375 OA
HETATM   10  C11 UNL     1       4.440 -46.076 -22.992  1.00  0.00     0.054 C 
HETATM   11  C12 UNL     1       4.915 -47.035 -24.076  1.00  0.00     0.045 C 
HETATM   12  C13 UNL     1       5.015 -44.721 -23.273  1.00  0.00     0.045 C 
HETATM   13  C14 UNL     1       4.929 -46.625 -21.645  1.00  0.00     0.046 C 
HETATM   14  C15 UNL     1       3.715 -47.515 -21.343  1.00  0.00     0.042 C 
HETATM   15  C16 UNL     1       3.539 -47.806 -19.908  1.00  0.00     0.178 C 
HETATM   16  O4  UNL     1       2.180 -47.608 -19.567  1.00  0.00    -0.352 OA
HETATM   17  C17 UNL     1       1.334 -48.142 -20.545  1.00  0.00     0.195 C 
ENDROOT
BRANCH   1  18
HETATM   18  O2  UNL     1      -0.030 -49.689 -19.366  1.00  0.00    -0.311 OA
BRANCH  18  19
HETATM   19  C2  UNL     1      -0.140 -49.914 -18.009  1.00  0.00     0.255 C 
HETATM   20  C1  UNL     1      -0.859 -51.104 -17.484  1.00  0.00     0.126 C 
HETATM   21  O1  UNL     1       0.380 -49.091 -17.221  1.00  0.00    -0.266 OA
ENDBRANCH  18  19
ENDBRANCH   1  18
BRANCH  17  22
HETATM   22  O5  UNL     1       1.842 -49.408 -20.920  1.00  0.00    -0.363 OA
ATOM     23  H5  UNL     1       2.699 -49.490 -20.516  1.00  0.00     0.213 HD
ENDBRANCH  17  22
TORSDOF 3
ENDMDL
MODEL 5
REMARK VINA RESULT: -6.677923560      1.599      3.564
REMARK  3 active torsions:
REMARK  status: ('A' for Active; 'I' for Inactive)
REMARK    1  A    between atoms: C2_2  and  O2_4 
REMARK    2  A    between atoms: O2_4  and  C3_5 
REMARK    3  A    between atoms: C17_21  and  O5_22 
ROOT
HETATM    1  C3  UNL     1       1.261 -48.680 -18.876  1.00  0.00     0.194 C 
HETATM    2  C4  UNL     1       2.579 -47.993 -18.614  1.00  0.00     0.039 C 
HETATM    3  C5  UNL     1       3.318 -47.622 -19.842  1.00  0.00     0.012 C 
HETATM    4  C6  UNL     1       2.493 -47.389 -21.054  1.00  0.00    -0.036 C 
HETATM    5  C7  UNL     1       2.609 -48.584 -21.950  1.00  0.00     0.015 C 
HETATM    6  C8  UNL     1       3.132 -46.216 -21.813  1.00  0.00     0.015 C 
HETATM    7  C9  UNL     1       1.097 -46.983 -20.734  1.00  0.00     0.088 C 
HETATM    8  C10 UNL     1       0.221 -46.853 -21.946  1.00  0.00     0.139 C 
HETATM    9  O3  UNL     1       0.363 -45.709 -22.662  1.00  0.00    -0.375 OA
HETATM   10  C11 UNL     1      -0.817 -45.395 -23.287  1.00  0.00     0.054 C 
HETATM   11  C12 UNL     1      -1.247 -44.019 -22.793  1.00  0.00     0.045 C 
HETATM   12  C13 UNL     1      -0.735 -45.357 -24.783  1.00  0.00     0.045 C 
HETATM   13  C14 UNL     1      -1.870 -46.404 -22.808  1.00  0.00     0.046 C 
HETATM   14  C15 UNL     1      -1.228 -46.727 -21.450  1.00  0.00     0.042 C 
HETATM   15  C16 UNL     1      -1.631 -48.037 -20.904  1.00  0.00     0.178 C 
HETATM   16  O4  UNL     1      -0.474 -48.715 -20.450  1.00  0.00    -0.352 OA
HETATM   17  C17 UNL     1       0.377 -47.847 -19.756  1.00  0.00     0.195 C 
ENDROOT
BRANCH   1  18
HETATM   18  O2  UNL     1       0.633 -48.855 -17.620  1.00  0.00    -0.311 OA
BRANCH  18  19
HETATM   19  C2  UNL     1       0.334 -50.104 -17.118  1.00  0.00     0.255 C 
HETATM   20  C1  UNL     1      -0.750 -50.931 -17.709  1.00  0.00     0.126 C 
HETATM   21  O1  UNL     1       0.999 -50.535 -16.147  1.00  0.00    -0.266 OA
ENDBRANCH  18  19
ENDBRANCH   1  18
BRANCH  17  22
HETATM   22  O5  UNL     1      -0.417 -47.049 -18.899  1.00  0.00    -0.363 OA
ATOM     23  H5  UNL     1      -1.269 -46.968 -19.311  1.00  0.00     0.213 HD
ENDBRANCH  17  22
TORSDOF 3
ENDMDL
