MODEL 1
REMARK VINA RESULT: -7.236845858      0.000      0.000
REMARK  4 active torsions:
REMARK  status: ('A' for Active; 'I' for Inactive)
REMARK    1  A    between atoms: C2_2  and  O2_4 
REMARK    2  A    between atoms: O2_4  and  C3_5 
REMARK    3  A    between atoms: C6_10  and  C7_11 
REMARK    4  A    between atoms: C17_21  and  O5_22 
ROOT
HETATM    1  C3  UNL     1       2.939 -48.603 -21.561  1.00  0.00     0.260 C 
HETATM    2  C4  UNL     1       3.667 -48.494 -20.248  1.00  0.00     0.291 C 
HETATM    3  O3  UNL     1       4.718 -49.134 -20.003  1.00  0.00    -0.262 OA
HETATM    4  O4  UNL     1       3.068 -47.621 -19.331  1.00  0.00    -0.319 OA
HETATM    5  C5  UNL     1       1.660 -47.351 -19.463  1.00  0.00     0.186 C 
HETATM    6  C6  UNL     1       1.451 -46.727 -20.784  1.00  0.00     0.047 C 
HETATM    7  C17 UNL     1       2.424 -47.191 -21.846  1.00  0.00     0.164 C 
ENDROOT
BRANCH   6   8
HETATM    8  C7  UNL     1       0.064 -46.674 -21.315  1.00  0.00     0.002 C 
HETATM    9  C8  UNL     1      -0.533 -45.292 -21.314  1.00  0.00    -0.009 C 
HETATM   10  C9  UNL     1      -1.606 -45.299 -22.414  1.00  0.00     0.010 C 
HETATM   11  C13 UNL     1      -1.236 -44.943 -20.037  1.00  0.00     0.010 C 
HETATM   12  C10 UNL     1      -2.625 -46.351 -22.090  1.00  0.00    -0.013 C 
HETATM   13  C11 UNL     1      -3.340 -45.950 -20.838  1.00  0.00     0.009 C 
HETATM   14  C16 UNL     1      -2.007 -47.737 -21.937  1.00  0.00     0.010 C 
HETATM   15  C12 UNL     1      -2.315 -45.912 -19.698  1.00  0.00    -0.013 C 
HETATM   16  C14 UNL     1      -1.707 -47.304 -19.615  1.00  0.00     0.010 C 
HETATM   17  C15 UNL     1      -0.925 -47.646 -20.838  1.00  0.00    -0.009 C 
ENDBRANCH   6   8
BRANCH   7  18
HETATM   18  O5  UNL     1       1.898 -47.089 -23.132  1.00  0.00    -0.392 OA
ATOM     19  H5  UNL     1       2.538 -46.744 -23.743  1.00  0.00     0.210 HD
ENDBRANCH   7  18
BRANCH   1  20
HETATM   20  O2  UNL     1       3.794 -48.985 -22.592  1.00  0.00    -0.303 OA
BRANCH  20  21
HETATM   21  C2  UNL     1       3.760 -50.161 -23.282  1.00  0.00     0.255 C 
HETATM   22  C1  UNL     1       3.569 -50.285 -24.749  1.00  0.00     0.126 C 
HETATM   23  O1  UNL     1       3.901 -51.234 -22.636  1.00  0.00    -0.266 OA
ENDBRANCH  20  21
ENDBRANCH   1  20
TORSDOF 4
ENDMDL
MODEL 2
REMARK VINA RESULT: -7.223089019      2.772      4.164
REMARK  4 active torsions:
REMARK  status: ('A' for Active; 'I' for Inactive)
REMARK    1  A    between atoms: C2_2  and  O2_4 
REMARK    2  A    between atoms: O2_4  and  C3_5 
REMARK    3  A    between atoms: C6_10  and  C7_11 
REMARK    4  A    between atoms: C17_21  and  O5_22 
ROOT
HETATM    1  C3  UNL     1       0.850 -49.339 -17.912  1.00  0.00     0.260 C 
HETATM    2  C4  UNL     1       2.265 -48.879 -17.682  1.00  0.00     0.291 C 
HETATM    3  O3  UNL     1       2.993 -49.360 -16.780  1.00  0.00    -0.262 OA
HETATM    4  O4  UNL     1       2.691 -47.873 -18.557  1.00  0.00    -0.319 OA
HETATM    5  C5  UNL     1       1.694 -47.037 -19.176  1.00  0.00     0.186 C 
HETATM    6  C6  UNL     1       0.826 -47.913 -19.986  1.00  0.00     0.047 C 
HETATM    7  C17 UNL     1       0.669 -49.311 -19.431  1.00  0.00     0.164 C 
ENDROOT
BRANCH   6   8
HETATM    8  C7  UNL     1      -0.480 -47.367 -20.440  1.00  0.00     0.002 C 
HETATM    9  C8  UNL     1      -0.670 -47.410 -21.932  1.00  0.00    -0.009 C 
HETATM   10  C9  UNL     1      -2.189 -47.438 -22.161  1.00  0.00     0.010 C 
HETATM   11  C13 UNL     1      -0.157 -46.191 -22.639  1.00  0.00     0.010 C 
HETATM   12  C10 UNL     1      -2.792 -46.207 -21.553  1.00  0.00    -0.013 C 
HETATM   13  C11 UNL     1      -2.299 -45.013 -22.309  1.00  0.00     0.009 C 
HETATM   14  C16 UNL     1      -2.478 -46.072 -20.068  1.00  0.00     0.010 C 
HETATM   15  C12 UNL     1      -0.777 -44.936 -22.131  1.00  0.00    -0.013 C 
HETATM   16  C14 UNL     1      -0.520 -44.840 -20.635  1.00  0.00     0.010 C 
HETATM   17  C15 UNL     1      -0.940 -46.077 -19.915  1.00  0.00    -0.009 C 
ENDBRANCH   6   8
BRANCH   7  18
HETATM   18  O5  UNL     1      -0.533 -49.905 -19.813  1.00  0.00    -0.392 OA
ATOM     19  H5  UNL     1      -0.586 -50.805 -19.516  1.00  0.00     0.210 HD
ENDBRANCH   7  18
BRANCH   1  20
HETATM   20  O2  UNL     1       0.653 -50.641 -17.461  1.00  0.00    -0.303 OA
BRANCH  20  21
HETATM   21  C2  UNL     1      -0.491 -51.150 -16.920  1.00  0.00     0.255 C 
HETATM   22  C1  UNL     1      -1.551 -51.862 -17.678  1.00  0.00     0.126 C 
HETATM   23  O1  UNL     1      -0.677 -51.010 -15.682  1.00  0.00    -0.266 OA
ENDBRANCH  20  21
ENDBRANCH   1  20
TORSDOF 4
ENDMDL
MODEL 3
REMARK VINA RESULT: -6.990861134      1.786      2.274
REMARK  4 active torsions:
REMARK  status: ('A' for Active; 'I' for Inactive)
REMARK    1  A    between atoms: C2_2  and  O2_4 
REMARK    2  A    between atoms: O2_4  and  C3_5 
REMARK    3  A    between atoms: C6_10  and  C7_11 
REMARK    4  A    between atoms: C17_21  and  O5_22 
ROOT
HETATM    1  C3  UNL     1       2.594 -48.503 -19.215  1.00  0.00     0.260 C 
HETATM    2  C4  UNL     1       2.411 -49.000 -17.806  1.00  0.00     0.291 C 
HETATM    3  O3  UNL     1       3.278 -49.685 -17.214  1.00  0.00    -0.262 OA
HETATM    4  O4  UNL     1       1.193 -48.631 -17.221  1.00  0.00    -0.319 OA
HETATM    5  C5  UNL     1       0.083 -48.327 -18.087  1.00  0.00     0.186 C 
HETATM    6  C6  UNL     1       0.477 -47.174 -18.920  1.00  0.00     0.047 C 
HETATM    7  C17 UNL     1       1.956 -47.113 -19.229  1.00  0.00     0.164 C 
ENDROOT
BRANCH   6   8
HETATM    8  C7  UNL     1      -0.336 -46.881 -20.130  1.00  0.00     0.002 C 
HETATM    9  C8  UNL     1      -0.624 -45.418 -20.328  1.00  0.00    -0.009 C 
HETATM   10  C9  UNL     1      -0.867 -45.239 -21.835  1.00  0.00     0.010 C 
HETATM   11  C13 UNL     1      -1.872 -44.953 -19.639  1.00  0.00     0.010 C 
HETATM   12  C10 UNL     1      -2.025 -46.099 -22.244  1.00  0.00    -0.013 C 
HETATM   13  C11 UNL     1      -3.261 -45.582 -21.578  1.00  0.00     0.009 C 
HETATM   14  C16 UNL     1      -1.808 -47.571 -21.908  1.00  0.00     0.010 C 
HETATM   15  C12 UNL     1      -3.075 -45.722 -20.062  1.00  0.00    -0.013 C 
HETATM   16  C14 UNL     1      -2.828 -47.197 -19.789  1.00  0.00     0.010 C 
HETATM   17  C15 UNL     1      -1.545 -47.669 -20.389  1.00  0.00    -0.009 C 
ENDBRANCH   6   8
BRANCH   7  18
HETATM   18  O5  UNL     1       2.225 -46.439 -20.420  1.00  0.00    -0.392 OA
ATOM     19  H5  UNL     1       1.762 -45.612 -20.463  1.00  0.00     0.210 HD
ENDBRANCH   7  18
BRANCH   1  20
HETATM   20  O2  UNL     1       3.941 -48.382 -19.546  1.00  0.00    -0.303 OA
BRANCH  20  21
HETATM   21  C2  UNL     1       4.548 -48.862 -20.669  1.00  0.00     0.255 C 
HETATM   22  C1  UNL     1       5.683 -49.820 -20.683  1.00  0.00     0.126 C 
HETATM   23  O1  UNL     1       4.123 -48.470 -21.789  1.00  0.00    -0.266 OA
ENDBRANCH  20  21
ENDBRANCH   1  20
TORSDOF 4
ENDMDL
MODEL 4
REMARK VINA RESULT: -6.987971844      2.248      4.099
REMARK  4 active torsions:
REMARK  status: ('A' for Active; 'I' for Inactive)
REMARK    1  A    between atoms: C2_2  and  O2_4 
REMARK    2  A    between atoms: O2_4  and  C3_5 
REMARK    3  A    between atoms: C6_10  and  C7_11 
REMARK    4  A    between atoms: C17_21  and  O5_22 
ROOT
HETATM    1  C3  UNL     1       1.804 -48.705 -18.424  1.00  0.00     0.260 C 
HETATM    2  C4  UNL     1       3.090 -48.618 -19.201  1.00  0.00     0.291 C 
HETATM    3  O3  UNL     1       4.167 -49.103 -18.781  1.00  0.00    -0.262 OA
HETATM    4  O4  UNL     1       2.976 -47.949 -20.426  1.00  0.00    -0.319 OA
HETATM    5  C5  UNL     1       1.903 -47.001 -20.591  1.00  0.00     0.186 C 
HETATM    6  C6  UNL     1       0.635 -47.739 -20.434  1.00  0.00     0.047 C 
HETATM    7  C17 UNL     1       0.717 -48.912 -19.481  1.00  0.00     0.164 C 
ENDROOT
BRANCH   6   8
HETATM    8  C7  UNL     1      -0.604 -46.950 -20.205  1.00  0.00     0.002 C 
HETATM    9  C8  UNL     1      -1.846 -47.600 -20.751  1.00  0.00    -0.009 C 
HETATM   10  C9  UNL     1      -3.011 -47.043 -19.918  1.00  0.00     0.010 C 
HETATM   11  C13 UNL     1      -2.135 -47.241 -22.178  1.00  0.00     0.010 C 
HETATM   12  C10 UNL     1      -3.045 -45.552 -20.070  1.00  0.00    -0.013 C 
HETATM   13  C11 UNL     1      -3.381 -45.226 -21.491  1.00  0.00     0.009 C 
HETATM   14  C16 UNL     1      -1.732 -44.892 -19.662  1.00  0.00     0.010 C 
HETATM   15  C12 UNL     1      -2.257 -45.770 -22.380  1.00  0.00    -0.013 C 
HETATM   16  C14 UNL     1      -0.971 -45.108 -21.908  1.00  0.00     0.010 C 
HETATM   17  C15 UNL     1      -0.610 -45.518 -20.519  1.00  0.00    -0.009 C 
ENDBRANCH   6   8
BRANCH   7  18
HETATM   18  O5  UNL     1      -0.512 -49.212 -18.898  1.00  0.00    -0.392 OA
ATOM     19  H5  UNL     1      -1.196 -48.632 -19.210  1.00  0.00     0.210 HD
ENDBRANCH   7  18
BRANCH   1  20
HETATM   20  O2  UNL     1       1.800 -49.795 -17.558  1.00  0.00    -0.303 OA
BRANCH  20  21
HETATM   21  C2  UNL     1       1.208 -49.856 -16.331  1.00  0.00     0.255 C 
HETATM   22  C1  UNL     1       1.684 -49.145 -15.118  1.00  0.00     0.126 C 
HETATM   23  O1  UNL     1       0.177 -50.569 -16.202  1.00  0.00    -0.266 OA
ENDBRANCH  20  21
ENDBRANCH   1  20
TORSDOF 4
ENDMDL
MODEL 5
REMARK VINA RESULT: -6.826951953      4.103      7.088
REMARK  4 active torsions:
REMARK  status: ('A' for Active; 'I' for Inactive)
REMARK    1  A    between atoms: C2_2  and  O2_4 
REMARK    2  A    between atoms: O2_4  and  C3_5 
REMARK    3  A    between atoms: C6_10  and  C7_11 
REMARK    4  A    between atoms: C17_21  and  O5_22 
ROOT
HETATM    1  C3  UNL     1      -4.732 -45.210 -21.604  1.00  0.00     0.260 C 
HETATM    2  C4  UNL     1      -5.654 -45.596 -20.480  1.00  0.00     0.291 C 
HETATM    3  O3  UNL     1      -6.838 -45.187 -20.406  1.00  0.00    -0.262 OA
HETATM    4  O4  UNL     1      -5.076 -46.447 -19.529  1.00  0.00    -0.319 OA
HETATM    5  C5  UNL     1      -3.643 -46.443 -19.390  1.00  0.00     0.186 C 
HETATM    6  C6  UNL     1      -3.073 -46.865 -20.684  1.00  0.00     0.047 C 
HETATM    7  C17 UNL     1      -3.904 -46.465 -21.884  1.00  0.00     0.164 C 
ENDROOT
BRANCH   6   8
HETATM    8  C7  UNL     1      -1.629 -46.609 -20.924  1.00  0.00     0.002 C 
HETATM    9  C8  UNL     1      -0.822 -47.858 -21.159  1.00  0.00    -0.009 C 
HETATM   10  C9  UNL     1       0.399 -47.419 -21.983  1.00  0.00     0.010 C 
HETATM   11  C13 UNL     1      -0.286 -48.472 -19.901  1.00  0.00     0.010 C 
HETATM   12  C10 UNL     1       1.166 -46.393 -21.203  1.00  0.00    -0.013 C 
HETATM   13  C11 UNL     1       1.726 -47.048 -19.980  1.00  0.00     0.009 C 
HETATM   14  C16 UNL     1       0.314 -45.187 -20.826  1.00  0.00     0.010 C 
HETATM   15  C12 UNL     1       0.551 -47.523 -19.116  1.00  0.00    -0.013 C 
HETATM   16  C14 UNL     1      -0.281 -46.289 -18.800  1.00  0.00     0.010 C 
HETATM   17  C15 UNL     1      -0.902 -45.706 -20.026  1.00  0.00    -0.009 C 
ENDBRANCH   6   8
BRANCH   7  18
HETATM   18  O5  UNL     1      -3.138 -46.325 -23.040  1.00  0.00    -0.392 OA
ATOM     19  H5  UNL     1      -2.720 -47.142 -23.282  1.00  0.00     0.210 HD
ENDBRANCH   7  18
BRANCH   1  20
HETATM   20  O2  UNL     1      -5.438 -44.872 -22.755  1.00  0.00    -0.303 OA
BRANCH  20  21
HETATM   21  C2  UNL     1      -5.256 -43.760 -23.523  1.00  0.00     0.255 C 
HETATM   22  C1  UNL     1      -4.492 -43.716 -24.796  1.00  0.00     0.126 C 
HETATM   23  O1  UNL     1      -5.771 -42.678 -23.134  1.00  0.00    -0.266 OA
ENDBRANCH  20  21
ENDBRANCH   1  20
TORSDOF 4
ENDMDL
