MODEL 1
REMARK VINA RESULT: -7.070864533      0.000      0.000
REMARK  3 active torsions:
REMARK  status: ('A' for Active; 'I' for Inactive)
REMARK    1  A    between atoms: C12_14  and  C13_15 
REMARK    2  A    between atoms: C13_15  and  O3_16 
REMARK    3  A    between atoms: C13_15  and  C14_18 
ROOT
HETATM    1  C1  UNL     1      -2.242 -45.370 -18.907  1.00  0.00     0.040 C 
HETATM    2  C2  UNL     1      -1.922 -46.587 -19.771  1.00  0.00     0.123 C 
HETATM    3  C3  UNL     1      -2.557 -46.333 -21.119  1.00  0.00     0.058 C 
HETATM    4  C4  UNL     1      -2.018 -47.359 -22.077  1.00  0.00     0.174 C 
HETATM    5  O1  UNL     1      -1.015 -48.132 -21.615  1.00  0.00    -0.354 OA
HETATM    6  C5  UNL     1      -0.076 -47.546 -20.792  1.00  0.00     0.174 C 
HETATM    7  O2  UNL     1      -0.549 -46.580 -19.965  1.00  0.00    -0.349 OA
HETATM    8  C6  UNL     1       0.443 -48.687 -19.897  1.00  0.00     0.049 C 
HETATM    9  C7  UNL     1       0.002 -48.539 -18.469  1.00  0.00     0.016 C 
HETATM   10  C8  UNL     1       1.947 -48.576 -19.920  1.00  0.00     0.004 A 
HETATM   11  C9  UNL     1       2.437 -47.280 -19.293  1.00  0.00     0.016 A 
HETATM   12  C10 UNL     1       2.343 -47.406 -20.739  1.00  0.00    -0.028 A 
HETATM   13  C11 UNL     1       3.632 -47.583 -21.545  1.00  0.00     0.016 C 
HETATM   14  C12 UNL     1       1.125 -47.132 -21.567  1.00  0.00     0.090 C 
ENDROOT
BRANCH  14  15
HETATM   15  C13 UNL     1       1.101 -45.815 -22.232  1.00  0.00     0.183 C 
BRANCH  15  16
HETATM   16  O3  UNL     1       0.524 -44.910 -21.300  1.00  0.00    -0.390 OA
ATOM     17  H3  UNL     1      -0.052 -44.345 -21.802  1.00  0.00     0.210 HD
ENDBRANCH  15  16
BRANCH  15  18
HETATM   18  C14 UNL     1       0.327 -45.660 -23.481  1.00  0.00     0.294 C 
HETATM   19  O4  UNL     1      -0.736 -44.709 -23.378  1.00  0.00    -0.330 OA
HETATM   20  C15 UNL     1      -1.406 -44.413 -24.558  1.00  0.00     0.136 C 
HETATM   21  C16 UNL     1      -0.747 -44.581 -25.693  1.00  0.00     0.023 C 
HETATM   22  C17 UNL     1       0.658 -45.069 -25.685  1.00  0.00     0.200 C 
HETATM   23  O5  UNL     1       1.212 -45.049 -24.412  1.00  0.00    -0.355 OA
ENDBRANCH  15  18
ENDBRANCH  14  15
TORSDOF 3
ENDMDL
MODEL 2
REMARK VINA RESULT: -6.936586768      1.798      2.809
REMARK  3 active torsions:
REMARK  status: ('A' for Active; 'I' for Inactive)
REMARK    1  A    between atoms: C12_14  and  C13_15 
REMARK    2  A    between atoms: C13_15  and  O3_16 
REMARK    3  A    between atoms: C13_15  and  C14_18 
ROOT
HETATM    1  C1  UNL     1      -1.290 -44.438 -19.140  1.00  0.00     0.040 C 
HETATM    2  C2  UNL     1      -1.403 -45.751 -19.910  1.00  0.00     0.123 C 
HETATM    3  C3  UNL     1      -1.818 -45.386 -21.317  1.00  0.00     0.058 C 
HETATM    4  C4  UNL     1      -1.652 -46.611 -22.173  1.00  0.00     0.174 C 
HETATM    5  O1  UNL     1      -1.043 -47.664 -21.590  1.00  0.00    -0.354 OA
HETATM    6  C5  UNL     1      -0.001 -47.406 -20.724  1.00  0.00     0.174 C 
HETATM    7  O2  UNL     1      -0.121 -46.271 -19.990  1.00  0.00    -0.349 OA
HETATM    8  C6  UNL     1      -0.003 -48.584 -19.731  1.00  0.00     0.049 C 
HETATM    9  C7  UNL     1      -0.436 -48.170 -18.353  1.00  0.00     0.016 C 
HETATM   10  C8  UNL     1       1.430 -49.044 -19.636  1.00  0.00     0.004 A 
HETATM   11  C9  UNL     1       2.336 -47.978 -19.038  1.00  0.00     0.016 A 
HETATM   12  C10 UNL     1       2.284 -48.175 -20.479  1.00  0.00    -0.028 A 
HETATM   13  C11 UNL     1       3.455 -48.882 -21.165  1.00  0.00     0.016 C 
HETATM   14  C12 UNL     1       1.309 -47.533 -21.418  1.00  0.00     0.090 C 
ENDROOT
BRANCH  14  15
HETATM   15  C13 UNL     1       1.822 -46.358 -22.150  1.00  0.00     0.183 C 
BRANCH  15  16
HETATM   16  O3  UNL     1       1.079 -46.288 -23.359  1.00  0.00    -0.390 OA
ATOM     17  H3  UNL     1       0.843 -45.375 -23.472  1.00  0.00     0.210 HD
ENDBRANCH  15  16
BRANCH  15  18
HETATM   18  C14 UNL     1       3.245 -46.331 -22.546  1.00  0.00     0.294 C 
HETATM   19  O4  UNL     1       3.462 -46.678 -23.916  1.00  0.00    -0.330 OA
HETATM   20  C15 UNL     1       4.760 -46.529 -24.386  1.00  0.00     0.136 C 
HETATM   21  C16 UNL     1       5.533 -45.647 -23.774  1.00  0.00     0.023 C 
HETATM   22  C17 UNL     1       5.013 -44.853 -22.628  1.00  0.00     0.200 C 
HETATM   23  O5  UNL     1       3.634 -44.965 -22.498  1.00  0.00    -0.355 OA
ENDBRANCH  15  18
ENDBRANCH  14  15
TORSDOF 3
ENDMDL
MODEL 3
REMARK VINA RESULT: -6.797333805      0.959      1.069
REMARK  3 active torsions:
REMARK  status: ('A' for Active; 'I' for Inactive)
REMARK    1  A    between atoms: C12_14  and  C13_15 
REMARK    2  A    between atoms: C13_15  and  O3_16 
REMARK    3  A    between atoms: C13_15  and  C14_18 
ROOT
HETATM    1  C1  UNL     1      -1.378 -44.933 -18.541  1.00  0.00     0.040 C 
HETATM    2  C2  UNL     1      -1.435 -46.168 -19.436  1.00  0.00     0.123 C 
HETATM    3  C3  UNL     1      -2.530 -45.914 -20.445  1.00  0.00     0.058 C 
HETATM    4  C4  UNL     1      -2.418 -46.966 -21.514  1.00  0.00     0.174 C 
HETATM    5  O1  UNL     1      -1.330 -47.760 -21.452  1.00  0.00    -0.354 OA
HETATM    6  C5  UNL     1      -0.137 -47.188 -21.061  1.00  0.00     0.174 C 
HETATM    7  O2  UNL     1      -0.240 -46.200 -20.137  1.00  0.00    -0.349 OA
HETATM    8  C6  UNL     1       0.661 -48.331 -20.406  1.00  0.00     0.049 C 
HETATM    9  C7  UNL     1       0.801 -48.154 -18.921  1.00  0.00     0.016 C 
HETATM   10  C8  UNL     1       2.045 -48.261 -21.003  1.00  0.00     0.004 A 
HETATM   11  C9  UNL     1       2.762 -46.971 -20.637  1.00  0.00     0.016 A 
HETATM   12  C10 UNL     1       2.122 -47.112 -21.936  1.00  0.00    -0.028 A 
HETATM   13  C11 UNL     1       3.003 -47.333 -23.168  1.00  0.00     0.016 C 
HETATM   14  C12 UNL     1       0.686 -46.816 -22.244  1.00  0.00     0.090 C 
ENDROOT
BRANCH  14  15
HETATM   15  C13 UNL     1       0.437 -45.507 -22.878  1.00  0.00     0.183 C 
BRANCH  15  16
HETATM   16  O3  UNL     1      -0.019 -44.646 -21.844  1.00  0.00    -0.390 OA
ATOM     17  H3  UNL     1      -0.344 -43.863 -22.274  1.00  0.00     0.210 HD
ENDBRANCH  15  16
BRANCH  15  18
HETATM   18  C14 UNL     1      -0.570 -45.417 -23.955  1.00  0.00     0.294 C 
HETATM   19  O4  UNL     1      -1.711 -44.629 -23.604  1.00  0.00    -0.330 OA
HETATM   20  C15 UNL     1      -2.623 -44.386 -24.623  1.00  0.00     0.136 C 
HETATM   21  C16 UNL     1      -2.171 -44.418 -25.867  1.00  0.00     0.023 C 
HETATM   22  C17 UNL     1      -0.737 -44.704 -26.142  1.00  0.00     0.200 C 
HETATM   23  O5  UNL     1       0.038 -44.654 -24.990  1.00  0.00    -0.355 OA
ENDBRANCH  15  18
ENDBRANCH  14  15
TORSDOF 3
ENDMDL
MODEL 4
REMARK VINA RESULT: -6.688198485      2.016      5.301
REMARK  3 active torsions:
REMARK  status: ('A' for Active; 'I' for Inactive)
REMARK    1  A    between atoms: C12_14  and  C13_15 
REMARK    2  A    between atoms: C13_15  and  O3_16 
REMARK    3  A    between atoms: C13_15  and  C14_18 
ROOT
HETATM    1  C1  UNL     1      -3.692 -46.303 -22.013  1.00  0.00     0.040 C 
HETATM    2  C2  UNL     1      -2.639 -45.899 -20.985  1.00  0.00     0.123 C 
HETATM    3  C3  UNL     1      -3.089 -46.476 -19.663  1.00  0.00     0.058 C 
HETATM    4  C4  UNL     1      -1.941 -46.354 -18.699  1.00  0.00     0.174 C 
HETATM    5  O1  UNL     1      -0.768 -45.944 -19.222  1.00  0.00    -0.354 OA
HETATM    6  C5  UNL     1      -0.432 -46.395 -20.482  1.00  0.00     0.174 C 
HETATM    7  O2  UNL     1      -1.473 -46.559 -21.338  1.00  0.00    -0.349 OA
HETATM    8  C6  UNL     1       0.467 -45.294 -21.076  1.00  0.00     0.049 C 
HETATM    9  C7  UNL     1      -0.204 -44.550 -22.195  1.00  0.00     0.016 C 
HETATM   10  C8  UNL     1       1.660 -46.009 -21.660  1.00  0.00     0.004 A 
HETATM   11  C9  UNL     1       1.274 -46.920 -22.815  1.00  0.00     0.016 A 
HETATM   12  C10 UNL     1       1.493 -47.471 -21.486  1.00  0.00    -0.028 A 
HETATM   13  C11 UNL     1       2.785 -48.246 -21.217  1.00  0.00     0.016 C 
HETATM   14  C12 UNL     1       0.466 -47.578 -20.400  1.00  0.00     0.090 C 
ENDROOT
BRANCH  14  15
HETATM   15  C13 UNL     1      -0.152 -48.909 -20.250  1.00  0.00     0.183 C 
BRANCH  15  16
HETATM   16  O3  UNL     1      -1.400 -48.846 -20.927  1.00  0.00    -0.390 OA
ATOM     17  H3  UNL     1      -2.058 -49.114 -20.295  1.00  0.00     0.210 HD
ENDBRANCH  15  16
BRANCH  15  18
HETATM   18  C14 UNL     1      -0.452 -49.408 -18.892  1.00  0.00     0.294 C 
HETATM   19  O4  UNL     1      -0.932 -50.754 -18.872  1.00  0.00    -0.330 OA
HETATM   20  C15 UNL     1      -1.092 -51.328 -17.617  1.00  0.00     0.136 C 
HETATM   21  C16 UNL     1      -0.350 -50.853 -16.631  1.00  0.00     0.023 C 
HETATM   22  C17 UNL     1       0.615 -49.747 -16.876  1.00  0.00     0.200 C 
HETATM   23  O5  UNL     1       0.804 -49.508 -18.231  1.00  0.00    -0.355 OA
ENDBRANCH  15  18
ENDBRANCH  14  15
TORSDOF 3
ENDMDL
MODEL 5
REMARK VINA RESULT: -6.664381363      1.929      5.445
REMARK  3 active torsions:
REMARK  status: ('A' for Active; 'I' for Inactive)
REMARK    1  A    between atoms: C12_14  and  C13_15 
REMARK    2  A    between atoms: C13_15  and  O3_16 
REMARK    3  A    between atoms: C13_15  and  C14_18 
ROOT
HETATM    1  C1  UNL     1      -3.935 -46.217 -22.749  1.00  0.00     0.040 C 
HETATM    2  C2  UNL     1      -3.010 -45.501 -21.770  1.00  0.00     0.123 C 
HETATM    3  C3  UNL     1      -3.715 -45.507 -20.433  1.00  0.00     0.058 C 
HETATM    4  C4  UNL     1      -2.719 -45.079 -19.390  1.00  0.00     0.174 C 
HETATM    5  O1  UNL     1      -1.443 -44.956 -19.806  1.00  0.00    -0.354 OA
HETATM    6  C5  UNL     1      -0.974 -45.869 -20.727  1.00  0.00     0.174 C 
HETATM    7  O2  UNL     1      -1.885 -46.299 -21.636  1.00  0.00    -0.349 OA
HETATM    8  C6  UNL     1       0.122 -45.122 -21.511  1.00  0.00     0.049 C 
HETATM    9  C7  UNL     1      -0.285 -44.831 -22.927  1.00  0.00     0.016 C 
HETATM   10  C8  UNL     1       1.302 -46.061 -21.563  1.00  0.00     0.004 A 
HETATM   11  C9  UNL     1       0.995 -47.325 -22.351  1.00  0.00     0.016 A 
HETATM   12  C10 UNL     1       0.948 -47.336 -20.896  1.00  0.00    -0.028 A 
HETATM   13  C11 UNL     1       2.090 -48.008 -20.131  1.00  0.00     0.016 C 
HETATM   14  C12 UNL     1      -0.236 -46.972 -20.053  1.00  0.00     0.090 C 
ENDROOT
BRANCH  14  15
HETATM   15  C13 UNL     1      -1.015 -48.114 -19.538  1.00  0.00     0.183 C 
BRANCH  15  16
HETATM   16  O3  UNL     1      -2.024 -47.563 -18.703  1.00  0.00    -0.390 OA
ATOM     17  H3  UNL     1      -2.333 -48.275 -18.155  1.00  0.00     0.210 HD
ENDBRANCH  15  16
BRANCH  15  18
HETATM   18  C14 UNL     1      -0.327 -49.137 -18.724  1.00  0.00     0.294 C 
HETATM   19  O4  UNL     1       0.238 -48.618 -17.517  1.00  0.00    -0.330 OA
HETATM   20  C15 UNL     1       0.770 -49.554 -16.639  1.00  0.00     0.136 C 
HETATM   21  C16 UNL     1       0.286 -50.784 -16.694  1.00  0.00     0.023 C 
HETATM   22  C17 UNL     1      -0.787 -51.133 -17.664  1.00  0.00     0.200 C 
HETATM   23  O5  UNL     1      -1.349 -50.005 -18.249  1.00  0.00    -0.355 OA
ENDBRANCH  15  18
ENDBRANCH  14  15
TORSDOF 3
ENDMDL
