MODEL 1
REMARK VINA RESULT: -7.410175396      0.000      0.000
REMARK  4 active torsions:
REMARK  status: ('A' for Active; 'I' for Inactive)
REMARK    1  A    between atoms: C2_2  and  O1_6 
REMARK    2  A    between atoms: O1_6  and  C3_7 
REMARK    3  A    between atoms: C3_7  and  C4_9 
REMARK    4  A    between atoms: C10_16  and  C11_17 
ROOT
HETATM    1  C4  UNL     1      -0.443 -47.389 -19.647  1.00  0.00     0.152 C 
HETATM    2  C5  UNL     1      -0.493 -47.284 -18.122  1.00  0.00     0.057 C 
HETATM    3  O3  UNL     1       0.459 -46.526 -20.209  1.00  0.00    -0.356 OA
HETATM    4  C6  UNL     1       0.222 -46.104 -21.465  1.00  0.00     0.093 C 
HETATM    5  C7  UNL     1       1.581 -45.848 -22.136  1.00  0.00     0.049 C 
HETATM    6  C8  UNL     1      -0.562 -46.974 -22.363  1.00  0.00     0.160 C 
HETATM    7  C9  UNL     1      -1.594 -47.832 -21.715  1.00  0.00     0.046 C 
HETATM    8  C10 UNL     1      -1.801 -47.347 -20.269  1.00  0.00     0.067 C 
HETATM    9  C11 UNL     1      -2.525 -46.088 -20.305  1.00  0.00     0.067 C 
HETATM   10  C12 UNL     1      -3.934 -46.334 -19.722  1.00  0.00     0.047 C 
HETATM   11  C13 UNL     1      -1.987 -44.917 -19.569  1.00  0.00     0.039 C 
HETATM   12  C14 UNL     1      -0.743 -44.319 -20.134  1.00  0.00     0.015 C 
HETATM   13  C15 UNL     1      -0.539 -44.788 -21.531  1.00  0.00     0.078 C 
HETATM   14  C16 UNL     1      -1.747 -45.149 -22.287  1.00  0.00     0.268 C 
HETATM   15  O4  UNL     1      -1.253 -46.086 -23.223  1.00  0.00    -0.352 OA
HETATM   16  O5  UNL     1      -2.798 -45.660 -21.621  1.00  0.00    -0.350 OA
ENDROOT
BRANCH   1  17
HETATM   17  C3  UNL     1       0.087 -48.782 -19.911  1.00  0.00     0.300 C 
HETATM   18  O2  UNL     1       1.261 -48.997 -20.306  1.00  0.00    -0.261 OA
BRANCH  17  19
HETATM   19  O1  UNL     1      -0.701 -49.908 -19.730  1.00  0.00    -0.264 OA
BRANCH  19  20
HETATM   20  C2  UNL     1      -0.647 -50.660 -18.571  1.00  0.00     0.117 C 
HETATM   21  C1  UNL     1      -1.693 -51.655 -18.289  1.00  0.00     0.097 C 
HETATM   22  N1  UNL     1       0.338 -50.450 -17.775  1.00  0.00    -0.383 N 
ATOM     23  H12 UNL     1       0.378 -51.005 -16.919  1.00  0.00     0.157 HD
ATOM     24  H11 UNL     1       1.063 -49.760 -17.971  1.00  0.00     0.157 HD
ENDBRANCH  19  20
ENDBRANCH  17  19
ENDBRANCH   1  17
TORSDOF 4
ENDMDL
MODEL 2
REMARK VINA RESULT: -7.067061917      1.189      1.973
REMARK  4 active torsions:
REMARK  status: ('A' for Active; 'I' for Inactive)
REMARK    1  A    between atoms: C2_2  and  O1_6 
REMARK    2  A    between atoms: O1_6  and  C3_7 
REMARK    3  A    between atoms: C3_7  and  C4_9 
REMARK    4  A    between atoms: C10_16  and  C11_17 
ROOT
HETATM    1  C4  UNL     1      -0.273 -47.442 -19.627  1.00  0.00     0.152 C 
HETATM    2  C5  UNL     1      -0.261 -47.386 -18.099  1.00  0.00     0.057 C 
HETATM    3  O3  UNL     1       0.542 -46.503 -20.199  1.00  0.00    -0.356 OA
HETATM    4  C6  UNL     1       0.220 -46.061 -21.429  1.00  0.00     0.093 C 
HETATM    5  C7  UNL     1       1.526 -45.692 -22.150  1.00  0.00     0.049 C 
HETATM    6  C8  UNL     1      -0.543 -46.957 -22.321  1.00  0.00     0.160 C 
HETATM    7  C9  UNL     1      -1.484 -47.903 -21.657  1.00  0.00     0.046 C 
HETATM    8  C10 UNL     1      -1.658 -47.477 -20.188  1.00  0.00     0.067 C 
HETATM    9  C11 UNL     1      -2.466 -46.271 -20.151  1.00  0.00     0.067 C 
HETATM   10  C12 UNL     1      -3.827 -46.630 -19.517  1.00  0.00     0.047 C 
HETATM   11  C13 UNL     1      -1.976 -45.087 -19.402  1.00  0.00     0.039 C 
HETATM   12  C14 UNL     1      -0.802 -44.388 -20.001  1.00  0.00     0.015 C 
HETATM   13  C15 UNL     1      -0.631 -44.800 -21.419  1.00  0.00     0.078 C 
HETATM   14  C16 UNL     1      -1.845 -45.222 -22.134  1.00  0.00     0.268 C 
HETATM   15  O4  UNL     1      -1.331 -46.094 -23.120  1.00  0.00    -0.352 OA
HETATM   16  O5  UNL     1      -2.827 -45.823 -21.439  1.00  0.00    -0.350 OA
ENDROOT
BRANCH   1  17
HETATM   17  C3  UNL     1       0.338 -48.787 -19.960  1.00  0.00     0.300 C 
HETATM   18  O2  UNL     1      -0.242 -49.875 -19.716  1.00  0.00    -0.261 OA
BRANCH  17  19
HETATM   19  O1  UNL     1       1.585 -48.892 -20.558  1.00  0.00    -0.264 OA
BRANCH  19  20
HETATM   20  C2  UNL     1       2.756 -48.709 -19.846  1.00  0.00     0.117 C 
HETATM   21  C1  UNL     1       3.898 -48.022 -20.468  1.00  0.00     0.097 C 
HETATM   22  N1  UNL     1       2.794 -49.159 -18.643  1.00  0.00    -0.383 N 
ATOM     23  H12 UNL     1       3.658 -49.023 -18.117  1.00  0.00     0.157 HD
ATOM     24  H11 UNL     1       2.002 -49.635 -18.212  1.00  0.00     0.157 HD
ENDBRANCH  19  20
ENDBRANCH  17  19
ENDBRANCH   1  17
TORSDOF 4
ENDMDL
MODEL 3
REMARK VINA RESULT: -5.958446965      2.427      4.049
REMARK  4 active torsions:
REMARK  status: ('A' for Active; 'I' for Inactive)
REMARK    1  A    between atoms: C2_2  and  O1_6 
REMARK    2  A    between atoms: O1_6  and  C3_7 
REMARK    3  A    between atoms: C3_7  and  C4_9 
REMARK    4  A    between atoms: C10_16  and  C11_17 
ROOT
HETATM    1  C4  UNL     1       1.070 -46.890 -20.785  1.00  0.00     0.152 C 
HETATM    2  C5  UNL     1       2.227 -46.845 -19.786  1.00  0.00     0.057 C 
HETATM    3  O3  UNL     1       0.531 -45.655 -21.029  1.00  0.00    -0.356 OA
HETATM    4  C6  UNL     1      -0.764 -45.599 -21.393  1.00  0.00     0.093 C 
HETATM    5  C7  UNL     1      -0.938 -44.379 -22.312  1.00  0.00     0.049 C 
HETATM    6  C8  UNL     1      -1.352 -46.764 -22.083  1.00  0.00     0.160 C 
HETATM    7  C9  UNL     1      -0.793 -48.097 -21.720  1.00  0.00     0.046 C 
HETATM    8  C10 UNL     1       0.064 -47.943 -20.450  1.00  0.00     0.067 C 
HETATM    9  C11 UNL     1      -0.823 -47.740 -19.319  1.00  0.00     0.067 C 
HETATM   10  C12 UNL     1      -0.743 -48.994 -18.421  1.00  0.00     0.047 C 
HETATM   11  C13 UNL     1      -0.597 -46.586 -18.413  1.00  0.00     0.039 C 
HETATM   12  C14 UNL     1      -0.890 -45.244 -18.996  1.00  0.00     0.015 C 
HETATM   13  C15 UNL     1      -1.716 -45.390 -20.225  1.00  0.00     0.078 C 
HETATM   14  C16 UNL     1      -2.583 -46.575 -20.298  1.00  0.00     0.268 C 
HETATM   15  O4  UNL     1      -2.712 -46.773 -21.692  1.00  0.00    -0.352 OA
HETATM   16  O5  UNL     1      -2.182 -47.708 -19.696  1.00  0.00    -0.350 OA
ENDROOT
BRANCH   1  17
HETATM   17  C3  UNL     1       1.711 -47.332 -22.084  1.00  0.00     0.300 C 
HETATM   18  O2  UNL     1       2.263 -48.453 -22.221  1.00  0.00    -0.261 OA
BRANCH  17  19
HETATM   19  O1  UNL     1       1.724 -46.515 -23.205  1.00  0.00    -0.264 OA
BRANCH  19  20
HETATM   20  C2  UNL     1       2.834 -46.414 -24.023  1.00  0.00     0.117 C 
HETATM   21  C1  UNL     1       3.941 -45.520 -23.655  1.00  0.00     0.097 C 
HETATM   22  N1  UNL     1       2.846 -47.124 -25.094  1.00  0.00    -0.383 N 
ATOM     23  H12 UNL     1       3.665 -47.049 -25.698  1.00  0.00     0.157 HD
ATOM     24  H11 UNL     1       2.077 -47.744 -25.349  1.00  0.00     0.157 HD
ENDBRANCH  19  20
ENDBRANCH  17  19
ENDBRANCH   1  17
TORSDOF 4
ENDMDL
MODEL 4
REMARK VINA RESULT: -5.772803759      2.300      4.580
REMARK  4 active torsions:
REMARK  status: ('A' for Active; 'I' for Inactive)
REMARK    1  A    between atoms: C2_2  and  O1_6 
REMARK    2  A    between atoms: O1_6  and  C3_7 
REMARK    3  A    between atoms: C3_7  and  C4_9 
REMARK    4  A    between atoms: C10_16  and  C11_17 
ROOT
HETATM    1  C4  UNL     1      -1.144 -46.278 -19.751  1.00  0.00     0.152 C 
HETATM    2  C5  UNL     1      -1.142 -44.749 -19.761  1.00  0.00     0.057 C 
HETATM    3  O3  UNL     1      -0.471 -46.803 -18.681  1.00  0.00    -0.356 OA
HETATM    4  C6  UNL     1       0.084 -48.020 -18.826  1.00  0.00     0.093 C 
HETATM    5  C7  UNL     1       0.071 -48.708 -17.452  1.00  0.00     0.049 C 
HETATM    6  C8  UNL     1      -0.516 -48.955 -19.798  1.00  0.00     0.160 C 
HETATM    7  C9  UNL     1      -1.160 -48.341 -20.994  1.00  0.00     0.046 C 
HETATM    8  C10 UNL     1      -0.748 -46.860 -21.070  1.00  0.00     0.067 C 
HETATM    9  C11 UNL     1       0.642 -46.790 -21.485  1.00  0.00     0.067 C 
HETATM   10  C12 UNL     1       0.683 -46.190 -22.907  1.00  0.00     0.047 C 
HETATM   11  C13 UNL     1       1.603 -45.990 -20.686  1.00  0.00     0.039 C 
HETATM   12  C14 UNL     1       1.940 -46.545 -19.343  1.00  0.00     0.015 C 
HETATM   13  C15 UNL     1       1.541 -47.975 -19.266  1.00  0.00     0.078 C 
HETATM   14  C16 UNL     1       1.520 -48.723 -20.532  1.00  0.00     0.268 C 
HETATM   15  O4  UNL     1       0.566 -49.733 -20.275  1.00  0.00    -0.352 OA
HETATM   16  O5  UNL     1       1.216 -48.066 -21.665  1.00  0.00    -0.350 OA
ENDROOT
BRANCH   1  17
HETATM   17  C3  UNL     1      -2.598 -46.651 -19.557  1.00  0.00     0.300 C 
HETATM   18  O2  UNL     1      -3.068 -46.992 -18.443  1.00  0.00    -0.261 OA
BRANCH  17  19
HETATM   19  O1  UNL     1      -3.501 -46.638 -20.610  1.00  0.00    -0.264 OA
BRANCH  19  20
HETATM   20  C2  UNL     1      -4.565 -45.756 -20.651  1.00  0.00     0.117 C 
HETATM   21  C1  UNL     1      -4.942 -45.114 -21.919  1.00  0.00     0.097 C 
HETATM   22  N1  UNL     1      -5.191 -45.533 -19.552  1.00  0.00    -0.383 N 
ATOM     23  H12 UNL     1      -5.976 -44.883 -19.582  1.00  0.00     0.157 HD
ATOM     24  H11 UNL     1      -4.929 -45.979 -18.672  1.00  0.00     0.157 HD
ENDBRANCH  19  20
ENDBRANCH  17  19
ENDBRANCH   1  17
TORSDOF 4
ENDMDL
MODEL 5
REMARK VINA RESULT: -5.603337267      2.542      4.982
REMARK  4 active torsions:
REMARK  status: ('A' for Active; 'I' for Inactive)
REMARK    1  A    between atoms: C2_2  and  O1_6 
REMARK    2  A    between atoms: O1_6  and  C3_7 
REMARK    3  A    between atoms: C3_7  and  C4_9 
REMARK    4  A    between atoms: C10_16  and  C11_17 
ROOT
HETATM    1  C4  UNL     1      -0.488 -44.989 -21.306  1.00  0.00     0.152 C 
HETATM    2  C5  UNL     1       0.009 -43.759 -20.545  1.00  0.00     0.057 C 
HETATM    3  O3  UNL     1      -1.832 -45.201 -21.154  1.00  0.00    -0.356 OA
HETATM    4  C6  UNL     1      -2.282 -46.464 -21.261  1.00  0.00     0.093 C 
HETATM    5  C7  UNL     1      -3.711 -46.406 -21.822  1.00  0.00     0.049 C 
HETATM    6  C8  UNL     1      -1.517 -47.417 -22.089  1.00  0.00     0.160 C 
HETATM    7  C9  UNL     1      -0.044 -47.199 -22.153  1.00  0.00     0.046 C 
HETATM    8  C10 UNL     1       0.356 -46.197 -21.055  1.00  0.00     0.067 C 
HETATM    9  C11 UNL     1       0.269 -46.866 -19.769  1.00  0.00     0.067 C 
HETATM   10  C12 UNL     1       1.703 -47.026 -19.220  1.00  0.00     0.047 C 
HETATM   11  C13 UNL     1      -0.511 -46.239 -18.673  1.00  0.00     0.039 C 
HETATM   12  C14 UNL     1      -1.991 -46.224 -18.864  1.00  0.00     0.015 C 
HETATM   13  C15 UNL     1      -2.379 -47.190 -19.926  1.00  0.00     0.078 C 
HETATM   14  C16 UNL     1      -1.492 -48.346 -20.121  1.00  0.00     0.268 C 
HETATM   15  O4  UNL     1      -1.715 -48.677 -21.477  1.00  0.00    -0.352 OA
HETATM   16  O5  UNL     1      -0.176 -48.199 -19.883  1.00  0.00    -0.350 OA
ENDROOT
BRANCH   1  17
HETATM   17  C3  UNL     1      -0.280 -44.639 -22.765  1.00  0.00     0.300 C 
HETATM   18  O2  UNL     1       0.774 -44.923 -23.387  1.00  0.00    -0.261 OA
BRANCH  17  19
HETATM   19  O1  UNL     1      -1.253 -43.978 -23.501  1.00  0.00    -0.264 OA
BRANCH  19  20
HETATM   20  C2  UNL     1      -1.906 -44.584 -24.559  1.00  0.00     0.117 C 
HETATM   21  C1  UNL     1      -3.330 -44.307 -24.801  1.00  0.00     0.097 C 
HETATM   22  N1  UNL     1      -1.222 -45.379 -25.299  1.00  0.00    -0.383 N 
ATOM     23  H12 UNL     1      -1.705 -45.826 -26.080  1.00  0.00     0.157 HD
ATOM     24  H11 UNL     1      -0.235 -45.571 -25.131  1.00  0.00     0.157 HD
ENDBRANCH  19  20
ENDBRANCH  17  19
ENDBRANCH   1  17
TORSDOF 4
ENDMDL
