MODEL 1
REMARK VINA RESULT: -6.651391801      0.000      0.000
REMARK  4 active torsions:
REMARK  status: ('A' for Active; 'I' for Inactive)
REMARK    1  A    between atoms: C2_2  and  O2_4 
REMARK    2  A    between atoms: O2_4  and  C3_5 
REMARK    3  A    between atoms: C13_17  and  C15_19 
REMARK    4  A    between atoms: C15_19  and  O5_22 
ROOT
HETATM    1  C3  UNL     1      -2.656 -46.458 -20.194  1.00  0.00     0.134 C 
HETATM    2  C4  UNL     1      -2.179 -46.984 -18.883  1.00  0.00     0.065 C 
HETATM    3  C5  UNL     1      -0.726 -47.401 -18.871  1.00  0.00     0.134 C 
HETATM    4  O3  UNL     1       0.075 -46.290 -18.902  1.00  0.00    -0.371 OA
HETATM    5  C6  UNL     1       1.095 -46.323 -19.856  1.00  0.00     0.202 C 
HETATM    6  C7  UNL     1       1.811 -47.618 -19.844  1.00  0.00     0.157 C 
HETATM    7  O4  UNL     1       3.003 -47.662 -19.801  1.00  0.00    -0.295 OA
HETATM    8  C8  UNL     1       0.955 -48.825 -19.886  1.00  0.00     0.093 C 
HETATM    9  C9  UNL     1      -0.456 -48.291 -20.055  1.00  0.00    -0.006 C 
HETATM   10  C10 UNL     1      -1.382 -49.438 -20.197  1.00  0.00     0.018 C 
HETATM   11  C11 UNL     1      -0.551 -47.356 -21.272  1.00  0.00     0.013 C 
HETATM   12  C12 UNL     1      -1.993 -47.017 -21.406  1.00  0.00     0.039 C 
HETATM   13  C13 UNL     1       0.407 -46.232 -21.231  1.00  0.00     0.024 C 
HETATM   14  C14 UNL     1      -0.200 -44.856 -21.282  1.00  0.00     0.022 C 
ENDROOT
BRANCH  13  15
HETATM   15  C15 UNL     1       1.397 -46.318 -22.362  1.00  0.00     0.061 C 
HETATM   16  C16 UNL     1       2.686 -45.609 -22.095  1.00  0.00     0.046 C 
HETATM   17  C17 UNL     1       0.733 -45.589 -23.541  1.00  0.00     0.046 C 
BRANCH  15  18
HETATM   18  O5  UNL     1       1.661 -47.588 -22.806  1.00  0.00    -0.390 OA
ATOM     19  H5  UNL     1       2.367 -48.033 -22.354  1.00  0.00     0.210 HD
ENDBRANCH  15  18
ENDBRANCH  13  15
BRANCH   1  20
HETATM   20  O2  UNL     1      -4.064 -46.704 -20.358  1.00  0.00    -0.316 OA
BRANCH  20  21
HETATM   21  C2  UNL     1      -4.973 -45.741 -20.708  1.00  0.00     0.255 C 
HETATM   22  C1  UNL     1      -5.030 -45.102 -22.054  1.00  0.00     0.126 C 
HETATM   23  O1  UNL     1      -5.806 -45.394 -19.800  1.00  0.00    -0.266 OA
ENDBRANCH  20  21
ENDBRANCH   1  20
TORSDOF 4
ENDMDL
MODEL 2
REMARK VINA RESULT: -6.645638205      1.516      1.937
REMARK  4 active torsions:
REMARK  status: ('A' for Active; 'I' for Inactive)
REMARK    1  A    between atoms: C2_2  and  O2_4 
REMARK    2  A    between atoms: O2_4  and  C3_5 
REMARK    3  A    between atoms: C13_17  and  C15_19 
REMARK    4  A    between atoms: C15_19  and  O5_22 
ROOT
HETATM    1  C3  UNL     1      -1.645 -46.834 -20.747  1.00  0.00     0.134 C 
HETATM    2  C4  UNL     1      -1.674 -46.835 -19.256  1.00  0.00     0.065 C 
HETATM    3  C5  UNL     1      -0.439 -47.422 -18.609  1.00  0.00     0.134 C 
HETATM    4  O3  UNL     1       0.613 -46.556 -18.752  1.00  0.00    -0.371 OA
HETATM    5  C6  UNL     1       1.792 -47.132 -19.230  1.00  0.00     0.202 C 
HETATM    6  C7  UNL     1       2.105 -48.397 -18.529  1.00  0.00     0.157 C 
HETATM    7  O4  UNL     1       3.190 -48.596 -18.073  1.00  0.00    -0.295 OA
HETATM    8  C8  UNL     1       0.993 -49.371 -18.437  1.00  0.00     0.093 C 
HETATM    9  C9  UNL     1      -0.131 -48.751 -19.245  1.00  0.00    -0.006 C 
HETATM   10  C10 UNL     1      -1.266 -49.702 -19.285  1.00  0.00     0.018 C 
HETATM   11  C11 UNL     1       0.340 -48.399 -20.667  1.00  0.00     0.013 C 
HETATM   12  C12 UNL     1      -0.875 -47.936 -21.389  1.00  0.00     0.039 C 
HETATM   13  C13 UNL     1       1.523 -47.516 -20.698  1.00  0.00     0.024 C 
HETATM   14  C14 UNL     1       1.344 -46.211 -21.424  1.00  0.00     0.022 C 
ENDROOT
BRANCH  13  15
HETATM   15  C15 UNL     1       2.705 -48.209 -21.323  1.00  0.00     0.061 C 
HETATM   16  C16 UNL     1       4.022 -47.591 -20.979  1.00  0.00     0.046 C 
HETATM   17  C17 UNL     1       2.523 -48.036 -22.839  1.00  0.00     0.046 C 
BRANCH  15  18
HETATM   18  O5  UNL     1       2.767 -49.561 -21.104  1.00  0.00    -0.390 OA
ATOM     19  H5  UNL     1       3.569 -49.865 -20.696  1.00  0.00     0.210 HD
ENDBRANCH  15  18
ENDBRANCH  13  15
BRANCH   1  20
HETATM   20  O2  UNL     1      -2.979 -46.912 -21.280  1.00  0.00    -0.316 OA
BRANCH  20  21
HETATM   21  C2  UNL     1      -3.553 -45.937 -22.051  1.00  0.00     0.255 C 
HETATM   22  C1  UNL     1      -4.936 -45.420 -21.846  1.00  0.00     0.126 C 
HETATM   23  O1  UNL     1      -2.829 -45.466 -22.996  1.00  0.00    -0.266 OA
ENDBRANCH  20  21
ENDBRANCH   1  20
TORSDOF 4
ENDMDL
MODEL 3
REMARK VINA RESULT: -6.630471662      2.496      4.614
REMARK  4 active torsions:
REMARK  status: ('A' for Active; 'I' for Inactive)
REMARK    1  A    between atoms: C2_2  and  O2_4 
REMARK    2  A    between atoms: O2_4  and  C3_5 
REMARK    3  A    between atoms: C13_17  and  C15_19 
REMARK    4  A    between atoms: C15_19  and  O5_22 
ROOT
HETATM    1  C3  UNL     1       0.260 -48.598 -18.586  1.00  0.00     0.134 C 
HETATM    2  C4  UNL     1      -1.138 -48.335 -19.031  1.00  0.00     0.065 C 
HETATM    3  C5  UNL     1      -1.253 -47.364 -20.185  1.00  0.00     0.134 C 
HETATM    4  O3  UNL     1      -0.823 -47.965 -21.339  1.00  0.00    -0.371 OA
HETATM    5  C6  UNL     1       0.090 -47.220 -22.089  1.00  0.00     0.202 C 
HETATM    6  C7  UNL     1      -0.343 -45.812 -22.232  1.00  0.00     0.157 C 
HETATM    7  O4  UNL     1      -0.365 -45.280 -23.301  1.00  0.00    -0.295 OA
HETATM    8  C8  UNL     1      -0.737 -45.131 -20.978  1.00  0.00     0.093 C 
HETATM    9  C9  UNL     1      -0.435 -46.137 -19.883  1.00  0.00    -0.006 C 
HETATM   10  C10 UNL     1      -0.717 -45.507 -18.571  1.00  0.00     0.018 C 
HETATM   11  C11 UNL     1       1.024 -46.616 -19.958  1.00  0.00     0.013 C 
HETATM   12  C12 UNL     1       1.227 -47.478 -18.763  1.00  0.00     0.039 C 
HETATM   13  C13 UNL     1       1.395 -47.181 -21.271  1.00  0.00     0.024 C 
HETATM   14  C14 UNL     1       1.895 -48.600 -21.252  1.00  0.00     0.022 C 
ENDROOT
BRANCH  13  15
HETATM   15  C15 UNL     1       2.455 -46.351 -21.944  1.00  0.00     0.061 C 
HETATM   16  C16 UNL     1       2.556 -46.573 -23.419  1.00  0.00     0.046 C 
HETATM   17  C17 UNL     1       3.787 -46.822 -21.337  1.00  0.00     0.046 C 
BRANCH  15  18
HETATM   18  O5  UNL     1       2.384 -45.005 -21.692  1.00  0.00    -0.390 OA
ATOM     19  H5  UNL     1       1.645 -44.560 -22.090  1.00  0.00     0.210 HD
ENDBRANCH  15  18
ENDBRANCH  13  15
BRANCH   1  20
HETATM   20  O2  UNL     1       0.292 -48.938 -17.188  1.00  0.00    -0.316 OA
BRANCH  20  21
HETATM   21  C2  UNL     1       0.427 -50.216 -16.714  1.00  0.00     0.255 C 
HETATM   22  C1  UNL     1      -0.621 -51.267 -16.847  1.00  0.00     0.126 C 
HETATM   23  O1  UNL     1       1.532 -50.485 -16.128  1.00  0.00    -0.266 OA
ENDBRANCH  20  21
ENDBRANCH   1  20
TORSDOF 4
ENDMDL
MODEL 4
REMARK VINA RESULT: -6.432595550      2.266      3.086
REMARK  4 active torsions:
REMARK  status: ('A' for Active; 'I' for Inactive)
REMARK    1  A    between atoms: C2_2  and  O2_4 
REMARK    2  A    between atoms: O2_4  and  C3_5 
REMARK    3  A    between atoms: C13_17  and  C15_19 
REMARK    4  A    between atoms: C15_19  and  O5_22 
ROOT
HETATM    1  C3  UNL     1      -0.150 -44.904 -22.236  1.00  0.00     0.134 C 
HETATM    2  C4  UNL     1      -1.005 -45.015 -21.019  1.00  0.00     0.065 C 
HETATM    3  C5  UNL     1      -0.694 -46.210 -20.146  1.00  0.00     0.134 C 
HETATM    4  O3  UNL     1       0.494 -46.010 -19.494  1.00  0.00    -0.371 OA
HETATM    5  C6  UNL     1       1.397 -47.074 -19.571  1.00  0.00     0.202 C 
HETATM    6  C7  UNL     1       0.736 -48.370 -19.300  1.00  0.00     0.157 C 
HETATM    7  O4  UNL     1       1.196 -49.143 -18.514  1.00  0.00    -0.295 OA
HETATM    8  C8  UNL     1      -0.510 -48.626 -20.057  1.00  0.00     0.093 C 
HETATM    9  C9  UNL     1      -0.635 -47.447 -21.003  1.00  0.00    -0.006 C 
HETATM   10  C10 UNL     1      -1.816 -47.660 -21.872  1.00  0.00     0.018 C 
HETATM   11  C11 UNL     1       0.640 -47.274 -21.844  1.00  0.00     0.013 C 
HETATM   12  C12 UNL     1       0.338 -46.188 -22.814  1.00  0.00     0.039 C 
HETATM   13  C13 UNL     1       1.869 -47.138 -21.036  1.00  0.00     0.024 C 
HETATM   14  C14 UNL     1       2.657 -45.875 -21.256  1.00  0.00     0.022 C 
ENDROOT
BRANCH  13  15
HETATM   15  C15 UNL     1       2.810 -48.289 -21.273  1.00  0.00     0.061 C 
HETATM   16  C16 UNL     1       4.117 -48.162 -20.560  1.00  0.00     0.046 C 
HETATM   17  C17 UNL     1       3.126 -48.253 -22.777  1.00  0.00     0.046 C 
BRANCH  15  18
HETATM   18  O5  UNL     1       2.279 -49.530 -21.031  1.00  0.00    -0.390 OA
ATOM     19  H5  UNL     1       1.818 -49.616 -20.205  1.00  0.00     0.210 HD
ENDBRANCH  15  18
ENDBRANCH  13  15
BRANCH   1  20
HETATM   20  O2  UNL     1      -0.857 -44.231 -23.293  1.00  0.00    -0.316 OA
BRANCH  20  21
HETATM   21  C2  UNL     1      -1.792 -44.834 -24.092  1.00  0.00     0.255 C 
HETATM   22  C1  UNL     1      -3.220 -45.022 -23.706  1.00  0.00     0.126 C 
HETATM   23  O1  UNL     1      -1.378 -45.249 -25.230  1.00  0.00    -0.266 OA
ENDBRANCH  20  21
ENDBRANCH   1  20
TORSDOF 4
ENDMDL
MODEL 5
REMARK VINA RESULT: -6.374744754      2.213      2.859
REMARK  4 active torsions:
REMARK  status: ('A' for Active; 'I' for Inactive)
REMARK    1  A    between atoms: C2_2  and  O2_4 
REMARK    2  A    between atoms: O2_4  and  C3_5 
REMARK    3  A    between atoms: C13_17  and  C15_19 
REMARK    4  A    between atoms: C15_19  and  O5_22 
ROOT
HETATM    1  C3  UNL     1      -0.451 -45.837 -21.542  1.00  0.00     0.134 C 
HETATM    2  C4  UNL     1      -0.763 -45.855 -20.083  1.00  0.00     0.065 C 
HETATM    3  C5  UNL     1       0.107 -46.788 -19.272  1.00  0.00     0.134 C 
HETATM    4  O3  UNL     1       1.370 -46.268 -19.164  1.00  0.00    -0.371 OA
HETATM    5  C6  UNL     1       2.404 -47.157 -19.466  1.00  0.00     0.202 C 
HETATM    6  C7  UNL     1       2.203 -48.469 -18.812  1.00  0.00     0.157 C 
HETATM    7  O4  UNL     1       3.079 -48.986 -18.187  1.00  0.00    -0.295 OA
HETATM    8  C8  UNL     1       0.863 -49.075 -18.987  1.00  0.00     0.093 C 
HETATM    9  C9  UNL     1       0.138 -48.139 -19.936  1.00  0.00    -0.006 C 
HETATM   10  C10 UNL     1      -1.192 -48.714 -20.244  1.00  0.00     0.018 C 
HETATM   11  C11 UNL     1       0.951 -47.918 -21.223  1.00  0.00     0.013 C 
HETATM   12  C12 UNL     1       0.079 -47.107 -22.114  1.00  0.00     0.039 C 
HETATM   13  C13 UNL     1       2.320 -47.421 -20.981  1.00  0.00     0.024 C 
HETATM   14  C14 UNL     1       2.663 -46.110 -21.633  1.00  0.00     0.022 C 
ENDROOT
BRANCH  13  15
HETATM   15  C15 UNL     1       3.352 -48.420 -21.435  1.00  0.00     0.061 C 
HETATM   16  C16 UNL     1       4.735 -48.129 -20.946  1.00  0.00     0.046 C 
HETATM   17  C17 UNL     1       3.393 -48.296 -22.966  1.00  0.00     0.046 C 
BRANCH  15  18
HETATM   18  O5  UNL     1       3.044 -49.730 -21.172  1.00  0.00    -0.390 OA
ATOM     19  H5  UNL     1       2.378 -50.107 -21.735  1.00  0.00     0.210 HD
ENDBRANCH  15  18
ENDBRANCH  13  15
BRANCH   1  20
HETATM   20  O2  UNL     1      -1.625 -45.512 -22.307  1.00  0.00    -0.316 OA
BRANCH  20  21
HETATM   21  C2  UNL     1      -1.602 -44.805 -23.480  1.00  0.00     0.255 C 
HETATM   22  C1  UNL     1      -2.756 -44.715 -24.420  1.00  0.00     0.126 C 
HETATM   23  O1  UNL     1      -0.508 -44.200 -23.752  1.00  0.00    -0.266 OA
ENDBRANCH  20  21
ENDBRANCH   1  20
TORSDOF 4
ENDMDL
