MODEL 1
REMARK VINA RESULT: -8.094272712      0.000      0.000
REMARK  5 active torsions:
REMARK  status: ('A' for Active; 'I' for Inactive)
REMARK    1  A    between atoms: C6_6  and  C7_7 
REMARK    2  A    between atoms: C7_7  and  O1_8 
REMARK    3  A    between atoms: C10_12  and  C11_13 
REMARK    4  A    between atoms: C13_15  and  O2_16 
REMARK    5  A    between atoms: C14_18  and  C15_19 
REMARK       I    between atoms: C15_19  and  N1_21 
ROOT
HETATM    1  C11 UNL     1      10.667  24.049   6.912  1.00  0.00    -0.006 C 
HETATM    2  C12 UNL     1      11.996  23.830   7.509  1.00  0.00     0.037 C 
HETATM    3  C13 UNL     1      11.976  24.387   8.927  1.00  0.00     0.131 C 
HETATM    4  C14 UNL     1      11.040  25.548   8.787  1.00  0.00     0.107 C 
HETATM    5  C20 UNL     1      10.083  25.217   7.692  1.00  0.00     0.022 C 
ENDROOT
BRANCH   1   6
HETATM    6  C10 UNL     1       9.699  22.931   6.969  1.00  0.00    -0.001 C 
HETATM    7  C2  UNL     1       9.505  22.154   5.715  1.00  0.00    -0.030 C 
HETATM    8  C1  UNL     1       9.541  23.008   4.467  1.00  0.00     0.016 C 
HETATM    9  C3  UNL     1      10.409  20.980   5.547  1.00  0.00     0.010 C 
HETATM   10  C6  UNL     1       8.132  21.547   5.912  1.00  0.00    -0.011 C 
HETATM   11  C4  UNL     1       9.554  19.731   5.513  1.00  0.00     0.002 C 
HETATM   12  C5  UNL     1       8.398  20.164   6.424  1.00  0.00     0.012 C 
HETATM   13  C8  UNL     1       7.430  22.339   6.961  1.00  0.00     0.013 C 
HETATM   14  C9  UNL     1       8.303  23.543   7.153  1.00  0.00     0.007 C 
BRANCH  10  15
HETATM   15  C7  UNL     1       7.327  21.524   4.636  1.00  0.00     0.174 C 
BRANCH  15  16
HETATM   16  O1  UNL     1       6.198  20.733   4.891  1.00  0.00    -0.400 OA
ATOM     17  H1  UNL     1       6.194  20.047   4.235  1.00  0.00     0.209 HD
ENDBRANCH  15  16
ENDBRANCH  10  15
ENDBRANCH   1   6
BRANCH   3  18
HETATM   18  O2  UNL     1      11.387  23.442   9.788  1.00  0.00    -0.395 OA
ATOM     19  H2  UNL     1      11.051  23.886  10.557  1.00  0.00     0.210 HD
ENDBRANCH   3  18
BRANCH   4  20
HETATM   20  C15 UNL     1      11.730  26.841   8.564  1.00  0.00     0.226 C 
HETATM   21  O3  UNL     1      11.769  27.265   7.381  1.00  0.00    -0.273 OA
HETATM   22  N1  UNL     1      12.324  27.579   9.613  1.00  0.00    -0.352 N 
HETATM   23  C16 UNL     1      12.398  27.291  11.016  1.00  0.00     0.126 C 
HETATM   24  C19 UNL     1      13.015  28.858   9.458  1.00  0.00     0.126 C 
HETATM   25  C17 UNL     1      12.478  28.628  11.730  1.00  0.00     0.021 C 
HETATM   26  C18 UNL     1      12.366  29.637  10.609  1.00  0.00     0.021 C 
ENDBRANCH   4  20
TORSDOF 5
ENDMDL
MODEL 2
REMARK VINA RESULT: -7.863540653      1.661      2.215
REMARK  5 active torsions:
REMARK  status: ('A' for Active; 'I' for Inactive)
REMARK    1  A    between atoms: C6_6  and  C7_7 
REMARK    2  A    between atoms: C7_7  and  O1_8 
REMARK    3  A    between atoms: C10_12  and  C11_13 
REMARK    4  A    between atoms: C13_15  and  O2_16 
REMARK    5  A    between atoms: C14_18  and  C15_19 
REMARK       I    between atoms: C15_19  and  N1_21 
ROOT
HETATM    1  C11 UNL     1      11.704  25.280   8.056  1.00  0.00    -0.006 C 
HETATM    2  C12 UNL     1      12.697  24.824   9.044  1.00  0.00     0.037 C 
HETATM    3  C13 UNL     1      12.219  25.249  10.427  1.00  0.00     0.131 C 
HETATM    4  C14 UNL     1      11.517  26.537  10.126  1.00  0.00     0.107 C 
HETATM    5  C20 UNL     1      10.994  26.443   8.732  1.00  0.00     0.022 C 
ENDROOT
BRANCH   1   6
HETATM    6  C10 UNL     1      10.676  24.308   7.621  1.00  0.00    -0.001 C 
HETATM    7  C2  UNL     1      10.892  23.656   6.301  1.00  0.00    -0.030 C 
HETATM    8  C1  UNL     1      11.487  24.583   5.263  1.00  0.00     0.016 C 
HETATM    9  C3  UNL     1      11.665  22.381   6.340  1.00  0.00     0.010 C 
HETATM   10  C6  UNL     1       9.492  23.236   5.908  1.00  0.00    -0.011 C 
HETATM   11  C4  UNL     1      10.762  21.270   5.847  1.00  0.00     0.002 C 
HETATM   12  C5  UNL     1       9.399  21.796   6.314  1.00  0.00     0.012 C 
HETATM   13  C8  UNL     1       8.531  24.043   6.711  1.00  0.00     0.013 C 
HETATM   14  C9  UNL     1       9.385  25.096   7.351  1.00  0.00     0.007 C 
BRANCH  10  15
HETATM   15  C7  UNL     1       9.233  23.416   4.432  1.00  0.00     0.174 C 
BRANCH  15  16
HETATM   16  O1  UNL     1       8.140  24.286   4.322  1.00  0.00    -0.400 OA
ATOM     17  H1  UNL     1       8.484  25.115   4.013  1.00  0.00     0.209 HD
ENDBRANCH  15  16
ENDBRANCH  10  15
ENDBRANCH   1   6
BRANCH   3  18
HETATM   18  O2  UNL     1      11.268  24.322  10.893  1.00  0.00    -0.395 OA
ATOM     19  H2  UNL     1      10.407  24.572  10.579  1.00  0.00     0.210 HD
ENDBRANCH   3  18
BRANCH   4  20
HETATM   20  C15 UNL     1      12.365  27.736  10.333  1.00  0.00     0.226 C 
HETATM   21  O3  UNL     1      12.743  28.347   9.302  1.00  0.00    -0.273 OA
HETATM   22  N1  UNL     1      12.744  28.188  11.617  1.00  0.00    -0.352 N 
HETATM   23  C16 UNL     1      12.433  27.655  12.912  1.00  0.00     0.126 C 
HETATM   24  C19 UNL     1      13.575  29.361  11.887  1.00  0.00     0.126 C 
HETATM   25  C17 UNL     1      12.461  28.824  13.881  1.00  0.00     0.021 C 
HETATM   26  C18 UNL     1      12.736  30.016  12.992  1.00  0.00     0.021 C 
ENDBRANCH   4  20
TORSDOF 5
ENDMDL
MODEL 3
REMARK VINA RESULT: -7.548131510      1.595      2.195
REMARK  5 active torsions:
REMARK  status: ('A' for Active; 'I' for Inactive)
REMARK    1  A    between atoms: C6_6  and  C7_7 
REMARK    2  A    between atoms: C7_7  and  O1_8 
REMARK    3  A    between atoms: C10_12  and  C11_13 
REMARK    4  A    between atoms: C13_15  and  O2_16 
REMARK    5  A    between atoms: C14_18  and  C15_19 
REMARK       I    between atoms: C15_19  and  N1_21 
ROOT
HETATM    1  C11 UNL     1      10.123  24.516   6.323  1.00  0.00    -0.006 C 
HETATM    2  C12 UNL     1      10.896  25.420   5.453  1.00  0.00     0.037 C 
HETATM    3  C13 UNL     1      12.337  25.434   5.944  1.00  0.00     0.131 C 
HETATM    4  C14 UNL     1      12.159  25.259   7.421  1.00  0.00     0.107 C 
HETATM    5  C20 UNL     1      10.905  24.478   7.628  1.00  0.00     0.022 C 
ENDROOT
BRANCH   1   6
HETATM    6  C10 UNL     1       9.931  23.123   5.865  1.00  0.00    -0.001 C 
HETATM    7  C2  UNL     1       8.705  22.847   5.067  1.00  0.00    -0.030 C 
HETATM    8  C1  UNL     1       7.493  23.619   5.542  1.00  0.00     0.016 C 
HETATM    9  C3  UNL     1       8.856  23.005   3.592  1.00  0.00     0.010 C 
HETATM   10  C6  UNL     1       8.508  21.360   5.269  1.00  0.00    -0.011 C 
HETATM   11  C4  UNL     1       8.616  21.655   2.949  1.00  0.00     0.002 C 
HETATM   12  C5  UNL     1       9.126  20.727   4.059  1.00  0.00     0.012 C 
HETATM   13  C8  UNL     1       9.271  20.959   6.484  1.00  0.00     0.013 C 
HETATM   14  C9  UNL     1       9.670  22.262   7.110  1.00  0.00     0.007 C 
BRANCH  10  15
HETATM   15  C7  UNL     1       7.053  20.988   5.409  1.00  0.00     0.174 C 
BRANCH  15  16
HETATM   16  O1  UNL     1       6.989  19.590   5.336  1.00  0.00    -0.400 OA
ATOM     17  H1  UNL     1       7.867  19.288   5.135  1.00  0.00     0.209 HD
ENDBRANCH  15  16
ENDBRANCH  10  15
ENDBRANCH   1   6
BRANCH   3  18
HETATM   18  O2  UNL     1      13.010  24.304   5.441  1.00  0.00    -0.395 OA
ATOM     19  H2  UNL     1      13.914  24.323   5.732  1.00  0.00     0.210 HD
ENDBRANCH   3  18
BRANCH   4  20
HETATM   20  C15 UNL     1      12.160  26.537   8.173  1.00  0.00     0.226 C 
HETATM   21  O3  UNL     1      11.962  27.585   7.508  1.00  0.00    -0.273 OA
HETATM   22  N1  UNL     1      12.373  26.599   9.569  1.00  0.00    -0.352 N 
HETATM   23  C16 UNL     1      12.615  25.547  10.513  1.00  0.00     0.126 C 
HETATM   24  C19 UNL     1      12.384  27.825  10.366  1.00  0.00     0.126 C 
HETATM   25  C17 UNL     1      12.083  26.032  11.850  1.00  0.00     0.021 C 
HETATM   26  C18 UNL     1      11.481  27.381  11.524  1.00  0.00     0.021 C 
ENDBRANCH   4  20
TORSDOF 5
ENDMDL
MODEL 4
REMARK VINA RESULT: -7.508176233      1.842      3.420
REMARK  5 active torsions:
REMARK  status: ('A' for Active; 'I' for Inactive)
REMARK    1  A    between atoms: C6_6  and  C7_7 
REMARK    2  A    between atoms: C7_7  and  O1_8 
REMARK    3  A    between atoms: C10_12  and  C11_13 
REMARK    4  A    between atoms: C13_15  and  O2_16 
REMARK    5  A    between atoms: C14_18  and  C15_19 
REMARK       I    between atoms: C15_19  and  N1_21 
ROOT
HETATM    1  C11 UNL     1      10.559  25.382   8.600  1.00  0.00    -0.006 C 
HETATM    2  C12 UNL     1      10.352  26.836   8.713  1.00  0.00     0.037 C 
HETATM    3  C13 UNL     1      11.706  27.490   8.957  1.00  0.00     0.131 C 
HETATM    4  C14 UNL     1      12.413  26.441   9.758  1.00  0.00     0.107 C 
HETATM    5  C20 UNL     1      11.856  25.118   9.348  1.00  0.00     0.022 C 
ENDROOT
BRANCH   1   6
HETATM    6  C10 UNL     1      10.692  24.813   7.241  1.00  0.00    -0.001 C 
HETATM    7  C2  UNL     1       9.743  23.725   6.878  1.00  0.00    -0.030 C 
HETATM    8  C1  UNL     1       9.444  22.782   8.022  1.00  0.00     0.016 C 
HETATM    9  C3  UNL     1       8.468  24.176   6.250  1.00  0.00     0.010 C 
HETATM   10  C6  UNL     1      10.477  23.005   5.766  1.00  0.00    -0.011 C 
HETATM   11  C4  UNL     1       8.411  23.610   4.846  1.00  0.00     0.002 C 
HETATM   12  C5  UNL     1       9.905  23.574   4.503  1.00  0.00     0.012 C 
HETATM   13  C8  UNL     1      11.919  23.364   5.864  1.00  0.00     0.013 C 
HETATM   14  C9  UNL     1      12.031  24.063   7.186  1.00  0.00     0.007 C 
BRANCH  10  15
HETATM   15  C7  UNL     1      10.295  21.509   5.835  1.00  0.00     0.174 C 
BRANCH  15  16
HETATM   16  O1  UNL     1      11.544  20.941   5.547  1.00  0.00    -0.400 OA
ATOM     17  H1  UNL     1      11.481  20.020   5.769  1.00  0.00     0.209 HD
ENDBRANCH  15  16
ENDBRANCH  10  15
ENDBRANCH   1   6
BRANCH   3  18
HETATM   18  O2  UNL     1      12.377  27.638   7.728  1.00  0.00    -0.395 OA
ATOM     19  H2  UNL     1      13.313  27.677   7.885  1.00  0.00     0.210 HD
ENDBRANCH   3  18
BRANCH   4  20
HETATM   20  C15 UNL     1      12.331  26.660  11.223  1.00  0.00     0.226 C 
HETATM   21  O3  UNL     1      12.178  25.639  11.940  1.00  0.00    -0.273 OA
HETATM   22  N1  UNL     1      12.418  27.943  11.807  1.00  0.00    -0.352 N 
HETATM   23  C16 UNL     1      12.590  29.227  11.191  1.00  0.00     0.126 C 
HETATM   24  C19 UNL     1      12.346  28.224  13.240  1.00  0.00     0.126 C 
HETATM   25  C17 UNL     1      13.296  30.106  12.209  1.00  0.00     0.021 C 
HETATM   26  C18 UNL     1      13.546  29.172  13.372  1.00  0.00     0.021 C 
ENDBRANCH   4  20
TORSDOF 5
ENDMDL
MODEL 5
REMARK VINA RESULT: -7.326822808      2.822      7.616
REMARK  5 active torsions:
REMARK  status: ('A' for Active; 'I' for Inactive)
REMARK    1  A    between atoms: C6_6  and  C7_7 
REMARK    2  A    between atoms: C7_7  and  O1_8 
REMARK    3  A    between atoms: C10_12  and  C11_13 
REMARK    4  A    between atoms: C13_15  and  O2_16 
REMARK    5  A    between atoms: C14_18  and  C15_19 
REMARK       I    between atoms: C15_19  and  N1_21 
ROOT
HETATM    1  C11 UNL     1      10.347  23.983   5.975  1.00  0.00    -0.006 C 
HETATM    2  C12 UNL     1       9.250  24.422   5.094  1.00  0.00     0.037 C 
HETATM    3  C13 UNL     1       8.089  23.450   5.263  1.00  0.00     0.131 C 
HETATM    4  C14 UNL     1       8.804  22.161   5.526  1.00  0.00     0.107 C 
HETATM    5  C20 UNL     1      10.098  22.497   6.187  1.00  0.00     0.022 C 
ENDROOT
BRANCH   1   6
HETATM    6  C10 UNL     1      10.455  24.623   7.304  1.00  0.00    -0.001 C 
HETATM    7  C2  UNL     1      11.661  25.461   7.544  1.00  0.00    -0.030 C 
HETATM    8  C1  UNL     1      12.917  24.900   6.915  1.00  0.00     0.016 C 
HETATM    9  C3  UNL     1      11.517  26.901   7.184  1.00  0.00     0.010 C 
HETATM   10  C6  UNL     1      11.769  25.459   9.054  1.00  0.00    -0.011 C 
HETATM   11  C4  UNL     1      11.675  27.719   8.449  1.00  0.00     0.002 C 
HETATM   12  C5  UNL     1      11.112  26.736   9.484  1.00  0.00     0.012 C 
HETATM   13  C8  UNL     1      10.985  24.301   9.566  1.00  0.00     0.013 C 
HETATM   14  C9  UNL     1      10.666  23.505   8.336  1.00  0.00     0.007 C 
BRANCH  10  15
HETATM   15  C7  UNL     1      13.200  25.383   9.526  1.00  0.00     0.174 C 
BRANCH  15  16
HETATM   16  O1  UNL     1      13.156  24.987  10.870  1.00  0.00    -0.400 OA
ATOM     17  H1  UNL     1      13.655  24.181  10.931  1.00  0.00     0.209 HD
ENDBRANCH  15  16
ENDBRANCH  10  15
ENDBRANCH   1   6
BRANCH   3  18
HETATM   18  O2  UNL     1       7.359  23.796   6.416  1.00  0.00    -0.395 OA
ATOM     19  H2  UNL     1       6.462  23.989   6.172  1.00  0.00     0.210 HD
ENDBRANCH   3  18
BRANCH   4  20
HETATM   20  C15 UNL     1       8.989  21.328   4.312  1.00  0.00     0.226 C 
HETATM   21  O3  UNL     1       9.099  21.939   3.219  1.00  0.00    -0.273 OA
HETATM   22  N1  UNL     1       9.040  19.917   4.357  1.00  0.00    -0.352 N 
HETATM   23  C16 UNL     1       8.938  19.026   5.476  1.00  0.00     0.126 C 
HETATM   24  C19 UNL     1       9.221  19.042   3.199  1.00  0.00     0.126 C 
HETATM   25  C17 UNL     1       9.724  17.779   5.112  1.00  0.00     0.021 C 
HETATM   26  C18 UNL     1      10.305  18.110   3.754  1.00  0.00     0.021 C 
ENDBRANCH   4  20
TORSDOF 5
ENDMDL
