MODEL 1
REMARK VINA RESULT: -7.321737520      0.000      0.000
REMARK  6 active torsions:
REMARK  status: ('A' for Active; 'I' for Inactive)
REMARK    1  A    between atoms: N1_1  and  C1_5 
REMARK    2  A    between atoms: C1_5  and  C2_6 
REMARK    3  A    between atoms: C2_6  and  N2_7 
REMARK       I    between atoms: N2_7  and  C3_9 
REMARK    4  A    between atoms: C3_9  and  C4_11 
REMARK    5  A    between atoms: C12_19  and  C13_20 
REMARK    6  A    between atoms: C14_21  and  C15_22 
ROOT
HETATM    1  C4  UNL     1      12.895  27.405   7.973  1.00  0.00     0.061 C 
HETATM    2  C5  UNL     1      12.699  27.544   6.499  1.00  0.00     0.025 C 
HETATM    3  C6  UNL     1      11.989  26.327   5.941  1.00  0.00    -0.013 C 
HETATM    4  C7  UNL     1      12.730  25.068   6.206  1.00  0.00     0.010 C 
HETATM    5  C8  UNL     1      12.622  24.521   7.581  1.00  0.00    -0.008 C 
HETATM    6  C9  UNL     1      11.139  24.430   7.979  1.00  0.00     0.011 C 
HETATM    7  C10 UNL     1      10.832  25.936   8.034  1.00  0.00     0.008 C 
HETATM    8  C11 UNL     1      10.608  26.355   6.609  1.00  0.00     0.011 C 
HETATM    9  C12 UNL     1      12.017  26.495   8.692  1.00  0.00     0.047 C 
HETATM   10  C20 UNL     1      13.130  25.439   8.654  1.00  0.00     0.013 C 
HETATM   11  C21 UNL     1      14.081  26.506   8.255  1.00  0.00     0.027 C 
ENDROOT
BRANCH   1  12
HETATM   12  C3  UNL     1      13.131  28.751   8.591  1.00  0.00     0.228 C 
HETATM   13  N2  UNL     1      12.170  29.782   8.455  1.00  0.00    -0.359 N 
ATOM     14  H2  UNL     1      11.332  29.552   7.921  1.00  0.00     0.162 HD
HETATM   15  O1  UNL     1      14.186  28.978   9.237  1.00  0.00    -0.273 OA
BRANCH  13  16
HETATM   16  C2  UNL     1      12.242  31.100   8.977  1.00  0.00     0.150 C 
BRANCH  16  17
HETATM   17  C1  UNL     1      11.682  32.126   8.031  1.00  0.00     0.249 C 
BRANCH  17  18
HETATM   18  N1  UNL     1      11.924  31.764   6.646  1.00  0.00    -0.078 N 
ATOM     19  H13 UNL     1      11.234  31.091   6.311  1.00  0.00     0.274 HD
ATOM     20  H12 UNL     1      11.709  32.536   6.016  1.00  0.00     0.274 HD
ATOM     21  H11 UNL     1      12.875  31.423   6.507  1.00  0.00     0.274 HD
ENDBRANCH  17  18
ENDBRANCH  16  17
ENDBRANCH  13  16
ENDBRANCH   1  12
BRANCH   9  22
HETATM   22  C13 UNL     1      11.813  26.934  10.095  1.00  0.00    -0.094 C 
HETATM   23  C14 UNL     1      11.628  27.281  11.235  1.00  0.00    -0.101 C 
BRANCH  23  24
HETATM   24  C15 UNL     1      11.379  27.695  12.625  1.00  0.00     0.065 C 
HETATM   25  C16 UNL     1      11.413  26.508  13.563  1.00  0.00     0.017 C 
HETATM   26  C17 UNL     1      12.829  26.518  14.061  1.00  0.00     0.001 C 
HETATM   27  C18 UNL     1      13.071  28.009  14.285  1.00  0.00     0.001 C 
HETATM   28  C19 UNL     1      12.520  28.596  13.019  1.00  0.00     0.017 C 
ENDBRANCH  23  24
ENDBRANCH   9  22
TORSDOF 6
ENDMDL
MODEL 2
REMARK VINA RESULT: -7.315233052      1.718      2.161
REMARK  6 active torsions:
REMARK  status: ('A' for Active; 'I' for Inactive)
REMARK    1  A    between atoms: N1_1  and  C1_5 
REMARK    2  A    between atoms: C1_5  and  C2_6 
REMARK    3  A    between atoms: C2_6  and  N2_7 
REMARK       I    between atoms: N2_7  and  C3_9 
REMARK    4  A    between atoms: C3_9  and  C4_11 
REMARK    5  A    between atoms: C12_19  and  C13_20 
REMARK    6  A    between atoms: C14_21  and  C15_22 
ROOT
HETATM    1  C4  UNL     1      12.339  25.785   6.923  1.00  0.00     0.061 C 
HETATM    2  C5  UNL     1      12.184  25.475   5.471  1.00  0.00     0.025 C 
HETATM    3  C6  UNL     1      11.149  24.386   5.268  1.00  0.00    -0.013 C 
HETATM    4  C7  UNL     1      11.497  23.134   5.986  1.00  0.00     0.010 C 
HETATM    5  C8  UNL     1      11.243  23.126   7.448  1.00  0.00    -0.008 C 
HETATM    6  C9  UNL     1       9.800  23.582   7.718  1.00  0.00     0.011 C 
HETATM    7  C10 UNL     1       9.940  25.044   7.263  1.00  0.00     0.008 C 
HETATM    8  C11 UNL     1       9.839  25.011   5.764  1.00  0.00     0.011 C 
HETATM    9  C12 UNL     1      11.239  25.442   7.812  1.00  0.00     0.047 C 
HETATM   10  C20 UNL     1      12.001  24.172   8.214  1.00  0.00     0.013 C 
HETATM   11  C21 UNL     1      13.216  24.741   7.583  1.00  0.00     0.027 C 
ENDROOT
BRANCH   1  12
HETATM   12  C3  UNL     1      12.957  27.140   7.098  1.00  0.00     0.228 C 
HETATM   13  N2  UNL     1      12.506  28.240   6.328  1.00  0.00    -0.359 N 
ATOM     14  H2  UNL     1      11.756  28.049   5.664  1.00  0.00     0.162 HD
HETATM   15  O1  UNL     1      13.882  27.314   7.932  1.00  0.00    -0.273 OA
BRANCH  13  16
HETATM   16  C2  UNL     1      12.981  29.576   6.375  1.00  0.00     0.150 C 
BRANCH  16  17
HETATM   17  C1  UNL     1      13.013  30.224   5.018  1.00  0.00     0.249 C 
BRANCH  17  18
HETATM   18  N1  UNL     1      14.354  30.653   4.662  1.00  0.00    -0.078 N 
ATOM     19  H13 UNL     1      14.917  30.844   5.491  1.00  0.00     0.274 HD
ATOM     20  H12 UNL     1      14.901  29.883   4.275  1.00  0.00     0.274 HD
ATOM     21  H11 UNL     1      14.338  31.453   4.030  1.00  0.00     0.274 HD
ENDBRANCH  17  18
ENDBRANCH  16  17
ENDBRANCH  13  16
ENDBRANCH   1  12
BRANCH   9  22
HETATM   22  C13 UNL     1      11.180  26.360   8.978  1.00  0.00    -0.094 C 
HETATM   23  C14 UNL     1      11.145  27.091   9.935  1.00  0.00    -0.101 C 
BRANCH  23  24
HETATM   24  C15 UNL     1      11.118  27.967  11.117  1.00  0.00     0.065 C 
HETATM   25  C16 UNL     1      11.251  27.167  12.395  1.00  0.00     0.017 C 
HETATM   26  C17 UNL     1      12.724  27.228  12.674  1.00  0.00     0.001 C 
HETATM   27  C18 UNL     1      13.045  28.683  12.337  1.00  0.00     0.001 C 
HETATM   28  C19 UNL     1      12.333  28.852  11.027  1.00  0.00     0.017 C 
ENDBRANCH  23  24
ENDBRANCH   9  22
TORSDOF 6
ENDMDL
MODEL 3
REMARK VINA RESULT: -7.276969085      1.834      5.312
REMARK  6 active torsions:
REMARK  status: ('A' for Active; 'I' for Inactive)
REMARK    1  A    between atoms: N1_1  and  C1_5 
REMARK    2  A    between atoms: C1_5  and  C2_6 
REMARK    3  A    between atoms: C2_6  and  N2_7 
REMARK       I    between atoms: N2_7  and  C3_9 
REMARK    4  A    between atoms: C3_9  and  C4_11 
REMARK    5  A    between atoms: C12_19  and  C13_20 
REMARK    6  A    between atoms: C14_21  and  C15_22 
ROOT
HETATM    1  C4  UNL     1      12.347  27.378   9.105  1.00  0.00     0.061 C 
HETATM    2  C5  UNL     1      12.722  26.625  10.339  1.00  0.00     0.025 C 
HETATM    3  C6  UNL     1      12.593  25.133  10.109  1.00  0.00    -0.013 C 
HETATM    4  C7  UNL     1      11.219  24.737   9.710  1.00  0.00     0.010 C 
HETATM    5  C8  UNL     1      10.844  25.004   8.299  1.00  0.00    -0.008 C 
HETATM    6  C9  UNL     1      11.921  24.424   7.367  1.00  0.00     0.011 C 
HETATM    7  C10 UNL     1      13.074  25.369   7.745  1.00  0.00     0.008 C 
HETATM    8  C11 UNL     1      13.637  24.825   9.027  1.00  0.00     0.011 C 
HETATM    9  C12 UNL     1      12.419  26.677   7.833  1.00  0.00     0.047 C 
HETATM   10  C20 UNL     1      10.902  26.452   7.906  1.00  0.00     0.013 C 
HETATM   11  C21 UNL     1      10.839  27.462   8.990  1.00  0.00     0.027 C 
ENDROOT
BRANCH   1  12
HETATM   12  C3  UNL     1      12.922  28.763   9.151  1.00  0.00     0.228 C 
HETATM   13  N2  UNL     1      12.073  29.895   9.095  1.00  0.00    -0.359 N 
ATOM     14  H2  UNL     1      11.073  29.707   9.021  1.00  0.00     0.162 HD
HETATM   15  O1  UNL     1      14.165  28.933   9.241  1.00  0.00    -0.273 OA
BRANCH  13  16
HETATM   16  C2  UNL     1      12.456  31.261   9.131  1.00  0.00     0.150 C 
BRANCH  16  17
HETATM   17  C1  UNL     1      11.595  32.124   8.250  1.00  0.00     0.249 C 
BRANCH  17  18
HETATM   18  N1  UNL     1      11.868  31.891   6.843  1.00  0.00    -0.078 N 
ATOM     19  H13 UNL     1      12.853  32.035   6.625  1.00  0.00     0.274 HD
ATOM     20  H12 UNL     1      11.798  30.900   6.609  1.00  0.00     0.274 HD
ATOM     21  H11 UNL     1      11.267  32.458   6.245  1.00  0.00     0.274 HD
ENDBRANCH  17  18
ENDBRANCH  16  17
ENDBRANCH  13  16
ENDBRANCH   1  12
BRANCH   9  22
HETATM   22  C13 UNL     1      12.716  27.610   6.717  1.00  0.00    -0.094 C 
HETATM   23  C14 UNL     1      12.936  28.375   5.812  1.00  0.00    -0.101 C 
BRANCH  23  24
HETATM   24  C15 UNL     1      13.181  29.317   4.708  1.00  0.00     0.065 C 
HETATM   25  C16 UNL     1      14.120  28.723   3.680  1.00  0.00     0.017 C 
HETATM   26  C17 UNL     1      13.178  28.144   2.665  1.00  0.00     0.001 C 
HETATM   27  C18 UNL     1      12.111  29.232   2.571  1.00  0.00     0.001 C 
HETATM   28  C19 UNL     1      11.858  29.531   4.020  1.00  0.00     0.017 C 
ENDBRANCH  23  24
ENDBRANCH   9  22
TORSDOF 6
ENDMDL
MODEL 4
REMARK VINA RESULT: -7.118326523      3.665      6.717
REMARK  6 active torsions:
REMARK  status: ('A' for Active; 'I' for Inactive)
REMARK    1  A    between atoms: N1_1  and  C1_5 
REMARK    2  A    between atoms: C1_5  and  C2_6 
REMARK    3  A    between atoms: C2_6  and  N2_7 
REMARK       I    between atoms: N2_7  and  C3_9 
REMARK    4  A    between atoms: C3_9  and  C4_11 
REMARK    5  A    between atoms: C12_19  and  C13_20 
REMARK    6  A    between atoms: C14_21  and  C15_22 
ROOT
HETATM    1  C4  UNL     1      11.557  25.246   6.885  1.00  0.00     0.061 C 
HETATM    2  C5  UNL     1      12.968  25.734   6.932  1.00  0.00     0.025 C 
HETATM    3  C6  UNL     1      13.462  25.788   8.364  1.00  0.00    -0.013 C 
HETATM    4  C7  UNL     1      12.626  26.666   9.219  1.00  0.00     0.010 C 
HETATM    5  C8  UNL     1      11.330  26.101   9.670  1.00  0.00    -0.008 C 
HETATM    6  C9  UNL     1      11.568  24.718  10.298  1.00  0.00     0.011 C 
HETATM    7  C10 UNL     1      12.003  23.969   9.026  1.00  0.00     0.008 C 
HETATM    8  C11 UNL     1      13.449  24.324   8.824  1.00  0.00     0.011 C 
HETATM    9  C12 UNL     1      11.070  24.466   8.011  1.00  0.00     0.047 C 
HETATM   10  C20 UNL     1      10.395  25.732   8.556  1.00  0.00     0.013 C 
HETATM   11  C21 UNL     1      10.609  26.373   7.236  1.00  0.00     0.027 C 
ENDROOT
BRANCH   1  12
HETATM   12  C3  UNL     1      11.235  24.733   5.512  1.00  0.00     0.228 C 
HETATM   13  N2  UNL     1      10.100  25.212   4.814  1.00  0.00    -0.359 N 
ATOM     14  H2  UNL     1       9.533  25.909   5.298  1.00  0.00     0.162 HD
HETATM   15  O1  UNL     1      11.971  23.871   4.967  1.00  0.00    -0.273 OA
BRANCH  13  16
HETATM   16  C2  UNL     1       9.663  24.833   3.518  1.00  0.00     0.150 C 
BRANCH  16  17
HETATM   17  C1  UNL     1      10.149  25.774   2.449  1.00  0.00     0.249 C 
BRANCH  17  18
HETATM   18  N1  UNL     1       9.209  26.857   2.223  1.00  0.00    -0.078 N 
ATOM     19  H13 UNL     1       9.216  27.523   2.996  1.00  0.00     0.274 HD
ATOM     20  H12 UNL     1       9.528  27.477   1.478  1.00  0.00     0.274 HD
ATOM     21  H11 UNL     1       8.269  26.507   2.041  1.00  0.00     0.274 HD
ENDBRANCH  17  18
ENDBRANCH  16  17
ENDBRANCH  13  16
ENDBRANCH   1  12
BRANCH   9  22
HETATM   22  C13 UNL     1      10.022  23.502   7.589  1.00  0.00    -0.094 C 
HETATM   23  C14 UNL     1       9.187  22.702   7.248  1.00  0.00    -0.101 C 
BRANCH  23  24
HETATM   24  C15 UNL     1       8.184  21.709   6.834  1.00  0.00     0.065 C 
HETATM   25  C16 UNL     1       7.401  22.192   5.631  1.00  0.00     0.017 C 
HETATM   26  C17 UNL     1       8.143  21.576   4.481  1.00  0.00     0.001 C 
HETATM   27  C18 UNL     1       8.443  20.178   5.016  1.00  0.00     0.001 C 
HETATM   28  C19 UNL     1       8.944  20.484   6.397  1.00  0.00     0.017 C 
ENDBRANCH  23  24
ENDBRANCH   9  22
TORSDOF 6
ENDMDL
MODEL 5
REMARK VINA RESULT: -7.116028624      2.202      5.449
REMARK  6 active torsions:
REMARK  status: ('A' for Active; 'I' for Inactive)
REMARK    1  A    between atoms: N1_1  and  C1_5 
REMARK    2  A    between atoms: C1_5  and  C2_6 
REMARK    3  A    between atoms: C2_6  and  N2_7 
REMARK       I    between atoms: N2_7  and  C3_9 
REMARK    4  A    between atoms: C3_9  and  C4_11 
REMARK    5  A    between atoms: C12_19  and  C13_20 
REMARK    6  A    between atoms: C14_21  and  C15_22 
ROOT
HETATM    1  C4  UNL     1      12.301  26.908   8.736  1.00  0.00     0.061 C 
HETATM    2  C5  UNL     1      12.903  26.152   9.874  1.00  0.00     0.025 C 
HETATM    3  C6  UNL     1      12.768  24.659   9.649  1.00  0.00    -0.013 C 
HETATM    4  C7  UNL     1      11.354  24.236   9.492  1.00  0.00     0.010 C 
HETATM    5  C8  UNL     1      10.731  24.508   8.173  1.00  0.00    -0.008 C 
HETATM    6  C9  UNL     1      11.638  23.963   7.059  1.00  0.00     0.011 C 
HETATM    7  C10 UNL     1      12.820  24.930   7.241  1.00  0.00     0.008 C 
HETATM    8  C11 UNL     1      13.611  24.387   8.397  1.00  0.00     0.011 C 
HETATM    9  C12 UNL     1      12.163  26.222   7.462  1.00  0.00     0.047 C 
HETATM   10  C20 UNL     1      10.688  25.961   7.797  1.00  0.00     0.013 C 
HETATM   11  C21 UNL     1      10.795  26.959   8.889  1.00  0.00     0.027 C 
ENDROOT
BRANCH   1  12
HETATM   12  C3  UNL     1      12.846  28.306   8.701  1.00  0.00     0.228 C 
HETATM   13  N2  UNL     1      11.980  29.418   8.848  1.00  0.00    -0.359 N 
ATOM     14  H2  UNL     1      10.990  29.206   8.974  1.00  0.00     0.162 HD
HETATM   15  O1  UNL     1      14.077  28.504   8.539  1.00  0.00    -0.273 OA
BRANCH  13  16
HETATM   16  C2  UNL     1      12.336  30.791   8.841  1.00  0.00     0.150 C 
BRANCH  16  17
HETATM   17  C1  UNL     1      12.649  31.313  10.217  1.00  0.00     0.249 C 
BRANCH  17  18
HETATM   18  N1  UNL     1      12.927  30.233  11.147  1.00  0.00    -0.078 N 
ATOM     19  H13 UNL     1      12.105  30.002  11.705  1.00  0.00     0.274 HD
ATOM     20  H12 UNL     1      13.043  29.343  10.661  1.00  0.00     0.274 HD
ATOM     21  H11 UNL     1      13.731  30.443  11.738  1.00  0.00     0.274 HD
ENDBRANCH  17  18
ENDBRANCH  16  17
ENDBRANCH  13  16
ENDBRANCH   1  12
BRANCH   9  22
HETATM   22  C13 UNL     1      12.239  27.173   6.324  1.00  0.00    -0.094 C 
HETATM   23  C14 UNL     1      12.278  27.945   5.399  1.00  0.00    -0.101 C 
BRANCH  23  24
HETATM   24  C15 UNL     1      12.301  28.884   4.266  1.00  0.00     0.065 C 
HETATM   25  C16 UNL     1      13.524  29.775   4.321  1.00  0.00     0.017 C 
HETATM   26  C17 UNL     1      14.500  29.054   3.438  1.00  0.00     0.001 C 
HETATM   27  C18 UNL     1      13.607  28.608   2.283  1.00  0.00     0.001 C 
HETATM   28  C19 UNL     1      12.421  28.053   3.016  1.00  0.00     0.017 C 
ENDBRANCH  23  24
ENDBRANCH   9  22
TORSDOF 6
ENDMDL
