MODEL 1
REMARK VINA RESULT: -8.614122779      0.000      0.000
REMARK  4 active torsions:
REMARK  status: ('A' for Active; 'I' for Inactive)
REMARK    1  A    between atoms: O1_2  and  C2_3 
REMARK       I    between atoms: C2_3  and  N1_5 
REMARK    2  A    between atoms: N1_5  and  C3_7 
REMARK    3  A    between atoms: C11_15  and  C12_16 
REMARK       I    between atoms: C12_16  and  N2_18 
REMARK    4  A    between atoms: N2_18  and  C13_20 
ROOT
HETATM    1  C3  UNL     1       7.859  21.107   5.696  1.00  0.00     0.091 C 
HETATM    2  C4  UNL     1       8.162  21.744   4.367  1.00  0.00     0.030 C 
HETATM    3  C5  UNL     1       9.364  22.620   4.369  1.00  0.00    -0.011 C 
HETATM    4  C6  UNL     1       8.951  24.086   4.563  1.00  0.00     0.010 C 
HETATM    5  C7  UNL     1       8.708  24.106   6.066  1.00  0.00     0.004 C 
HETATM    6  C8  UNL     1       7.346  23.489   6.307  1.00  0.00     0.012 C 
HETATM    7  C9  UNL     1       7.605  22.095   6.785  1.00  0.00     0.010 C 
HETATM    8  C10 UNL     1       8.883  22.256   7.579  1.00  0.00     0.026 C 
HETATM    9  C11 UNL     1       9.692  23.160   6.674  1.00  0.00     0.045 C 
HETATM   10  C19 UNL     1      10.293  22.418   5.514  1.00  0.00     0.024 C 
ENDROOT
BRANCH   9  11
HETATM   11  C12 UNL     1      10.697  23.873   7.482  1.00  0.00     0.227 C 
HETATM   12  O3  UNL     1      11.906  23.517   7.422  1.00  0.00    -0.273 OA
HETATM   13  N2  UNL     1      10.367  24.959   8.338  1.00  0.00    -0.356 N 
ATOM     14  H2  UNL     1       9.394  25.262   8.401  1.00  0.00     0.162 HD
BRANCH  13  15
HETATM   15  C13 UNL     1      11.372  25.649   9.126  1.00  0.00     0.084 C 
HETATM   16  C14 UNL     1      10.922  27.049   9.326  1.00  0.00     0.025 C 
HETATM   17  C15 UNL     1      11.525  27.780  10.478  1.00  0.00     0.002 C 
HETATM   18  C16 UNL     1      12.371  26.905  11.372  1.00  0.00     0.000 C 
HETATM   19  C17 UNL     1      11.539  25.658  11.637  1.00  0.00     0.002 C 
HETATM   20  C18 UNL     1      11.584  24.855  10.380  1.00  0.00     0.025 C 
ENDBRANCH  13  15
ENDBRANCH   9  11
BRANCH   1  21
HETATM   21  N1  UNL     1       6.740  20.229   5.583  1.00  0.00    -0.332 N 
HETATM   22  C2  UNL     1       6.655  18.938   6.120  1.00  0.00     0.360 C 
HETATM   23  O2  UNL     1       7.624  18.467   6.766  1.00  0.00    -0.239 OA
ATOM     24  H1  UNL     1       5.930  20.572   5.066  1.00  0.00     0.165 HD
BRANCH  22  25
HETATM   25  O1  UNL     1       5.535  18.137   5.971  1.00  0.00    -0.309 OA
HETATM   26  C1  UNL     1       5.164  17.151   6.886  1.00  0.00     0.215 C 
ENDBRANCH  22  25
ENDBRANCH   1  21
TORSDOF 4
ENDMDL
MODEL 2
REMARK VINA RESULT: -8.173055276      1.507      2.062
REMARK  4 active torsions:
REMARK  status: ('A' for Active; 'I' for Inactive)
REMARK    1  A    between atoms: O1_2  and  C2_3 
REMARK       I    between atoms: C2_3  and  N1_5 
REMARK    2  A    between atoms: N1_5  and  C3_7 
REMARK    3  A    between atoms: C11_15  and  C12_16 
REMARK       I    between atoms: C12_16  and  N2_18 
REMARK    4  A    between atoms: N2_18  and  C13_20 
ROOT
HETATM    1  C3  UNL     1       7.506  19.312   6.091  1.00  0.00     0.091 C 
HETATM    2  C4  UNL     1       8.088  18.992   4.742  1.00  0.00     0.030 C 
HETATM    3  C5  UNL     1       9.355  19.709   4.437  1.00  0.00    -0.011 C 
HETATM    4  C6  UNL     1       9.066  20.967   3.605  1.00  0.00     0.010 C 
HETATM    5  C7  UNL     1       8.579  21.910   4.696  1.00  0.00     0.004 C 
HETATM    6  C8  UNL     1       7.141  21.544   4.997  1.00  0.00     0.012 C 
HETATM    7  C9  UNL     1       7.174  20.756   6.269  1.00  0.00     0.010 C 
HETATM    8  C10 UNL     1       8.312  21.409   7.024  1.00  0.00     0.026 C 
HETATM    9  C11 UNL     1       9.347  21.574   5.933  1.00  0.00     0.045 C 
HETATM   10  C19 UNL     1      10.056  20.286   5.617  1.00  0.00     0.024 C 
ENDROOT
BRANCH   9  11
HETATM   11  C12 UNL     1      10.270  22.660   6.306  1.00  0.00     0.227 C 
HETATM   12  O3  UNL     1      11.132  23.055   5.473  1.00  0.00    -0.273 OA
HETATM   13  N2  UNL     1      10.238  23.294   7.578  1.00  0.00    -0.356 N 
ATOM     14  H2  UNL     1       9.549  22.988   8.266  1.00  0.00     0.162 HD
BRANCH  13  15
HETATM   15  C13 UNL     1      11.157  24.363   7.927  1.00  0.00     0.084 C 
HETATM   16  C14 UNL     1      10.421  25.649   7.847  1.00  0.00     0.025 C 
HETATM   17  C15 UNL     1      10.999  26.791   8.614  1.00  0.00     0.002 C 
HETATM   18  C16 UNL     1      12.155  26.397   9.503  1.00  0.00     0.000 C 
HETATM   19  C17 UNL     1      11.694  25.155  10.254  1.00  0.00     0.002 C 
HETATM   20  C18 UNL     1      11.739  24.035   9.269  1.00  0.00     0.025 C 
ENDBRANCH  13  15
ENDBRANCH   9  11
BRANCH   1  21
HETATM   21  N1  UNL     1       6.338  18.527   6.328  1.00  0.00    -0.332 N 
HETATM   22  C2  UNL     1       6.239  17.459   7.230  1.00  0.00     0.360 C 
HETATM   23  O2  UNL     1       7.239  17.126   7.914  1.00  0.00    -0.239 OA
ATOM     24  H1  UNL     1       5.502  18.763   5.794  1.00  0.00     0.165 HD
BRANCH  22  25
HETATM   25  O1  UNL     1       5.071  16.736   7.410  1.00  0.00    -0.309 OA
HETATM   26  C1  UNL     1       4.491  15.948   6.415  1.00  0.00     0.215 C 
ENDBRANCH  22  25
ENDBRANCH   1  21
TORSDOF 4
ENDMDL
MODEL 3
REMARK VINA RESULT: -8.156567164      3.425      4.902
REMARK  4 active torsions:
REMARK  status: ('A' for Active; 'I' for Inactive)
REMARK    1  A    between atoms: O1_2  and  C2_3 
REMARK       I    between atoms: C2_3  and  N1_5 
REMARK    2  A    between atoms: N1_5  and  C3_7 
REMARK    3  A    between atoms: C11_15  and  C12_16 
REMARK       I    between atoms: C12_16  and  N2_18 
REMARK    4  A    between atoms: N2_18  and  C13_20 
ROOT
HETATM    1  C3  UNL     1      10.674  23.992   6.326  1.00  0.00     0.091 C 
HETATM    2  C4  UNL     1      11.796  23.182   6.916  1.00  0.00     0.030 C 
HETATM    3  C5  UNL     1      12.189  23.592   8.291  1.00  0.00    -0.011 C 
HETATM    4  C6  UNL     1      13.394  24.543   8.237  1.00  0.00     0.010 C 
HETATM    5  C7  UNL     1      12.700  25.842   7.850  1.00  0.00     0.004 C 
HETATM    6  C8  UNL     1      12.437  25.782   6.360  1.00  0.00     0.012 C 
HETATM    7  C9  UNL     1      10.985  25.447   6.212  1.00  0.00     0.010 C 
HETATM    8  C10 UNL     1      10.367  26.153   7.399  1.00  0.00     0.026 C 
HETATM    9  C11 UNL     1      11.354  25.823   8.498  1.00  0.00     0.045 C 
HETATM   10  C19 UNL     1      11.187  24.421   9.015  1.00  0.00     0.024 C 
ENDROOT
BRANCH   9  11
HETATM   11  C12 UNL     1      11.251  26.841   9.558  1.00  0.00     0.227 C 
HETATM   12  O3  UNL     1      10.406  27.771   9.444  1.00  0.00    -0.273 OA
HETATM   13  N2  UNL     1      12.070  26.828  10.720  1.00  0.00    -0.356 N 
ATOM     14  H2  UNL     1      12.761  26.085  10.830  1.00  0.00     0.162 HD
BRANCH  13  15
HETATM   15  C13 UNL     1      11.954  27.841  11.753  1.00  0.00     0.084 C 
HETATM   16  C14 UNL     1      12.296  27.215  13.054  1.00  0.00     0.025 C 
HETATM   17  C15 UNL     1      12.715  28.144  14.146  1.00  0.00     0.002 C 
HETATM   18  C16 UNL     1      12.897  29.571  13.687  1.00  0.00     0.000 C 
HETATM   19  C17 UNL     1      13.733  29.493  12.417  1.00  0.00     0.002 C 
HETATM   20  C18 UNL     1      12.817  28.998  11.347  1.00  0.00     0.025 C 
ENDBRANCH  13  15
ENDBRANCH   9  11
BRANCH   1  21
HETATM   21  N1  UNL     1      10.315  23.483   5.042  1.00  0.00    -0.332 N 
HETATM   22  C2  UNL     1       9.039  23.540   4.467  1.00  0.00     0.360 C 
HETATM   23  O2  UNL     1       8.095  24.078   5.098  1.00  0.00    -0.239 OA
ATOM     24  H1  UNL     1      11.053  23.038   4.495  1.00  0.00     0.165 HD
BRANCH  22  25
HETATM   25  O1  UNL     1       8.760  23.024   3.212  1.00  0.00    -0.309 OA
HETATM   26  C1  UNL     1       9.206  23.601   2.023  1.00  0.00     0.215 C 
ENDBRANCH  22  25
ENDBRANCH   1  21
TORSDOF 4
ENDMDL
MODEL 4
REMARK VINA RESULT: -8.066890932      2.277      3.186
REMARK  4 active torsions:
REMARK  status: ('A' for Active; 'I' for Inactive)
REMARK    1  A    between atoms: O1_2  and  C2_3 
REMARK       I    between atoms: C2_3  and  N1_5 
REMARK    2  A    between atoms: N1_5  and  C3_7 
REMARK    3  A    between atoms: C11_15  and  C12_16 
REMARK       I    between atoms: C12_16  and  N2_18 
REMARK    4  A    between atoms: N2_18  and  C13_20 
ROOT
HETATM    1  C3  UNL     1      10.593  22.777   6.372  1.00  0.00     0.091 C 
HETATM    2  C4  UNL     1      10.857  23.664   5.187  1.00  0.00     0.030 C 
HETATM    3  C5  UNL     1      11.824  24.763   5.449  1.00  0.00    -0.011 C 
HETATM    4  C6  UNL     1      11.075  26.060   5.788  1.00  0.00     0.010 C 
HETATM    5  C7  UNL     1      10.706  25.791   7.240  1.00  0.00     0.004 C 
HETATM    6  C8  UNL     1       9.503  24.870   7.233  1.00  0.00     0.012 C 
HETATM    7  C9  UNL     1      10.030  23.504   7.547  1.00  0.00     0.010 C 
HETATM    8  C10 UNL     1      11.165  23.806   8.501  1.00  0.00     0.026 C 
HETATM    9  C11 UNL     1      11.822  24.991   7.828  1.00  0.00     0.045 C 
HETATM   10  C19 UNL     1      12.674  24.585   6.658  1.00  0.00     0.024 C 
ENDROOT
BRANCH   9  11
HETATM   11  C12 UNL     1      12.566  25.765   8.838  1.00  0.00     0.227 C 
HETATM   12  O3  UNL     1      13.797  25.543   9.006  1.00  0.00    -0.273 OA
HETATM   13  N2  UNL     1      11.957  26.764   9.645  1.00  0.00    -0.356 N 
ATOM     14  H2  UNL     1      10.962  26.958   9.525  1.00  0.00     0.162 HD
BRANCH  13  15
HETATM   15  C13 UNL     1      12.708  27.515  10.634  1.00  0.00     0.084 C 
HETATM   16  C14 UNL     1      12.416  28.957  10.438  1.00  0.00     0.025 C 
HETATM   17  C15 UNL     1      12.672  29.849  11.607  1.00  0.00     0.002 C 
HETATM   18  C16 UNL     1      13.020  29.102  12.872  1.00  0.00     0.000 C 
HETATM   19  C17 UNL     1      11.982  27.994  12.996  1.00  0.00     0.002 C 
HETATM   20  C18 UNL     1      12.353  26.963  11.982  1.00  0.00     0.025 C 
ENDBRANCH  13  15
ENDBRANCH   9  11
BRANCH   1  21
HETATM   21  N1  UNL     1       9.716  21.711   6.011  1.00  0.00    -0.332 N 
HETATM   22  C2  UNL     1      10.098  20.507   5.405  1.00  0.00     0.360 C 
HETATM   23  O2  UNL     1      11.308  20.301   5.137  1.00  0.00    -0.239 OA
ATOM     24  H1  UNL     1       8.724  21.837   6.211  1.00  0.00     0.165 HD
BRANCH  22  25
HETATM   25  O1  UNL     1       9.191  19.512   5.079  1.00  0.00    -0.309 OA
HETATM   26  C1  UNL     1       8.144  19.119   5.913  1.00  0.00     0.215 C 
ENDBRANCH  22  25
ENDBRANCH   1  21
TORSDOF 4
ENDMDL
MODEL 5
REMARK VINA RESULT: -8.027276385      2.184      2.552
REMARK  4 active torsions:
REMARK  status: ('A' for Active; 'I' for Inactive)
REMARK    1  A    between atoms: O1_2  and  C2_3 
REMARK       I    between atoms: C2_3  and  N1_5 
REMARK    2  A    between atoms: N1_5  and  C3_7 
REMARK    3  A    between atoms: C11_15  and  C12_16 
REMARK       I    between atoms: C12_16  and  N2_18 
REMARK    4  A    between atoms: N2_18  and  C13_20 
ROOT
HETATM    1  C3  UNL     1       9.347  21.318   4.542  1.00  0.00     0.091 C 
HETATM    2  C4  UNL     1       8.161  22.234   4.409  1.00  0.00     0.030 C 
HETATM    3  C5  UNL     1       8.394  23.614   4.913  1.00  0.00    -0.011 C 
HETATM    4  C6  UNL     1       7.872  23.748   6.351  1.00  0.00     0.010 C 
HETATM    5  C7  UNL     1       9.005  23.079   7.117  1.00  0.00     0.004 C 
HETATM    6  C8  UNL     1       8.814  21.583   6.983  1.00  0.00     0.012 C 
HETATM    7  C9  UNL     1       9.802  21.133   5.951  1.00  0.00     0.010 C 
HETATM    8  C10 UNL     1      10.970  22.065   6.193  1.00  0.00     0.026 C 
HETATM    9  C11 UNL     1      10.268  23.392   6.381  1.00  0.00     0.045 C 
HETATM   10  C19 UNL     1       9.824  23.995   5.078  1.00  0.00     0.024 C 
ENDROOT
BRANCH   9  11
HETATM   11  C12 UNL     1      11.137  24.290   7.162  1.00  0.00     0.227 C 
HETATM   12  O3  UNL     1      12.280  24.587   6.716  1.00  0.00    -0.273 OA
HETATM   13  N2  UNL     1      10.748  24.845   8.411  1.00  0.00    -0.356 N 
ATOM     14  H2  UNL     1       9.828  24.616   8.789  1.00  0.00     0.162 HD
BRANCH  13  15
HETATM   15  C13 UNL     1      11.620  25.728   9.164  1.00  0.00     0.084 C 
HETATM   16  C14 UNL     1      10.956  27.050   9.275  1.00  0.00     0.025 C 
HETATM   17  C15 UNL     1      11.417  27.932  10.386  1.00  0.00     0.002 C 
HETATM   18  C16 UNL     1      12.372  27.253  11.339  1.00  0.00     0.000 C 
HETATM   19  C17 UNL     1      11.737  25.910  11.672  1.00  0.00     0.002 C 
HETATM   20  C18 UNL     1      11.928  25.051  10.466  1.00  0.00     0.025 C 
ENDBRANCH  13  15
ENDBRANCH   9  11
BRANCH   1  21
HETATM   21  N1  UNL     1       9.059  20.044   3.967  1.00  0.00    -0.332 N 
HETATM   22  C2  UNL     1       9.340  19.659   2.650  1.00  0.00     0.360 C 
HETATM   23  O2  UNL     1       9.893  20.471   1.867  1.00  0.00    -0.239 OA
ATOM     24  H1  UNL     1       8.610  19.354   4.568  1.00  0.00     0.165 HD
BRANCH  22  25
HETATM   25  O1  UNL     1       9.031  18.402   2.156  1.00  0.00    -0.309 OA
HETATM   26  C1  UNL     1       9.018  17.247   2.939  1.00  0.00     0.215 C 
ENDBRANCH  22  25
ENDBRANCH   1  21
TORSDOF 4
ENDMDL
