MODEL 1
REMARK VINA RESULT: -7.525564279      0.000      0.000
REMARK  7 active torsions:
REMARK  status: ('A' for Active; 'I' for Inactive)
REMARK    1  A    between atoms: C2_2  and  O1_4 
REMARK    2  A    between atoms: C2_2  and  C4_6 
REMARK    3  A    between atoms: C4_6  and  C5_7 
REMARK    4  A    between atoms: C6_8  and  C7_9 
REMARK    5  A    between atoms: C7_9  and  N1_10 
REMARK       I    between atoms: N2_13  and  C10_14 
REMARK       I    between atoms: C10_14  and  N3_16 
REMARK    6  A    between atoms: N3_16  and  C11_18 
REMARK    7  A    between atoms: C11_18  and  C14_21 
ROOT
HETATM    1  N1  UNL     1      12.474  27.580   7.162  1.00  0.00     0.102 N 
HETATM    2  C8  UNL     1      12.469  27.636   5.722  1.00  0.00     0.293 C 
HETATM    3  C9  UNL     1      12.586  26.301   5.064  1.00  0.00     0.158 C 
HETATM    4  N2  UNL     1      11.852  25.278   5.741  1.00  0.00    -0.331 N 
HETATM    5  C10 UNL     1      10.970  24.359   5.055  1.00  0.00     0.319 C 
HETATM    6  O2  UNL     1      10.897  24.542   3.829  1.00  0.00    -0.247 OA
HETATM    7  N3  UNL     1      10.309  23.388   5.807  1.00  0.00    -0.334 N 
ATOM      8  H3  UNL     1      10.525  23.398   6.804  1.00  0.00     0.165 HD
HETATM    9  C18 UNL     1      12.008  25.177   7.177  1.00  0.00     0.158 C 
HETATM   10  C19 UNL     1      12.890  26.301   7.677  1.00  0.00     0.293 C 
ENDROOT
BRANCH   7  11
HETATM   11  C11 UNL     1       9.377  22.379   5.404  1.00  0.00     0.034 C 
HETATM   12  C12 UNL     1      10.101  20.996   5.545  1.00  0.00     0.039 C 
HETATM   13  C13 UNL     1       8.896  22.510   3.998  1.00  0.00     0.039 C 
BRANCH  11  14
HETATM   14  C14 UNL     1       8.205  22.296   6.331  1.00  0.00    -0.027 C 
HETATM   15  C15 UNL     1       7.296  23.501   6.177  1.00  0.00     0.017 C 
HETATM   16  C16 UNL     1       7.426  21.047   6.204  1.00  0.00     0.017 C 
HETATM   17  C17 UNL     1       8.779  22.341   7.754  1.00  0.00     0.017 C 
ENDBRANCH  11  14
ENDBRANCH   7  11
BRANCH   1  18
HETATM   18  C7  UNL     1      13.098  28.688   7.809  1.00  0.00     0.365 C 
BRANCH  18  19
HETATM   19  C6  UNL     1      12.865  28.705   9.266  1.00  0.00    -0.076 C 
HETATM   20  C5  UNL     1      12.669  28.698  10.456  1.00  0.00    -0.102 C 
BRANCH  20  21
HETATM   21  C4  UNL     1      12.425  28.664  11.900  1.00  0.00     0.131 C 
BRANCH  21  22
HETATM   22  C2  UNL     1      13.270  29.761  12.509  1.00  0.00     0.061 C 
HETATM   23  C1  UNL     1      14.730  29.540  12.296  1.00  0.00     0.046 C 
HETATM   24  C3  UNL     1      12.826  31.063  11.833  1.00  0.00     0.046 C 
BRANCH  22  25
HETATM   25  O1  UNL     1      12.931  29.837  13.865  1.00  0.00    -0.390 OA
ATOM     26  H1  UNL     1      12.184  29.294  14.084  1.00  0.00     0.210 HD
ENDBRANCH  22  25
ENDBRANCH  21  22
ENDBRANCH  20  21
ENDBRANCH  18  19
ENDBRANCH   1  18
TORSDOF 7
ENDMDL
MODEL 2
REMARK VINA RESULT: -7.445590526      3.239      9.398
REMARK  7 active torsions:
REMARK  status: ('A' for Active; 'I' for Inactive)
REMARK    1  A    between atoms: C2_2  and  O1_4 
REMARK    2  A    between atoms: C2_2  and  C4_6 
REMARK    3  A    between atoms: C4_6  and  C5_7 
REMARK    4  A    between atoms: C6_8  and  C7_9 
REMARK    5  A    between atoms: C7_9  and  N1_10 
REMARK       I    between atoms: N2_13  and  C10_14 
REMARK       I    between atoms: C10_14  and  N3_16 
REMARK    6  A    between atoms: N3_16  and  C11_18 
REMARK    7  A    between atoms: C11_18  and  C14_21 
ROOT
HETATM    1  N1  UNL     1       7.959  22.099   5.454  1.00  0.00     0.102 N 
HETATM    2  C8  UNL     1       8.967  22.456   4.490  1.00  0.00     0.293 C 
HETATM    3  C9  UNL     1       9.427  23.873   4.590  1.00  0.00     0.158 C 
HETATM    4  N2  UNL     1       9.537  24.329   5.940  1.00  0.00    -0.331 N 
HETATM    5  C10 UNL     1      10.702  25.028   6.441  1.00  0.00     0.319 C 
HETATM    6  O2  UNL     1      11.601  25.187   5.600  1.00  0.00    -0.247 OA
HETATM    7  N3  UNL     1      10.705  25.443   7.772  1.00  0.00    -0.334 N 
ATOM      8  H3  UNL     1       9.853  25.227   8.290  1.00  0.00     0.165 HD
HETATM    9  C18 UNL     1       8.427  24.067   6.832  1.00  0.00     0.158 C 
HETATM   10  C19 UNL     1       7.381  23.239   6.118  1.00  0.00     0.293 C 
ENDROOT
BRANCH   7  11
HETATM   11  C11 UNL     1      11.712  26.122   8.529  1.00  0.00     0.034 C 
HETATM   12  C12 UNL     1      10.990  27.226   9.376  1.00  0.00     0.039 C 
HETATM   13  C13 UNL     1      12.762  26.785   7.702  1.00  0.00     0.039 C 
BRANCH  11  14
HETATM   14  C14 UNL     1      12.358  25.225   9.537  1.00  0.00    -0.027 C 
HETATM   15  C15 UNL     1      13.677  24.679   9.022  1.00  0.00     0.017 C 
HETATM   16  C16 UNL     1      12.544  25.847  10.864  1.00  0.00     0.017 C 
HETATM   17  C17 UNL     1      11.412  24.029   9.716  1.00  0.00     0.017 C 
ENDBRANCH  11  14
ENDBRANCH   7  11
BRANCH   1  18
HETATM   18  C7  UNL     1       6.993  21.152   5.000  1.00  0.00     0.365 C 
BRANCH  18  19
HETATM   19  C6  UNL     1       7.022  19.892   5.768  1.00  0.00    -0.076 C 
HETATM   20  C5  UNL     1       7.045  18.851   6.377  1.00  0.00    -0.102 C 
BRANCH  20  21
HETATM   21  C4  UNL     1       7.076  17.574   7.094  1.00  0.00     0.131 C 
BRANCH  21  22
HETATM   22  C2  UNL     1       5.651  17.067   7.137  1.00  0.00     0.061 C 
HETATM   23  C1  UNL     1       5.190  16.548   5.816  1.00  0.00     0.046 C 
HETATM   24  C3  UNL     1       5.630  15.948   8.183  1.00  0.00     0.046 C 
BRANCH  22  25
HETATM   25  O1  UNL     1       4.855  18.117   7.608  1.00  0.00    -0.390 OA
ATOM     26  H1  UNL     1       5.322  18.689   8.205  1.00  0.00     0.210 HD
ENDBRANCH  22  25
ENDBRANCH  21  22
ENDBRANCH  20  21
ENDBRANCH  18  19
ENDBRANCH   1  18
TORSDOF 7
ENDMDL
MODEL 3
REMARK VINA RESULT: -7.397249222      1.699      2.296
REMARK  7 active torsions:
REMARK  status: ('A' for Active; 'I' for Inactive)
REMARK    1  A    between atoms: C2_2  and  O1_4 
REMARK    2  A    between atoms: C2_2  and  C4_6 
REMARK    3  A    between atoms: C4_6  and  C5_7 
REMARK    4  A    between atoms: C6_8  and  C7_9 
REMARK    5  A    between atoms: C7_9  and  N1_10 
REMARK       I    between atoms: N2_13  and  C10_14 
REMARK       I    between atoms: C10_14  and  N3_16 
REMARK    6  A    between atoms: N3_16  and  C11_18 
REMARK    7  A    between atoms: C11_18  and  C14_21 
ROOT
HETATM    1  N1  UNL     1      12.598  28.188   7.992  1.00  0.00     0.102 N 
HETATM    2  C8  UNL     1      13.594  27.162   8.166  1.00  0.00     0.293 C 
HETATM    3  C9  UNL     1      13.051  25.870   8.680  1.00  0.00     0.158 C 
HETATM    4  N2  UNL     1      11.776  25.540   8.123  1.00  0.00    -0.331 N 
HETATM    5  C10 UNL     1      11.470  24.234   7.581  1.00  0.00     0.319 C 
HETATM    6  O2  UNL     1      12.414  23.427   7.630  1.00  0.00    -0.247 OA
HETATM    7  N3  UNL     1      10.191  24.009   7.073  1.00  0.00    -0.334 N 
ATOM      8  H3  UNL     1       9.556  24.805   7.145  1.00  0.00     0.165 HD
HETATM    9  C18 UNL     1      10.762  26.573   8.106  1.00  0.00     0.158 C 
HETATM   10  C19 UNL     1      11.343  27.871   8.624  1.00  0.00     0.293 C 
ENDROOT
BRANCH   7  11
HETATM   11  C11 UNL     1       9.626  22.843   6.465  1.00  0.00     0.034 C 
HETATM   12  C12 UNL     1       8.748  22.133   7.552  1.00  0.00     0.039 C 
HETATM   13  C13 UNL     1      10.631  21.860   5.966  1.00  0.00     0.039 C 
BRANCH  11  14
HETATM   14  C14 UNL     1       8.672  23.189   5.366  1.00  0.00    -0.027 C 
HETATM   15  C15 UNL     1       9.101  24.452   4.642  1.00  0.00     0.017 C 
HETATM   16  C16 UNL     1       8.447  22.095   4.398  1.00  0.00     0.017 C 
HETATM   17  C17 UNL     1       7.327  23.490   6.043  1.00  0.00     0.017 C 
ENDBRANCH  11  14
ENDBRANCH   7  11
BRANCH   1  18
HETATM   18  C7  UNL     1      13.046  29.518   8.247  1.00  0.00     0.365 C 
BRANCH  18  19
HETATM   19  C6  UNL     1      12.910  29.907   9.664  1.00  0.00    -0.076 C 
HETATM   20  C5  UNL     1      12.789  30.205  10.827  1.00  0.00    -0.102 C 
BRANCH  20  21
HETATM   21  C4  UNL     1      12.633  30.543  12.244  1.00  0.00     0.131 C 
BRANCH  21  22
HETATM   22  C2  UNL     1      12.892  29.272  13.023  1.00  0.00     0.061 C 
HETATM   23  C1  UNL     1      12.278  28.074  12.380  1.00  0.00     0.046 C 
HETATM   24  C3  UNL     1      14.414  29.117  13.089  1.00  0.00     0.046 C 
BRANCH  22  25
HETATM   25  O1  UNL     1      12.419  29.484  14.323  1.00  0.00    -0.390 OA
ATOM     26  H1  UNL     1      12.427  28.692  14.846  1.00  0.00     0.210 HD
ENDBRANCH  22  25
ENDBRANCH  21  22
ENDBRANCH  20  21
ENDBRANCH  18  19
ENDBRANCH   1  18
TORSDOF 7
ENDMDL
MODEL 4
REMARK VINA RESULT: -7.348750624      3.227      9.475
REMARK  7 active torsions:
REMARK  status: ('A' for Active; 'I' for Inactive)
REMARK    1  A    between atoms: C2_2  and  O1_4 
REMARK    2  A    between atoms: C2_2  and  C4_6 
REMARK    3  A    between atoms: C4_6  and  C5_7 
REMARK    4  A    between atoms: C6_8  and  C7_9 
REMARK    5  A    between atoms: C7_9  and  N1_10 
REMARK       I    between atoms: N2_13  and  C10_14 
REMARK       I    between atoms: C10_14  and  N3_16 
REMARK    6  A    between atoms: N3_16  and  C11_18 
REMARK    7  A    between atoms: C11_18  and  C14_21 
ROOT
HETATM    1  N1  UNL     1       7.865  21.846   5.488  1.00  0.00     0.102 N 
HETATM    2  C8  UNL     1       8.878  21.889   4.465  1.00  0.00     0.293 C 
HETATM    3  C9  UNL     1       9.547  23.216   4.330  1.00  0.00     0.158 C 
HETATM    4  N2  UNL     1       9.775  23.857   5.587  1.00  0.00    -0.331 N 
HETATM    5  C10 UNL     1      11.048  24.440   5.952  1.00  0.00     0.319 C 
HETATM    6  O2  UNL     1      11.929  24.325   5.084  1.00  0.00    -0.247 OA
HETATM    7  N3  UNL     1      11.163  25.054   7.199  1.00  0.00    -0.334 N 
ATOM      8  H3  UNL     1      10.309  25.055   7.756  1.00  0.00     0.165 HD
HETATM    9  C18 UNL     1       8.673  23.911   6.524  1.00  0.00     0.158 C 
HETATM   10  C19 UNL     1       7.489  23.151   5.967  1.00  0.00     0.293 C 
ENDROOT
BRANCH   7  11
HETATM   11  C11 UNL     1      12.288  25.683   7.823  1.00  0.00     0.034 C 
HETATM   12  C12 UNL     1      12.813  26.779   6.835  1.00  0.00     0.039 C 
HETATM   13  C13 UNL     1      13.417  24.758   8.133  1.00  0.00     0.039 C 
BRANCH  11  14
HETATM   14  C14 UNL     1      11.899  26.432   9.058  1.00  0.00    -0.027 C 
HETATM   15  C15 UNL     1      11.879  25.520  10.271  1.00  0.00     0.017 C 
HETATM   16  C16 UNL     1      12.730  27.623   9.326  1.00  0.00     0.017 C 
HETATM   17  C17 UNL     1      10.458  26.915   8.831  1.00  0.00     0.017 C 
ENDBRANCH  11  14
ENDBRANCH   7  11
BRANCH   1  18
HETATM   18  C7  UNL     1       6.754  20.998   5.206  1.00  0.00     0.365 C 
BRANCH  18  19
HETATM   19  C6  UNL     1       6.835  19.697   5.899  1.00  0.00    -0.076 C 
HETATM   20  C5  UNL     1       6.885  18.627   6.453  1.00  0.00    -0.102 C 
BRANCH  20  21
HETATM   21  C4  UNL     1       6.925  17.319   7.111  1.00  0.00     0.131 C 
BRANCH  21  22
HETATM   22  C2  UNL     1       5.490  16.922   7.375  1.00  0.00     0.061 C 
HETATM   23  C1  UNL     1       4.850  16.274   6.192  1.00  0.00     0.046 C 
HETATM   24  C3  UNL     1       5.529  15.947   8.557  1.00  0.00     0.046 C 
BRANCH  22  25
HETATM   25  O1  UNL     1       4.812  18.075   7.786  1.00  0.00    -0.390 OA
ATOM     26  H1  UNL     1       5.106  18.387   8.633  1.00  0.00     0.210 HD
ENDBRANCH  22  25
ENDBRANCH  21  22
ENDBRANCH  20  21
ENDBRANCH  18  19
ENDBRANCH   1  18
TORSDOF 7
ENDMDL
MODEL 5
REMARK VINA RESULT: -7.259389899      1.332      1.604
REMARK  7 active torsions:
REMARK  status: ('A' for Active; 'I' for Inactive)
REMARK    1  A    between atoms: C2_2  and  O1_4 
REMARK    2  A    between atoms: C2_2  and  C4_6 
REMARK    3  A    between atoms: C4_6  and  C5_7 
REMARK    4  A    between atoms: C6_8  and  C7_9 
REMARK    5  A    between atoms: C7_9  and  N1_10 
REMARK       I    between atoms: N2_13  and  C10_14 
REMARK       I    between atoms: C10_14  and  N3_16 
REMARK    6  A    between atoms: N3_16  and  C11_18 
REMARK    7  A    between atoms: C11_18  and  C14_21 
ROOT
HETATM    1  N1  UNL     1      11.461  27.203   8.279  1.00  0.00     0.102 N 
HETATM    2  C8  UNL     1      12.315  27.057   7.128  1.00  0.00     0.293 C 
HETATM    3  C9  UNL     1      12.605  25.638   6.765  1.00  0.00     0.158 C 
HETATM    4  N2  UNL     1      11.475  24.778   6.929  1.00  0.00    -0.331 N 
HETATM    5  C10 UNL     1      11.047  23.840   5.914  1.00  0.00     0.319 C 
HETATM    6  O2  UNL     1      11.740  23.854   4.883  1.00  0.00    -0.247 OA
HETATM    7  N3  UNL     1       9.939  23.036   6.178  1.00  0.00    -0.334 N 
ATOM      8  H3  UNL     1       9.523  23.170   7.100  1.00  0.00     0.165 HD
HETATM    9  C18 UNL     1      10.737  24.868   8.172  1.00  0.00     0.158 C 
HETATM   10  C19 UNL     1      11.303  25.981   9.025  1.00  0.00     0.293 C 
ENDROOT
BRANCH   7  11
HETATM   11  C11 UNL     1       9.291  22.053   5.364  1.00  0.00     0.034 C 
HETATM   12  C12 UNL     1      10.277  20.842   5.226  1.00  0.00     0.039 C 
HETATM   13  C13 UNL     1       8.940  22.523   3.993  1.00  0.00     0.039 C 
BRANCH  11  14
HETATM   14  C14 UNL     1       8.077  21.486   6.028  1.00  0.00    -0.027 C 
HETATM   15  C15 UNL     1       7.647  22.338   7.208  1.00  0.00     0.017 C 
HETATM   16  C16 UNL     1       6.938  21.266   5.113  1.00  0.00     0.017 C 
HETATM   17  C17 UNL     1       8.492  20.117   6.587  1.00  0.00     0.017 C 
ENDBRANCH  11  14
ENDBRANCH   7  11
BRANCH   1  18
HETATM   18  C7  UNL     1      11.734  28.341   9.095  1.00  0.00     0.365 C 
BRANCH  18  19
HETATM   19  C6  UNL     1      12.022  27.984  10.498  1.00  0.00    -0.076 C 
HETATM   20  C5  UNL     1      12.248  27.672  11.640  1.00  0.00    -0.102 C 
BRANCH  20  21
HETATM   21  C4  UNL     1      12.514  27.268  13.023  1.00  0.00     0.131 C 
BRANCH  21  22
HETATM   22  C2  UNL     1      13.057  28.488  13.734  1.00  0.00     0.061 C 
HETATM   23  C1  UNL     1      14.078  29.214  12.922  1.00  0.00     0.046 C 
HETATM   24  C3  UNL     1      11.851  29.395  14.003  1.00  0.00     0.046 C 
BRANCH  22  25
HETATM   25  O1  UNL     1      13.560  28.057  14.966  1.00  0.00    -0.390 OA
ATOM     26  H1  UNL     1      12.876  27.771  15.558  1.00  0.00     0.210 HD
ENDBRANCH  22  25
ENDBRANCH  21  22
ENDBRANCH  20  21
ENDBRANCH  18  19
ENDBRANCH   1  18
TORSDOF 7
ENDMDL
