MODEL 1
REMARK VINA RESULT: -6.712750244      0.000      0.000
REMARK  5 active torsions:
REMARK  status: ('A' for Active; 'I' for Inactive)
REMARK    1  A    between atoms: C2_2  and  O1_3 
REMARK    2  A    between atoms: C2_2  and  C5_11 
REMARK    3  A    between atoms: O1_3  and  C3_4 
REMARK    4  A    between atoms: C3_4  and  C4_6 
REMARK    5  A    between atoms: C4_6  and  N1_7 
ROOT
HETATM    1  C1  UNL     1      14.802 -17.546 -41.611  1.00  0.00     0.047 C 
HETATM    2  C2  UNL     1      13.853 -18.345 -42.025  1.00  0.00     0.051 C 
ENDROOT
BRANCH   2   3
HETATM    3  O1  UNL     1      13.948 -18.935 -43.266  1.00  0.00    -0.282 OA
BRANCH   3   4
HETATM    4  C3  UNL     1      13.669 -18.316 -44.453  1.00  0.00     0.289 C 
HETATM    5  O2  UNL     1      13.992 -17.103 -44.599  1.00  0.00    -0.263 OA
BRANCH   4   6
HETATM    6  C4  UNL     1      12.995 -19.017 -45.583  1.00  0.00     0.340 C 
BRANCH   6   7
HETATM    7  N1  UNL     1      13.609 -18.681 -46.837  1.00  0.00    -0.070 N 
ATOM      8  H13 UNL     1      14.624 -18.621 -46.755  1.00  0.00     0.274 HD
ATOM      9  H12 UNL     1      13.553 -19.454 -47.502  1.00  0.00     0.274 HD
ATOM     10  H11 UNL     1      13.211 -17.825 -47.222  1.00  0.00     0.274 HD
ENDBRANCH   6   7
ENDBRANCH   4   6
ENDBRANCH   3   4
ENDBRANCH   2   3
BRANCH   2  11
HETATM   11  C5  UNL     1      12.686 -18.620 -41.180  1.00  0.00     0.042 C 
HETATM   12  C6  UNL     1      11.791 -19.693 -41.722  1.00  0.00     0.011 C 
HETATM   13  C7  UNL     1      11.634 -20.885 -40.864  1.00  0.00     0.001 C 
HETATM   14  C8  UNL     1      11.503 -20.644 -39.409  1.00  0.00     0.000 C 
HETATM   15  C9  UNL     1      11.819 -19.201 -39.009  1.00  0.00     0.001 C 
HETATM   16  C10 UNL     1      13.122 -18.884 -39.758  1.00  0.00     0.011 C 
ENDBRANCH   2  11
TORSDOF 5
ENDMDL
MODEL 2
REMARK VINA RESULT: -6.682524773      0.887      1.768
REMARK  5 active torsions:
REMARK  status: ('A' for Active; 'I' for Inactive)
REMARK    1  A    between atoms: C2_2  and  O1_3 
REMARK    2  A    between atoms: C2_2  and  C5_11 
REMARK    3  A    between atoms: O1_3  and  C3_4 
REMARK    4  A    between atoms: C3_4  and  C4_6 
REMARK    5  A    between atoms: C4_6  and  N1_7 
ROOT
HETATM    1  C1  UNL     1      14.479 -17.319 -41.643  1.00  0.00     0.047 C 
HETATM    2  C2  UNL     1      13.584 -18.184 -42.045  1.00  0.00     0.051 C 
ENDROOT
BRANCH   2   3
HETATM    3  O1  UNL     1      12.981 -18.023 -43.274  1.00  0.00    -0.282 OA
BRANCH   3   4
HETATM    4  C3  UNL     1      13.527 -18.394 -44.471  1.00  0.00     0.289 C 
HETATM    5  O2  UNL     1      13.309 -19.560 -44.905  1.00  0.00    -0.263 OA
BRANCH   4   6
HETATM    6  C4  UNL     1      14.374 -17.475 -45.284  1.00  0.00     0.340 C 
BRANCH   6   7
HETATM    7  N1  UNL     1      14.491 -17.944 -46.637  1.00  0.00    -0.070 N 
ATOM      8  H13 UNL     1      14.829 -17.211 -47.261  1.00  0.00     0.274 HD
ATOM      9  H12 UNL     1      15.261 -18.604 -46.741  1.00  0.00     0.274 HD
ATOM     10  H11 UNL     1      13.609 -18.339 -46.964  1.00  0.00     0.274 HD
ENDBRANCH   6   7
ENDBRANCH   4   6
ENDBRANCH   3   4
ENDBRANCH   2   3
BRANCH   2  11
HETATM   11  C5  UNL     1      13.213 -19.324 -41.201  1.00  0.00     0.042 C 
HETATM   12  C6  UNL     1      13.322 -19.045 -39.732  1.00  0.00     0.011 C 
HETATM   13  C7  UNL     1      12.063 -19.152 -38.968  1.00  0.00     0.001 C 
HETATM   14  C8  UNL     1      11.166 -20.277 -39.322  1.00  0.00     0.000 C 
HETATM   15  C9  UNL     1      11.578 -20.992 -40.610  1.00  0.00     0.001 C 
HETATM   16  C10 UNL     1      11.853 -19.847 -41.598  1.00  0.00     0.011 C 
ENDBRANCH   2  11
TORSDOF 5
ENDMDL
MODEL 3
REMARK VINA RESULT: -6.600761817      0.831      1.025
REMARK  5 active torsions:
REMARK  status: ('A' for Active; 'I' for Inactive)
REMARK    1  A    between atoms: C2_2  and  O1_3 
REMARK    2  A    between atoms: C2_2  and  C5_11 
REMARK    3  A    between atoms: O1_3  and  C3_4 
REMARK    4  A    between atoms: C3_4  and  C4_6 
REMARK    5  A    between atoms: C4_6  and  N1_7 
ROOT
HETATM    1  C1  UNL     1      14.901 -18.154 -41.812  1.00  0.00     0.047 C 
HETATM    2  C2  UNL     1      13.651 -18.093 -42.192  1.00  0.00     0.051 C 
ENDROOT
BRANCH   2   3
HETATM    3  O1  UNL     1      13.344 -17.674 -43.468  1.00  0.00    -0.282 OA
BRANCH   3   4
HETATM    4  C3  UNL     1      13.663 -18.348 -44.614  1.00  0.00     0.289 C 
HETATM    5  O2  UNL     1      13.218 -19.519 -44.776  1.00  0.00    -0.263 OA
BRANCH   4   6
HETATM    6  C4  UNL     1      14.519 -17.754 -45.680  1.00  0.00     0.340 C 
BRANCH   6   7
HETATM    7  N1  UNL     1      14.238 -18.349 -46.957  1.00  0.00    -0.070 N 
ATOM      8  H13 UNL     1      13.235 -18.397 -47.137  1.00  0.00     0.274 HD
ATOM      9  H12 UNL     1      14.504 -17.732 -47.725  1.00  0.00     0.274 HD
ATOM     10  H11 UNL     1      14.680 -19.264 -47.039  1.00  0.00     0.274 HD
ENDBRANCH   6   7
ENDBRANCH   4   6
ENDBRANCH   3   4
ENDBRANCH   2   3
BRANCH   2  11
HETATM   11  C5  UNL     1      12.571 -18.465 -41.272  1.00  0.00     0.042 C 
HETATM   12  C6  UNL     1      11.704 -19.576 -41.782  1.00  0.00     0.011 C 
HETATM   13  C7  UNL     1      11.686 -20.800 -40.956  1.00  0.00     0.001 C 
HETATM   14  C8  UNL     1      11.652 -20.609 -39.487  1.00  0.00     0.000 C 
HETATM   15  C9  UNL     1      11.909 -19.161 -39.063  1.00  0.00     0.001 C 
HETATM   16  C10 UNL     1      13.130 -18.742 -39.897  1.00  0.00     0.011 C 
ENDBRANCH   2  11
TORSDOF 5
ENDMDL
MODEL 4
REMARK VINA RESULT: -6.452520174      1.321      1.953
REMARK  5 active torsions:
REMARK  status: ('A' for Active; 'I' for Inactive)
REMARK    1  A    between atoms: C2_2  and  O1_3 
REMARK    2  A    between atoms: C2_2  and  C5_11 
REMARK    3  A    between atoms: O1_3  and  C3_4 
REMARK    4  A    between atoms: C3_4  and  C4_6 
REMARK    5  A    between atoms: C4_6  and  N1_7 
ROOT
HETATM    1  C1  UNL     1      13.507 -17.620 -42.969  1.00  0.00     0.047 C 
HETATM    2  C2  UNL     1      13.265 -18.901 -43.067  1.00  0.00     0.051 C 
ENDROOT
BRANCH   2   3
HETATM    3  O1  UNL     1      13.189 -19.491 -44.309  1.00  0.00    -0.282 OA
BRANCH   3   4
HETATM    4  C3  UNL     1      13.275 -18.827 -45.500  1.00  0.00     0.289 C 
HETATM    5  O2  UNL     1      12.277 -18.831 -46.275  1.00  0.00    -0.263 OA
BRANCH   4   6
HETATM    6  C4  UNL     1      14.505 -18.097 -45.924  1.00  0.00     0.340 C 
BRANCH   6   7
HETATM    7  N1  UNL     1      14.831 -18.387 -47.292  1.00  0.00    -0.070 N 
ATOM      8  H13 UNL     1      14.799 -19.389 -47.481  1.00  0.00     0.274 HD
ATOM      9  H12 UNL     1      14.092 -18.084 -47.927  1.00  0.00     0.274 HD
ATOM     10  H11 UNL     1      15.733 -17.985 -47.546  1.00  0.00     0.274 HD
ENDBRANCH   6   7
ENDBRANCH   4   6
ENDBRANCH   3   4
ENDBRANCH   2   3
BRANCH   2  11
HETATM   11  C5  UNL     1      13.073 -19.719 -41.864  1.00  0.00     0.042 C 
HETATM   12  C6  UNL     1      13.677 -19.123 -40.629  1.00  0.00     0.011 C 
HETATM   13  C7  UNL     1      12.727 -18.811 -39.542  1.00  0.00     0.001 C 
HETATM   14  C8  UNL     1      11.656 -19.803 -39.293  1.00  0.00     0.000 C 
HETATM   15  C9  UNL     1      11.556 -20.868 -40.387  1.00  0.00     0.001 C 
HETATM   16  C10 UNL     1      11.612 -20.062 -41.695  1.00  0.00     0.011 C 
ENDBRANCH   2  11
TORSDOF 5
ENDMDL
MODEL 5
REMARK VINA RESULT: -6.402955045      2.738      4.889
REMARK  5 active torsions:
REMARK  status: ('A' for Active; 'I' for Inactive)
REMARK    1  A    between atoms: C2_2  and  O1_3 
REMARK    2  A    between atoms: C2_2  and  C5_11 
REMARK    3  A    between atoms: O1_3  and  C3_4 
REMARK    4  A    between atoms: C3_4  and  C4_6 
REMARK    5  A    between atoms: C4_6  and  N1_7 
ROOT
HETATM    1  C1  UNL     1      14.625 -17.337 -40.703  1.00  0.00     0.047 C 
HETATM    2  C2  UNL     1      13.787 -18.263 -41.092  1.00  0.00     0.051 C 
ENDROOT
BRANCH   2   3
HETATM    3  O1  UNL     1      13.491 -19.314 -40.252  1.00  0.00    -0.282 OA
BRANCH   3   4
HETATM    4  C3  UNL     1      12.470 -19.330 -39.344  1.00  0.00     0.289 C 
HETATM    5  O2  UNL     1      12.406 -18.408 -38.482  1.00  0.00    -0.263 OA
BRANCH   4   6
HETATM    6  C4  UNL     1      11.428 -20.396 -39.328  1.00  0.00     0.340 C 
BRANCH   6   7
HETATM    7  N1  UNL     1      11.377 -21.086 -40.587  1.00  0.00    -0.070 N 
ATOM      8  H13 UNL     1      11.867 -20.570 -41.318  1.00  0.00     0.274 HD
ATOM      9  H12 UNL     1      11.952 -21.928 -40.577  1.00  0.00     0.274 HD
ATOM     10  H11 UNL     1      10.414 -21.291 -40.852  1.00  0.00     0.274 HD
ENDBRANCH   6   7
ENDBRANCH   4   6
ENDBRANCH   3   4
ENDBRANCH   2   3
BRANCH   2  11
HETATM   11  C5  UNL     1      13.159 -18.194 -42.415  1.00  0.00     0.042 C 
HETATM   12  C6  UNL     1      13.541 -16.975 -43.199  1.00  0.00     0.011 C 
HETATM   13  C7  UNL     1      14.238 -17.232 -44.476  1.00  0.00     0.001 C 
HETATM   14  C8  UNL     1      13.734 -18.362 -45.291  1.00  0.00     0.000 C 
HETATM   15  C9  UNL     1      12.735 -19.246 -44.540  1.00  0.00     0.001 C 
HETATM   16  C10 UNL     1      13.398 -19.478 -43.173  1.00  0.00     0.011 C 
ENDBRANCH   2  11
TORSDOF 5
ENDMDL
