MODEL 1
REMARK VINA RESULT: -4.465330236      0.000      0.000
REMARK  4 active torsions:
REMARK  status: ('A' for Active; 'I' for Inactive)
REMARK       I    between atoms: C2_2  and  N1_4 
REMARK    1  A    between atoms: N1_4  and  C3_6 
REMARK    2  A    between atoms: C3_6  and  C4_7 
REMARK    3  A    between atoms: C4_7  and  S1_8 
REMARK    4  A    between atoms: S1_8  and  C5_9 
ROOT
HETATM    1  C3  UNL     1      13.772 -18.058 -41.432  1.00  0.00     0.133 C 
ENDROOT
BRANCH   1   2
HETATM    2  N1  UNL     1      12.817 -19.109 -41.250  1.00  0.00    -0.361 N 
HETATM    3  C2  UNL     1      12.473 -19.570 -39.976  1.00  0.00     0.213 C 
HETATM    4  C1  UNL     1      11.469 -20.675 -39.795  1.00  0.00     0.117 C 
HETATM    5  O1  UNL     1      12.963 -19.108 -38.911  1.00  0.00    -0.274 OA
ATOM      6  H1  UNL     1      12.378 -19.531 -42.069  1.00  0.00     0.162 HD
ENDBRANCH   1   2
BRANCH   1   7
HETATM    7  C4  UNL     1      14.024 -17.742 -42.882  1.00  0.00     0.101 C 
BRANCH   7   8
HETATM    8  S1  UNL     1      13.243 -18.994 -43.935  1.00  0.00    -0.102 SA
BRANCH   8   9
HETATM    9  C5  UNL     1      13.487 -18.541 -45.631  1.00  0.00     0.149 C 
HETATM   10  N2  UNL     1      12.524 -18.847 -46.616  1.00  0.00    -0.082 NA
HETATM   11  S2  UNL     1      14.843 -17.760 -46.053  1.00  0.00    -0.056 SA
ENDBRANCH   8   9
ENDBRANCH   7   8
ENDBRANCH   1   7
TORSDOF 4
ENDMDL
MODEL 2
REMARK VINA RESULT: -4.292817042      8.817      9.747
REMARK  4 active torsions:
REMARK  status: ('A' for Active; 'I' for Inactive)
REMARK       I    between atoms: C2_2  and  N1_4 
REMARK    1  A    between atoms: N1_4  and  C3_6 
REMARK    2  A    between atoms: C3_6  and  C4_7 
REMARK    3  A    between atoms: C4_7  and  S1_8 
REMARK    4  A    between atoms: S1_8  and  C5_9 
ROOT
HETATM    1  C3  UNL     1      16.598 -21.503 -49.396  1.00  0.00     0.133 C 
ENDROOT
BRANCH   1   2
HETATM    2  N1  UNL     1      17.022 -22.552 -50.272  1.00  0.00    -0.361 N 
HETATM    3  C2  UNL     1      17.232 -23.853 -49.804  1.00  0.00     0.213 C 
HETATM    4  C1  UNL     1      17.679 -24.949 -50.732  1.00  0.00     0.117 C 
HETATM    5  O1  UNL     1      17.067 -24.197 -48.603  1.00  0.00    -0.274 OA
ATOM      6  H1  UNL     1      17.176 -22.346 -51.259  1.00  0.00     0.162 HD
ENDBRANCH   1   2
BRANCH   1   7
HETATM    7  C4  UNL     1      17.148 -20.157 -49.786  1.00  0.00     0.101 C 
BRANCH   7   8
HETATM    8  S1  UNL     1      18.506 -19.697 -48.678  1.00  0.00    -0.102 SA
BRANCH   8   9
HETATM    9  C5  UNL     1      20.002 -20.440 -49.274  1.00  0.00     0.149 C 
HETATM   10  N2  UNL     1      20.154 -21.841 -49.321  1.00  0.00    -0.082 NA
HETATM   11  S2  UNL     1      21.213 -19.486 -49.773  1.00  0.00    -0.056 SA
ENDBRANCH   8   9
ENDBRANCH   7   8
ENDBRANCH   1   7
TORSDOF 4
ENDMDL
MODEL 3
REMARK VINA RESULT: -4.215458721      8.714      9.831
REMARK  4 active torsions:
REMARK  status: ('A' for Active; 'I' for Inactive)
REMARK       I    between atoms: C2_2  and  N1_4 
REMARK    1  A    between atoms: N1_4  and  C3_6 
REMARK    2  A    between atoms: C3_6  and  C4_7 
REMARK    3  A    between atoms: C4_7  and  S1_8 
REMARK    4  A    between atoms: S1_8  and  C5_9 
ROOT
HETATM    1  C3  UNL     1      18.089 -23.874 -49.685  1.00  0.00     0.133 C 
ENDROOT
BRANCH   1   2
HETATM    2  N1  UNL     1      19.427 -23.659 -49.225  1.00  0.00    -0.361 N 
HETATM    3  C2  UNL     1      20.052 -24.554 -48.351  1.00  0.00     0.213 C 
HETATM    4  C1  UNL     1      21.457 -24.320 -47.872  1.00  0.00     0.117 C 
HETATM    5  O1  UNL     1      19.499 -25.598 -47.910  1.00  0.00    -0.274 OA
ATOM      6  H1  UNL     1      19.937 -22.833 -49.541  1.00  0.00     0.162 HD
ENDBRANCH   1   2
BRANCH   1   7
HETATM    7  C4  UNL     1      17.059 -23.184 -48.831  1.00  0.00     0.101 C 
BRANCH   7   8
HETATM    8  S1  UNL     1      16.682 -21.548 -49.514  1.00  0.00    -0.102 SA
BRANCH   8   9
HETATM    9  C5  UNL     1      17.830 -20.374 -48.845  1.00  0.00     0.149 C 
HETATM   10  N2  UNL     1      19.199 -20.684 -48.714  1.00  0.00    -0.082 NA
HETATM   11  S2  UNL     1      17.289 -18.920 -48.376  1.00  0.00    -0.056 SA
ENDBRANCH   8   9
ENDBRANCH   7   8
ENDBRANCH   1   7
TORSDOF 4
ENDMDL
MODEL 4
REMARK VINA RESULT: -4.201965849      3.199      5.595
REMARK  4 active torsions:
REMARK  status: ('A' for Active; 'I' for Inactive)
REMARK       I    between atoms: C2_2  and  N1_4 
REMARK    1  A    between atoms: N1_4  and  C3_6 
REMARK    2  A    between atoms: C3_6  and  C4_7 
REMARK    3  A    between atoms: C4_7  and  S1_8 
REMARK    4  A    between atoms: S1_8  and  C5_9 
ROOT
HETATM    1  C3  UNL     1      14.287 -17.389 -43.156  1.00  0.00     0.133 C 
ENDROOT
BRANCH   1   2
HETATM    2  N1  UNL     1      13.533 -18.160 -44.097  1.00  0.00    -0.361 N 
HETATM    3  C2  UNL     1      13.799 -18.102 -45.469  1.00  0.00     0.213 C 
HETATM    4  C1  UNL     1      13.002 -18.916 -46.450  1.00  0.00     0.117 C 
HETATM    5  O1  UNL     1      14.703 -17.383 -45.974  1.00  0.00    -0.274 OA
ATOM      6  H1  UNL     1      12.785 -18.766 -43.760  1.00  0.00     0.162 HD
ENDBRANCH   1   2
BRANCH   1   7
HETATM    7  C4  UNL     1      14.010 -17.776 -41.728  1.00  0.00     0.101 C 
BRANCH   7   8
HETATM    8  S1  UNL     1      12.988 -19.273 -41.678  1.00  0.00    -0.102 SA
BRANCH   8   9
HETATM    9  C5  UNL     1      12.439 -19.530 -40.012  1.00  0.00     0.149 C 
HETATM   10  N2  UNL     1      12.920 -18.734 -38.953  1.00  0.00    -0.082 NA
HETATM   11  S2  UNL     1      11.363 -20.703 -39.708  1.00  0.00    -0.056 SA
ENDBRANCH   8   9
ENDBRANCH   7   8
ENDBRANCH   1   7
TORSDOF 4
ENDMDL
MODEL 5
REMARK VINA RESULT: -4.187332956      2.270      3.119
REMARK  4 active torsions:
REMARK  status: ('A' for Active; 'I' for Inactive)
REMARK       I    between atoms: C2_2  and  N1_4 
REMARK    1  A    between atoms: N1_4  and  C3_6 
REMARK    2  A    between atoms: C3_6  and  C4_7 
REMARK    3  A    between atoms: C4_7  and  S1_8 
REMARK    4  A    between atoms: S1_8  and  C5_9 
ROOT
HETATM    1  C3  UNL     1      13.372 -18.651 -40.555  1.00  0.00     0.133 C 
ENDROOT
BRANCH   1   2
HETATM    2  N1  UNL     1      14.591 -18.000 -40.929  1.00  0.00    -0.361 N 
HETATM    3  C2  UNL     1      15.111 -16.939 -40.181  1.00  0.00     0.213 C 
HETATM    4  C1  UNL     1      16.392 -16.261 -40.582  1.00  0.00     0.117 C 
HETATM    5  O1  UNL     1      14.562 -16.483 -39.143  1.00  0.00    -0.274 OA
ATOM      6  H1  UNL     1      15.091 -18.317 -41.759  1.00  0.00     0.162 HD
ENDBRANCH   1   2
BRANCH   1   7
HETATM    7  C4  UNL     1      12.349 -18.654 -41.660  1.00  0.00     0.101 C 
BRANCH   7   8
HETATM    8  S1  UNL     1      13.008 -19.514 -43.113  1.00  0.00    -0.102 SA
BRANCH   8   9
HETATM    9  C5  UNL     1      13.530 -18.305 -44.300  1.00  0.00     0.149 C 
HETATM   10  N2  UNL     1      14.047 -17.057 -43.894  1.00  0.00    -0.082 NA
HETATM   11  S2  UNL     1      13.409 -18.646 -45.880  1.00  0.00    -0.056 SA
ENDBRANCH   8   9
ENDBRANCH   7   8
ENDBRANCH   1   7
TORSDOF 4
ENDMDL
