MODEL 1
REMARK VINA RESULT: -5.622290205      0.000      0.000
REMARK  4 active torsions:
REMARK  status: ('A' for Active; 'I' for Inactive)
REMARK    1  A    between atoms: C2_2  and  C4_4 
REMARK    2  A    between atoms: C4_4  and  N2_8 
REMARK    3  A    between atoms: N2_8  and  O1_10 
REMARK    4  A    between atoms: O1_10  and  C5_11 
ROOT
HETATM    1  N2  UNL     1      13.221 -19.420 -43.694  1.00  0.00    -0.252 N 
ATOM      2  H2  UNL     1      13.680 -20.262 -44.039  1.00  0.00     0.196 HD
ENDROOT
BRANCH   1   3
HETATM    3  C4  UNL     1      13.639 -18.145 -44.161  1.00  0.00     0.098 C 
HETATM    4  N1  UNL     1      14.062 -17.290 -43.294  1.00  0.00    -0.387 N 
ATOM      5  H12 UNL     1      14.362 -16.374 -43.629  1.00  0.00     0.157 HD
ATOM      6  H11 UNL     1      14.098 -17.521 -42.301  1.00  0.00     0.157 HD
BRANCH   3   7
HETATM    7  C2  UNL     1      13.587 -17.813 -45.589  1.00  0.00     0.046 C 
HETATM    8  C1  UNL     1      12.853 -18.853 -46.410  1.00  0.00     0.017 C 
HETATM    9  C3  UNL     1      14.984 -17.645 -46.147  1.00  0.00     0.017 C 
ENDBRANCH   3   7
ENDBRANCH   1   3
BRANCH   1  10
HETATM   10  O1  UNL     1      12.216 -19.522 -42.793  1.00  0.00    -0.246 OA
BRANCH  10  11
HETATM   11  C5  UNL     1      12.686 -19.854 -41.527  1.00  0.00     0.288 C 
HETATM   12  C6  UNL     1      11.731 -20.923 -40.987  1.00  0.00     0.063 C 
HETATM   13  C7  UNL     1      10.962 -20.257 -39.857  1.00  0.00     0.007 C 
HETATM   14  C8  UNL     1      12.009 -19.950 -38.786  1.00  0.00     0.026 C 
HETATM   15  C9  UNL     1      12.988 -18.982 -39.419  1.00  0.00     0.171 C 
HETATM   16  O2  UNL     1      12.708 -18.728 -40.748  1.00  0.00    -0.359 OA
ENDBRANCH  10  11
ENDBRANCH   1  10
TORSDOF 4
ENDMDL
MODEL 2
REMARK VINA RESULT: -5.599499517      1.639      5.488
REMARK  4 active torsions:
REMARK  status: ('A' for Active; 'I' for Inactive)
REMARK    1  A    between atoms: C2_2  and  C4_4 
REMARK    2  A    between atoms: C4_4  and  N2_8 
REMARK    3  A    between atoms: N2_8  and  O1_10 
REMARK    4  A    between atoms: O1_10  and  C5_11 
ROOT
HETATM    1  N2  UNL     1      12.904 -18.587 -41.703  1.00  0.00    -0.252 N 
ATOM      2  H2  UNL     1      13.505 -17.768 -41.797  1.00  0.00     0.196 HD
ENDROOT
BRANCH   1   3
HETATM    3  C4  UNL     1      12.642 -19.128 -40.416  1.00  0.00     0.098 C 
HETATM    4  N1  UNL     1      13.399 -18.763 -39.439  1.00  0.00    -0.387 N 
ATOM      5  H12 UNL     1      13.211 -19.151 -38.514  1.00  0.00     0.157 HD
ATOM      6  H11 UNL     1      14.164 -18.104 -39.583  1.00  0.00     0.157 HD
BRANCH   3   7
HETATM    7  C2  UNL     1      11.541 -20.075 -40.208  1.00  0.00     0.046 C 
HETATM    8  C1  UNL     1      11.095 -20.154 -38.763  1.00  0.00     0.017 C 
HETATM    9  C3  UNL     1      11.935 -21.459 -40.676  1.00  0.00     0.017 C 
ENDBRANCH   3   7
ENDBRANCH   1   3
BRANCH   1  10
HETATM   10  O1  UNL     1      12.359 -19.152 -42.805  1.00  0.00    -0.246 OA
BRANCH  10  11
HETATM   11  C5  UNL     1      13.272 -19.238 -43.851  1.00  0.00     0.288 C 
HETATM   12  C6  UNL     1      14.255 -18.080 -43.652  1.00  0.00     0.063 C 
HETATM   13  C7  UNL     1      13.978 -17.105 -44.784  1.00  0.00     0.007 C 
HETATM   14  C8  UNL     1      14.358 -17.855 -46.061  1.00  0.00     0.026 C 
HETATM   15  C9  UNL     1      13.430 -19.051 -46.139  1.00  0.00     0.171 C 
HETATM   16  O2  UNL     1      12.598 -19.157 -45.040  1.00  0.00    -0.359 OA
ENDBRANCH  10  11
ENDBRANCH   1  10
TORSDOF 4
ENDMDL
MODEL 3
REMARK VINA RESULT: -5.590219038      0.881      1.426
REMARK  4 active torsions:
REMARK  status: ('A' for Active; 'I' for Inactive)
REMARK    1  A    between atoms: C2_2  and  C4_4 
REMARK    2  A    between atoms: C4_4  and  N2_8 
REMARK    3  A    between atoms: N2_8  and  O1_10 
REMARK    4  A    between atoms: O1_10  and  C5_11 
ROOT
HETATM    1  N2  UNL     1      13.243 -19.201 -43.730  1.00  0.00    -0.252 N 
ATOM      2  H2  UNL     1      12.718 -19.874 -44.288  1.00  0.00     0.196 HD
ENDROOT
BRANCH   1   3
HETATM    3  C4  UNL     1      13.690 -17.988 -44.320  1.00  0.00     0.098 C 
HETATM    4  N1  UNL     1      14.097 -17.047 -43.540  1.00  0.00    -0.387 N 
ATOM      5  H12 UNL     1      14.418 -16.177 -43.964  1.00  0.00     0.157 HD
ATOM      6  H11 UNL     1      14.100 -17.167 -42.527  1.00  0.00     0.157 HD
BRANCH   3   7
HETATM    7  C2  UNL     1      13.686 -17.816 -45.778  1.00  0.00     0.046 C 
HETATM    8  C1  UNL     1      12.887 -18.884 -46.496  1.00  0.00     0.017 C 
HETATM    9  C3  UNL     1      15.100 -17.816 -46.317  1.00  0.00     0.017 C 
ENDBRANCH   3   7
ENDBRANCH   1   3
BRANCH   1  10
HETATM   10  O1  UNL     1      13.510 -19.466 -42.430  1.00  0.00    -0.246 OA
BRANCH  10  11
HETATM   11  C5  UNL     1      12.348 -19.606 -41.679  1.00  0.00     0.288 C 
HETATM   12  C6  UNL     1      12.445 -18.577 -40.549  1.00  0.00     0.063 C 
HETATM   13  C7  UNL     1      12.637 -19.380 -39.273  1.00  0.00     0.007 C 
HETATM   14  C8  UNL     1      11.341 -20.174 -39.102  1.00  0.00     0.026 C 
HETATM   15  C9  UNL     1      11.243 -21.087 -40.307  1.00  0.00     0.171 C 
HETATM   16  O2  UNL     1      12.268 -20.892 -41.213  1.00  0.00    -0.359 OA
ENDBRANCH  10  11
ENDBRANCH   1  10
TORSDOF 4
ENDMDL
MODEL 4
REMARK VINA RESULT: -5.552843616      1.418      2.160
REMARK  4 active torsions:
REMARK  status: ('A' for Active; 'I' for Inactive)
REMARK    1  A    between atoms: C2_2  and  C4_4 
REMARK    2  A    between atoms: C4_4  and  N2_8 
REMARK    3  A    between atoms: N2_8  and  O1_10 
REMARK    4  A    between atoms: O1_10  and  C5_11 
ROOT
HETATM    1  N2  UNL     1      12.581 -19.345 -44.518  1.00  0.00    -0.252 N 
ATOM      2  H2  UNL     1      11.583 -19.520 -44.639  1.00  0.00     0.196 HD
ENDROOT
BRANCH   1   3
HETATM    3  C4  UNL     1      13.323 -18.729 -45.560  1.00  0.00     0.098 C 
HETATM    4  N1  UNL     1      12.921 -18.896 -46.773  1.00  0.00    -0.387 N 
ATOM      5  H12 UNL     1      13.454 -18.453 -47.521  1.00  0.00     0.157 HD
ATOM      6  H11 UNL     1      12.093 -19.454 -46.981  1.00  0.00     0.157 HD
BRANCH   3   7
HETATM    7  C2  UNL     1      14.514 -17.925 -45.261  1.00  0.00     0.046 C 
HETATM    8  C1  UNL     1      14.181 -16.587 -44.633  1.00  0.00     0.017 C 
HETATM    9  C3  UNL     1      15.325 -17.689 -46.516  1.00  0.00     0.017 C 
ENDBRANCH   3   7
ENDBRANCH   1   3
BRANCH   1  10
HETATM   10  O1  UNL     1      13.191 -19.702 -43.364  1.00  0.00    -0.246 OA
BRANCH  10  11
HETATM   11  C5  UNL     1      12.393 -19.446 -42.254  1.00  0.00     0.288 C 
HETATM   12  C6  UNL     1      12.974 -18.192 -41.594  1.00  0.00     0.063 C 
HETATM   13  C7  UNL     1      13.585 -18.659 -40.283  1.00  0.00     0.007 C 
HETATM   14  C8  UNL     1      12.405 -19.152 -39.444  1.00  0.00     0.026 C 
HETATM   15  C9  UNL     1      11.803 -20.315 -40.206  1.00  0.00     0.171 C 
HETATM   16  O2  UNL     1      12.418 -20.536 -41.424  1.00  0.00    -0.359 OA
ENDBRANCH  10  11
ENDBRANCH   1  10
TORSDOF 4
ENDMDL
MODEL 5
REMARK VINA RESULT: -5.516122142      4.335      7.447
REMARK  4 active torsions:
REMARK  status: ('A' for Active; 'I' for Inactive)
REMARK    1  A    between atoms: C2_2  and  C4_4 
REMARK    2  A    between atoms: C4_4  and  N2_8 
REMARK    3  A    between atoms: N2_8  and  O1_10 
REMARK    4  A    between atoms: O1_10  and  C5_11 
ROOT
HETATM    1  N2  UNL     1      15.462 -17.800 -46.973  1.00  0.00    -0.252 N 
ATOM      2  H2  UNL     1      15.658 -16.800 -46.938  1.00  0.00     0.196 HD
ENDROOT
BRANCH   1   3
HETATM    3  C4  UNL     1      14.289 -18.314 -46.359  1.00  0.00     0.098 C 
HETATM    4  N1  UNL     1      13.336 -18.728 -47.121  1.00  0.00    -0.387 N 
ATOM      5  H12 UNL     1      12.494 -19.097 -46.680  1.00  0.00     0.157 HD
ATOM      6  H11 UNL     1      13.420 -18.689 -48.137  1.00  0.00     0.157 HD
BRANCH   3   7
HETATM    7  C2  UNL     1      14.169 -18.370 -44.897  1.00  0.00     0.046 C 
HETATM    8  C1  UNL     1      13.026 -19.249 -44.432  1.00  0.00     0.017 C 
HETATM    9  C3  UNL     1      13.983 -16.981 -44.325  1.00  0.00     0.017 C 
ENDBRANCH   3   7
ENDBRANCH   1   3
BRANCH   1  10
HETATM   10  O1  UNL     1      16.323 -18.632 -47.605  1.00  0.00    -0.246 OA
BRANCH  10  11
HETATM   11  C5  UNL     1      17.410 -17.948 -48.137  1.00  0.00     0.288 C 
HETATM   12  C6  UNL     1      18.631 -18.841 -47.898  1.00  0.00     0.063 C 
HETATM   13  C7  UNL     1      19.471 -18.123 -46.854  1.00  0.00     0.007 C 
HETATM   14  C8  UNL     1      19.933 -16.832 -47.531  1.00  0.00     0.026 C 
HETATM   15  C9  UNL     1      18.676 -16.048 -47.847  1.00  0.00     0.171 C 
HETATM   16  O2  UNL     1      17.520 -16.731 -47.519  1.00  0.00    -0.359 OA
ENDBRANCH  10  11
ENDBRANCH   1  10
TORSDOF 4
ENDMDL
