MODEL 1
REMARK VINA RESULT: -7.539489863      0.000      0.000
REMARK  18 active torsions:
REMARK  status: ('A' for Active; 'I' for Inactive)
REMARK    1  A    between atoms: C3_3  and  C4_4 
REMARK    2  A    between atoms: C5_5  and  C6_6 
REMARK    3  A    between atoms: C7_7  and  C8_8 
REMARK    4  A    between atoms: C8_8  and  C9_9 
REMARK    5  A    between atoms: C8_8  and  C11_14 
REMARK    6  A    between atoms: C10_10  and  N1_11 
REMARK       I    between atoms: C11_14  and  N2_16 
REMARK    7  A    between atoms: N2_16  and  C12_18 
REMARK    8  A    between atoms: C12_18  and  C13_19 
REMARK    9  A    between atoms: C14_20  and  C15_21 
REMARK   10  A    between atoms: C15_21  and  C16_22 
REMARK   11  A    between atoms: C16_22  and  N3_23 
REMARK   12  A    between atoms: N3_23  and  O2_24 
REMARK   13  A    between atoms: N3_23  and  C17_26 
REMARK   14  A    between atoms: C17_26  and  C18_27 
REMARK       I    between atoms: C18_27  and  N4_29 
REMARK   15  A    between atoms: N4_29  and  C19_31 
REMARK   16  A    between atoms: C19_31  and  C20_32 
REMARK   17  A    between atoms: C20_32  and  C21_33 
REMARK   18  A    between atoms: C24_37  and  O4_38 
ROOT
HETATM    1  C1  UNL     1      21.848   7.232  12.454  1.00  0.00     0.113 C 
HETATM    2  C2  UNL     1      22.146   6.560  13.731  1.00  0.00    -0.097 C 
HETATM    3  C3  UNL     1      22.379   6.022  14.790  1.00  0.00    -0.015 C 
ENDROOT
BRANCH   3   4
HETATM    4  C4  UNL     1      22.628   5.399  16.036  1.00  0.00    -0.001 C 
HETATM    5  C5  UNL     1      22.827   4.881  17.109  1.00  0.00    -0.001 C 
BRANCH   5   6
HETATM    6  C6  UNL     1      23.043   4.286  18.381  1.00  0.00    -0.012 C 
HETATM    7  C7  UNL     1      23.231   3.801  19.471  1.00  0.00    -0.065 C 
BRANCH   7   8
HETATM    8  C8  UNL     1      23.469   3.229  20.820  1.00  0.00     0.238 C 
BRANCH   8   9
HETATM    9  C9  UNL     1      24.108   4.229  21.690  1.00  0.00    -0.057 C 
HETATM   10  C10 UNL     1      24.657   5.051  22.406  1.00  0.00     0.005 C 
BRANCH  10  11
HETATM   11  N1  UNL     1      25.300   5.998  23.214  1.00  0.00    -0.359 N 
ATOM     12  H12 UNL     1      25.219   5.004  22.998  1.00  0.00     0.166 HD
ATOM     13  H11 UNL     1      25.761   6.697  23.796  1.00  0.00     0.166 HD
ENDBRANCH  10  11
ENDBRANCH   8   9
BRANCH   8  14
HETATM   14  C11 UNL     1      22.131   2.884  21.376  1.00  0.00     0.245 C 
HETATM   15  O1  UNL     1      22.093   2.439  22.550  1.00  0.00    -0.271 OA
HETATM   16  N2  UNL     1      20.989   3.079  20.550  1.00  0.00    -0.356 N 
ATOM     17  H2  UNL     1      21.095   3.437  19.601  1.00  0.00     0.162 HD
BRANCH  16  18
HETATM   18  C12 UNL     1      19.689   2.768  21.064  1.00  0.00     0.149 C 
BRANCH  18  19
HETATM   19  C13 UNL     1      19.298   1.354  21.054  1.00  0.00    -0.011 C 
HETATM   20  C14 UNL     1      19.194   0.568  19.992  1.00  0.00    -0.027 C 
BRANCH  20  21
HETATM   21  C15 UNL     1      18.781  -0.860  20.130  1.00  0.00     0.048 C 
BRANCH  21  22
HETATM   22  C16 UNL     1      19.899  -1.846  19.944  1.00  0.00     0.153 C 
BRANCH  22  23
HETATM   23  N3  UNL     1      20.731  -1.887  21.087  1.00  0.00    -0.288 N 
BRANCH  23  24
HETATM   24  O2  UNL     1      20.227  -2.079  22.167  1.00  0.00    -0.292 OA
ATOM     25  H2  UNL     1      19.866  -2.937  22.357  1.00  0.00     0.244 HD
ENDBRANCH  23  24
BRANCH  23  26
HETATM   26  C17 UNL     1      22.133  -1.695  21.081  1.00  0.00     0.252 C 
BRANCH  26  27
HETATM   27  C18 UNL     1      22.729  -1.707  22.425  1.00  0.00     0.237 C 
HETATM   28  O3  UNL     1      22.880  -2.847  22.998  1.00  0.00    -0.272 OA
HETATM   29  N4  UNL     1      23.129  -0.538  23.099  1.00  0.00    -0.359 N 
ATOM     30  H4  UNL     1      22.999   0.365  22.642  1.00  0.00     0.162 HD
BRANCH  29  31
HETATM   31  C19 UNL     1      23.712  -0.577  24.405  1.00  0.00     0.127 C 
BRANCH  31  32
HETATM   32  C20 UNL     1      23.189   0.484  25.305  1.00  0.00     0.058 C 
BRANCH  32  33
HETATM   33  C21 UNL     1      24.081   1.658  25.443  1.00  0.00    -0.054 A 
HETATM   34  C22 UNL     1      25.424   1.501  25.150  1.00  0.00     0.029 A 
HETATM   35  C23 UNL     1      26.303   2.547  25.274  1.00  0.00     0.045 A 
HETATM   36 BR1  UNL     1      28.174   2.345  24.868  1.00  0.00    -0.048 Br
HETATM   37  C24 UNL     1      25.860   3.779  25.694  1.00  0.00     0.100 A 
HETATM   38  C25 UNL     1      24.528   3.923  25.982  1.00  0.00     0.045 A 
HETATM   39 BR2  UNL     1      23.812   5.603  26.575  1.00  0.00    -0.048 Br
HETATM   40  C26 UNL     1      23.606   2.871  25.865  1.00  0.00     0.029 A 
BRANCH  37  41
HETATM   41  O4  UNL     1      26.719   4.866  25.833  1.00  0.00    -0.358 OA
ATOM     42  H4  UNL     1      27.553   4.797  26.284  1.00  0.00     0.217 HD
ENDBRANCH  37  41
ENDBRANCH  32  33
ENDBRANCH  31  32
ENDBRANCH  29  31
ENDBRANCH  26  27
ENDBRANCH  23  26
ENDBRANCH  22  23
ENDBRANCH  21  22
ENDBRANCH  20  21
ENDBRANCH  18  19
ENDBRANCH  16  18
ENDBRANCH   8  14
ENDBRANCH   7   8
ENDBRANCH   5   6
ENDBRANCH   3   4
TORSDOF 18
ENDMDL
MODEL 2
REMARK VINA RESULT: -7.236469357      4.727      9.866
REMARK  18 active torsions:
REMARK  status: ('A' for Active; 'I' for Inactive)
REMARK    1  A    between atoms: C3_3  and  C4_4 
REMARK    2  A    between atoms: C5_5  and  C6_6 
REMARK    3  A    between atoms: C7_7  and  C8_8 
REMARK    4  A    between atoms: C8_8  and  C9_9 
REMARK    5  A    between atoms: C8_8  and  C11_14 
REMARK    6  A    between atoms: C10_10  and  N1_11 
REMARK       I    between atoms: C11_14  and  N2_16 
REMARK    7  A    between atoms: N2_16  and  C12_18 
REMARK    8  A    between atoms: C12_18  and  C13_19 
REMARK    9  A    between atoms: C14_20  and  C15_21 
REMARK   10  A    between atoms: C15_21  and  C16_22 
REMARK   11  A    between atoms: C16_22  and  N3_23 
REMARK   12  A    between atoms: N3_23  and  O2_24 
REMARK   13  A    between atoms: N3_23  and  C17_26 
REMARK   14  A    between atoms: C17_26  and  C18_27 
REMARK       I    between atoms: C18_27  and  N4_29 
REMARK   15  A    between atoms: N4_29  and  C19_31 
REMARK   16  A    between atoms: C19_31  and  C20_32 
REMARK   17  A    between atoms: C20_32  and  C21_33 
REMARK   18  A    between atoms: C24_37  and  O4_38 
ROOT
HETATM    1  C1  UNL     1      23.165  -6.209  21.174  1.00  0.00     0.113 C 
HETATM    2  C2  UNL     1      22.194  -5.099  21.158  1.00  0.00    -0.097 C 
HETATM    3  C3  UNL     1      21.402  -4.184  21.124  1.00  0.00    -0.015 C 
ENDROOT
BRANCH   3   4
HETATM    4  C4  UNL     1      20.470  -3.122  21.061  1.00  0.00    -0.001 C 
HETATM    5  C5  UNL     1      19.658  -2.229  21.007  1.00  0.00    -0.001 C 
BRANCH   5   6
HETATM    6  C6  UNL     1      18.685  -1.195  20.946  1.00  0.00    -0.012 C 
HETATM    7  C7  UNL     1      17.846  -0.327  20.910  1.00  0.00    -0.065 C 
BRANCH   7   8
HETATM    8  C8  UNL     1      16.799   0.724  20.881  1.00  0.00     0.238 C 
BRANCH   8   9
HETATM    9  C9  UNL     1      16.055   0.736  22.151  1.00  0.00    -0.057 C 
HETATM   10  C10 UNL     1      15.437   0.766  23.203  1.00  0.00     0.005 C 
BRANCH  10  11
HETATM   11  N1  UNL     1      14.718   0.816  24.405  1.00  0.00    -0.359 N 
ATOM     12  H12 UNL     1      15.623   0.992  23.967  1.00  0.00     0.166 HD
ATOM     13  H11 UNL     1      14.183   0.847  25.273  1.00  0.00     0.166 HD
ENDBRANCH  10  11
ENDBRANCH   8   9
BRANCH   8  14
HETATM   14  C11 UNL     1      17.507   2.024  20.720  1.00  0.00     0.245 C 
HETATM   15  O1  UNL     1      16.910   3.058  21.113  1.00  0.00    -0.271 OA
HETATM   16  N2  UNL     1      18.806   2.014  20.138  1.00  0.00    -0.356 N 
ATOM     17  H2  UNL     1      19.227   1.137  19.834  1.00  0.00     0.162 HD
BRANCH  16  18
HETATM   18  C12 UNL     1      19.515   3.249  19.984  1.00  0.00     0.149 C 
BRANCH  18  19
HETATM   19  C13 UNL     1      20.670   3.458  20.864  1.00  0.00    -0.011 C 
HETATM   20  C14 UNL     1      21.234   2.561  21.659  1.00  0.00    -0.027 C 
BRANCH  20  21
HETATM   21  C15 UNL     1      22.412   2.915  22.506  1.00  0.00     0.048 C 
BRANCH  21  22
HETATM   22  C16 UNL     1      23.698   2.270  22.077  1.00  0.00     0.153 C 
BRANCH  22  23
HETATM   23  N3  UNL     1      24.507   3.184  21.362  1.00  0.00    -0.288 N 
BRANCH  23  24
HETATM   24  O2  UNL     1      25.107   4.033  21.976  1.00  0.00    -0.292 OA
ATOM     25  H2  UNL     1      25.331   4.844  21.534  1.00  0.00     0.244 HD
ENDBRANCH  23  24
BRANCH  23  26
HETATM   26  C17 UNL     1      24.662   3.207  19.956  1.00  0.00     0.252 C 
BRANCH  26  27
HETATM   27  C18 UNL     1      23.923   4.299  19.305  1.00  0.00     0.237 C 
HETATM   28  O3  UNL     1      23.477   5.243  20.053  1.00  0.00    -0.272 OA
HETATM   29  N4  UNL     1      23.686   4.346  17.918  1.00  0.00    -0.359 N 
ATOM     30  H4  UNL     1      24.036   3.589  17.331  1.00  0.00     0.162 HD
BRANCH  29  31
HETATM   31  C19 UNL     1      22.968   5.423  17.308  1.00  0.00     0.127 C 
BRANCH  31  32
HETATM   32  C20 UNL     1      23.280   5.582  15.863  1.00  0.00     0.058 C 
BRANCH  32  33
HETATM   33  C21 UNL     1      22.132   5.334  14.962  1.00  0.00    -0.054 A 
HETATM   34  C22 UNL     1      22.281   5.612  13.615  1.00  0.00     0.029 A 
HETATM   35  C23 UNL     1      21.248   5.417  12.734  1.00  0.00     0.045 A 
HETATM   36 BR1  UNL     1      21.441   5.797  10.856  1.00  0.00    -0.048 Br
HETATM   37  C24 UNL     1      20.038   4.939  13.178  1.00  0.00     0.100 A 
HETATM   38  C25 UNL     1      19.901   4.669  14.514  1.00  0.00     0.045 A 
HETATM   39 BR2  UNL     1      18.251   3.998  15.232  1.00  0.00    -0.048 Br
HETATM   40  C26 UNL     1      20.939   4.858  15.439  1.00  0.00     0.029 A 
BRANCH  37  41
HETATM   41  O4  UNL     1      18.964   4.728  12.315  1.00  0.00    -0.358 OA
ATOM     42  H4  UNL     1      18.186   5.273  12.335  1.00  0.00     0.217 HD
ENDBRANCH  37  41
ENDBRANCH  32  33
ENDBRANCH  31  32
ENDBRANCH  29  31
ENDBRANCH  26  27
ENDBRANCH  23  26
ENDBRANCH  22  23
ENDBRANCH  21  22
ENDBRANCH  20  21
ENDBRANCH  18  19
ENDBRANCH  16  18
ENDBRANCH   8  14
ENDBRANCH   7   8
ENDBRANCH   5   6
ENDBRANCH   3   4
TORSDOF 18
ENDMDL
MODEL 3
REMARK VINA RESULT: -7.189733696      4.071      8.141
REMARK  18 active torsions:
REMARK  status: ('A' for Active; 'I' for Inactive)
REMARK    1  A    between atoms: C3_3  and  C4_4 
REMARK    2  A    between atoms: C5_5  and  C6_6 
REMARK    3  A    between atoms: C7_7  and  C8_8 
REMARK    4  A    between atoms: C8_8  and  C9_9 
REMARK    5  A    between atoms: C8_8  and  C11_14 
REMARK    6  A    between atoms: C10_10  and  N1_11 
REMARK       I    between atoms: C11_14  and  N2_16 
REMARK    7  A    between atoms: N2_16  and  C12_18 
REMARK    8  A    between atoms: C12_18  and  C13_19 
REMARK    9  A    between atoms: C14_20  and  C15_21 
REMARK   10  A    between atoms: C15_21  and  C16_22 
REMARK   11  A    between atoms: C16_22  and  N3_23 
REMARK   12  A    between atoms: N3_23  and  O2_24 
REMARK   13  A    between atoms: N3_23  and  C17_26 
REMARK   14  A    between atoms: C17_26  and  C18_27 
REMARK       I    between atoms: C18_27  and  N4_29 
REMARK   15  A    between atoms: N4_29  and  C19_31 
REMARK   16  A    between atoms: C19_31  and  C20_32 
REMARK   17  A    between atoms: C20_32  and  C21_33 
REMARK   18  A    between atoms: C24_37  and  O4_38 
ROOT
HETATM    1  C1  UNL     1      20.754  -4.595  15.899  1.00  0.00     0.113 C 
HETATM    2  C2  UNL     1      21.335  -3.519  16.723  1.00  0.00    -0.097 C 
HETATM    3  C3  UNL     1      21.815  -2.650  17.414  1.00  0.00    -0.015 C 
ENDROOT
BRANCH   3   4
HETATM    4  C4  UNL     1      22.391  -1.650  18.233  1.00  0.00    -0.001 C 
HETATM    5  C5  UNL     1      22.866  -0.784  18.928  1.00  0.00    -0.001 C 
BRANCH   5   6
HETATM    6  C6  UNL     1      23.405   0.248  19.743  1.00  0.00    -0.012 C 
HETATM    7  C7  UNL     1      23.845   1.125  20.449  1.00  0.00    -0.065 C 
BRANCH   7   8
HETATM    8  C8  UNL     1      24.360   2.203  21.327  1.00  0.00     0.238 C 
BRANCH   8   9
HETATM    9  C9  UNL     1      25.775   2.471  21.027  1.00  0.00    -0.057 C 
HETATM   10  C10 UNL     1      26.947   2.683  20.760  1.00  0.00     0.005 C 
BRANCH  10  11
HETATM   11  N1  UNL     1      28.288   2.929  20.435  1.00  0.00    -0.359 N 
ATOM     12  H12 UNL     1      27.329   3.260  20.325  1.00  0.00     0.166 HD
ATOM     13  H11 UNL     1      29.268   3.097  20.206  1.00  0.00     0.166 HD
ENDBRANCH  10  11
ENDBRANCH   8   9
BRANCH   8  14
HETATM   14  C11 UNL     1      23.559   3.420  21.019  1.00  0.00     0.245 C 
HETATM   15  O1  UNL     1      22.916   3.942  21.964  1.00  0.00    -0.271 OA
HETATM   16  N2  UNL     1      23.572   3.913  19.684  1.00  0.00    -0.356 N 
ATOM     17  H2  UNL     1      24.110   3.433  18.963  1.00  0.00     0.162 HD
BRANCH  16  18
HETATM   18  C12 UNL     1      22.821   5.089  19.363  1.00  0.00     0.149 C 
BRANCH  18  19
HETATM   19  C13 UNL     1      23.079   5.697  18.053  1.00  0.00    -0.011 C 
HETATM   20  C14 UNL     1      23.150   5.070  16.888  1.00  0.00    -0.027 C 
BRANCH  20  21
HETATM   21  C15 UNL     1      23.422   5.819  15.626  1.00  0.00     0.048 C 
BRANCH  21  22
HETATM   22  C16 UNL     1      22.745   5.251  14.412  1.00  0.00     0.153 C 
BRANCH  22  23
HETATM   23  N3  UNL     1      21.345   5.441  14.479  1.00  0.00    -0.288 N 
BRANCH  23  24
HETATM   24  O2  UNL     1      20.915   6.565  14.583  1.00  0.00    -0.292 OA
ATOM     25  H2  UNL     1      20.077   6.772  14.187  1.00  0.00     0.244 HD
ENDBRANCH  23  24
BRANCH  23  26
HETATM   26  C17 UNL     1      20.381   4.407  14.458  1.00  0.00     0.252 C 
BRANCH  26  27
HETATM   27  C18 UNL     1      19.653   4.261  15.728  1.00  0.00     0.237 C 
HETATM   28  O3  UNL     1      18.705   5.093  15.968  1.00  0.00    -0.272 OA
HETATM   29  N4  UNL     1      19.955   3.265  16.676  1.00  0.00    -0.359 N 
ATOM     30  H4  UNL     1      20.715   2.613  16.482  1.00  0.00     0.162 HD
BRANCH  29  31
HETATM   31  C19 UNL     1      19.229   3.141  17.902  1.00  0.00     0.127 C 
BRANCH  31  32
HETATM   32  C20 UNL     1      20.055   2.597  19.012  1.00  0.00     0.058 C 
BRANCH  32  33
HETATM   33  C21 UNL     1      19.349   1.620  19.873  1.00  0.00    -0.054 A 
HETATM   34  C22 UNL     1      18.158   2.005  20.464  1.00  0.00     0.029 A 
HETATM   35  C23 UNL     1      17.466   1.150  21.283  1.00  0.00     0.045 A 
HETATM   36 BR1  UNL     1      15.808   1.669  22.111  1.00  0.00    -0.048 Br
HETATM   37  C24 UNL     1      17.948  -0.113  21.533  1.00  0.00     0.100 A 
HETATM   38  C25 UNL     1      19.128  -0.483  20.943  1.00  0.00     0.045 A 
HETATM   39 BR2  UNL     1      19.883  -2.225  21.229  1.00  0.00    -0.048 Br
HETATM   40  C26 UNL     1      19.858   0.369  20.101  1.00  0.00     0.029 A 
BRANCH  37  41
HETATM   41  O4  UNL     1      17.276  -1.011  22.359  1.00  0.00    -0.358 OA
ATOM     42  H4  UNL     1      17.592  -1.233  23.227  1.00  0.00     0.217 HD
ENDBRANCH  37  41
ENDBRANCH  32  33
ENDBRANCH  31  32
ENDBRANCH  29  31
ENDBRANCH  26  27
ENDBRANCH  23  26
ENDBRANCH  22  23
ENDBRANCH  21  22
ENDBRANCH  20  21
ENDBRANCH  18  19
ENDBRANCH  16  18
ENDBRANCH   8  14
ENDBRANCH   7   8
ENDBRANCH   5   6
ENDBRANCH   3   4
TORSDOF 18
ENDMDL
MODEL 4
REMARK VINA RESULT: -7.104496869      3.076      5.998
REMARK  18 active torsions:
REMARK  status: ('A' for Active; 'I' for Inactive)
REMARK    1  A    between atoms: C3_3  and  C4_4 
REMARK    2  A    between atoms: C5_5  and  C6_6 
REMARK    3  A    between atoms: C7_7  and  C8_8 
REMARK    4  A    between atoms: C8_8  and  C9_9 
REMARK    5  A    between atoms: C8_8  and  C11_14 
REMARK    6  A    between atoms: C10_10  and  N1_11 
REMARK       I    between atoms: C11_14  and  N2_16 
REMARK    7  A    between atoms: N2_16  and  C12_18 
REMARK    8  A    between atoms: C12_18  and  C13_19 
REMARK    9  A    between atoms: C14_20  and  C15_21 
REMARK   10  A    between atoms: C15_21  and  C16_22 
REMARK   11  A    between atoms: C16_22  and  N3_23 
REMARK   12  A    between atoms: N3_23  and  O2_24 
REMARK   13  A    between atoms: N3_23  and  C17_26 
REMARK   14  A    between atoms: C17_26  and  C18_27 
REMARK       I    between atoms: C18_27  and  N4_29 
REMARK   15  A    between atoms: N4_29  and  C19_31 
REMARK   16  A    between atoms: C19_31  and  C20_32 
REMARK   17  A    between atoms: C20_32  and  C21_33 
REMARK   18  A    between atoms: C24_37  and  O4_38 
ROOT
HETATM    1  C1  UNL     1      22.362   6.109  14.835  1.00  0.00     0.113 C 
HETATM    2  C2  UNL     1      22.727   5.687  16.200  1.00  0.00    -0.097 C 
HETATM    3  C3  UNL     1      23.023   5.360  17.327  1.00  0.00    -0.015 C 
ENDROOT
BRANCH   3   4
HETATM    4  C4  UNL     1      23.349   4.993  18.654  1.00  0.00    -0.001 C 
HETATM    5  C5  UNL     1      23.619   4.661  19.783  1.00  0.00    -0.001 C 
BRANCH   5   6
HETATM    6  C6  UNL     1      23.929   4.247  21.107  1.00  0.00    -0.012 C 
HETATM    7  C7  UNL     1      24.212   3.888  22.225  1.00  0.00    -0.065 C 
BRANCH   7   8
HETATM    8  C8  UNL     1      24.581   3.435  23.589  1.00  0.00     0.238 C 
BRANCH   8   9
HETATM    9  C9  UNL     1      24.126   4.412  24.590  1.00  0.00    -0.057 C 
HETATM   10  C10 UNL     1      23.745   5.236  25.406  1.00  0.00     0.005 C 
BRANCH  10  11
HETATM   11  N1  UNL     1      23.294   6.189  26.330  1.00  0.00    -0.359 N 
ATOM     12  H12 UNL     1      23.566   5.213  26.204  1.00  0.00     0.166 HD
ATOM     13  H11 UNL     1      22.966   6.892  26.992  1.00  0.00     0.166 HD
ENDBRANCH  10  11
ENDBRANCH   8   9
BRANCH   8  14
HETATM   14  C11 UNL     1      23.875   2.143  23.812  1.00  0.00     0.245 C 
HETATM   15  O1  UNL     1      23.205   1.680  22.856  1.00  0.00    -0.271 OA
HETATM   16  N2  UNL     1      24.002   1.519  25.085  1.00  0.00    -0.356 N 
ATOM     17  H2  UNL     1      24.556   1.957  25.820  1.00  0.00     0.162 HD
BRANCH  16  18
HETATM   18  C12 UNL     1      23.344   0.270  25.323  1.00  0.00     0.149 C 
BRANCH  18  19
HETATM   19  C13 UNL     1      24.085  -0.943  24.961  1.00  0.00    -0.011 C 
HETATM   20  C14 UNL     1      23.635  -1.963  24.245  1.00  0.00    -0.027 C 
BRANCH  20  21
HETATM   21  C15 UNL     1      24.504  -3.142  23.953  1.00  0.00     0.048 C 
BRANCH  21  22
HETATM   22  C16 UNL     1      23.779  -4.457  23.941  1.00  0.00     0.153 C 
BRANCH  22  23
HETATM   23  N3  UNL     1      23.289  -4.751  22.647  1.00  0.00    -0.288 N 
BRANCH  23  24
HETATM   24  O2  UNL     1      22.347  -5.498  22.538  1.00  0.00    -0.292 OA
ATOM     25  H2  UNL     1      22.501  -6.387  22.240  1.00  0.00     0.244 HD
ENDBRANCH  23  24
BRANCH  23  26
HETATM   26  C17 UNL     1      23.830  -4.254  21.438  1.00  0.00     0.252 C 
BRANCH  26  27
HETATM   27  C18 UNL     1      22.842  -3.566  20.595  1.00  0.00     0.237 C 
HETATM   28  O3  UNL     1      22.974  -3.668  19.322  1.00  0.00    -0.272 OA
HETATM   29  N4  UNL     1      21.778  -2.808  21.121  1.00  0.00    -0.359 N 
ATOM     30  H4  UNL     1      21.684  -2.724  22.133  1.00  0.00     0.162 HD
BRANCH  29  31
HETATM   31  C19 UNL     1      20.826  -2.152  20.278  1.00  0.00     0.127 C 
BRANCH  31  32
HETATM   32  C20 UNL     1      19.490  -2.010  20.915  1.00  0.00     0.058 C 
BRANCH  32  33
HETATM   33  C21 UNL     1      18.950  -0.631  20.892  1.00  0.00    -0.054 A 
HETATM   34  C22 UNL     1      17.736  -0.391  21.511  1.00  0.00     0.029 A 
HETATM   35  C23 UNL     1      17.177   0.861  21.510  1.00  0.00     0.045 A 
HETATM   36 BR1  UNL     1      15.490   1.213  22.368  1.00  0.00    -0.048 Br
HETATM   37  C24 UNL     1      17.818   1.907  20.889  1.00  0.00     0.100 A 
HETATM   38  C25 UNL     1      19.020   1.657  20.279  1.00  0.00     0.045 A 
HETATM   39 BR2  UNL     1      19.993   3.051  19.386  1.00  0.00    -0.048 Br
HETATM   40  C26 UNL     1      19.615   0.387  20.264  1.00  0.00     0.029 A 
BRANCH  37  41
HETATM   41  O4  UNL     1      17.285   3.193  20.866  1.00  0.00    -0.358 OA
ATOM     42  H4  UNL     1      16.668   3.496  21.523  1.00  0.00     0.217 HD
ENDBRANCH  37  41
ENDBRANCH  32  33
ENDBRANCH  31  32
ENDBRANCH  29  31
ENDBRANCH  26  27
ENDBRANCH  23  26
ENDBRANCH  22  23
ENDBRANCH  21  22
ENDBRANCH  20  21
ENDBRANCH  18  19
ENDBRANCH  16  18
ENDBRANCH   8  14
ENDBRANCH   7   8
ENDBRANCH   5   6
ENDBRANCH   3   4
TORSDOF 18
ENDMDL
MODEL 5
REMARK VINA RESULT: -7.100731703      4.511      7.877
REMARK  18 active torsions:
REMARK  status: ('A' for Active; 'I' for Inactive)
REMARK    1  A    between atoms: C3_3  and  C4_4 
REMARK    2  A    between atoms: C5_5  and  C6_6 
REMARK    3  A    between atoms: C7_7  and  C8_8 
REMARK    4  A    between atoms: C8_8  and  C9_9 
REMARK    5  A    between atoms: C8_8  and  C11_14 
REMARK    6  A    between atoms: C10_10  and  N1_11 
REMARK       I    between atoms: C11_14  and  N2_16 
REMARK    7  A    between atoms: N2_16  and  C12_18 
REMARK    8  A    between atoms: C12_18  and  C13_19 
REMARK    9  A    between atoms: C14_20  and  C15_21 
REMARK   10  A    between atoms: C15_21  and  C16_22 
REMARK   11  A    between atoms: C16_22  and  N3_23 
REMARK   12  A    between atoms: N3_23  and  O2_24 
REMARK   13  A    between atoms: N3_23  and  C17_26 
REMARK   14  A    between atoms: C17_26  and  C18_27 
REMARK       I    between atoms: C18_27  and  N4_29 
REMARK   15  A    between atoms: N4_29  and  C19_31 
REMARK   16  A    between atoms: C19_31  and  C20_32 
REMARK   17  A    between atoms: C20_32  and  C21_33 
REMARK   18  A    between atoms: C24_37  and  O4_38 
ROOT
HETATM    1  C1  UNL     1      22.745   6.503  14.707  1.00  0.00     0.113 C 
HETATM    2  C2  UNL     1      22.976   5.987  16.069  1.00  0.00    -0.097 C 
HETATM    3  C3  UNL     1      23.185   5.559  17.182  1.00  0.00    -0.015 C 
ENDROOT
BRANCH   3   4
HETATM    4  C4  UNL     1      23.454   5.070  18.482  1.00  0.00    -0.001 C 
HETATM    5  C5  UNL     1      23.700   4.666  19.593  1.00  0.00    -0.001 C 
BRANCH   5   6
HETATM    6  C6  UNL     1      24.007   4.208  20.903  1.00  0.00    -0.012 C 
HETATM    7  C7  UNL     1      24.249   3.806  22.016  1.00  0.00    -0.065 C 
BRANCH   7   8
HETATM    8  C8  UNL     1      24.521   3.302  23.385  1.00  0.00     0.238 C 
BRANCH   8   9
HETATM    9  C9  UNL     1      24.072   4.282  24.386  1.00  0.00    -0.057 C 
HETATM   10  C10 UNL     1      23.690   5.080  25.227  1.00  0.00     0.005 C 
BRANCH  10  11
HETATM   11  N1  UNL     1      23.253   5.983  26.206  1.00  0.00    -0.359 N 
ATOM     12  H12 UNL     1      24.072   5.574  25.756  1.00  0.00     0.166 HD
ATOM     13  H11 UNL     1      22.921   6.637  26.916  1.00  0.00     0.166 HD
ENDBRANCH  10  11
ENDBRANCH   8   9
BRANCH   8  14
HETATM   14  C11 UNL     1      23.730   2.050  23.541  1.00  0.00     0.245 C 
HETATM   15  O1  UNL     1      22.685   2.112  24.235  1.00  0.00    -0.271 OA
HETATM   16  N2  UNL     1      24.203   0.872  22.899  1.00  0.00    -0.356 N 
ATOM     17  H2  UNL     1      25.066   0.892  22.356  1.00  0.00     0.162 HD
BRANCH  16  18
HETATM   18  C12 UNL     1      23.454  -0.343  23.021  1.00  0.00     0.149 C 
BRANCH  18  19
HETATM   19  C13 UNL     1      22.429  -0.589  22.002  1.00  0.00    -0.011 C 
HETATM   20  C14 UNL     1      22.324   0.005  20.822  1.00  0.00    -0.027 C 
BRANCH  20  21
HETATM   21  C15 UNL     1      21.220  -0.345  19.879  1.00  0.00     0.048 C 
BRANCH  21  22
HETATM   22  C16 UNL     1      19.861  -0.409  20.515  1.00  0.00     0.153 C 
BRANCH  22  23
HETATM   23  N3  UNL     1      19.068   0.694  20.122  1.00  0.00    -0.288 N 
BRANCH  23  24
HETATM   24  O2  UNL     1      18.172   0.514  19.333  1.00  0.00    -0.292 OA
ATOM     25  H2  UNL     1      17.680   1.264  19.020  1.00  0.00     0.244 HD
ENDBRANCH  23  24
BRANCH  23  26
HETATM   26  C17 UNL     1      19.248   2.025  20.564  1.00  0.00     0.252 C 
BRANCH  26  27
HETATM   27  C18 UNL     1      19.792   2.916  19.528  1.00  0.00     0.237 C 
HETATM   28  O3  UNL     1      20.121   4.106  19.881  1.00  0.00    -0.272 OA
HETATM   29  N4  UNL     1      19.957   2.522  18.187  1.00  0.00    -0.359 N 
ATOM     30  H4  UNL     1      19.685   1.579  17.911  1.00  0.00     0.162 HD
BRANCH  29  31
HETATM   31  C19 UNL     1      20.493   3.406  17.198  1.00  0.00     0.127 C 
BRANCH  31  32
HETATM   32  C20 UNL     1      19.464   3.911  16.251  1.00  0.00     0.058 C 
BRANCH  32  33
HETATM   33  C21 UNL     1      19.971   4.167  14.883  1.00  0.00    -0.054 A 
HETATM   34  C22 UNL     1      20.958   3.336  14.382  1.00  0.00     0.029 A 
HETATM   35  C23 UNL     1      21.479   3.533  13.128  1.00  0.00     0.045 A 
HETATM   36 BR1  UNL     1      22.850   2.385  12.416  1.00  0.00    -0.048 Br
HETATM   37  C24 UNL     1      21.026   4.566  12.343  1.00  0.00     0.100 A 
HETATM   38  C25 UNL     1      20.049   5.383  12.850  1.00  0.00     0.045 A 
HETATM   39 BR2  UNL     1      19.349   6.853  11.831  1.00  0.00    -0.048 Br
HETATM   40  C26 UNL     1      19.498   5.207  14.128  1.00  0.00     0.029 A 
BRANCH  37  41
HETATM   41  O4  UNL     1      21.528   4.800  11.065  1.00  0.00    -0.358 OA
ATOM     42  H4  UNL     1      21.044   5.297  10.416  1.00  0.00     0.217 HD
ENDBRANCH  37  41
ENDBRANCH  32  33
ENDBRANCH  31  32
ENDBRANCH  29  31
ENDBRANCH  26  27
ENDBRANCH  23  26
ENDBRANCH  22  23
ENDBRANCH  21  22
ENDBRANCH  20  21
ENDBRANCH  18  19
ENDBRANCH  16  18
ENDBRANCH   8  14
ENDBRANCH   7   8
ENDBRANCH   5   6
ENDBRANCH   3   4
TORSDOF 18
ENDMDL
