MODEL 1
REMARK VINA RESULT: -7.464088636      0.000      0.000
REMARK  11 active torsions:
REMARK  status: ('A' for Active; 'I' for Inactive)
REMARK    1  A    between atoms: C2_2  and  C3_3 
REMARK    2  A    between atoms: C2_2  and  C24_35 
REMARK    3  A    between atoms: C3_3  and  C4_4 
REMARK    4  A    between atoms: N2_12  and  C10_13 
REMARK    5  A    between atoms: C10_13  and  C11_14 
REMARK    6  A    between atoms: C11_14  and  O1_15 
REMARK    7  A    between atoms: O1_15  and  C12_16 
REMARK    8  A    between atoms: C12_16  and  C13_17 
REMARK    9  A    between atoms: C13_17  and  N3_18 
REMARK   10  A    between atoms: N3_18  and  C14_20 
REMARK   11  A    between atoms: C22_31  and  O2_32 
ROOT
HETATM    1  C4  UNL     1      21.874   4.380  18.799  1.00  0.00    -0.048 C 
HETATM    2  C5  UNL     1      20.987   3.632  19.666  1.00  0.00     0.046 A 
HETATM    3  N1  UNL     1      19.718   3.502  19.298  1.00  0.00    -0.365 N 
ATOM      4  H1  UNL     1      19.300   3.882  18.450  1.00  0.00     0.165 HD
HETATM    5  C6  UNL     1      19.074   2.778  20.242  1.00  0.00     0.089 A 
HETATM    6  C7  UNL     1      19.950   2.461  21.199  1.00  0.00     0.032 A 
HETATM    7  C8  UNL     1      21.219   2.984  20.893  1.00  0.00     0.018 A 
HETATM    8  C9  UNL     1      22.170   2.674  21.919  1.00  0.00     0.250 C 
HETATM    9  N2  UNL     1      23.490   3.095  21.992  1.00  0.00     0.112 N 
HETATM   10  C15 UNL     1      23.803   4.458  21.756  1.00  0.00     0.279 C 
HETATM   11  C16 UNL     1      22.989   5.254  20.793  1.00  0.00     0.040 C 
HETATM   12  C17 UNL     1      23.192   4.807  19.399  1.00  0.00     0.020 C 
HETATM   13  C18 UNL     1      24.292   3.812  19.180  1.00  0.00     0.039 C 
HETATM   14  C19 UNL     1      24.115   2.484  19.755  1.00  0.00     0.273 C 
HETATM   15  N5  UNL     1      24.351   2.282  21.155  1.00  0.00     0.094 N 
HETATM   16  C20 UNL     1      25.736   2.516  21.386  1.00  0.00     0.275 C 
HETATM   17  C21 UNL     1      26.446   1.179  21.428  1.00  0.00     0.064 C 
HETATM   18  C22 UNL     1      25.437   0.186  20.970  1.00  0.00     0.148 C 
HETATM   19  C23 UNL     1      24.127   0.884  21.355  1.00  0.00     0.304 C 
ENDROOT
BRANCH   9  20
HETATM   20  C10 UNL     1      24.011   2.789  23.318  1.00  0.00     0.304 C 
BRANCH  20  21
HETATM   21  C11 UNL     1      23.315   3.207  24.539  1.00  0.00     0.198 C 
BRANCH  21  22
HETATM   22  O1  UNL     1      23.957   3.354  25.724  1.00  0.00    -0.388 OA
BRANCH  22  23
HETATM   23  C12 UNL     1      23.819   4.466  26.472  1.00  0.00     0.187 C 
BRANCH  23  24
HETATM   24  C13 UNL     1      24.029   5.779  25.722  1.00  0.00     0.148 C 
BRANCH  24  25
HETATM   25  N3  UNL     1      25.416   6.127  25.587  1.00  0.00    -0.367 N 
ATOM     26  H3  UNL     1      25.886   6.540  26.392  1.00  0.00     0.161 HD
BRANCH  25  27
HETATM   27  C14 UNL     1      26.173   5.933  24.406  1.00  0.00     0.181 C 
HETATM   28  N4  UNL     1      26.085   6.824  23.318  1.00  0.00    -0.070 NA
HETATM   29  S1  UNL     1      27.172   4.648  24.246  1.00  0.00    -0.044 SA
ENDBRANCH  25  27
ENDBRANCH  24  25
ENDBRANCH  23  24
ENDBRANCH  22  23
ENDBRANCH  21  22
ENDBRANCH  20  21
ENDBRANCH   9  20
BRANCH  18  30
HETATM   30  O2  UNL     1      25.614  -0.976  21.750  1.00  0.00    -0.394 OA
ATOM     31  H2  UNL     1      24.766  -1.199  22.116  1.00  0.00     0.210 HD
ENDBRANCH  18  30
BRANCH   1  32
HETATM   32  C3  UNL     1      22.103   3.942  17.398  1.00  0.00     0.043 C 
BRANCH  32  33
HETATM   33  C2  UNL     1      21.992   4.937  16.289  1.00  0.00     0.010 C 
HETATM   34  C1  UNL     1      23.348   5.426  15.804  1.00  0.00     0.012 C 
BRANCH  33  35
HETATM   35  C24 UNL     1      21.465   4.104  15.081  1.00  0.00     0.133 C 
HETATM   36 BR1  UNL     1      22.528   4.512  13.524  1.00  0.00    -0.079 Br
HETATM   37 BR2  UNL     1      19.636   4.522  14.710  1.00  0.00    -0.079 Br
ENDBRANCH  33  35
ENDBRANCH  32  33
ENDBRANCH   1  32
TORSDOF 11
ENDMDL
MODEL 2
REMARK VINA RESULT: -7.348701166      4.816      7.966
REMARK  11 active torsions:
REMARK  status: ('A' for Active; 'I' for Inactive)
REMARK    1  A    between atoms: C2_2  and  C3_3 
REMARK    2  A    between atoms: C2_2  and  C24_35 
REMARK    3  A    between atoms: C3_3  and  C4_4 
REMARK    4  A    between atoms: N2_12  and  C10_13 
REMARK    5  A    between atoms: C10_13  and  C11_14 
REMARK    6  A    between atoms: C11_14  and  O1_15 
REMARK    7  A    between atoms: O1_15  and  C12_16 
REMARK    8  A    between atoms: C12_16  and  C13_17 
REMARK    9  A    between atoms: C13_17  and  N3_18 
REMARK   10  A    between atoms: N3_18  and  C14_20 
REMARK   11  A    between atoms: C22_31  and  O2_32 
ROOT
HETATM    1  C4  UNL     1      24.592   3.969  22.040  1.00  0.00    -0.048 C 
HETATM    2  C5  UNL     1      24.924   2.669  21.495  1.00  0.00     0.046 A 
HETATM    3  N1  UNL     1      26.039   2.081  21.916  1.00  0.00    -0.365 N 
ATOM      4  H1  UNL     1      26.693   2.463  22.598  1.00  0.00     0.165 HD
HETATM    5  C6  UNL     1      26.156   0.891  21.285  1.00  0.00     0.089 A 
HETATM    6  C7  UNL     1      25.110   0.743  20.469  1.00  0.00     0.032 A 
HETATM    7  C8  UNL     1      24.263   1.862  20.551  1.00  0.00     0.018 A 
HETATM    8  C9  UNL     1      23.144   1.733  19.666  1.00  0.00     0.250 C 
HETATM    9  N2  UNL     1      22.154   2.675  19.423  1.00  0.00     0.112 N 
HETATM   10  C15 UNL     1      22.518   4.025  19.182  1.00  0.00     0.279 C 
HETATM   11  C16 UNL     1      23.725   4.601  19.842  1.00  0.00     0.040 C 
HETATM   12  C17 UNL     1      23.535   4.753  21.300  1.00  0.00     0.020 C 
HETATM   13  C18 UNL     1      22.148   4.508  21.813  1.00  0.00     0.039 C 
HETATM   14  C19 UNL     1      21.633   3.147  21.720  1.00  0.00     0.273 C 
HETATM   15  N5  UNL     1      21.144   2.659  20.463  1.00  0.00     0.094 N 
HETATM   16  C20 UNL     1      19.992   3.428  20.134  1.00  0.00     0.275 C 
HETATM   17  C21 UNL     1      18.761   2.637  20.525  1.00  0.00     0.064 C 
HETATM   18  C22 UNL     1      19.273   1.483  21.313  1.00  0.00     0.148 C 
HETATM   19  C23 UNL     1      20.690   1.334  20.749  1.00  0.00     0.304 C 
ENDROOT
BRANCH   9  20
HETATM   20  C10 UNL     1      21.377   2.258  18.265  1.00  0.00     0.304 C 
BRANCH  20  21
HETATM   21  C11 UNL     1      21.264   3.094  17.065  1.00  0.00     0.198 C 
BRANCH  21  22
HETATM   22  O1  UNL     1      20.070   3.537  16.601  1.00  0.00    -0.388 OA
BRANCH  22  23
HETATM   23  C12 UNL     1      19.976   4.289  15.488  1.00  0.00     0.187 C 
BRANCH  23  24
HETATM   24  C13 UNL     1      21.144   5.243  15.252  1.00  0.00     0.148 C 
BRANCH  24  25
HETATM   25  N3  UNL     1      20.728   6.510  14.717  1.00  0.00    -0.367 N 
ATOM     26  H3  UNL     1      20.363   7.205  15.367  1.00  0.00     0.161 HD
BRANCH  25  27
HETATM   27  C14 UNL     1      20.793   6.854  13.345  1.00  0.00     0.181 C 
HETATM   28  N4  UNL     1      21.891   7.557  12.812  1.00  0.00    -0.070 NA
HETATM   29  S1  UNL     1      19.580   6.464  12.319  1.00  0.00    -0.044 SA
ENDBRANCH  25  27
ENDBRANCH  24  25
ENDBRANCH  23  24
ENDBRANCH  22  23
ENDBRANCH  21  22
ENDBRANCH  20  21
ENDBRANCH   9  20
BRANCH  18  30
HETATM   30  O2  UNL     1      18.492   0.362  20.963  1.00  0.00    -0.394 OA
ATOM     31  H2  UNL     1      19.090  -0.360  20.812  1.00  0.00     0.210 HD
ENDBRANCH  18  30
BRANCH   1  32
HETATM   32  C3  UNL     1      24.384   4.142  23.501  1.00  0.00     0.043 C 
BRANCH  32  33
HETATM   33  C2  UNL     1      25.508   4.646  24.348  1.00  0.00     0.010 C 
HETATM   34  C1  UNL     1      25.600   6.164  24.354  1.00  0.00     0.012 C 
BRANCH  33  35
HETATM   35  C24 UNL     1      25.064   4.313  25.805  1.00  0.00     0.133 C 
HETATM   36 BR1  UNL     1      24.280   2.551  25.837  1.00  0.00    -0.079 Br
HETATM   37 BR2  UNL     1      23.774   5.578  26.431  1.00  0.00    -0.079 Br
ENDBRANCH  33  35
ENDBRANCH  32  33
ENDBRANCH   1  32
TORSDOF 11
ENDMDL
MODEL 3
REMARK VINA RESULT: -7.325017239      0.804      1.235
REMARK  11 active torsions:
REMARK  status: ('A' for Active; 'I' for Inactive)
REMARK    1  A    between atoms: C2_2  and  C3_3 
REMARK    2  A    between atoms: C2_2  and  C24_35 
REMARK    3  A    between atoms: C3_3  and  C4_4 
REMARK    4  A    between atoms: N2_12  and  C10_13 
REMARK    5  A    between atoms: C10_13  and  C11_14 
REMARK    6  A    between atoms: C11_14  and  O1_15 
REMARK    7  A    between atoms: O1_15  and  C12_16 
REMARK    8  A    between atoms: C12_16  and  C13_17 
REMARK    9  A    between atoms: C13_17  and  N3_18 
REMARK   10  A    between atoms: N3_18  and  C14_20 
REMARK   11  A    between atoms: C22_31  and  O2_32 
ROOT
HETATM    1  C4  UNL     1      21.514   4.095  18.344  1.00  0.00    -0.048 C 
HETATM    2  C5  UNL     1      20.732   3.439  19.373  1.00  0.00     0.046 A 
HETATM    3  N1  UNL     1      19.462   3.156  19.107  1.00  0.00    -0.365 N 
ATOM      4  H1  UNL     1      18.976   3.356  18.233  1.00  0.00     0.165 HD
HETATM    5  C6  UNL     1      18.924   2.555  20.193  1.00  0.00     0.089 A 
HETATM    6  C7  UNL     1      19.866   2.469  21.135  1.00  0.00     0.032 A 
HETATM    7  C8  UNL     1      21.072   3.025  20.673  1.00  0.00     0.018 A 
HETATM    8  C9  UNL     1      22.092   2.963  21.678  1.00  0.00     0.250 C 
HETATM    9  N2  UNL     1      23.375   3.486  21.604  1.00  0.00     0.112 N 
HETATM   10  C15 UNL     1      23.563   4.809  21.129  1.00  0.00     0.279 C 
HETATM   11  C16 UNL     1      22.642   5.371  20.099  1.00  0.00     0.040 C 
HETATM   12  C17 UNL     1      22.817   4.712  18.787  1.00  0.00     0.020 C 
HETATM   13  C18 UNL     1      23.985   3.779  18.670  1.00  0.00     0.039 C 
HETATM   14  C19 UNL     1      23.945   2.556  19.464  1.00  0.00     0.273 C 
HETATM   15  N5  UNL     1      24.260   2.610  20.862  1.00  0.00     0.094 N 
HETATM   16  C20 UNL     1      25.630   2.981  20.969  1.00  0.00     0.275 C 
HETATM   17  C21 UNL     1      26.449   1.726  21.188  1.00  0.00     0.064 C 
HETATM   18  C22 UNL     1      25.506   0.598  20.959  1.00  0.00     0.148 C 
HETATM   19  C23 UNL     1      24.162   1.253  21.301  1.00  0.00     0.304 C 
ENDROOT
BRANCH   9  20
HETATM   20  C10 UNL     1      23.979   3.447  22.928  1.00  0.00     0.304 C 
BRANCH  20  21
HETATM   21  C11 UNL     1      23.213   3.759  24.139  1.00  0.00     0.198 C 
BRANCH  21  22
HETATM   22  O1  UNL     1      23.639   3.406  25.377  1.00  0.00    -0.388 OA
BRANCH  22  23
HETATM   23  C12 UNL     1      23.895   4.324  26.328  1.00  0.00     0.187 C 
BRANCH  23  24
HETATM   24  C13 UNL     1      24.053   5.755  25.819  1.00  0.00     0.148 C 
BRANCH  24  25
HETATM   25  N3  UNL     1      25.428   6.135  25.646  1.00  0.00    -0.367 N 
ATOM     26  H3  UNL     1      25.899   6.591  26.427  1.00  0.00     0.161 HD
BRANCH  25  27
HETATM   27  C14 UNL     1      26.170   5.916  24.461  1.00  0.00     0.181 C 
HETATM   28  N4  UNL     1      26.014   6.740  23.329  1.00  0.00    -0.070 NA
HETATM   29  S1  UNL     1      27.234   4.678  24.348  1.00  0.00    -0.044 SA
ENDBRANCH  25  27
ENDBRANCH  24  25
ENDBRANCH  23  24
ENDBRANCH  22  23
ENDBRANCH  21  22
ENDBRANCH  20  21
ENDBRANCH   9  20
BRANCH  18  30
HETATM   30  O2  UNL     1      25.813  -0.400  21.907  1.00  0.00    -0.394 OA
ATOM     31  H2  UNL     1      25.157  -0.347  22.592  1.00  0.00     0.210 HD
ENDBRANCH  18  30
BRANCH   1  32
HETATM   32  C3  UNL     1      21.713   3.445  17.022  1.00  0.00     0.043 C 
BRANCH  32  33
HETATM   33  C2  UNL     1      20.943   3.936  15.839  1.00  0.00     0.010 C 
HETATM   34  C1  UNL     1      19.451   4.037  16.113  1.00  0.00     0.012 C 
BRANCH  33  35
HETATM   35  C24 UNL     1      21.377   5.426  15.695  1.00  0.00     0.133 C 
HETATM   36 BR1  UNL     1      20.265   6.279  14.370  1.00  0.00    -0.079 Br
HETATM   37 BR2  UNL     1      23.205   5.555  15.147  1.00  0.00    -0.079 Br
ENDBRANCH  33  35
ENDBRANCH  32  33
ENDBRANCH   1  32
TORSDOF 11
ENDMDL
MODEL 4
REMARK VINA RESULT: -7.188613975      4.402      7.499
REMARK  11 active torsions:
REMARK  status: ('A' for Active; 'I' for Inactive)
REMARK    1  A    between atoms: C2_2  and  C3_3 
REMARK    2  A    between atoms: C2_2  and  C24_35 
REMARK    3  A    between atoms: C3_3  and  C4_4 
REMARK    4  A    between atoms: N2_12  and  C10_13 
REMARK    5  A    between atoms: C10_13  and  C11_14 
REMARK    6  A    between atoms: C11_14  and  O1_15 
REMARK    7  A    between atoms: O1_15  and  C12_16 
REMARK    8  A    between atoms: C12_16  and  C13_17 
REMARK    9  A    between atoms: C13_17  and  N3_18 
REMARK   10  A    between atoms: N3_18  and  C14_20 
REMARK   11  A    between atoms: C22_31  and  O2_32 
ROOT
HETATM    1  C4  UNL     1      25.624   2.614  23.157  1.00  0.00    -0.048 C 
HETATM    2  C5  UNL     1      24.649   1.833  23.890  1.00  0.00     0.046 A 
HETATM    3  N1  UNL     1      24.837   1.663  25.193  1.00  0.00    -0.365 N 
ATOM      4  H1  UNL     1      25.613   2.037  25.738  1.00  0.00     0.165 HD
HETATM    5  C6  UNL     1      23.822   0.909  25.674  1.00  0.00     0.089 A 
HETATM    6  C7  UNL     1      23.004   0.610  24.663  1.00  0.00     0.032 A 
HETATM    7  C8  UNL     1      23.478   1.177  23.467  1.00  0.00     0.018 A 
HETATM    8  C9  UNL     1      22.626   0.849  22.362  1.00  0.00     0.250 C 
HETATM    9  N2  UNL     1      22.826   1.167  21.026  1.00  0.00     0.112 N 
HETATM   10  C15 UNL     1      24.100   0.952  20.440  1.00  0.00     0.279 C 
HETATM   11  C16 UNL     1      25.334   1.091  21.265  1.00  0.00     0.040 C 
HETATM   12  C17 UNL     1      25.581   2.496  21.653  1.00  0.00     0.020 C 
HETATM   13  C18 UNL     1      24.702   3.523  21.003  1.00  0.00     0.039 C 
HETATM   14  C19 UNL     1      23.285   3.502  21.347  1.00  0.00     0.273 C 
HETATM   15  N5  UNL     1      22.423   2.530  20.741  1.00  0.00     0.094 N 
HETATM   16  C20 UNL     1      22.379   2.819  19.348  1.00  0.00     0.275 C 
HETATM   17  C21 UNL     1      21.116   3.605  19.063  1.00  0.00     0.064 C 
HETATM   18  C22 UNL     1      20.565   3.957  20.399  1.00  0.00     0.148 C 
HETATM   19  C23 UNL     1      21.127   2.826  21.267  1.00  0.00     0.304 C 
ENDROOT
BRANCH   9  20
HETATM   20  C10 UNL     1      21.880   0.414  20.214  1.00  0.00     0.304 C 
BRANCH  20  21
HETATM   21  C11 UNL     1      21.473  -0.950  20.564  1.00  0.00     0.198 C 
BRANCH  21  22
HETATM   22  O1  UNL     1      20.199  -1.259  20.912  1.00  0.00    -0.388 OA
BRANCH  22  23
HETATM   23  C12 UNL     1      19.141  -0.741  20.259  1.00  0.00     0.187 C 
BRANCH  23  24
HETATM   24  C13 UNL     1      17.983  -0.300  21.151  1.00  0.00     0.148 C 
BRANCH  24  25
HETATM   25  N3  UNL     1      17.854   1.129  21.229  1.00  0.00    -0.367 N 
ATOM     26  H3  UNL     1      18.693   1.692  21.089  1.00  0.00     0.161 HD
BRANCH  25  27
HETATM   27  C14 UNL     1      16.637   1.804  21.487  1.00  0.00     0.181 C 
HETATM   28  N4  UNL     1      16.388   3.095  20.983  1.00  0.00    -0.070 NA
HETATM   29  S1  UNL     1      15.469   1.117  22.403  1.00  0.00    -0.044 SA
ENDBRANCH  25  27
ENDBRANCH  24  25
ENDBRANCH  23  24
ENDBRANCH  22  23
ENDBRANCH  21  22
ENDBRANCH  20  21
ENDBRANCH   9  20
BRANCH  18  30
HETATM   30  O2  UNL     1      19.162   3.849  20.311  1.00  0.00    -0.394 OA
ATOM     31  H2  UNL     1      18.848   4.627  19.866  1.00  0.00     0.210 HD
ENDBRANCH  18  30
BRANCH   1  32
HETATM   32  C3  UNL     1      25.878   4.033  23.522  1.00  0.00     0.043 C 
BRANCH  32  33
HETATM   33  C2  UNL     1      26.556   4.348  24.815  1.00  0.00     0.010 C 
HETATM   34  C1  UNL     1      28.008   4.762  24.629  1.00  0.00     0.012 C 
BRANCH  33  35
HETATM   35  C24 UNL     1      25.872   5.665  25.292  1.00  0.00     0.133 C 
HETATM   36 BR1  UNL     1      24.003   5.319  25.623  1.00  0.00    -0.079 Br
HETATM   37 BR2  UNL     1      26.024   7.033  23.964  1.00  0.00    -0.079 Br
ENDBRANCH  33  35
ENDBRANCH  32  33
ENDBRANCH   1  32
TORSDOF 11
ENDMDL
MODEL 5
REMARK VINA RESULT: -7.177258861      1.088      1.263
REMARK  11 active torsions:
REMARK  status: ('A' for Active; 'I' for Inactive)
REMARK    1  A    between atoms: C2_2  and  C3_3 
REMARK    2  A    between atoms: C2_2  and  C24_35 
REMARK    3  A    between atoms: C3_3  and  C4_4 
REMARK    4  A    between atoms: N2_12  and  C10_13 
REMARK    5  A    between atoms: C10_13  and  C11_14 
REMARK    6  A    between atoms: C11_14  and  O1_15 
REMARK    7  A    between atoms: O1_15  and  C12_16 
REMARK    8  A    between atoms: C12_16  and  C13_17 
REMARK    9  A    between atoms: C13_17  and  N3_18 
REMARK   10  A    between atoms: N3_18  and  C14_20 
REMARK   11  A    between atoms: C22_31  and  O2_32 
ROOT
HETATM    1  C4  UNL     1      21.298   3.836  18.026  1.00  0.00    -0.048 C 
HETATM    2  C5  UNL     1      20.433   3.023  18.856  1.00  0.00     0.046 A 
HETATM    3  N1  UNL     1      19.261   2.648  18.356  1.00  0.00    -0.365 N 
ATOM      4  H1  UNL     1      18.905   2.881  17.429  1.00  0.00     0.165 HD
HETATM    5  C6  UNL     1      18.620   1.906  19.288  1.00  0.00     0.089 A 
HETATM    6  C7  UNL     1      19.399   1.823  20.368  1.00  0.00     0.032 A 
HETATM    7  C8  UNL     1      20.598   2.527  20.162  1.00  0.00     0.018 A 
HETATM    8  C9  UNL     1      21.442   2.469  21.319  1.00  0.00     0.250 C 
HETATM    9  N2  UNL     1      22.657   3.113  21.504  1.00  0.00     0.112 N 
HETATM   10  C15 UNL     1      22.779   4.485  21.166  1.00  0.00     0.279 C 
HETATM   11  C16 UNL     1      21.985   5.049  20.036  1.00  0.00     0.040 C 
HETATM   12  C17 UNL     1      22.440   4.529  18.729  1.00  0.00     0.020 C 
HETATM   13  C18 UNL     1      23.703   3.721  18.746  1.00  0.00     0.039 C 
HETATM   14  C19 UNL     1      23.663   2.435  19.431  1.00  0.00     0.273 C 
HETATM   15  N5  UNL     1      23.739   2.392  20.862  1.00  0.00     0.094 N 
HETATM   16  C20 UNL     1      25.027   2.876  21.229  1.00  0.00     0.275 C 
HETATM   17  C21 UNL     1      25.927   1.688  21.493  1.00  0.00     0.064 C 
HETATM   18  C22 UNL     1      25.158   0.503  21.025  1.00  0.00     0.148 C 
HETATM   19  C23 UNL     1      23.715   0.998  21.178  1.00  0.00     0.304 C 
ENDROOT
BRANCH   9  20
HETATM   20  C10 UNL     1      23.038   3.012  22.906  1.00  0.00     0.304 C 
BRANCH  20  21
HETATM   21  C11 UNL     1      23.244   4.200  23.740  1.00  0.00     0.198 C 
BRANCH  21  22
HETATM   22  O1  UNL     1      23.392   4.122  25.086  1.00  0.00    -0.388 OA
BRANCH  22  23
HETATM   23  C12 UNL     1      23.566   5.221  25.845  1.00  0.00     0.187 C 
BRANCH  23  24
HETATM   24  C13 UNL     1      25.020   5.582  26.136  1.00  0.00     0.148 C 
BRANCH  24  25
HETATM   25  N3  UNL     1      25.610   6.391  25.105  1.00  0.00    -0.367 N 
ATOM     26  H3  UNL     1      25.240   7.331  24.967  1.00  0.00     0.161 HD
BRANCH  25  27
HETATM   27  C14 UNL     1      26.671   5.966  24.270  1.00  0.00     0.181 C 
HETATM   28  N4  UNL     1      27.424   6.881  23.510  1.00  0.00    -0.070 NA
HETATM   29  S1  UNL     1      27.057   4.382  24.137  1.00  0.00    -0.044 SA
ENDBRANCH  25  27
ENDBRANCH  24  25
ENDBRANCH  23  24
ENDBRANCH  22  23
ENDBRANCH  21  22
ENDBRANCH  20  21
ENDBRANCH   9  20
BRANCH  18  30
HETATM   30  O2  UNL     1      25.410  -0.543  21.937  1.00  0.00    -0.394 OA
ATOM     31  H2  UNL     1      25.081  -1.342  21.544  1.00  0.00     0.210 HD
ENDBRANCH  18  30
BRANCH   1  32
HETATM   32  C3  UNL     1      21.778   3.328  16.715  1.00  0.00     0.043 C 
BRANCH  32  33
HETATM   33  C2  UNL     1      21.134   3.817  15.458  1.00  0.00     0.010 C 
HETATM   34  C1  UNL     1      20.353   5.105  15.663  1.00  0.00     0.012 C 
BRANCH  33  35
HETATM   35  C24 UNL     1      22.332   4.269  14.568  1.00  0.00     0.133 C 
HETATM   36 BR1  UNL     1      23.086   5.885  15.301  1.00  0.00    -0.079 Br
HETATM   37 BR2  UNL     1      21.761   4.608  12.775  1.00  0.00    -0.079 Br
ENDBRANCH  33  35
ENDBRANCH  32  33
ENDBRANCH   1  32
TORSDOF 11
ENDMDL
