MODEL 1
REMARK VINA RESULT: -8.195475210      0.000      0.000
REMARK  8 active torsions:
REMARK  status: ('A' for Active; 'I' for Inactive)
REMARK    1  A    between atoms: C3_3  and  O1_4 
REMARK    2  A    between atoms: C9_12  and  O3_13 
REMARK    3  A    between atoms: C9_12  and  C12_17 
REMARK    4  A    between atoms: O3_13  and  C10_14 
REMARK    5  A    between atoms: C12_17  and  O6_19 
REMARK    6  A    between atoms: O6_19  and  C13_20 
REMARK    7  A    between atoms: C13_20  and  C14_22 
REMARK    8  A    between atoms: C14_22  and  C15_23 
ROOT
HETATM    1  C1  UNL     1      94.844  28.675  18.668  1.00  0.00     0.017 C 
HETATM    2  C2  UNL     1      95.408  28.055  17.641  1.00  0.00    -0.056 C 
HETATM    3  C3  UNL     1      95.670  26.641  17.920  1.00  0.00     0.153 C 
HETATM    4  C4  UNL     1      97.109  26.441  18.224  1.00  0.00     0.114 C 
HETATM    5  C5  UNL     1      98.056  26.571  17.111  1.00  0.00     0.134 C 
HETATM    6  O2  UNL     1      98.769  25.526  17.142  1.00  0.00    -0.297 OA
HETATM    7  C6  UNL     1      98.495  27.402  16.010  1.00  0.00     0.059 C 
HETATM    8  C7  UNL     1      99.967  27.805  16.321  1.00  0.00     0.018 C 
HETATM    9  C8  UNL     1      97.727  28.503  15.479  1.00  0.00     0.050 C 
HETATM   10  C9  UNL     1      96.669  28.085  14.464  1.00  0.00     0.164 C 
HETATM   11  C17 UNL     1      95.349  28.249  15.165  1.00  0.00     0.059 C 
HETATM   12  C18 UNL     1      95.622  28.934  16.485  1.00  0.00     0.028 C 
HETATM   13  C19 UNL     1      97.000  29.473  16.316  1.00  0.00    -0.033 C 
HETATM   14  C20 UNL     1      97.636  29.940  17.560  1.00  0.00     0.016 C 
HETATM   15  C21 UNL     1      96.821  30.740  15.446  1.00  0.00     0.016 C 
ENDROOT
BRANCH  10  16
HETATM   16  O3  UNL     1      96.722  29.108  13.444  1.00  0.00    -0.299 OA
BRANCH  16  17
HETATM   17  C10 UNL     1      95.672  29.403  12.614  1.00  0.00     0.256 C 
HETATM   18  C11 UNL     1      95.238  28.352  11.639  1.00  0.00     0.126 C 
HETATM   19  O4  UNL     1      95.124  30.519  12.699  1.00  0.00    -0.266 OA
ENDBRANCH  16  17
ENDBRANCH  10  16
BRANCH  10  20
HETATM   20  C12 UNL     1      96.860  26.770  13.873  1.00  0.00     0.302 C 
HETATM   21  O5  UNL     1      97.822  26.501  13.071  1.00  0.00    -0.261 OA
BRANCH  20  22
HETATM   22  O6  UNL     1      96.016  25.713  14.126  1.00  0.00    -0.243 OA
BRANCH  22  23
HETATM   23  C13 UNL     1      95.993  24.543  13.387  1.00  0.00     0.266 C 
HETATM   24  O7  UNL     1      96.566  23.541  13.906  1.00  0.00    -0.265 OA
BRANCH  23  25
HETATM   25  C14 UNL     1      95.327  24.488  12.059  1.00  0.00     0.111 C 
BRANCH  25  26
HETATM   26  C15 UNL     1      96.385  24.071  11.047  1.00  0.00     0.005 C 
HETATM   27  C16 UNL     1      96.533  25.159  10.015  1.00  0.00     0.005 C 
ENDBRANCH  25  26
ENDBRANCH  23  25
ENDBRANCH  22  23
ENDBRANCH  20  22
ENDBRANCH  10  20
BRANCH   3  28
HETATM   28  O1  UNL     1      94.968  26.216  19.085  1.00  0.00    -0.391 OA
ATOM     29  H1  UNL     1      94.699  25.309  19.005  1.00  0.00     0.210 HD
ENDBRANCH   3  28
TORSDOF 8
ENDMDL
MODEL 2
REMARK VINA RESULT: -8.185264058      0.848      1.084
REMARK  8 active torsions:
REMARK  status: ('A' for Active; 'I' for Inactive)
REMARK    1  A    between atoms: C3_3  and  O1_4 
REMARK    2  A    between atoms: C9_12  and  O3_13 
REMARK    3  A    between atoms: C9_12  and  C12_17 
REMARK    4  A    between atoms: O3_13  and  C10_14 
REMARK    5  A    between atoms: C12_17  and  O6_19 
REMARK    6  A    between atoms: O6_19  and  C13_20 
REMARK    7  A    between atoms: C13_20  and  C14_22 
REMARK    8  A    between atoms: C14_22  and  C15_23 
ROOT
HETATM    1  C1  UNL     1      94.977  29.046  18.767  1.00  0.00     0.017 C 
HETATM    2  C2  UNL     1      95.376  28.244  17.790  1.00  0.00    -0.056 C 
HETATM    3  C3  UNL     1      95.571  26.865  18.245  1.00  0.00     0.153 C 
HETATM    4  C4  UNL     1      97.019  26.589  18.424  1.00  0.00     0.114 C 
HETATM    5  C5  UNL     1      97.838  26.482  17.213  1.00  0.00     0.134 C 
HETATM    6  O2  UNL     1      98.477  25.396  17.323  1.00  0.00    -0.297 OA
HETATM    7  C6  UNL     1      98.204  27.112  15.962  1.00  0.00     0.059 C 
HETATM    8  C7  UNL     1      99.726  27.429  16.055  1.00  0.00     0.018 C 
HETATM    9  C8  UNL     1      97.456  28.189  15.356  1.00  0.00     0.050 C 
HETATM   10  C9  UNL     1      96.264  27.726  14.530  1.00  0.00     0.164 C 
HETATM   11  C17 UNL     1      95.046  28.095  15.331  1.00  0.00     0.059 C 
HETATM   12  C18 UNL     1      95.516  28.932  16.501  1.00  0.00     0.028 C 
HETATM   13  C19 UNL     1      96.899  29.325  16.112  1.00  0.00    -0.033 C 
HETATM   14  C20 UNL     1      97.704  29.905  17.201  1.00  0.00     0.016 C 
HETATM   15  C21 UNL     1      96.708  30.468  15.088  1.00  0.00     0.016 C 
ENDROOT
BRANCH  10  16
HETATM   16  O3  UNL     1      96.268  28.588  13.370  1.00  0.00    -0.299 OA
BRANCH  16  17
HETATM   17  C10 UNL     1      95.427  28.423  12.300  1.00  0.00     0.256 C 
HETATM   18  C11 UNL     1      96.008  28.570  10.928  1.00  0.00     0.126 C 
HETATM   19  O4  UNL     1      94.226  28.161  12.507  1.00  0.00    -0.266 OA
ENDBRANCH  16  17
ENDBRANCH  10  16
BRANCH  10  20
HETATM   20  C12 UNL     1      96.295  26.329  14.122  1.00  0.00     0.302 C 
HETATM   21  O5  UNL     1      95.577  25.426  14.680  1.00  0.00    -0.261 OA
BRANCH  20  22
HETATM   22  O6  UNL     1      97.101  25.870  13.107  1.00  0.00    -0.243 OA
BRANCH  22  23
HETATM   23  C13 UNL     1      96.840  24.735  12.360  1.00  0.00     0.266 C 
HETATM   24  O7  UNL     1      97.450  23.682  12.708  1.00  0.00    -0.265 OA
BRANCH  23  25
HETATM   25  C14 UNL     1      95.891  24.772  11.216  1.00  0.00     0.111 C 
BRANCH  25  26
HETATM   26  C15 UNL     1      96.705  25.102   9.973  1.00  0.00     0.005 C 
HETATM   27  C16 UNL     1      95.849  24.877   8.753  1.00  0.00     0.005 C 
ENDBRANCH  25  26
ENDBRANCH  23  25
ENDBRANCH  22  23
ENDBRANCH  20  22
ENDBRANCH  10  20
BRANCH   3  28
HETATM   28  O1  UNL     1      94.980  26.667  19.527  1.00  0.00    -0.391 OA
ATOM     29  H1  UNL     1      94.408  25.909  19.521  1.00  0.00     0.210 HD
ENDBRANCH   3  28
TORSDOF 8
ENDMDL
MODEL 3
REMARK VINA RESULT: -8.150725056      1.041      1.243
REMARK  8 active torsions:
REMARK  status: ('A' for Active; 'I' for Inactive)
REMARK    1  A    between atoms: C3_3  and  O1_4 
REMARK    2  A    between atoms: C9_12  and  O3_13 
REMARK    3  A    between atoms: C9_12  and  C12_17 
REMARK    4  A    between atoms: O3_13  and  C10_14 
REMARK    5  A    between atoms: C12_17  and  O6_19 
REMARK    6  A    between atoms: O6_19  and  C13_20 
REMARK    7  A    between atoms: C13_20  and  C14_22 
REMARK    8  A    between atoms: C14_22  and  C15_23 
ROOT
HETATM    1  C1  UNL     1      94.774  28.672  18.382  1.00  0.00     0.017 C 
HETATM    2  C2  UNL     1      95.362  27.969  17.425  1.00  0.00    -0.056 C 
HETATM    3  C3  UNL     1      95.744  26.627  17.872  1.00  0.00     0.153 C 
HETATM    4  C4  UNL     1      97.201  26.580  18.150  1.00  0.00     0.114 C 
HETATM    5  C5  UNL     1      98.107  26.636  16.999  1.00  0.00     0.134 C 
HETATM    6  O2  UNL     1      98.903  25.662  17.138  1.00  0.00    -0.297 OA
HETATM    7  C6  UNL     1      98.452  27.348  15.787  1.00  0.00     0.059 C 
HETATM    8  C7  UNL     1      99.894  27.900  15.993  1.00  0.00     0.018 C 
HETATM    9  C8  UNL     1      97.585  28.309  15.145  1.00  0.00     0.050 C 
HETATM   10  C9  UNL     1      96.541  27.683  14.229  1.00  0.00     0.164 C 
HETATM   11  C17 UNL     1      95.229  27.834  14.947  1.00  0.00     0.059 C 
HETATM   12  C18 UNL     1      95.477  28.704  16.159  1.00  0.00     0.028 C 
HETATM   13  C19 UNL     1      96.803  29.321  15.876  1.00  0.00    -0.033 C 
HETATM   14  C20 UNL     1      97.428  29.993  17.028  1.00  0.00     0.016 C 
HETATM   15  C21 UNL     1      96.501  30.446  14.858  1.00  0.00     0.016 C 
ENDROOT
BRANCH  10  16
HETATM   16  O3  UNL     1      96.487  28.566  13.085  1.00  0.00    -0.299 OA
BRANCH  16  17
HETATM   17  C10 UNL     1      95.600  28.411  12.052  1.00  0.00     0.256 C 
HETATM   18  C11 UNL     1      96.129  28.529  10.656  1.00  0.00     0.126 C 
HETATM   19  O4  UNL     1      94.402  28.181  12.308  1.00  0.00    -0.266 OA
ENDBRANCH  16  17
ENDBRANCH  10  16
BRANCH  10  20
HETATM   20  C12 UNL     1      96.823  26.321  13.804  1.00  0.00     0.302 C 
HETATM   21  O5  UNL     1      97.741  26.032  12.959  1.00  0.00    -0.261 OA
BRANCH  20  22
HETATM   22  O6  UNL     1      96.120  25.236  14.275  1.00  0.00    -0.243 OA
BRANCH  22  23
HETATM   23  C13 UNL     1      95.617  24.228  13.472  1.00  0.00     0.266 C 
HETATM   24  O7  UNL     1      94.520  24.471  12.888  1.00  0.00    -0.265 OA
BRANCH  23  25
HETATM   25  C14 UNL     1      96.340  22.938  13.317  1.00  0.00     0.111 C 
BRANCH  25  26
HETATM   26  C15 UNL     1      96.771  22.841  11.860  1.00  0.00     0.005 C 
HETATM   27  C16 UNL     1      97.203  21.426  11.570  1.00  0.00     0.005 C 
ENDBRANCH  25  26
ENDBRANCH  23  25
ENDBRANCH  22  23
ENDBRANCH  20  22
ENDBRANCH  10  20
BRANCH   3  28
HETATM   28  O1  UNL     1      95.105  26.305  19.106  1.00  0.00    -0.391 OA
ATOM     29  H1  UNL     1      95.696  25.827  19.676  1.00  0.00     0.210 HD
ENDBRANCH   3  28
TORSDOF 8
ENDMDL
MODEL 4
REMARK VINA RESULT: -7.910858054      1.019      1.710
REMARK  8 active torsions:
REMARK  status: ('A' for Active; 'I' for Inactive)
REMARK    1  A    between atoms: C3_3  and  O1_4 
REMARK    2  A    between atoms: C9_12  and  O3_13 
REMARK    3  A    between atoms: C9_12  and  C12_17 
REMARK    4  A    between atoms: O3_13  and  C10_14 
REMARK    5  A    between atoms: C12_17  and  O6_19 
REMARK    6  A    between atoms: O6_19  and  C13_20 
REMARK    7  A    between atoms: C13_20  and  C14_22 
REMARK    8  A    between atoms: C14_22  and  C15_23 
ROOT
HETATM    1  C1  UNL     1      94.905  28.905  18.708  1.00  0.00     0.017 C 
HETATM    2  C2  UNL     1      95.393  28.212  17.689  1.00  0.00    -0.056 C 
HETATM    3  C3  UNL     1      95.543  26.789  18.004  1.00  0.00     0.153 C 
HETATM    4  C4  UNL     1      96.967  26.478  18.285  1.00  0.00     0.114 C 
HETATM    5  C5  UNL     1      97.896  26.498  17.150  1.00  0.00     0.134 C 
HETATM    6  O2  UNL     1      98.521  25.398  17.197  1.00  0.00    -0.297 OA
HETATM    7  C6  UNL     1      98.377  27.258  16.016  1.00  0.00     0.059 C 
HETATM    8  C7  UNL     1      99.884  27.546  16.285  1.00  0.00     0.018 C 
HETATM    9  C8  UNL     1      97.691  28.404  15.468  1.00  0.00     0.050 C 
HETATM   10  C9  UNL     1      96.580  28.048  14.488  1.00  0.00     0.164 C 
HETATM   11  C17 UNL     1      95.294  28.340  15.209  1.00  0.00     0.059 C 
HETATM   12  C18 UNL     1      95.653  29.037  16.503  1.00  0.00     0.028 C 
HETATM   13  C19 UNL     1      97.067  29.455  16.291  1.00  0.00    -0.033 C 
HETATM   14  C20 UNL     1      97.767  29.902  17.507  1.00  0.00     0.016 C 
HETATM   15  C21 UNL     1      96.973  30.707  15.387  1.00  0.00     0.016 C 
ENDROOT
BRANCH  10  16
HETATM   16  O3  UNL     1      96.694  29.034  13.436  1.00  0.00    -0.299 OA
BRANCH  16  17
HETATM   17  C10 UNL     1      95.666  29.359  12.590  1.00  0.00     0.256 C 
HETATM   18  C11 UNL     1      95.213  28.318  11.613  1.00  0.00     0.126 C 
HETATM   19  O4  UNL     1      95.155  30.493  12.662  1.00  0.00    -0.266 OA
ENDBRANCH  16  17
ENDBRANCH  10  16
BRANCH  10  20
HETATM   20  C12 UNL     1      96.648  26.705  13.932  1.00  0.00     0.302 C 
HETATM   21  O5  UNL     1      97.609  26.311  13.183  1.00  0.00    -0.261 OA
BRANCH  20  22
HETATM   22  O6  UNL     1      95.680  25.756  14.164  1.00  0.00    -0.243 OA
BRANCH  22  23
HETATM   23  C13 UNL     1      95.598  24.549  13.493  1.00  0.00     0.266 C 
HETATM   24  O7  UNL     1      95.087  24.584  12.336  1.00  0.00    -0.265 OA
BRANCH  23  25
HETATM   25  C14 UNL     1      96.090  23.291  14.116  1.00  0.00     0.111 C 
BRANCH  25  26
HETATM   26  C15 UNL     1      95.923  23.444  15.621  1.00  0.00     0.005 C 
HETATM   27  C16 UNL     1      96.766  22.406  16.316  1.00  0.00     0.005 C 
ENDBRANCH  25  26
ENDBRANCH  23  25
ENDBRANCH  22  23
ENDBRANCH  20  22
ENDBRANCH  10  20
BRANCH   3  28
HETATM   28  O1  UNL     1      94.835  26.457  19.196  1.00  0.00    -0.391 OA
ATOM     29  H1  UNL     1      94.129  25.850  19.010  1.00  0.00     0.210 HD
ENDBRANCH   3  28
TORSDOF 8
ENDMDL
MODEL 5
REMARK VINA RESULT: -7.231408567      2.216      5.901
REMARK  8 active torsions:
REMARK  status: ('A' for Active; 'I' for Inactive)
REMARK    1  A    between atoms: C3_3  and  O1_4 
REMARK    2  A    between atoms: C9_12  and  O3_13 
REMARK    3  A    between atoms: C9_12  and  C12_17 
REMARK    4  A    between atoms: O3_13  and  C10_14 
REMARK    5  A    between atoms: C12_17  and  O6_19 
REMARK    6  A    between atoms: O6_19  and  C13_20 
REMARK    7  A    between atoms: C13_20  and  C14_22 
REMARK    8  A    between atoms: C14_22  and  C15_23 
ROOT
HETATM    1  C1  UNL     1      94.398  29.190  13.654  1.00  0.00     0.017 C 
HETATM    2  C2  UNL     1      95.047  28.710  14.704  1.00  0.00    -0.056 C 
HETATM    3  C3  UNL     1      95.327  29.742  15.706  1.00  0.00     0.153 C 
HETATM    4  C4  UNL     1      96.746  30.167  15.616  1.00  0.00     0.114 C 
HETATM    5  C5  UNL     1      97.764  29.213  16.070  1.00  0.00     0.134 C 
HETATM    6  O2  UNL     1      98.500  29.852  16.876  1.00  0.00    -0.297 OA
HETATM    7  C6  UNL     1      98.255  27.855  15.967  1.00  0.00     0.059 C 
HETATM    8  C7  UNL     1      99.691  27.950  15.371  1.00  0.00     0.018 C 
HETATM    9  C8  UNL     1      97.497  26.767  15.396  1.00  0.00     0.050 C 
HETATM   10  C9  UNL     1      96.523  26.116  16.370  1.00  0.00     0.164 C 
HETATM   11  C17 UNL     1      95.154  26.548  15.925  1.00  0.00     0.059 C 
HETATM   12  C18 UNL     1      95.317  27.271  14.607  1.00  0.00     0.028 C 
HETATM   13  C19 UNL     1      96.689  26.888  14.170  1.00  0.00    -0.033 C 
HETATM   14  C20 UNL     1      97.225  27.684  13.053  1.00  0.00     0.016 C 
HETATM   15  C21 UNL     1      96.536  25.451  13.615  1.00  0.00     0.016 C 
ENDROOT
BRANCH  10  16
HETATM   16  O3  UNL     1      96.619  24.701  16.087  1.00  0.00    -0.299 OA
BRANCH  16  17
HETATM   17  C10 UNL     1      95.688  23.783  16.497  1.00  0.00     0.256 C 
HETATM   18  C11 UNL     1      94.888  23.083  15.442  1.00  0.00     0.126 C 
HETATM   19  O4  UNL     1      95.543  23.567  17.716  1.00  0.00    -0.266 OA
ENDBRANCH  16  17
ENDBRANCH  10  16
BRANCH  10  20
HETATM   20  C12 UNL     1      96.789  26.369  17.778  1.00  0.00     0.302 C 
HETATM   21  O5  UNL     1      97.755  25.818  18.413  1.00  0.00    -0.261 OA
BRANCH  20  22
HETATM   22  O6  UNL     1      96.018  27.218  18.538  1.00  0.00    -0.243 OA
BRANCH  22  23
HETATM   23  C13 UNL     1      96.462  27.857  19.681  1.00  0.00     0.266 C 
HETATM   24  O7  UNL     1      96.834  29.059  19.543  1.00  0.00    -0.265 OA
BRANCH  23  25
HETATM   25  C14 UNL     1      96.494  27.153  20.991  1.00  0.00     0.111 C 
BRANCH  25  26
HETATM   26  C15 UNL     1      95.064  27.117  21.512  1.00  0.00     0.005 C 
HETATM   27  C16 UNL     1      95.093  27.100  23.018  1.00  0.00     0.005 C 
ENDBRANCH  25  26
ENDBRANCH  23  25
ENDBRANCH  22  23
ENDBRANCH  20  22
ENDBRANCH  10  20
BRANCH   3  28
HETATM   28  O1  UNL     1      94.557  30.915  15.452  1.00  0.00    -0.391 OA
ATOM     29  H1  UNL     1      93.662  30.801  15.748  1.00  0.00     0.210 HD
ENDBRANCH   3  28
TORSDOF 8
ENDMDL
