MODEL 1
REMARK VINA RESULT: -7.865957018      0.000      0.000
REMARK  8 active torsions:
REMARK  status: ('A' for Active; 'I' for Inactive)
REMARK    1  A    between atoms: C2_2  and  C4_4 
REMARK    2  A    between atoms: C4_4  and  O2_6 
REMARK    3  A    between atoms: O2_6  and  C5_7 
REMARK    4  A    between atoms: C7_10  and  O4_12 
REMARK    5  A    between atoms: O4_12  and  C9_13 
REMARK    6  A    between atoms: C9_13  and  C10_15 
REMARK    7  A    between atoms: C10_15  and  C12_17 
REMARK    8  A    between atoms: C20_27  and  O8_28 
ROOT
HETATM    1  C5  UNL     1      95.446  28.419  13.515  1.00  0.00     0.199 C 
HETATM    2  C6  UNL     1      94.086  27.841  13.946  1.00  0.00     0.082 C 
HETATM    3  O3  UNL     1      96.381  27.726  14.112  1.00  0.00    -0.316 OA
HETATM    4  C7  UNL     1      97.073  26.688  13.785  1.00  0.00     0.178 C 
HETATM    5  C8  UNL     1      98.537  27.074  13.663  1.00  0.00     0.080 C 
HETATM    6  C14 UNL     1      96.683  25.794  12.661  1.00  0.00     0.074 C 
HETATM    7  C15 UNL     1      96.060  24.468  13.127  1.00  0.00     0.018 C 
HETATM    8  C16 UNL     1      95.794  26.350  11.628  1.00  0.00     0.148 C 
HETATM    9  O6  UNL     1      95.967  25.568  10.434  1.00  0.00    -0.315 OA
HETATM   10  C17 UNL     1      95.870  26.381   9.329  1.00  0.00     0.259 C 
HETATM   11  O7  UNL     1      96.026  26.027   8.146  1.00  0.00    -0.265 OA
HETATM   12  C18 UNL     1      95.545  27.754   9.796  1.00  0.00     0.121 C 
HETATM   13  C19 UNL     1      96.172  27.718  11.201  1.00  0.00     0.059 C 
HETATM   14  C20 UNL     1      95.481  28.712  12.080  1.00  0.00     0.187 C 
ENDROOT
BRANCH   4  15
HETATM   15  O4  UNL     1      97.053  25.807  14.937  1.00  0.00    -0.283 OA
BRANCH  15  16
HETATM   16  C9  UNL     1      97.335  26.227  16.208  1.00  0.00     0.265 C 
HETATM   17  O5  UNL     1      98.447  26.732  16.460  1.00  0.00    -0.265 OA
BRANCH  16  18
HETATM   18  C10 UNL     1      96.274  26.050  17.236  1.00  0.00     0.081 C 
HETATM   19  C11 UNL     1      96.727  26.451  18.611  1.00  0.00     0.020 C 
BRANCH  18  20
HETATM   20  C12 UNL     1      95.745  24.627  17.241  1.00  0.00     0.010 C 
HETATM   21  C13 UNL     1      96.844  23.737  17.781  1.00  0.00     0.006 C 
ENDBRANCH  18  20
ENDBRANCH  16  18
ENDBRANCH  15  16
ENDBRANCH   4  15
BRANCH   1  22
HETATM   22  O2  UNL     1      95.485  29.707  14.178  1.00  0.00    -0.277 OA
BRANCH  22  23
HETATM   23  C4  UNL     1      96.421  30.064  15.100  1.00  0.00     0.290 C 
HETATM   24  O1  UNL     1      97.448  30.633  14.711  1.00  0.00    -0.260 OA
BRANCH  23  25
HETATM   25  C2  UNL     1      96.229  29.789  16.505  1.00  0.00     0.004 C 
HETATM   26  C1  UNL     1      97.218  29.936  17.349  1.00  0.00     0.024 C 
HETATM   27  C3  UNL     1      94.913  29.339  16.993  1.00  0.00     0.054 C 
ENDBRANCH  23  25
ENDBRANCH  22  23
ENDBRANCH   1  22
BRANCH  14  28
HETATM   28  O8  UNL     1      96.066  29.965  11.777  1.00  0.00    -0.390 OA
ATOM     29  H8  UNL     1      96.963  29.898  11.470  1.00  0.00     0.210 HD
ENDBRANCH  14  28
TORSDOF 8
ENDMDL
MODEL 2
REMARK VINA RESULT: -7.582121836      1.857      5.888
REMARK  8 active torsions:
REMARK  status: ('A' for Active; 'I' for Inactive)
REMARK    1  A    between atoms: C2_2  and  C4_4 
REMARK    2  A    between atoms: C4_4  and  O2_6 
REMARK    3  A    between atoms: O2_6  and  C5_7 
REMARK    4  A    between atoms: C7_10  and  O4_12 
REMARK    5  A    between atoms: O4_12  and  C9_13 
REMARK    6  A    between atoms: C9_13  and  C10_15 
REMARK    7  A    between atoms: C10_15  and  C12_17 
REMARK    8  A    between atoms: C20_27  and  O8_28 
ROOT
HETATM    1  C5  UNL     1      95.997  28.924  15.469  1.00  0.00     0.199 C 
HETATM    2  C6  UNL     1      97.314  29.707  15.328  1.00  0.00     0.082 C 
HETATM    3  O3  UNL     1      96.185  27.733  14.961  1.00  0.00    -0.316 OA
HETATM    4  C7  UNL     1      96.547  26.597  15.452  1.00  0.00     0.178 C 
HETATM    5  C8  UNL     1      95.404  25.605  15.329  1.00  0.00     0.080 C 
HETATM    6  C14 UNL     1      97.189  26.477  16.789  1.00  0.00     0.074 C 
HETATM    7  C15 UNL     1      98.704  26.231  16.716  1.00  0.00     0.018 C 
HETATM    8  C16 UNL     1      96.974  27.574  17.747  1.00  0.00     0.148 C 
HETATM    9  O6  UNL     1      97.199  27.054  19.067  1.00  0.00    -0.315 OA
HETATM   10  C17 UNL     1      96.326  27.642  19.952  1.00  0.00     0.259 C 
HETATM   11  O7  UNL     1      96.223  27.373  21.163  1.00  0.00    -0.265 OA
HETATM   12  C18 UNL     1      95.531  28.653  19.210  1.00  0.00     0.121 C 
HETATM   13  C19 UNL     1      95.570  28.045  17.797  1.00  0.00     0.059 C 
HETATM   14  C20 UNL     1      95.381  29.128  16.783  1.00  0.00     0.187 C 
ENDROOT
BRANCH   4  15
HETATM   15  O4  UNL     1      97.550  26.065  14.549  1.00  0.00    -0.283 OA
BRANCH  15  16
HETATM   16  C9  UNL     1      97.567  26.328  13.208  1.00  0.00     0.265 C 
HETATM   17  O5  UNL     1      98.233  27.290  12.775  1.00  0.00    -0.265 OA
BRANCH  16  18
HETATM   18  C10 UNL     1      96.772  25.431  12.326  1.00  0.00     0.081 C 
HETATM   19  C11 UNL     1      96.941  23.979  12.672  1.00  0.00     0.020 C 
BRANCH  18  20
HETATM   20  C12 UNL     1      97.096  25.672  10.862  1.00  0.00     0.010 C 
HETATM   21  C13 UNL     1      95.997  25.027  10.043  1.00  0.00     0.006 C 
ENDBRANCH  18  20
ENDBRANCH  16  18
ENDBRANCH  15  16
ENDBRANCH   4  15
BRANCH   1  22
HETATM   22  O2  UNL     1      95.118  29.577  14.520  1.00  0.00    -0.277 OA
BRANCH  22  23
HETATM   23  C4  UNL     1      95.441  29.815  13.218  1.00  0.00     0.290 C 
HETATM   24  O1  UNL     1      95.973  30.892  12.928  1.00  0.00    -0.260 OA
BRANCH  23  25
HETATM   25  C2  UNL     1      95.170  28.837  12.190  1.00  0.00     0.004 C 
HETATM   26  C1  UNL     1      94.279  27.899  12.388  1.00  0.00     0.024 C 
HETATM   27  C3  UNL     1      95.900  28.893  10.910  1.00  0.00     0.054 C 
ENDBRANCH  23  25
ENDBRANCH  22  23
ENDBRANCH   1  22
BRANCH  14  28
HETATM   28  O8  UNL     1      93.986  29.357  16.719  1.00  0.00    -0.390 OA
ATOM     29  H8  UNL     1      93.483  28.780  17.283  1.00  0.00     0.210 HD
ENDBRANCH  14  28
TORSDOF 8
ENDMDL
MODEL 3
REMARK VINA RESULT: -7.559837829      1.966      5.814
REMARK  8 active torsions:
REMARK  status: ('A' for Active; 'I' for Inactive)
REMARK    1  A    between atoms: C2_2  and  C4_4 
REMARK    2  A    between atoms: C4_4  and  O2_6 
REMARK    3  A    between atoms: O2_6  and  C5_7 
REMARK    4  A    between atoms: C7_10  and  O4_12 
REMARK    5  A    between atoms: O4_12  and  C9_13 
REMARK    6  A    between atoms: C9_13  and  C10_15 
REMARK    7  A    between atoms: C10_15  and  C12_17 
REMARK    8  A    between atoms: C20_27  and  O8_28 
ROOT
HETATM    1  C5  UNL     1      96.936  26.171  16.164  1.00  0.00     0.199 C 
HETATM    2  C6  UNL     1      95.545  25.866  16.749  1.00  0.00     0.082 C 
HETATM    3  O3  UNL     1      96.881  25.958  14.875  1.00  0.00    -0.316 OA
HETATM    4  C7  UNL     1      96.634  26.706  13.853  1.00  0.00     0.178 C 
HETATM    5  C8  UNL     1      97.877  26.805  12.986  1.00  0.00     0.080 C 
HETATM    6  C14 UNL     1      95.992  28.042  13.983  1.00  0.00     0.074 C 
HETATM    7  C15 UNL     1      94.512  28.048  13.569  1.00  0.00     0.018 C 
HETATM    8  C16 UNL     1      96.078  28.713  15.290  1.00  0.00     0.148 C 
HETATM    9  O6  UNL     1      95.892  30.121  15.074  1.00  0.00    -0.315 OA
HETATM   10  C17 UNL     1      96.687  30.833  15.941  1.00  0.00     0.259 C 
HETATM   11  O7  UNL     1      96.803  32.072  15.976  1.00  0.00    -0.265 OA
HETATM   12  C18 UNL     1      97.381  29.864  16.829  1.00  0.00     0.121 C 
HETATM   13  C19 UNL     1      97.424  28.634  15.906  1.00  0.00     0.059 C 
HETATM   14  C20 UNL     1      97.510  27.392  16.734  1.00  0.00     0.187 C 
ENDROOT
BRANCH   4  15
HETATM   15  O4  UNL     1      95.704  25.965  13.022  1.00  0.00    -0.283 OA
BRANCH  15  16
HETATM   16  C9  UNL     1      95.660  24.600  12.978  1.00  0.00     0.265 C 
HETATM   17  O5  UNL     1      94.830  23.985  13.678  1.00  0.00    -0.265 OA
BRANCH  16  18
HETATM   18  C10 UNL     1      96.627  23.914  12.079  1.00  0.00     0.081 C 
HETATM   19  C11 UNL     1      96.309  24.116  10.624  1.00  0.00     0.020 C 
BRANCH  18  20
HETATM   20  C12 UNL     1      96.726  22.435  12.403  1.00  0.00     0.010 C 
HETATM   21  C13 UNL     1      97.084  21.712  11.122  1.00  0.00     0.006 C 
ENDBRANCH  18  20
ENDBRANCH  16  18
ENDBRANCH  15  16
ENDBRANCH   4  15
BRANCH   1  22
HETATM   22  O2  UNL     1      97.752  25.084  16.665  1.00  0.00    -0.277 OA
BRANCH  22  23
HETATM   23  C4  UNL     1      97.347  24.199  17.619  1.00  0.00     0.290 C 
HETATM   24  O1  UNL     1      97.562  24.469  18.806  1.00  0.00    -0.260 OA
BRANCH  23  25
HETATM   25  C2  UNL     1      96.682  22.968  17.261  1.00  0.00     0.004 C 
HETATM   26  C1  UNL     1      96.949  22.377  16.125  1.00  0.00     0.024 C 
HETATM   27  C3  UNL     1      95.693  22.373  18.180  1.00  0.00     0.054 C 
ENDBRANCH  23  25
ENDBRANCH  22  23
ENDBRANCH   1  22
BRANCH  14  28
HETATM   28  O8  UNL     1      98.874  27.259  17.088  1.00  0.00    -0.390 OA
ATOM     29  H8  UNL     1      99.384  28.044  16.925  1.00  0.00     0.210 HD
ENDBRANCH  14  28
TORSDOF 8
ENDMDL
MODEL 4
REMARK VINA RESULT: -7.436127014      1.416      4.070
REMARK  8 active torsions:
REMARK  status: ('A' for Active; 'I' for Inactive)
REMARK    1  A    between atoms: C2_2  and  C4_4 
REMARK    2  A    between atoms: C4_4  and  O2_6 
REMARK    3  A    between atoms: O2_6  and  C5_7 
REMARK    4  A    between atoms: C7_10  and  O4_12 
REMARK    5  A    between atoms: O4_12  and  C9_13 
REMARK    6  A    between atoms: C9_13  and  C10_15 
REMARK    7  A    between atoms: C10_15  and  C12_17 
REMARK    8  A    between atoms: C20_27  and  O8_28 
ROOT
HETATM    1  C5  UNL     1      97.036  26.137  13.288  1.00  0.00     0.199 C 
HETATM    2  C6  UNL     1      98.440  26.709  13.023  1.00  0.00     0.082 C 
HETATM    3  O3  UNL     1      96.217  27.146  13.438  1.00  0.00    -0.316 OA
HETATM    4  C7  UNL     1      95.453  27.806  12.634  1.00  0.00     0.178 C 
HETATM    5  C8  UNL     1      94.001  27.588  13.024  1.00  0.00     0.080 C 
HETATM    6  C14 UNL     1      95.604  27.734  11.156  1.00  0.00     0.074 C 
HETATM    7  C15 UNL     1      96.275  28.979  10.553  1.00  0.00     0.018 C 
HETATM    8  C16 UNL     1      96.292  26.559  10.599  1.00  0.00     0.148 C 
HETATM    9  O6  UNL     1      95.879  26.417   9.230  1.00  0.00    -0.315 OA
HETATM   10  C17 UNL     1      95.783  25.083   8.910  1.00  0.00     0.259 C 
HETATM   11  O7  UNL     1      95.397  24.619   7.821  1.00  0.00    -0.265 OA
HETATM   12  C18 UNL     1      96.220  24.295  10.091  1.00  0.00     0.121 C 
HETATM   13  C19 UNL     1      95.870  25.281  11.220  1.00  0.00     0.059 C 
HETATM   14  C20 UNL     1      96.736  25.005  12.408  1.00  0.00     0.187 C 
ENDROOT
BRANCH   4  15
HETATM   15  O4  UNL     1      95.671  29.209  12.927  1.00  0.00    -0.283 OA
BRANCH  15  16
HETATM   16  C9  UNL     1      95.145  29.839  14.021  1.00  0.00     0.265 C 
HETATM   17  O5  UNL     1      94.180  30.617  13.881  1.00  0.00    -0.265 OA
BRANCH  16  18
HETATM   18  C10 UNL     1      95.770  29.553  15.341  1.00  0.00     0.081 C 
HETATM   19  C11 UNL     1      94.763  29.467  16.452  1.00  0.00     0.020 C 
BRANCH  18  20
HETATM   20  C12 UNL     1      96.846  30.571  15.672  1.00  0.00     0.010 C 
HETATM   21  C13 UNL     1      97.083  30.511  17.166  1.00  0.00     0.006 C 
ENDBRANCH  18  20
ENDBRANCH  16  18
ENDBRANCH  15  16
ENDBRANCH   4  15
BRANCH   1  22
HETATM   22  O2  UNL     1      97.151  25.577  14.620  1.00  0.00    -0.277 OA
BRANCH  22  23
HETATM   23  C4  UNL     1      96.610  26.141  15.736  1.00  0.00     0.290 C 
HETATM   24  O1  UNL     1      95.383  26.107  15.880  1.00  0.00    -0.260 OA
BRANCH  23  25
HETATM   25  C2  UNL     1      97.443  26.767  16.735  1.00  0.00     0.004 C 
HETATM   26  C1  UNL     1      98.632  27.214  16.420  1.00  0.00     0.024 C 
HETATM   27  C3  UNL     1      96.955  26.903  18.120  1.00  0.00     0.054 C 
ENDBRANCH  23  25
ENDBRANCH  22  23
ENDBRANCH   1  22
BRANCH  14  28
HETATM   28  O8  UNL     1      96.131  23.916  13.080  1.00  0.00    -0.390 OA
ATOM     29  H8  UNL     1      95.201  24.037  13.234  1.00  0.00     0.210 HD
ENDBRANCH  14  28
TORSDOF 8
ENDMDL
MODEL 5
REMARK VINA RESULT: -7.398202755      1.671      6.050
REMARK  8 active torsions:
REMARK  status: ('A' for Active; 'I' for Inactive)
REMARK    1  A    between atoms: C2_2  and  C4_4 
REMARK    2  A    between atoms: C4_4  and  O2_6 
REMARK    3  A    between atoms: O2_6  and  C5_7 
REMARK    4  A    between atoms: C7_10  and  O4_12 
REMARK    5  A    between atoms: O4_12  and  C9_13 
REMARK    6  A    between atoms: C9_13  and  C10_15 
REMARK    7  A    between atoms: C10_15  and  C12_17 
REMARK    8  A    between atoms: C20_27  and  O8_28 
ROOT
HETATM    1  C5  UNL     1      96.876  26.156  16.045  1.00  0.00     0.199 C 
HETATM    2  C6  UNL     1      95.438  25.854  16.502  1.00  0.00     0.082 C 
HETATM    3  O3  UNL     1      96.930  25.972  14.751  1.00  0.00    -0.316 OA
HETATM    4  C7  UNL     1      96.779  26.745  13.729  1.00  0.00     0.178 C 
HETATM    5  C8  UNL     1      98.093  26.849  12.974  1.00  0.00     0.080 C 
HETATM    6  C14 UNL     1      96.139  28.084  13.833  1.00  0.00     0.074 C 
HETATM    7  C15 UNL     1      94.701  28.114  13.293  1.00  0.00     0.018 C 
HETATM    8  C16 UNL     1      96.119  28.726  15.157  1.00  0.00     0.148 C 
HETATM    9  O6  UNL     1      95.965  30.140  14.957  1.00  0.00    -0.315 OA
HETATM   10  C17 UNL     1      96.688  30.825  15.905  1.00  0.00     0.259 C 
HETATM   11  O7  UNL     1      96.812  32.061  15.977  1.00  0.00    -0.265 OA
HETATM   12  C18 UNL     1      97.294  29.830  16.827  1.00  0.00     0.121 C 
HETATM   13  C19 UNL     1      97.406  28.619  15.884  1.00  0.00     0.059 C 
HETATM   14  C20 UNL     1      97.410  27.359  16.689  1.00  0.00     0.187 C 
ENDROOT
BRANCH   4  15
HETATM   15  O4  UNL     1      95.917  26.032  12.805  1.00  0.00    -0.283 OA
BRANCH  15  16
HETATM   16  C9  UNL     1      96.342  24.981  12.040  1.00  0.00     0.265 C 
HETATM   17  O5  UNL     1      96.480  23.855  12.560  1.00  0.00    -0.265 OA
BRANCH  16  18
HETATM   18  C10 UNL     1      96.621  25.250  10.604  1.00  0.00     0.081 C 
HETATM   19  C11 UNL     1      95.930  26.485  10.101  1.00  0.00     0.020 C 
BRANCH  18  20
HETATM   20  C12 UNL     1      96.268  24.052   9.742  1.00  0.00     0.010 C 
HETATM   21  C13 UNL     1      95.753  24.581   8.420  1.00  0.00     0.006 C 
ENDBRANCH  18  20
ENDBRANCH  16  18
ENDBRANCH  15  16
ENDBRANCH   4  15
BRANCH   1  22
HETATM   22  O2  UNL     1      97.637  25.050  16.590  1.00  0.00    -0.277 OA
BRANCH  22  23
HETATM   23  C4  UNL     1      97.256  24.320  17.674  1.00  0.00     0.290 C 
HETATM   24  O1  UNL     1      97.471  24.779  18.802  1.00  0.00    -0.260 OA
BRANCH  23  25
HETATM   25  C2  UNL     1      96.614  23.036  17.522  1.00  0.00     0.004 C 
HETATM   26  C1  UNL     1      95.889  22.539  18.492  1.00  0.00     0.024 C 
HETATM   27  C3  UNL     1      96.774  22.277  16.268  1.00  0.00     0.054 C 
ENDBRANCH  23  25
ENDBRANCH  22  23
ENDBRANCH   1  22
BRANCH  14  28
HETATM   28  O8  UNL     1      98.737  27.204  17.155  1.00  0.00    -0.390 OA
ATOM     29  H8  UNL     1      98.917  26.336  17.499  1.00  0.00     0.210 HD
ENDBRANCH  14  28
TORSDOF 8
ENDMDL
