MODEL 1
REMARK VINA RESULT: -7.783402965      0.000      0.000
REMARK  6 active torsions:
REMARK  status: ('A' for Active; 'I' for Inactive)
REMARK    1  A    between atoms: C4_4  and  C5_5 
REMARK    2  A    between atoms: C5_5  and  C6_6 
REMARK    3  A    between atoms: C6_6  and  C7_7 
REMARK    4  A    between atoms: C6_6  and  C13_14 
REMARK    5  A    between atoms: C7_7  and  C8_9 
REMARK    6  A    between atoms: C9_10  and  C10_11 
ROOT
HETATM    1  C6  UNL     1      26.049 -11.221   6.746  1.00  0.00     0.139 C 
ENDROOT
BRANCH   1   2
HETATM    2  C5  UNL     1      26.720 -12.532   7.079  1.00  0.00     0.048 C 
BRANCH   2   3
HETATM    3  C4  UNL     1      26.038 -13.695   6.478  1.00  0.00    -0.024 C 
HETATM    4  C2  UNL     1      25.388 -14.584   7.199  1.00  0.00    -0.091 C 
HETATM    5  C1  UNL     1      24.705 -15.752   6.580  1.00  0.00     0.042 C 
HETATM    6  C3  UNL     1      25.323 -14.438   8.700  1.00  0.00     0.042 C 
ENDBRANCH   2   3
ENDBRANCH   1   2
BRANCH   1   7
HETATM    7  C7  UNL     1      25.650 -10.494   8.008  1.00  0.00     0.161 C 
HETATM    8  O1  UNL     1      26.591  -9.932   8.584  1.00  0.00    -0.292 OA
BRANCH   7   9
HETATM    9  C8  UNL     1      24.314 -10.467   8.473  1.00  0.00     0.047 C 
HETATM   10  C9  UNL     1      23.294 -11.176   8.228  1.00  0.00    -0.019 C 
BRANCH  10  11
HETATM   11  C10 UNL     1      22.857 -12.302   7.449  1.00  0.00    -0.000 C 
HETATM   12  C11 UNL     1      21.729 -13.083   8.179  1.00  0.00     0.013 C 
HETATM   13  C12 UNL     1      22.444 -12.204   6.044  1.00  0.00     0.013 C 
ENDBRANCH  10  11
ENDBRANCH   7   9
ENDBRANCH   1   7
BRANCH   1  14
HETATM   14  C13 UNL     1      26.912 -10.331   5.953  1.00  0.00     0.152 A 
HETATM   15  N1  UNL     1      28.253 -10.383   5.847  1.00  0.00    -0.281 N 
HETATM   16  N2  UNL     1      28.656  -9.417   5.045  1.00  0.00    -0.282 N 
ATOM     17  H1  UNL     1      28.858 -11.061   6.311  1.00  0.00     0.189 HD
HETATM   18  C14 UNL     1      27.574  -8.744   4.635  1.00  0.00     0.136 A 
ATOM     19  H2  UNL     1      29.622  -9.219   4.783  1.00  0.00     0.189 HD
HETATM   20  C15 UNL     1      27.545  -7.553   3.705  1.00  0.00     0.099 C 
HETATM   21  O2  UNL     1      26.543  -9.321   5.202  1.00  0.00    -0.282 OA
ENDBRANCH   1  14
TORSDOF 6
ENDMDL
MODEL 2
REMARK VINA RESULT: -7.736112487      0.948      3.092
REMARK  6 active torsions:
REMARK  status: ('A' for Active; 'I' for Inactive)
REMARK    1  A    between atoms: C4_4  and  C5_5 
REMARK    2  A    between atoms: C5_5  and  C6_6 
REMARK    3  A    between atoms: C6_6  and  C7_7 
REMARK    4  A    between atoms: C6_6  and  C13_14 
REMARK    5  A    between atoms: C7_7  and  C8_9 
REMARK    6  A    between atoms: C9_10  and  C10_11 
ROOT
HETATM    1  C6  UNL     1      26.419 -10.742   7.239  1.00  0.00     0.139 C 
ENDROOT
BRANCH   1   2
HETATM    2  C5  UNL     1      24.918 -10.705   7.071  1.00  0.00     0.048 C 
BRANCH   2   3
HETATM    3  C4  UNL     1      24.192 -10.996   8.324  1.00  0.00    -0.024 C 
HETATM    4  C2  UNL     1      23.064 -11.674   8.344  1.00  0.00    -0.091 C 
HETATM    5  C1  UNL     1      22.343 -11.961   9.614  1.00  0.00     0.042 C 
HETATM    6  C3  UNL     1      22.464 -12.182   7.057  1.00  0.00     0.042 C 
ENDBRANCH   2   3
ENDBRANCH   1   2
BRANCH   1   7
HETATM    7  C7  UNL     1      26.918 -12.166   7.237  1.00  0.00     0.161 C 
HETATM    8  O1  UNL     1      27.801 -12.391   8.075  1.00  0.00    -0.292 OA
BRANCH   7   9
HETATM    9  C8  UNL     1      26.408 -13.143   6.349  1.00  0.00     0.047 C 
HETATM   10  C9  UNL     1      25.634 -14.133   6.496  1.00  0.00    -0.019 C 
BRANCH  10  11
HETATM   11  C10 UNL     1      24.866 -14.832   7.489  1.00  0.00    -0.000 C 
HETATM   12  C11 UNL     1      24.742 -16.342   7.141  1.00  0.00     0.013 C 
HETATM   13  C12 UNL     1      25.150 -14.767   8.928  1.00  0.00     0.013 C 
ENDBRANCH  10  11
ENDBRANCH   7   9
ENDBRANCH   1   7
BRANCH   1  14
HETATM   14  C13 UNL     1      27.124 -10.003   6.180  1.00  0.00     0.152 A 
HETATM   15  N1  UNL     1      28.397 -10.175   5.780  1.00  0.00    -0.281 N 
HETATM   16  N2  UNL     1      28.659  -9.323   4.808  1.00  0.00    -0.282 N 
ATOM     17  H1  UNL     1      29.053 -10.854   6.166  1.00  0.00     0.189 HD
HETATM   18  C14 UNL     1      27.553  -8.603   4.583  1.00  0.00     0.136 A 
ATOM     19  H2  UNL     1      29.548  -9.230   4.315  1.00  0.00     0.189 HD
HETATM   20  C15 UNL     1      27.379  -7.505   3.560  1.00  0.00     0.099 C 
HETATM   21  O2  UNL     1      26.650  -9.039   5.427  1.00  0.00    -0.282 OA
ENDBRANCH   1  14
TORSDOF 6
ENDMDL
MODEL 3
REMARK VINA RESULT: -7.310686995      1.312      3.003
REMARK  6 active torsions:
REMARK  status: ('A' for Active; 'I' for Inactive)
REMARK    1  A    between atoms: C4_4  and  C5_5 
REMARK    2  A    between atoms: C5_5  and  C6_6 
REMARK    3  A    between atoms: C6_6  and  C7_7 
REMARK    4  A    between atoms: C6_6  and  C13_14 
REMARK    5  A    between atoms: C7_7  and  C8_9 
REMARK    6  A    between atoms: C9_10  and  C10_11 
ROOT
HETATM    1  C6  UNL     1      26.514 -11.373   7.974  1.00  0.00     0.139 C 
ENDROOT
BRANCH   1   2
HETATM    2  C5  UNL     1      25.151 -10.822   8.321  1.00  0.00     0.048 C 
BRANCH   2   3
HETATM    3  C4  UNL     1      24.094 -11.281   7.397  1.00  0.00    -0.024 C 
HETATM    4  C2  UNL     1      22.980 -11.839   7.821  1.00  0.00    -0.091 C 
HETATM    5  C1  UNL     1      21.922 -12.297   6.880  1.00  0.00     0.042 C 
HETATM    6  C3  UNL     1      22.747 -12.034   9.299  1.00  0.00     0.042 C 
ENDBRANCH   2   3
ENDBRANCH   1   2
BRANCH   1   7
HETATM    7  C7  UNL     1      26.415 -12.827   7.582  1.00  0.00     0.161 C 
HETATM    8  O1  UNL     1      26.699 -13.050   6.398  1.00  0.00    -0.292 OA
BRANCH   7   9
HETATM    9  C8  UNL     1      26.029 -13.832   8.502  1.00  0.00     0.047 C 
HETATM   10  C9  UNL     1      25.158 -14.750   8.472  1.00  0.00    -0.019 C 
BRANCH  10  11
HETATM   11  C10 UNL     1      24.136 -15.315   7.635  1.00  0.00    -0.000 C 
HETATM   12  C11 UNL     1      24.382 -14.968   6.140  1.00  0.00     0.013 C 
HETATM   13  C12 UNL     1      23.753 -16.732   7.668  1.00  0.00     0.013 C 
ENDBRANCH  10  11
ENDBRANCH   7   9
ENDBRANCH   1   7
BRANCH   1  14
HETATM   14  C13 UNL     1      27.155 -10.640   6.871  1.00  0.00     0.152 A 
HETATM   15  N1  UNL     1      28.397 -10.826   6.387  1.00  0.00    -0.281 N 
HETATM   16  N2  UNL     1      28.603  -9.975   5.400  1.00  0.00    -0.282 N 
ATOM     17  H1  UNL     1      29.069 -11.513   6.727  1.00  0.00     0.189 HD
HETATM   18  C14 UNL     1      27.493  -9.242   5.250  1.00  0.00     0.136 A 
ATOM     19  H2  UNL     1      29.458  -9.890   4.849  1.00  0.00     0.189 HD
HETATM   20  C15 UNL     1      27.263  -8.140   4.242  1.00  0.00     0.099 C 
HETATM   21  O2  UNL     1      26.643  -9.669   6.152  1.00  0.00    -0.282 OA
ENDBRANCH   1  14
TORSDOF 6
ENDMDL
MODEL 4
REMARK VINA RESULT: -7.239956146      3.222      4.800
REMARK  6 active torsions:
REMARK  status: ('A' for Active; 'I' for Inactive)
REMARK    1  A    between atoms: C4_4  and  C5_5 
REMARK    2  A    between atoms: C5_5  and  C6_6 
REMARK    3  A    between atoms: C6_6  and  C7_7 
REMARK    4  A    between atoms: C6_6  and  C13_14 
REMARK    5  A    between atoms: C7_7  and  C8_9 
REMARK    6  A    between atoms: C9_10  and  C10_11 
ROOT
HETATM    1  C6  UNL     1      24.037 -12.441   7.575  1.00  0.00     0.139 C 
ENDROOT
BRANCH   1   2
HETATM    2  C5  UNL     1      23.131 -13.596   7.217  1.00  0.00     0.048 C 
BRANCH   2   3
HETATM    3  C4  UNL     1      23.510 -14.854   7.892  1.00  0.00    -0.024 C 
HETATM    4  C2  UNL     1      24.362 -15.708   7.366  1.00  0.00    -0.091 C 
HETATM    5  C1  UNL     1      24.735 -16.972   8.058  1.00  0.00     0.042 C 
HETATM    6  C3  UNL     1      24.990 -15.421   6.025  1.00  0.00     0.042 C 
ENDBRANCH   2   3
ENDBRANCH   1   2
BRANCH   1   7
HETATM    7  C7  UNL     1      24.577 -11.785   6.327  1.00  0.00     0.161 C 
HETATM    8  O1  UNL     1      23.709 -11.259   5.619  1.00  0.00    -0.292 OA
BRANCH   7   9
HETATM    9  C8  UNL     1      25.957 -11.782   6.013  1.00  0.00     0.047 C 
HETATM   10  C9  UNL     1      27.009 -11.838   6.716  1.00  0.00    -0.019 C 
BRANCH  10  11
HETATM   11  C10 UNL     1      27.458 -11.929   8.078  1.00  0.00    -0.000 C 
HETATM   12  C11 UNL     1      26.949 -10.723   8.916  1.00  0.00     0.013 C 
HETATM   13  C12 UNL     1      27.269 -13.119   8.916  1.00  0.00     0.013 C 
ENDBRANCH  10  11
ENDBRANCH   7   9
ENDBRANCH   1   7
BRANCH   1  14
HETATM   14  C13 UNL     1      23.353 -11.415   8.378  1.00  0.00     0.152 A 
HETATM   15  N1  UNL     1      22.711 -11.595   9.547  1.00  0.00    -0.281 N 
HETATM   16  N2  UNL     1      22.229 -10.436   9.952  1.00  0.00    -0.282 N 
ATOM     17  H1  UNL     1      22.612 -12.483  10.039  1.00  0.00     0.189 HD
HETATM   18  C14 UNL     1      22.563  -9.511   9.044  1.00  0.00     0.136 A 
ATOM     19  H2  UNL     1      21.697 -10.273  10.808  1.00  0.00     0.189 HD
HETATM   20  C15 UNL     1      22.228  -8.038   9.083  1.00  0.00     0.099 C 
HETATM   21  O2  UNL     1      23.238 -10.136   8.110  1.00  0.00    -0.282 OA
ENDBRANCH   1  14
TORSDOF 6
ENDMDL
MODEL 5
REMARK VINA RESULT: -7.157038727      3.298      4.943
REMARK  6 active torsions:
REMARK  status: ('A' for Active; 'I' for Inactive)
REMARK    1  A    between atoms: C4_4  and  C5_5 
REMARK    2  A    between atoms: C5_5  and  C6_6 
REMARK    3  A    between atoms: C6_6  and  C7_7 
REMARK    4  A    between atoms: C6_6  and  C13_14 
REMARK    5  A    between atoms: C7_7  and  C8_9 
REMARK    6  A    between atoms: C9_10  and  C10_11 
ROOT
HETATM    1  C6  UNL     1      24.188 -10.994   7.461  1.00  0.00     0.139 C 
ENDROOT
BRANCH   1   2
HETATM    2  C5  UNL     1      25.347 -11.642   8.180  1.00  0.00     0.048 C 
BRANCH   2   3
HETATM    3  C4  UNL     1      26.648 -11.362   7.541  1.00  0.00    -0.024 C 
HETATM    4  C2  UNL     1      27.776 -11.883   7.978  1.00  0.00    -0.091 C 
HETATM    5  C1  UNL     1      29.081 -11.592   7.324  1.00  0.00     0.042 C 
HETATM    6  C3  UNL     1      27.771 -12.801   9.175  1.00  0.00     0.042 C 
ENDBRANCH   2   3
ENDBRANCH   1   2
BRANCH   1   7
HETATM    7  C7  UNL     1      23.334 -12.038   6.783  1.00  0.00     0.161 C 
HETATM    8  O1  UNL     1      22.124 -11.935   7.027  1.00  0.00    -0.292 OA
BRANCH   7   9
HETATM    9  C8  UNL     1      23.885 -13.036   5.945  1.00  0.00     0.047 C 
HETATM   10  C9  UNL     1      24.223 -14.241   6.134  1.00  0.00    -0.019 C 
BRANCH  10  11
HETATM   11  C10 UNL     1      24.273 -15.257   7.149  1.00  0.00    -0.000 C 
HETATM   12  C11 UNL     1      24.886 -16.573   6.593  1.00  0.00     0.013 C 
HETATM   13  C12 UNL     1      24.874 -15.053   8.472  1.00  0.00     0.013 C 
ENDBRANCH  10  11
ENDBRANCH   7   9
ENDBRANCH   1   7
BRANCH   1  14
HETATM   14  C13 UNL     1      23.330 -10.210   8.364  1.00  0.00     0.152 A 
HETATM   15  N1  UNL     1      22.741 -10.637   9.496  1.00  0.00    -0.281 N 
HETATM   16  N2  UNL     1      22.055  -9.641  10.022  1.00  0.00    -0.282 N 
ATOM     17  H1  UNL     1      22.813 -11.577   9.884  1.00  0.00     0.189 HD
HETATM   18  C14 UNL     1      22.204  -8.574   9.228  1.00  0.00     0.136 A 
ATOM     19  H2  UNL     1      21.507  -9.677  10.883  1.00  0.00     0.189 HD
HETATM   20  C15 UNL     1      21.601  -7.203   9.428  1.00  0.00     0.099 C 
HETATM   21  O2  UNL     1      22.977  -8.953   8.240  1.00  0.00    -0.282 OA
ENDBRANCH   1  14
TORSDOF 6
ENDMDL
