MODEL 1
REMARK VINA RESULT: -7.780209411      0.000      0.000
REMARK  7 active torsions:
REMARK  status: ('A' for Active; 'I' for Inactive)
REMARK    1  A    between atoms: C1_2  and  C2_3 
REMARK    2  A    between atoms: C1_2  and  O2_9 
REMARK    3  A    between atoms: C2_3  and  C3_4 
REMARK    4  A    between atoms: O2_9  and  C7_10 
REMARK    5  A    between atoms: C7_10  and  C8_11 
REMARK    6  A    between atoms: C8_11  and  C9_12 
REMARK    7  A    between atoms: C9_12  and  C10_13 
ROOT
HETATM    1  O2  UNL     1      24.990 -16.421   6.711  1.00  0.00    -0.321 OA
ENDROOT
BRANCH   1   2
HETATM    2  C1  UNL     1      24.686 -15.131   6.350  1.00  0.00     0.259 C 
HETATM    3  O1  UNL     1      23.583 -14.887   5.803  1.00  0.00    -0.265 OA
BRANCH   2   4
HETATM    4  C2  UNL     1      25.671 -14.013   6.608  1.00  0.00     0.116 C 
BRANCH   4   5
HETATM    5  C3  UNL     1      25.749 -13.780   8.072  1.00  0.00     0.005 C 
HETATM    6  C4  UNL     1      24.447 -13.257   8.647  1.00  0.00     0.016 C 
HETATM    7  C5  UNL     1      24.210 -11.890   8.068  1.00  0.00     0.074 C 
HETATM    8  S1  UNL     1      25.895 -11.189   8.293  1.00  0.00    -0.169 SA
HETATM    9  C6  UNL     1      26.808 -12.780   8.464  1.00  0.00     0.079 C 
ENDBRANCH   4   5
ENDBRANCH   2   4
ENDBRANCH   1   2
BRANCH   1  10
HETATM   10  C7  UNL     1      24.433 -17.052   7.874  1.00  0.00     0.178 C 
BRANCH  10  11
HETATM   11  C8  UNL     1      23.323 -17.980   7.559  1.00  0.00     0.027 C 
BRANCH  11  12
HETATM   12  C9  UNL     1      22.853 -18.830   8.671  1.00  0.00     0.007 C 
BRANCH  12  13
HETATM   13  C10 UNL     1      23.154 -20.262   8.749  1.00  0.00    -0.014 C 
HETATM   14  C11 UNL     1      21.963 -21.140   8.860  1.00  0.00     0.004 C 
HETATM   15  C12 UNL     1      22.121 -22.378   7.968  1.00  0.00     0.000 C 
HETATM   16  C13 UNL     1      23.455 -23.003   8.223  1.00  0.00     0.000 C 
HETATM   17  C14 UNL     1      24.557 -22.052   7.786  1.00  0.00     0.000 C 
HETATM   18  C15 UNL     1      24.025 -20.675   7.543  1.00  0.00     0.004 C 
ENDBRANCH  12  13
ENDBRANCH  11  12
ENDBRANCH  10  11
ENDBRANCH   1  10
TORSDOF 7
ENDMDL
MODEL 2
REMARK VINA RESULT: -7.674454046      1.030      1.739
REMARK  7 active torsions:
REMARK  status: ('A' for Active; 'I' for Inactive)
REMARK    1  A    between atoms: C1_2  and  C2_3 
REMARK    2  A    between atoms: C1_2  and  O2_9 
REMARK    3  A    between atoms: C2_3  and  C3_4 
REMARK    4  A    between atoms: O2_9  and  C7_10 
REMARK    5  A    between atoms: C7_10  and  C8_11 
REMARK    6  A    between atoms: C8_11  and  C9_12 
REMARK    7  A    between atoms: C9_12  and  C10_13 
ROOT
HETATM    1  O2  UNL     1      24.072 -15.167   6.463  1.00  0.00    -0.321 OA
ENDROOT
BRANCH   1   2
HETATM    2  C1  UNL     1      24.489 -13.901   6.130  1.00  0.00     0.259 C 
HETATM    3  O1  UNL     1      23.744 -13.171   5.433  1.00  0.00    -0.265 OA
BRANCH   2   4
HETATM    4  C2  UNL     1      25.834 -13.392   6.598  1.00  0.00     0.116 C 
BRANCH   4   5
HETATM    5  C3  UNL     1      25.769 -13.161   8.062  1.00  0.00     0.005 C 
HETATM    6  C4  UNL     1      24.913 -11.963   8.424  1.00  0.00     0.016 C 
HETATM    7  C5  UNL     1      25.596 -10.737   7.888  1.00  0.00     0.074 C 
HETATM    8  S1  UNL     1      27.311 -11.098   8.446  1.00  0.00    -0.169 SA
HETATM    9  C6  UNL     1      27.118 -12.913   8.690  1.00  0.00     0.079 C 
ENDBRANCH   4   5
ENDBRANCH   2   4
ENDBRANCH   1   2
BRANCH   1  10
HETATM   10  C7  UNL     1      24.966 -16.290   6.509  1.00  0.00     0.178 C 
BRANCH  10  11
HETATM   11  C8  UNL     1      24.624 -17.264   7.571  1.00  0.00     0.027 C 
BRANCH  11  12
HETATM   12  C9  UNL     1      23.199 -17.639   7.672  1.00  0.00     0.007 C 
BRANCH  12  13
HETATM   13  C10 UNL     1      22.744 -19.030   7.607  1.00  0.00    -0.014 C 
HETATM   14  C11 UNL     1      23.385 -19.841   6.542  1.00  0.00     0.004 C 
HETATM   15  C12 UNL     1      23.736 -21.239   7.067  1.00  0.00     0.000 C 
HETATM   16  C13 UNL     1      22.540 -21.826   7.746  1.00  0.00     0.000 C 
HETATM   17  C14 UNL     1      22.202 -21.009   8.981  1.00  0.00     0.000 C 
HETATM   18  C15 UNL     1      22.926 -19.700   8.985  1.00  0.00     0.004 C 
ENDBRANCH  12  13
ENDBRANCH  11  12
ENDBRANCH  10  11
ENDBRANCH   1  10
TORSDOF 7
ENDMDL
MODEL 3
REMARK VINA RESULT: -7.669302768      1.539      2.575
REMARK  7 active torsions:
REMARK  status: ('A' for Active; 'I' for Inactive)
REMARK    1  A    between atoms: C1_2  and  C2_3 
REMARK    2  A    between atoms: C1_2  and  O2_9 
REMARK    3  A    between atoms: C2_3  and  C3_4 
REMARK    4  A    between atoms: O2_9  and  C7_10 
REMARK    5  A    between atoms: C7_10  and  C8_11 
REMARK    6  A    between atoms: C8_11  and  C9_12 
REMARK    7  A    between atoms: C9_12  and  C10_13 
ROOT
HETATM    1  O2  UNL     1      23.297 -13.816   6.632  1.00  0.00    -0.321 OA
ENDROOT
BRANCH   1   2
HETATM    2  C1  UNL     1      23.692 -12.611   6.104  1.00  0.00     0.259 C 
HETATM    3  O1  UNL     1      23.424 -12.344   4.908  1.00  0.00    -0.265 OA
BRANCH   2   4
HETATM    4  C2  UNL     1      24.444 -11.613   6.957  1.00  0.00     0.116 C 
BRANCH   4   5
HETATM    5  C3  UNL     1      25.849 -11.551   6.483  1.00  0.00     0.005 C 
HETATM    6  C4  UNL     1      26.629 -12.809   6.812  1.00  0.00     0.016 C 
HETATM    7  C5  UNL     1      26.747 -12.895   8.308  1.00  0.00     0.074 C 
HETATM    8  S1  UNL     1      27.231 -11.155   8.655  1.00  0.00    -0.169 SA
HETATM    9  C6  UNL     1      26.633 -10.409   7.081  1.00  0.00     0.079 C 
ENDBRANCH   4   5
ENDBRANCH   2   4
ENDBRANCH   1   2
BRANCH   1  10
HETATM   10  C7  UNL     1      23.818 -15.071   6.171  1.00  0.00     0.178 C 
BRANCH  10  11
HETATM   11  C8  UNL     1      24.052 -16.042   7.266  1.00  0.00     0.027 C 
BRANCH  11  12
HETATM   12  C9  UNL     1      24.581 -17.360   6.861  1.00  0.00     0.007 C 
BRANCH  12  13
HETATM   13  C10 UNL     1      24.146 -18.610   7.489  1.00  0.00    -0.014 C 
HETATM   14  C11 UNL     1      23.239 -18.436   8.651  1.00  0.00     0.004 C 
HETATM   15  C12 UNL     1      22.101 -19.464   8.604  1.00  0.00     0.000 C 
HETATM   16  C13 UNL     1      22.675 -20.827   8.385  1.00  0.00     0.000 C 
HETATM   17  C14 UNL     1      23.328 -20.892   7.014  1.00  0.00     0.000 C 
HETATM   18  C15 UNL     1      23.502 -19.527   6.427  1.00  0.00     0.004 C 
ENDBRANCH  12  13
ENDBRANCH  11  12
ENDBRANCH  10  11
ENDBRANCH   1  10
TORSDOF 7
ENDMDL
MODEL 4
REMARK VINA RESULT: -7.585210040      1.366      2.022
REMARK  7 active torsions:
REMARK  status: ('A' for Active; 'I' for Inactive)
REMARK    1  A    between atoms: C1_2  and  C2_3 
REMARK    2  A    between atoms: C1_2  and  O2_9 
REMARK    3  A    between atoms: C2_3  and  C3_4 
REMARK    4  A    between atoms: O2_9  and  C7_10 
REMARK    5  A    between atoms: C7_10  and  C8_11 
REMARK    6  A    between atoms: C8_11  and  C9_12 
REMARK    7  A    between atoms: C9_12  and  C10_13 
ROOT
HETATM    1  O2  UNL     1      23.757 -14.353   5.981  1.00  0.00    -0.321 OA
ENDROOT
BRANCH   1   2
HETATM    2  C1  UNL     1      24.158 -13.067   5.712  1.00  0.00     0.259 C 
HETATM    3  O1  UNL     1      23.447 -12.342   4.975  1.00  0.00    -0.265 OA
BRANCH   2   4
HETATM    4  C2  UNL     1      25.444 -12.530   6.297  1.00  0.00     0.116 C 
BRANCH   4   5
HETATM    5  C3  UNL     1      25.349 -12.582   7.777  1.00  0.00     0.005 C 
HETATM    6  C4  UNL     1      24.933 -11.255   8.379  1.00  0.00     0.016 C 
HETATM    7  C5  UNL     1      26.036 -10.269   8.116  1.00  0.00     0.074 C 
HETATM    8  S1  UNL     1      27.472 -11.314   8.593  1.00  0.00    -0.169 SA
HETATM    9  C6  UNL     1      26.648 -12.954   8.449  1.00  0.00     0.079 C 
ENDBRANCH   4   5
ENDBRANCH   2   4
ENDBRANCH   1   2
BRANCH   1  10
HETATM   10  C7  UNL     1      24.676 -15.454   6.045  1.00  0.00     0.178 C 
BRANCH  10  11
HETATM   11  C8  UNL     1      24.541 -16.255   7.284  1.00  0.00     0.027 C 
BRANCH  11  12
HETATM   12  C9  UNL     1      23.429 -17.226   7.310  1.00  0.00     0.007 C 
BRANCH  12  13
HETATM   13  C10 UNL     1      23.616 -18.628   7.691  1.00  0.00    -0.014 C 
HETATM   14  C11 UNL     1      22.946 -19.020   8.956  1.00  0.00     0.004 C 
HETATM   15  C12 UNL     1      22.283 -20.396   8.811  1.00  0.00     0.000 C 
HETATM   16  C13 UNL     1      23.269 -21.360   8.232  1.00  0.00     0.000 C 
HETATM   17  C14 UNL     1      23.627 -20.938   6.818  1.00  0.00     0.000 C 
HETATM   18  C15 UNL     1      23.168 -19.544   6.531  1.00  0.00     0.004 C 
ENDBRANCH  12  13
ENDBRANCH  11  12
ENDBRANCH  10  11
ENDBRANCH   1  10
TORSDOF 7
ENDMDL
MODEL 5
REMARK VINA RESULT: -7.577857482      1.182      2.095
REMARK  7 active torsions:
REMARK  status: ('A' for Active; 'I' for Inactive)
REMARK    1  A    between atoms: C1_2  and  C2_3 
REMARK    2  A    between atoms: C1_2  and  O2_9 
REMARK    3  A    between atoms: C2_3  and  C3_4 
REMARK    4  A    between atoms: O2_9  and  C7_10 
REMARK    5  A    between atoms: C7_10  and  C8_11 
REMARK    6  A    between atoms: C8_11  and  C9_12 
REMARK    7  A    between atoms: C9_12  and  C10_13 
ROOT
HETATM    1  O2  UNL     1      24.320 -15.165   6.487  1.00  0.00    -0.321 OA
ENDROOT
BRANCH   1   2
HETATM    2  C1  UNL     1      24.192 -14.288   7.537  1.00  0.00     0.259 C 
HETATM    3  O1  UNL     1      23.047 -13.959   7.929  1.00  0.00    -0.265 OA
BRANCH   2   4
HETATM    4  C2  UNL     1      25.420 -13.723   8.214  1.00  0.00     0.116 C 
BRANCH   4   5
HETATM    5  C3  UNL     1      26.185 -12.929   7.221  1.00  0.00     0.005 C 
HETATM    6  C4  UNL     1      27.446 -12.324   7.807  1.00  0.00     0.016 C 
HETATM    7  C5  UNL     1      27.029 -11.317   8.842  1.00  0.00     0.074 C 
HETATM    8  S1  UNL     1      25.713 -10.456   7.889  1.00  0.00    -0.169 SA
HETATM    9  C6  UNL     1      25.401 -11.776   6.643  1.00  0.00     0.079 C 
ENDBRANCH   4   5
ENDBRANCH   2   4
ENDBRANCH   1   2
BRANCH   1  10
HETATM   10  C7  UNL     1      25.014 -16.416   6.603  1.00  0.00     0.178 C 
BRANCH  10  11
HETATM   11  C8  UNL     1      24.476 -17.284   7.676  1.00  0.00     0.027 C 
BRANCH  11  12
HETATM   12  C9  UNL     1      23.081 -17.737   7.504  1.00  0.00     0.007 C 
BRANCH  12  13
HETATM   13  C10 UNL     1      22.706 -19.153   7.512  1.00  0.00    -0.014 C 
HETATM   14  C11 UNL     1      23.504 -20.010   6.600  1.00  0.00     0.004 C 
HETATM   15  C12 UNL     1      23.862 -21.336   7.282  1.00  0.00     0.000 C 
HETATM   16  C13 UNL     1      22.626 -21.936   7.875  1.00  0.00     0.000 C 
HETATM   17  C14 UNL     1      22.108 -21.041   8.988  1.00  0.00     0.000 C 
HETATM   18  C15 UNL     1      22.761 -19.696   8.956  1.00  0.00     0.004 C 
ENDBRANCH  12  13
ENDBRANCH  11  12
ENDBRANCH  10  11
ENDBRANCH   1  10
TORSDOF 7
ENDMDL
