MODEL 1
REMARK VINA RESULT: -6.636765300      0.000      0.000
REMARK  6 active torsions:
REMARK  status: ('A' for Active; 'I' for Inactive)
REMARK    1  A    between atoms: C2_2  and  C3_4 
REMARK    2  A    between atoms: C3_4  and  C4_5 
REMARK    3  A    between atoms: C4_5  and  C5_6 
REMARK    4  A    between atoms: C5_6  and  C6_7 
REMARK    5  A    between atoms: C6_7  and  C7_8 
REMARK    6  A    between atoms: C7_8  and  C8_9 
ROOT
HETATM    1  C8  UNL     1      23.722 -13.388   7.241  1.00  0.00     0.075 C 
HETATM    2  C9  UNL     1      22.363 -13.435   7.924  1.00  0.00     0.051 C 
HETATM    3  N1  UNL     1      23.863 -12.102   6.711  1.00  0.00    -0.377 N 
ATOM      4  H1  UNL     1      23.167 -11.771   6.043  1.00  0.00     0.160 HD
HETATM    5  C10 UNL     1      24.786 -11.355   7.014  1.00  0.00     0.007 C 
HETATM    6  C11 UNL     1      25.276  -9.953   6.678  1.00  0.00     0.127 C 
HETATM    7  S1  UNL     1      27.046 -10.340   6.365  1.00  0.00    -0.162 SA
HETATM    8  C12 UNL     1      27.078 -11.981   7.209  1.00  0.00     0.095 C 
HETATM    9  C13 UNL     1      25.788 -11.834   7.989  1.00  0.00     0.105 C 
HETATM   10  S2  UNL     1      25.060 -13.421   8.463  1.00  0.00    -0.127 SA
ENDROOT
BRANCH   1  11
HETATM   11  C7  UNL     1      23.865 -14.471   6.212  1.00  0.00     0.042 C 
BRANCH  11  12
HETATM   12  C6  UNL     1      25.191 -15.181   6.473  1.00  0.00     0.003 C 
BRANCH  12  13
HETATM   13  C5  UNL     1      24.963 -16.685   6.494  1.00  0.00     0.001 C 
BRANCH  13  14
HETATM   14  C4  UNL     1      24.512 -17.132   7.846  1.00  0.00     0.007 C 
BRANCH  14  15
HETATM   15  C3  UNL     1      23.116 -17.758   7.794  1.00  0.00     0.077 C 
BRANCH  15  16
HETATM   16  C2  UNL     1      23.195 -19.172   7.329  1.00  0.00     0.123 C 
HETATM   17  C1  UNL     1      23.428 -20.280   8.297  1.00  0.00     0.091 C 
HETATM   18  O1  UNL     1      23.068 -19.468   6.130  1.00  0.00    -0.298 OA
ENDBRANCH  15  16
ENDBRANCH  14  15
ENDBRANCH  13  14
ENDBRANCH  12  13
ENDBRANCH  11  12
ENDBRANCH   1  11
TORSDOF 6
ENDMDL
MODEL 2
REMARK VINA RESULT: -6.571122892      1.099      1.185
REMARK  6 active torsions:
REMARK  status: ('A' for Active; 'I' for Inactive)
REMARK    1  A    between atoms: C2_2  and  C3_4 
REMARK    2  A    between atoms: C3_4  and  C4_5 
REMARK    3  A    between atoms: C4_5  and  C5_6 
REMARK    4  A    between atoms: C5_6  and  C6_7 
REMARK    5  A    between atoms: C6_7  and  C7_8 
REMARK    6  A    between atoms: C7_8  and  C8_9 
ROOT
HETATM    1  C8  UNL     1      24.234 -12.505   7.745  1.00  0.00     0.075 C 
HETATM    2  C9  UNL     1      23.264 -12.693   8.902  1.00  0.00     0.051 C 
HETATM    3  N1  UNL     1      24.105 -11.179   7.321  1.00  0.00    -0.377 N 
ATOM      4  H1  UNL     1      23.189 -10.851   7.016  1.00  0.00     0.160 HD
HETATM    5  C10 UNL     1      25.046 -10.393   7.301  1.00  0.00     0.007 C 
HETATM    6  C11 UNL     1      25.310  -8.941   6.927  1.00  0.00     0.127 C 
HETATM    7  S1  UNL     1      26.819  -9.182   5.906  1.00  0.00    -0.162 SA
HETATM    8  C12 UNL     1      27.245 -10.871   6.514  1.00  0.00     0.095 C 
HETATM    9  C13 UNL     1      26.370 -10.868   7.751  1.00  0.00     0.105 C 
HETATM   10  S2  UNL     1      25.949 -12.530   8.329  1.00  0.00    -0.127 SA
ENDROOT
BRANCH   1  11
HETATM   11  C7  UNL     1      23.992 -13.502   6.649  1.00  0.00     0.042 C 
BRANCH  11  12
HETATM   12  C6  UNL     1      25.277 -14.307   6.467  1.00  0.00     0.003 C 
BRANCH  12  13
HETATM   13  C5  UNL     1      24.930 -15.777   6.290  1.00  0.00     0.001 C 
BRANCH  13  14
HETATM   14  C4  UNL     1      24.301 -16.324   7.529  1.00  0.00     0.007 C 
BRANCH  14  15
HETATM   15  C3  UNL     1      24.478 -17.842   7.626  1.00  0.00     0.077 C 
BRANCH  15  16
HETATM   16  C2  UNL     1      23.200 -18.539   7.304  1.00  0.00     0.123 C 
HETATM   17  C1  UNL     1      22.106 -18.623   8.311  1.00  0.00     0.091 C 
HETATM   18  O1  UNL     1      23.010 -19.064   6.197  1.00  0.00    -0.298 OA
ENDBRANCH  15  16
ENDBRANCH  14  15
ENDBRANCH  13  14
ENDBRANCH  12  13
ENDBRANCH  11  12
ENDBRANCH   1  11
TORSDOF 6
ENDMDL
MODEL 3
REMARK VINA RESULT: -6.549091703      1.481      1.768
REMARK  6 active torsions:
REMARK  status: ('A' for Active; 'I' for Inactive)
REMARK    1  A    between atoms: C2_2  and  C3_4 
REMARK    2  A    between atoms: C3_4  and  C4_5 
REMARK    3  A    between atoms: C4_5  and  C5_6 
REMARK    4  A    between atoms: C5_6  and  C6_7 
REMARK    5  A    between atoms: C6_7  and  C7_8 
REMARK    6  A    between atoms: C7_8  and  C8_9 
ROOT
HETATM    1  C8  UNL     1      25.656 -13.527   7.969  1.00  0.00     0.075 C 
HETATM    2  C9  UNL     1      25.306 -14.458   9.121  1.00  0.00     0.051 C 
HETATM    3  N1  UNL     1      24.712 -12.496   7.982  1.00  0.00    -0.377 N 
ATOM      4  H1  UNL     1      23.725 -12.736   7.900  1.00  0.00     0.160 HD
HETATM    5  C10 UNL     1      25.021 -11.314   8.090  1.00  0.00     0.007 C 
HETATM    6  C11 UNL     1      24.333  -9.956   8.143  1.00  0.00     0.127 C 
HETATM    7  S1  UNL     1      25.381  -9.061   6.927  1.00  0.00    -0.162 SA
HETATM    8  C12 UNL     1      26.808 -10.230   6.944  1.00  0.00     0.095 C 
HETATM    9  C13 UNL     1      26.452 -10.968   8.218  1.00  0.00     0.105 C 
HETATM   10  S2  UNL     1      27.186 -12.619   8.313  1.00  0.00    -0.127 SA
ENDROOT
BRANCH   1  11
HETATM   11  C7  UNL     1      25.712 -14.260   6.659  1.00  0.00     0.042 C 
BRANCH  11  12
HETATM   12  C6  UNL     1      24.280 -14.391   6.145  1.00  0.00     0.003 C 
BRANCH  12  13
HETATM   13  C5  UNL     1      23.754 -15.780   6.467  1.00  0.00     0.001 C 
BRANCH  13  14
HETATM   14  C4  UNL     1      24.858 -16.785   6.428  1.00  0.00     0.007 C 
BRANCH  14  15
HETATM   15  C3  UNL     1      24.654 -17.885   7.473  1.00  0.00     0.077 C 
BRANCH  15  16
HETATM   16  C2  UNL     1      23.382 -18.620   7.216  1.00  0.00     0.123 C 
HETATM   17  C1  UNL     1      22.299 -18.647   8.239  1.00  0.00     0.091 C 
HETATM   18  O1  UNL     1      23.187 -19.225   6.151  1.00  0.00    -0.298 OA
ENDBRANCH  15  16
ENDBRANCH  14  15
ENDBRANCH  13  14
ENDBRANCH  12  13
ENDBRANCH  11  12
ENDBRANCH   1  11
TORSDOF 6
ENDMDL
MODEL 4
REMARK VINA RESULT: -6.533794483      1.382      1.490
REMARK  6 active torsions:
REMARK  status: ('A' for Active; 'I' for Inactive)
REMARK    1  A    between atoms: C2_2  and  C3_4 
REMARK    2  A    between atoms: C3_4  and  C4_5 
REMARK    3  A    between atoms: C4_5  and  C5_6 
REMARK    4  A    between atoms: C5_6  and  C6_7 
REMARK    5  A    between atoms: C6_7  and  C7_8 
REMARK    6  A    between atoms: C7_8  and  C8_9 
ROOT
HETATM    1  C8  UNL     1      24.478 -13.292   6.319  1.00  0.00     0.075 C 
HETATM    2  C9  UNL     1      23.216 -12.777   5.644  1.00  0.00     0.051 C 
HETATM    3  N1  UNL     1      25.517 -12.436   5.942  1.00  0.00    -0.377 N 
ATOM      4  H1  UNL     1      25.719 -12.322   4.949  1.00  0.00     0.160 HD
HETATM    5  C10 UNL     1      26.195 -11.815   6.753  1.00  0.00     0.007 C 
HETATM    6  C11 UNL     1      27.358 -10.833   6.752  1.00  0.00     0.127 C 
HETATM    7  S1  UNL     1      28.406 -11.634   8.031  1.00  0.00    -0.162 SA
HETATM    8  C12 UNL     1      27.091 -12.691   8.780  1.00  0.00     0.095 C 
HETATM    9  C13 UNL     1      25.894 -11.975   8.191  1.00  0.00     0.105 C 
HETATM   10  S2  UNL     1      24.414 -13.012   8.108  1.00  0.00    -0.127 SA
ENDROOT
BRANCH   1  11
HETATM   11  C7  UNL     1      24.744 -14.730   5.978  1.00  0.00     0.042 C 
BRANCH  11  12
HETATM   12  C6  UNL     1      24.889 -15.495   7.291  1.00  0.00     0.003 C 
BRANCH  12  13
HETATM   13  C5  UNL     1      24.706 -16.982   7.032  1.00  0.00     0.001 C 
BRANCH  13  14
HETATM   14  C4  UNL     1      23.411 -17.462   7.599  1.00  0.00     0.007 C 
BRANCH  14  15
HETATM   15  C3  UNL     1      22.829 -18.614   6.776  1.00  0.00     0.077 C 
BRANCH  15  16
HETATM   16  C2  UNL     1      23.178 -19.925   7.391  1.00  0.00     0.123 C 
HETATM   17  C1  UNL     1      23.038 -20.138   8.859  1.00  0.00     0.091 C 
HETATM   18  O1  UNL     1      23.592 -20.873   6.706  1.00  0.00    -0.298 OA
ENDBRANCH  15  16
ENDBRANCH  14  15
ENDBRANCH  13  14
ENDBRANCH  12  13
ENDBRANCH  11  12
ENDBRANCH   1  11
TORSDOF 6
ENDMDL
MODEL 5
REMARK VINA RESULT: -6.489993954      1.154      1.300
REMARK  6 active torsions:
REMARK  status: ('A' for Active; 'I' for Inactive)
REMARK    1  A    between atoms: C2_2  and  C3_4 
REMARK    2  A    between atoms: C3_4  and  C4_5 
REMARK    3  A    between atoms: C4_5  and  C5_6 
REMARK    4  A    between atoms: C5_6  and  C6_7 
REMARK    5  A    between atoms: C6_7  and  C7_8 
REMARK    6  A    between atoms: C7_8  and  C8_9 
ROOT
HETATM    1  C8  UNL     1      23.332 -12.795   7.187  1.00  0.00     0.075 C 
HETATM    2  C9  UNL     1      22.005 -12.301   6.629  1.00  0.00     0.051 C 
HETATM    3  N1  UNL     1      24.326 -12.361   6.304  1.00  0.00    -0.377 N 
ATOM      4  H1  UNL     1      24.272 -12.650   5.328  1.00  0.00     0.160 HD
HETATM    5  C10 UNL     1      25.261 -11.649   6.655  1.00  0.00     0.007 C 
HETATM    6  C11 UNL     1      26.489 -10.994   6.036  1.00  0.00     0.127 C 
HETATM    7  S1  UNL     1      27.736 -11.491   7.291  1.00  0.00    -0.162 SA
HETATM    8  C12 UNL     1      26.552 -11.920   8.640  1.00  0.00     0.095 C 
HETATM    9  C13 UNL     1      25.332 -11.226   8.068  1.00  0.00     0.105 C 
HETATM   10  S2  UNL     1      23.773 -11.895   8.696  1.00  0.00    -0.127 SA
ENDROOT
BRANCH   1  11
HETATM   11  C7  UNL     1      23.330 -14.282   7.391  1.00  0.00     0.042 C 
BRANCH  11  12
HETATM   12  C6  UNL     1      23.851 -14.923   6.106  1.00  0.00     0.003 C 
BRANCH  12  13
HETATM   13  C5  UNL     1      24.903 -15.965   6.453  1.00  0.00     0.001 C 
BRANCH  13  14
HETATM   14  C4  UNL     1      24.560 -16.656   7.732  1.00  0.00     0.007 C 
BRANCH  14  15
HETATM   15  C3  UNL     1      24.583 -18.178   7.572  1.00  0.00     0.077 C 
BRANCH  15  16
HETATM   16  C2  UNL     1      23.222 -18.690   7.245  1.00  0.00     0.123 C 
HETATM   17  C1  UNL     1      22.122 -18.618   8.247  1.00  0.00     0.091 C 
HETATM   18  O1  UNL     1      22.964 -19.185   6.137  1.00  0.00    -0.298 OA
ENDBRANCH  15  16
ENDBRANCH  14  15
ENDBRANCH  13  14
ENDBRANCH  12  13
ENDBRANCH  11  12
ENDBRANCH   1  11
TORSDOF 6
ENDMDL
