MODEL 1
REMARK VINA RESULT: -7.109892090      0.000      0.000
REMARK  6 active torsions:
REMARK  status: ('A' for Active; 'I' for Inactive)
REMARK    1  A    between atoms: C2_2  and  C3_3 
REMARK    2  A    between atoms: C3_3  and  C4_4 
REMARK    3  A    between atoms: C4_4  and  C5_5 
REMARK    4  A    between atoms: C5_5  and  C6_6 
REMARK    5  A    between atoms: C7_7  and  S1_8 
REMARK    6  A    between atoms: S1_8  and  C8_9 
ROOT
HETATM    1  C6  UNL     1      25.144 -14.417   6.550  1.00  0.00     0.059 C 
HETATM    2  C7  UNL     1      24.678 -15.821   6.398  1.00  0.00     0.194 C 
HETATM    3  O3  UNL     1      23.455 -15.297   5.913  1.00  0.00    -0.364 OA
HETATM    4  C12 UNL     1      23.698 -14.070   6.531  1.00  0.00     0.062 C 
HETATM    5  C13 UNL     1      22.996 -13.811   7.814  1.00  0.00     0.046 C 
HETATM    6  C14 UNL     1      23.452 -12.911   5.563  1.00  0.00     0.046 C 
ENDROOT
BRANCH   2   7
HETATM    7  S1  UNL     1      24.356 -16.748   7.896  1.00  0.00    -0.096 SA
BRANCH   7   8
HETATM    8  C8  UNL     1      23.442 -18.250   7.580  1.00  0.00     0.144 C 
HETATM    9  C9  UNL     1      22.090 -18.299   8.234  1.00  0.00     0.062 C 
HETATM   10  C10 UNL     1      24.192 -19.498   7.994  1.00  0.00     0.081 C 
HETATM   11  C11 UNL     1      23.625 -20.483   6.964  1.00  0.00     0.214 C 
HETATM   12  O1  UNL     1      23.018 -19.699   6.012  1.00  0.00    -0.239 OA
HETATM   13  O2  UNL     1      23.351 -18.463   6.190  1.00  0.00    -0.219 OA
ENDBRANCH   7   8
ENDBRANCH   2   7
BRANCH   1  14
HETATM   14  C5  UNL     1      25.929 -14.049   7.768  1.00  0.00     0.011 C 
BRANCH  14  15
HETATM   15  C4  UNL     1      26.757 -12.824   7.543  1.00  0.00     0.001 C 
BRANCH  15  16
HETATM   16  C3  UNL     1      26.212 -11.662   8.338  1.00  0.00    -0.000 C 
BRANCH  16  17
HETATM   17  C2  UNL     1      27.316 -10.890   9.038  1.00  0.00    -0.005 C 
HETATM   18  C1  UNL     1      28.243 -11.844   9.778  1.00  0.00     0.005 C 
ENDBRANCH  16  17
ENDBRANCH  15  16
ENDBRANCH  14  15
ENDBRANCH   1  14
TORSDOF 6
ENDMDL
MODEL 2
REMARK VINA RESULT: -7.006138089      0.619      1.138
REMARK  6 active torsions:
REMARK  status: ('A' for Active; 'I' for Inactive)
REMARK    1  A    between atoms: C2_2  and  C3_3 
REMARK    2  A    between atoms: C3_3  and  C4_4 
REMARK    3  A    between atoms: C4_4  and  C5_5 
REMARK    4  A    between atoms: C5_5  and  C6_6 
REMARK    5  A    between atoms: C7_7  and  S1_8 
REMARK    6  A    between atoms: S1_8  and  C8_9 
ROOT
HETATM    1  C6  UNL     1      25.201 -14.305   6.594  1.00  0.00     0.059 C 
HETATM    2  C7  UNL     1      24.777 -15.720   6.427  1.00  0.00     0.194 C 
HETATM    3  O3  UNL     1      23.544 -15.228   5.932  1.00  0.00    -0.364 OA
HETATM    4  C12 UNL     1      23.746 -13.999   6.561  1.00  0.00     0.062 C 
HETATM    5  C13 UNL     1      23.023 -13.769   7.838  1.00  0.00     0.046 C 
HETATM    6  C14 UNL     1      23.478 -12.840   5.599  1.00  0.00     0.046 C 
ENDROOT
BRANCH   2   7
HETATM    7  S1  UNL     1      24.465 -16.668   7.914  1.00  0.00    -0.096 SA
BRANCH   7   8
HETATM    8  C8  UNL     1      23.510 -18.143   7.590  1.00  0.00     0.144 C 
HETATM    9  C9  UNL     1      22.154 -18.154   8.235  1.00  0.00     0.062 C 
HETATM   10  C10 UNL     1      24.223 -19.412   8.008  1.00  0.00     0.081 C 
HETATM   11  C11 UNL     1      23.635 -20.380   6.972  1.00  0.00     0.214 C 
HETATM   12  O1  UNL     1      23.056 -19.577   6.017  1.00  0.00    -0.239 OA
HETATM   13  O2  UNL     1      23.423 -18.351   6.199  1.00  0.00    -0.219 OA
ENDBRANCH   7   8
ENDBRANCH   2   7
BRANCH   1  14
HETATM   14  C5  UNL     1      25.962 -13.924   7.824  1.00  0.00     0.011 C 
BRANCH  14  15
HETATM   15  C4  UNL     1      26.817 -12.719   7.593  1.00  0.00     0.001 C 
BRANCH  15  16
HETATM   16  C3  UNL     1      26.512 -11.649   8.614  1.00  0.00    -0.000 C 
BRANCH  16  17
HETATM   17  C2  UNL     1      25.343 -10.780   8.187  1.00  0.00    -0.005 C 
HETATM   18  C1  UNL     1      25.652 -10.085   6.868  1.00  0.00     0.005 C 
ENDBRANCH  16  17
ENDBRANCH  15  16
ENDBRANCH  14  15
ENDBRANCH   1  14
TORSDOF 6
ENDMDL
MODEL 3
REMARK VINA RESULT: -6.876933318      1.052      1.464
REMARK  6 active torsions:
REMARK  status: ('A' for Active; 'I' for Inactive)
REMARK    1  A    between atoms: C2_2  and  C3_3 
REMARK    2  A    between atoms: C3_3  and  C4_4 
REMARK    3  A    between atoms: C4_4  and  C5_5 
REMARK    4  A    between atoms: C5_5  and  C6_6 
REMARK    5  A    between atoms: C7_7  and  S1_8 
REMARK    6  A    between atoms: S1_8  and  C8_9 
ROOT
HETATM    1  C6  UNL     1      24.409 -14.164   6.782  1.00  0.00     0.059 C 
HETATM    2  C7  UNL     1      23.721 -15.481   6.711  1.00  0.00     0.194 C 
HETATM    3  O3  UNL     1      23.140 -15.175   7.966  1.00  0.00    -0.364 OA
HETATM    4  C12 UNL     1      24.147 -14.249   8.243  1.00  0.00     0.062 C 
HETATM    5  C13 UNL     1      25.236 -14.691   9.152  1.00  0.00     0.046 C 
HETATM    6  C14 UNL     1      23.557 -12.930   8.745  1.00  0.00     0.046 C 
ENDROOT
BRANCH   2   7
HETATM    7  S1  UNL     1      24.732 -16.949   6.885  1.00  0.00    -0.096 SA
BRANCH   7   8
HETATM    8  C8  UNL     1      23.758 -18.405   7.235  1.00  0.00     0.144 C 
HETATM    9  C9  UNL     1      22.546 -18.146   8.083  1.00  0.00     0.062 C 
HETATM   10  C10 UNL     1      24.556 -19.503   7.906  1.00  0.00     0.081 C 
HETATM   11  C11 UNL     1      23.801 -20.725   7.364  1.00  0.00     0.214 C 
HETATM   12  O1  UNL     1      23.043 -20.246   6.322  1.00  0.00    -0.239 OA
HETATM   13  O2  UNL     1      23.417 -19.045   6.027  1.00  0.00    -0.219 OA
ENDBRANCH   7   8
ENDBRANCH   2   7
BRANCH   1  14
HETATM   14  C5  UNL     1      25.834 -14.074   6.337  1.00  0.00     0.011 C 
BRANCH  14  15
HETATM   15  C4  UNL     1      26.288 -12.653   6.220  1.00  0.00     0.001 C 
BRANCH  15  16
HETATM   16  C3  UNL     1      27.453 -12.391   7.145  1.00  0.00    -0.000 C 
BRANCH  16  17
HETATM   17  C2  UNL     1      27.039 -11.568   8.352  1.00  0.00    -0.005 C 
HETATM   18  C1  UNL     1      27.954 -11.860   9.533  1.00  0.00     0.005 C 
ENDBRANCH  16  17
ENDBRANCH  15  16
ENDBRANCH  14  15
ENDBRANCH   1  14
TORSDOF 6
ENDMDL
MODEL 4
REMARK VINA RESULT: -6.818007346      2.867      6.604
REMARK  6 active torsions:
REMARK  status: ('A' for Active; 'I' for Inactive)
REMARK    1  A    between atoms: C2_2  and  C3_3 
REMARK    2  A    between atoms: C3_3  and  C4_4 
REMARK    3  A    between atoms: C4_4  and  C5_5 
REMARK    4  A    between atoms: C5_5  and  C6_6 
REMARK    5  A    between atoms: C7_7  and  S1_8 
REMARK    6  A    between atoms: S1_8  and  C8_9 
ROOT
HETATM    1  C6  UNL     1      23.733 -14.481   7.710  1.00  0.00     0.059 C 
HETATM    2  C7  UNL     1      24.898 -13.757   8.285  1.00  0.00     0.194 C 
HETATM    3  O3  UNL     1      24.020 -12.677   8.546  1.00  0.00    -0.364 OA
HETATM    4  C12 UNL     1      23.122 -13.132   7.578  1.00  0.00     0.062 C 
HETATM    5  C13 UNL     1      23.149 -12.447   6.260  1.00  0.00     0.046 C 
HETATM    6  C14 UNL     1      21.693 -13.151   8.123  1.00  0.00     0.046 C 
ENDROOT
BRANCH   2   7
HETATM    7  S1  UNL     1      26.169 -13.207   7.149  1.00  0.00    -0.096 SA
BRANCH   7   8
HETATM    8  C8  UNL     1      27.369 -12.145   7.938  1.00  0.00     0.144 C 
HETATM    9  C9  UNL     1      28.495 -11.714   7.042  1.00  0.00     0.062 C 
HETATM   10  C10 UNL     1      27.986 -12.765   9.175  1.00  0.00     0.081 C 
HETATM   11  C11 UNL     1      28.263 -11.489   9.981  1.00  0.00     0.214 C 
HETATM   12  O1  UNL     1      27.532 -10.504   9.359  1.00  0.00    -0.239 OA
HETATM   13  O2  UNL     1      26.713 -11.038   8.514  1.00  0.00    -0.219 OA
ENDBRANCH   7   8
ENDBRANCH   2   7
BRANCH   1  14
HETATM   14  C5  UNL     1      23.930 -15.278   6.460  1.00  0.00     0.011 C 
BRANCH  14  15
HETATM   15  C4  UNL     1      24.683 -16.543   6.724  1.00  0.00     0.001 C 
BRANCH  15  16
HETATM   16  C3  UNL     1      24.023 -17.333   7.828  1.00  0.00    -0.000 C 
BRANCH  16  17
HETATM   17  C2  UNL     1      22.992 -18.307   7.285  1.00  0.00    -0.005 C 
HETATM   18  C1  UNL     1      22.000 -18.693   8.373  1.00  0.00     0.005 C 
ENDBRANCH  16  17
ENDBRANCH  15  16
ENDBRANCH  14  15
ENDBRANCH   1  14
TORSDOF 6
ENDMDL
MODEL 5
REMARK VINA RESULT: -6.739500535      1.388      2.118
REMARK  6 active torsions:
REMARK  status: ('A' for Active; 'I' for Inactive)
REMARK    1  A    between atoms: C2_2  and  C3_3 
REMARK    2  A    between atoms: C3_3  and  C4_4 
REMARK    3  A    between atoms: C4_4  and  C5_5 
REMARK    4  A    between atoms: C5_5  and  C6_6 
REMARK    5  A    between atoms: C7_7  and  S1_8 
REMARK    6  A    between atoms: S1_8  and  C8_9 
ROOT
HETATM    1  C6  UNL     1      24.742 -14.593   7.909  1.00  0.00     0.059 C 
HETATM    2  C7  UNL     1      24.712 -16.031   7.533  1.00  0.00     0.194 C 
HETATM    3  O3  UNL     1      25.490 -15.688   6.401  1.00  0.00    -0.364 OA
HETATM    4  C12 UNL     1      25.075 -14.357   6.479  1.00  0.00     0.062 C 
HETATM    5  C13 UNL     1      24.004 -13.930   5.544  1.00  0.00     0.046 C 
HETATM    6  C14 UNL     1      26.267 -13.404   6.372  1.00  0.00     0.046 C 
ENDROOT
BRANCH   2   7
HETATM    7  S1  UNL     1      23.149 -16.705   6.977  1.00  0.00    -0.096 SA
BRANCH   7   8
HETATM    8  C8  UNL     1      22.962 -18.429   7.407  1.00  0.00     0.144 C 
HETATM    9  C9  UNL     1      21.862 -18.704   8.391  1.00  0.00     0.062 C 
HETATM   10  C10 UNL     1      24.232 -19.041   7.962  1.00  0.00     0.081 C 
HETATM   11  C11 UNL     1      24.040 -20.487   7.486  1.00  0.00     0.214 C 
HETATM   12  O1  UNL     1      23.038 -20.426   6.545  1.00  0.00    -0.239 OA
HETATM   13  O2  UNL     1      22.809 -19.194   6.233  1.00  0.00    -0.219 OA
ENDBRANCH   7   8
ENDBRANCH   2   7
BRANCH   1  14
HETATM   14  C5  UNL     1      23.494 -13.965   8.442  1.00  0.00     0.011 C 
BRANCH  14  15
HETATM   15  C4  UNL     1      23.781 -12.677   9.148  1.00  0.00     0.001 C 
BRANCH  15  16
HETATM   16  C3  UNL     1      23.141 -11.519   8.420  1.00  0.00    -0.000 C 
BRANCH  16  17
HETATM   17  C2  UNL     1      24.161 -10.720   7.627  1.00  0.00    -0.005 C 
HETATM   18  C1  UNL     1      25.432 -10.525   8.440  1.00  0.00     0.005 C 
ENDBRANCH  16  17
ENDBRANCH  15  16
ENDBRANCH  14  15
ENDBRANCH   1  14
TORSDOF 6
ENDMDL
