MODEL 1
REMARK VINA RESULT: -8.104016742      0.000      0.000
REMARK  6 active torsions:
REMARK  status: ('A' for Active; 'I' for Inactive)
REMARK    1  A    between atoms: C2_2  and  C3_3 
REMARK    2  A    between atoms: C3_3  and  C4_5 
REMARK    3  A    between atoms: N1_7  and  C6_8 
REMARK    4  A    between atoms: C6_8  and  C7_9 
REMARK    5  A    between atoms: C12_14  and  C13_15 
REMARK    6  A    between atoms: C13_15  and  C14_16 
ROOT
HETATM    1  C4  UNL     1      26.878  -9.462   5.951  1.00  0.00     0.112 A 
HETATM    2  C5  UNL     1      26.296 -10.467   6.677  1.00  0.00     0.146 A 
HETATM    3  N1  UNL     1      27.227 -11.414   6.910  1.00  0.00    -0.286 N 
HETATM    4  N2  UNL     1      28.320 -10.966   6.331  1.00  0.00    -0.240 N 
ATOM      5  H2  UNL     1      29.205 -11.471   6.337  1.00  0.00     0.208 HD
HETATM    6  N3  UNL     1      28.160  -9.816   5.752  1.00  0.00    -0.281 N 
ATOM      7  H3  UNL     1      28.868  -9.284   5.246  1.00  0.00     0.188 HD
ENDROOT
BRANCH   3   8
HETATM    8  C6  UNL     1      26.944 -12.597   7.643  1.00  0.00     0.154 C 
BRANCH   8   9
HETATM    9  C7  UNL     1      25.656 -13.280   7.327  1.00  0.00     0.010 C 
HETATM   10  C8  UNL     1      25.810 -14.292   6.199  1.00  0.00     0.007 C 
HETATM   11  C9  UNL     1      24.462 -14.920   5.916  1.00  0.00     0.000 C 
HETATM   12  C10 UNL     1      24.066 -15.672   7.150  1.00  0.00     0.000 C 
HETATM   13  C11 UNL     1      24.993 -15.413   8.296  1.00  0.00     0.005 C 
HETATM   14  C12 UNL     1      25.123 -13.895   8.564  1.00  0.00    -0.009 C 
BRANCH  14  15
HETATM   15  C13 UNL     1      23.860 -13.489   9.160  1.00  0.00     0.009 C 
BRANCH  15  16
HETATM   16  C14 UNL     1      23.029 -12.394   8.697  1.00  0.00    -0.022 C 
HETATM   17  C15 UNL     1      22.372 -11.572   9.770  1.00  0.00     0.009 C 
HETATM   18  C16 UNL     1      21.988 -12.741   7.658  1.00  0.00     0.009 C 
ENDBRANCH  15  16
ENDBRANCH  14  15
ENDBRANCH   8   9
ENDBRANCH   3   8
BRANCH   1  19
HETATM   19  C3  UNL     1      26.286  -8.224   5.455  1.00  0.00     0.178 C 
HETATM   20  O1  UNL     1      25.037  -8.128   5.452  1.00  0.00    -0.291 OA
BRANCH  19  21
HETATM   21  C2  UNL     1      27.108  -7.100   4.966  1.00  0.00     0.081 C 
HETATM   22  C1  UNL     1      27.363  -7.159   3.493  1.00  0.00     0.013 C 
ENDBRANCH  19  21
ENDBRANCH   1  19
TORSDOF 6
ENDMDL
MODEL 2
REMARK VINA RESULT: -7.499644998      1.257      2.894
REMARK  6 active torsions:
REMARK  status: ('A' for Active; 'I' for Inactive)
REMARK    1  A    between atoms: C2_2  and  C3_3 
REMARK    2  A    between atoms: C3_3  and  C4_5 
REMARK    3  A    between atoms: N1_7  and  C6_8 
REMARK    4  A    between atoms: C6_8  and  C7_9 
REMARK    5  A    between atoms: C12_14  and  C13_15 
REMARK    6  A    between atoms: C13_15  and  C14_16 
ROOT
HETATM    1  C4  UNL     1      26.926  -9.953   5.978  1.00  0.00     0.112 A 
HETATM    2  C5  UNL     1      26.816 -10.469   7.242  1.00  0.00     0.146 A 
HETATM    3  N1  UNL     1      26.619 -11.799   7.141  1.00  0.00    -0.286 N 
HETATM    4  N2  UNL     1      26.614 -12.044   5.848  1.00  0.00    -0.240 N 
ATOM      5  H2  UNL     1      26.484 -12.975   5.454  1.00  0.00     0.208 HD
HETATM    6  N3  UNL     1      26.792 -10.983   5.123  1.00  0.00    -0.281 N 
ATOM      7  H3  UNL     1      26.825 -10.938   4.105  1.00  0.00     0.188 HD
ENDROOT
BRANCH   3   8
HETATM    8  C6  UNL     1      26.465 -12.636   8.277  1.00  0.00     0.154 C 
BRANCH   8   9
HETATM    9  C7  UNL     1      25.072 -13.060   8.604  1.00  0.00     0.010 C 
HETATM   10  C8  UNL     1      24.100 -11.887   8.584  1.00  0.00     0.007 C 
HETATM   11  C9  UNL     1      22.720 -12.388   8.953  1.00  0.00     0.000 C 
HETATM   12  C10 UNL     1      22.303 -13.343   7.876  1.00  0.00     0.000 C 
HETATM   13  C11 UNL     1      23.415 -13.642   6.920  1.00  0.00     0.005 C 
HETATM   14  C12 UNL     1      24.670 -14.140   7.675  1.00  0.00    -0.009 C 
BRANCH  14  15
HETATM   15  C13 UNL     1      24.351 -15.485   8.127  1.00  0.00     0.009 C 
BRANCH  15  16
HETATM   16  C14 UNL     1      23.983 -16.593   7.266  1.00  0.00    -0.022 C 
HETATM   17  C15 UNL     1      23.215 -17.706   7.922  1.00  0.00     0.009 C 
HETATM   18  C16 UNL     1      25.099 -17.202   6.449  1.00  0.00     0.009 C 
ENDBRANCH  15  16
ENDBRANCH  14  15
ENDBRANCH   8   9
ENDBRANCH   3   8
BRANCH   1  19
HETATM   19  C3  UNL     1      27.144  -8.571   5.564  1.00  0.00     0.178 C 
HETATM   20  O1  UNL     1      26.496  -7.672   6.148  1.00  0.00    -0.291 OA
BRANCH  19  21
HETATM   21  C2  UNL     1      28.094  -8.211   4.493  1.00  0.00     0.081 C 
HETATM   22  C1  UNL     1      27.481  -7.352   3.433  1.00  0.00     0.013 C 
ENDBRANCH  19  21
ENDBRANCH   1  19
TORSDOF 6
ENDMDL
MODEL 3
REMARK VINA RESULT: -7.408658012      4.865      8.264
REMARK  6 active torsions:
REMARK  status: ('A' for Active; 'I' for Inactive)
REMARK    1  A    between atoms: C2_2  and  C3_3 
REMARK    2  A    between atoms: C3_3  and  C4_5 
REMARK    3  A    between atoms: N1_7  and  C6_8 
REMARK    4  A    between atoms: C6_8  and  C7_9 
REMARK    5  A    between atoms: C12_14  and  C13_15 
REMARK    6  A    between atoms: C13_15  and  C14_16 
ROOT
HETATM    1  C4  UNL     1      23.525 -19.038   7.614  1.00  0.00     0.112 A 
HETATM    2  C5  UNL     1      23.727 -17.927   8.389  1.00  0.00     0.146 A 
HETATM    3  N1  UNL     1      24.452 -17.040   7.676  1.00  0.00    -0.286 N 
HETATM    4  N2  UNL     1      24.663 -17.627   6.518  1.00  0.00    -0.240 N 
ATOM      5  H2  UNL     1      25.191 -17.196   5.759  1.00  0.00     0.208 HD
HETATM    6  N3  UNL     1      24.134 -18.809   6.437  1.00  0.00    -0.281 N 
ATOM      7  H3  UNL     1      24.173 -19.440   5.637  1.00  0.00     0.188 HD
ENDROOT
BRANCH   3   8
HETATM    8  C6  UNL     1      24.834 -15.775   8.196  1.00  0.00     0.154 C 
BRANCH   8   9
HETATM    9  C7  UNL     1      24.891 -14.647   7.221  1.00  0.00     0.010 C 
HETATM   10  C8  UNL     1      23.533 -14.373   6.587  1.00  0.00     0.007 C 
HETATM   11  C9  UNL     1      23.676 -13.242   5.591  1.00  0.00     0.000 C 
HETATM   12  C10 UNL     1      24.068 -12.025   6.372  1.00  0.00     0.000 C 
HETATM   13  C11 UNL     1      24.377 -12.341   7.802  1.00  0.00     0.005 C 
HETATM   14  C12 UNL     1      25.446 -13.455   7.899  1.00  0.00    -0.009 C 
BRANCH  14  15
HETATM   15  C13 UNL     1      26.699 -12.835   7.497  1.00  0.00     0.009 C 
BRANCH  15  16
HETATM   16  C14 UNL     1      27.691 -12.288   8.403  1.00  0.00    -0.022 C 
HETATM   17  C15 UNL     1      28.056 -13.154   9.576  1.00  0.00     0.009 C 
HETATM   18  C16 UNL     1      27.433 -10.887   8.907  1.00  0.00     0.009 C 
ENDBRANCH  15  16
ENDBRANCH  14  15
ENDBRANCH   8   9
ENDBRANCH   3   8
BRANCH   1  19
HETATM   19  C3  UNL     1      22.804 -20.265   7.935  1.00  0.00     0.178 C 
HETATM   20  O1  UNL     1      21.902 -20.208   8.803  1.00  0.00    -0.291 OA
BRANCH  19  21
HETATM   21  C2  UNL     1      23.105 -21.550   7.274  1.00  0.00     0.081 C 
HETATM   22  C1  UNL     1      22.335 -22.697   7.848  1.00  0.00     0.013 C 
ENDBRANCH  19  21
ENDBRANCH   1  19
TORSDOF 6
ENDMDL
MODEL 4
REMARK VINA RESULT: -7.370042970      4.922      8.252
REMARK  6 active torsions:
REMARK  status: ('A' for Active; 'I' for Inactive)
REMARK    1  A    between atoms: C2_2  and  C3_3 
REMARK    2  A    between atoms: C3_3  and  C4_5 
REMARK    3  A    between atoms: N1_7  and  C6_8 
REMARK    4  A    between atoms: C6_8  and  C7_9 
REMARK    5  A    between atoms: C12_14  and  C13_15 
REMARK    6  A    between atoms: C13_15  and  C14_16 
ROOT
HETATM    1  C4  UNL     1      23.413 -19.049   7.615  1.00  0.00     0.112 A 
HETATM    2  C5  UNL     1      24.592 -18.411   7.333  1.00  0.00     0.146 A 
HETATM    3  N1  UNL     1      24.303 -17.201   6.811  1.00  0.00    -0.286 N 
HETATM    4  N2  UNL     1      22.989 -17.144   6.793  1.00  0.00    -0.240 N 
ATOM      5  H2  UNL     1      22.468 -16.339   6.447  1.00  0.00     0.208 HD
HETATM    6  N3  UNL     1      22.422 -18.214   7.259  1.00  0.00    -0.281 N 
ATOM      7  H3  UNL     1      21.420 -18.387   7.339  1.00  0.00     0.188 HD
ENDROOT
BRANCH   3   8
HETATM    8  C6  UNL     1      25.311 -16.284   6.410  1.00  0.00     0.154 C 
BRANCH   8   9
HETATM    9  C7  UNL     1      24.974 -14.835   6.531  1.00  0.00     0.010 C 
HETATM   10  C8  UNL     1      23.790 -14.451   5.654  1.00  0.00     0.007 C 
HETATM   11  C9  UNL     1      23.528 -12.967   5.806  1.00  0.00     0.000 C 
HETATM   12  C10 UNL     1      23.130 -12.742   7.233  1.00  0.00     0.000 C 
HETATM   13  C11 UNL     1      23.302 -13.969   8.072  1.00  0.00     0.005 C 
HETATM   14  C12 UNL     1      24.745 -14.514   7.957  1.00  0.00    -0.009 C 
BRANCH  14  15
HETATM   15  C13 UNL     1      25.581 -13.580   8.695  1.00  0.00     0.009 C 
BRANCH  15  16
HETATM   16  C14 UNL     1      26.827 -13.012   8.215  1.00  0.00    -0.022 C 
HETATM   17  C15 UNL     1      27.880 -12.767   9.260  1.00  0.00     0.009 C 
HETATM   18  C16 UNL     1      26.709 -11.773   7.359  1.00  0.00     0.009 C 
ENDBRANCH  15  16
ENDBRANCH  14  15
ENDBRANCH   8   9
ENDBRANCH   3   8
BRANCH   1  19
HETATM   19  C3  UNL     1      23.199 -20.373   8.189  1.00  0.00     0.178 C 
HETATM   20  O1  UNL     1      23.118 -20.469   9.436  1.00  0.00    -0.291 OA
BRANCH  19  21
HETATM   21  C2  UNL     1      23.076 -21.583   7.352  1.00  0.00     0.081 C 
HETATM   22  C1  UNL     1      22.283 -22.669   8.008  1.00  0.00     0.013 C 
ENDBRANCH  19  21
ENDBRANCH   1  19
TORSDOF 6
ENDMDL
MODEL 5
REMARK VINA RESULT: -7.299514702      4.190      7.540
REMARK  6 active torsions:
REMARK  status: ('A' for Active; 'I' for Inactive)
REMARK    1  A    between atoms: C2_2  and  C3_3 
REMARK    2  A    between atoms: C3_3  and  C4_5 
REMARK    3  A    between atoms: N1_7  and  C6_8 
REMARK    4  A    between atoms: C6_8  and  C7_9 
REMARK    5  A    between atoms: C12_14  and  C13_15 
REMARK    6  A    between atoms: C13_15  and  C14_16 
ROOT
HETATM    1  C4  UNL     1      24.191 -17.998   7.290  1.00  0.00     0.112 A 
HETATM    2  C5  UNL     1      24.512 -17.030   6.376  1.00  0.00     0.146 A 
HETATM    3  N1  UNL     1      24.974 -15.953   7.044  1.00  0.00    -0.286 N 
HETATM    4  N2  UNL     1      24.920 -16.293   8.314  1.00  0.00    -0.240 N 
ATOM      5  H2  UNL     1      25.208 -15.675   9.073  1.00  0.00     0.208 HD
HETATM    6  N3  UNL     1      24.464 -17.492   8.506  1.00  0.00    -0.281 N 
ATOM      7  H3  UNL     1      24.337 -17.960   9.404  1.00  0.00     0.188 HD
ENDROOT
BRANCH   3   8
HETATM    8  C6  UNL     1      25.396 -14.769   6.384  1.00  0.00     0.154 C 
BRANCH   8   9
HETATM    9  C7  UNL     1      24.694 -13.510   6.770  1.00  0.00     0.010 C 
HETATM   10  C8  UNL     1      23.181 -13.647   6.669  1.00  0.00     0.007 C 
HETATM   11  C9  UNL     1      22.542 -12.327   7.045  1.00  0.00     0.000 C 
HETATM   12  C10 UNL     1      22.881 -12.075   8.482  1.00  0.00     0.000 C 
HETATM   13  C11 UNL     1      23.868 -13.065   9.016  1.00  0.00     0.005 C 
HETATM   14  C12 UNL     1      25.133 -13.113   8.126  1.00  0.00    -0.009 C 
BRANCH  14  15
HETATM   15  C13 UNL     1      25.847 -11.873   8.388  1.00  0.00     0.009 C 
BRANCH  15  16
HETATM   16  C14 UNL     1      27.282 -11.754   8.570  1.00  0.00    -0.022 C 
HETATM   17  C15 UNL     1      28.081 -11.497   7.324  1.00  0.00     0.009 C 
HETATM   18  C16 UNL     1      27.950 -12.867   9.343  1.00  0.00     0.009 C 
ENDBRANCH  15  16
ENDBRANCH  14  15
ENDBRANCH   8   9
ENDBRANCH   3   8
BRANCH   1  19
HETATM   19  C3  UNL     1      23.655 -19.336   7.064  1.00  0.00     0.178 C 
HETATM   20  O1  UNL     1      23.030 -19.547   5.999  1.00  0.00    -0.291 OA
BRANCH  19  21
HETATM   21  C2  UNL     1      23.829 -20.429   8.041  1.00  0.00     0.081 C 
HETATM   22  C1  UNL     1      22.546 -20.844   8.687  1.00  0.00     0.013 C 
ENDBRANCH  19  21
ENDBRANCH   1  19
TORSDOF 6
ENDMDL
