MODEL 1
REMARK VINA RESULT: -7.319246926      0.000      0.000
REMARK  6 active torsions:
REMARK  status: ('A' for Active; 'I' for Inactive)
REMARK    1  A    between atoms: C2_2  and  C3_3 
REMARK    2  A    between atoms: C3_3  and  N1_4 
REMARK    3  A    between atoms: N1_4  and  C4_5 
REMARK    4  A    between atoms: N1_4  and  C8_14 
REMARK    5  A    between atoms: C4_5  and  C5_6 
REMARK    6  A    between atoms: C8_14  and  C9_15 
ROOT
HETATM    1  N1  UNL     1      25.939 -11.110   8.020  1.00  0.00    -0.384 N 
ENDROOT
BRANCH   1   2
HETATM    2  C3  UNL     1      27.002 -11.012   8.944  1.00  0.00     0.122 C 
BRANCH   2   3
HETATM    3  C2  UNL     1      28.163 -11.961   8.690  1.00  0.00     0.015 C 
HETATM    4  C1  UNL     1      28.222 -13.019   9.782  1.00  0.00     0.006 C 
ENDBRANCH   2   3
ENDBRANCH   1   2
BRANCH   1   5
HETATM    5  C4  UNL     1      25.572  -9.893   7.372  1.00  0.00     0.181 C 
BRANCH   5   6
HETATM    6  C5  UNL     1      26.552  -9.418   6.320  1.00  0.00     0.058 A 
HETATM    7  N2  UNL     1      27.586 -10.084   5.928  1.00  0.00    -0.296 N 
HETATM    8  N3  UNL     1      28.365  -9.627   5.000  1.00  0.00    -0.269 N 
ATOM      9  H2  UNL     1      27.794 -10.985   6.358  1.00  0.00     0.187 HD
HETATM   10  S1  UNL     1      27.662  -8.155   4.592  1.00  0.00    -0.002 SA
ATOM     11  H3  UNL     1      29.204 -10.057   4.610  1.00  0.00     0.195 HD
HETATM   12  C6  UNL     1      26.351  -8.195   5.672  1.00  0.00     0.022 A 
HETATM   13  C7  UNL     1      25.225  -7.223   5.928  1.00  0.00     0.060 C 
ENDBRANCH   5   6
ENDBRANCH   1   5
BRANCH   1  14
HETATM   14  C8  UNL     1      24.867 -11.987   8.275  1.00  0.00     0.088 C 
BRANCH  14  15
HETATM   15  C9  UNL     1      24.807 -13.362   7.782  1.00  0.00    -0.065 C 
HETATM   16  C10 UNL     1      23.622 -13.696   6.892  1.00  0.00     0.035 C 
HETATM   17  C11 UNL     1      24.112 -14.696   5.831  1.00  0.00     0.004 C 
HETATM   18  C12 UNL     1      24.968 -15.702   6.540  1.00  0.00     0.001 C 
HETATM   19  C13 UNL     1      24.612 -15.794   8.005  1.00  0.00     0.004 C 
HETATM   20  C14 UNL     1      25.084 -14.505   8.670  1.00  0.00     0.035 C 
ENDBRANCH  14  15
ENDBRANCH   1  14
TORSDOF 6
ENDMDL
MODEL 2
REMARK VINA RESULT: -7.143926552      1.164      1.727
REMARK  6 active torsions:
REMARK  status: ('A' for Active; 'I' for Inactive)
REMARK    1  A    between atoms: C2_2  and  C3_3 
REMARK    2  A    between atoms: C3_3  and  N1_4 
REMARK    3  A    between atoms: N1_4  and  C4_5 
REMARK    4  A    between atoms: N1_4  and  C8_14 
REMARK    5  A    between atoms: C4_5  and  C5_6 
REMARK    6  A    between atoms: C8_14  and  C9_15 
ROOT
HETATM    1  N1  UNL     1      27.099 -11.417   6.890  1.00  0.00    -0.384 N 
ENDROOT
BRANCH   1   2
HETATM    2  C3  UNL     1      27.203 -10.882   8.192  1.00  0.00     0.122 C 
BRANCH   2   3
HETATM    3  C2  UNL     1      28.533 -11.134   8.887  1.00  0.00     0.015 C 
HETATM    4  C1  UNL     1      28.349 -12.133  10.020  1.00  0.00     0.006 C 
ENDBRANCH   2   3
ENDBRANCH   1   2
BRANCH   1   5
HETATM    5  C4  UNL     1      26.434 -10.590   5.936  1.00  0.00     0.181 C 
BRANCH   5   6
HETATM    6  C5  UNL     1      27.239  -9.396   5.465  1.00  0.00     0.058 A 
HETATM    7  N2  UNL     1      28.430  -9.465   4.972  1.00  0.00    -0.296 N 
HETATM    8  N3  UNL     1      29.048  -8.403   4.561  1.00  0.00    -0.269 N 
ATOM      9  H2  UNL     1      28.893 -10.371   4.905  1.00  0.00     0.187 HD
HETATM   10  S1  UNL     1      27.940  -7.172   4.854  1.00  0.00    -0.002 SA
ATOM     11  H3  UNL     1      29.981  -8.331   4.157  1.00  0.00     0.195 HD
HETATM   12  C6  UNL     1      26.689  -8.113   5.515  1.00  0.00     0.022 A 
HETATM   13  C7  UNL     1      25.320  -7.747   6.036  1.00  0.00     0.060 C 
ENDBRANCH   5   6
ENDBRANCH   1   5
BRANCH   1  14
HETATM   14  C8  UNL     1      26.896 -12.798   6.714  1.00  0.00     0.088 C 
BRANCH  14  15
HETATM   15  C9  UNL     1      25.633 -13.478   6.999  1.00  0.00    -0.065 C 
HETATM   16  C10 UNL     1      25.402 -13.869   8.448  1.00  0.00     0.035 C 
HETATM   17  C11 UNL     1      23.900 -13.706   8.734  1.00  0.00     0.004 C 
HETATM   18  C12 UNL     1      23.166 -14.280   7.559  1.00  0.00     0.001 C 
HETATM   19  C13 UNL     1      24.005 -15.301   6.829  1.00  0.00     0.004 C 
HETATM   20  C14 UNL     1      25.125 -14.547   6.120  1.00  0.00     0.035 C 
ENDBRANCH  14  15
ENDBRANCH   1  14
TORSDOF 6
ENDMDL
MODEL 3
REMARK VINA RESULT: -7.066491029      0.965      1.091
REMARK  6 active torsions:
REMARK  status: ('A' for Active; 'I' for Inactive)
REMARK    1  A    between atoms: C2_2  and  C3_3 
REMARK    2  A    between atoms: C3_3  and  N1_4 
REMARK    3  A    between atoms: N1_4  and  C4_5 
REMARK    4  A    between atoms: N1_4  and  C8_14 
REMARK    5  A    between atoms: C4_5  and  C5_6 
REMARK    6  A    between atoms: C8_14  and  C9_15 
ROOT
HETATM    1  N1  UNL     1      25.721 -10.633   7.264  1.00  0.00    -0.384 N 
ENDROOT
BRANCH   1   2
HETATM    2  C3  UNL     1      26.188 -10.789   8.587  1.00  0.00     0.122 C 
BRANCH   2   3
HETATM    3  C2  UNL     1      27.605 -11.328   8.709  1.00  0.00     0.015 C 
HETATM    4  C1  UNL     1      27.572 -12.821   9.004  1.00  0.00     0.006 C 
ENDBRANCH   2   3
ENDBRANCH   1   2
BRANCH   1   5
HETATM    5  C4  UNL     1      25.728  -9.297   6.762  1.00  0.00     0.181 C 
BRANCH   5   6
HETATM    6  C5  UNL     1      26.891  -8.971   5.849  1.00  0.00     0.058 A 
HETATM    7  N2  UNL     1      27.916  -9.735   5.668  1.00  0.00    -0.296 N 
HETATM    8  N3  UNL     1      28.861  -9.404   4.847  1.00  0.00    -0.269 N 
ATOM      9  H2  UNL     1      27.983 -10.614   6.181  1.00  0.00     0.187 HD
HETATM   10  S1  UNL     1      28.349  -7.921   4.242  1.00  0.00    -0.002 SA
ATOM     11  H3  UNL     1      29.712  -9.919   4.621  1.00  0.00     0.195 HD
HETATM   12  C6  UNL     1      26.890  -7.789   5.103  1.00  0.00     0.022 A 
HETATM   13  C7  UNL     1      25.821  -6.724   5.118  1.00  0.00     0.060 C 
ENDBRANCH   5   6
ENDBRANCH   1   5
BRANCH   1  14
HETATM   14  C8  UNL     1      24.661 -11.432   6.797  1.00  0.00     0.088 C 
BRANCH  14  15
HETATM   15  C9  UNL     1      24.543 -12.865   7.064  1.00  0.00    -0.065 C 
HETATM   16  C10 UNL     1      24.424 -13.760   5.842  1.00  0.00     0.035 C 
HETATM   17  C11 UNL     1      25.171 -15.067   6.156  1.00  0.00     0.004 C 
HETATM   18  C12 UNL     1      24.795 -15.461   7.554  1.00  0.00     0.001 C 
HETATM   19  C13 UNL     1      23.462 -14.875   7.952  1.00  0.00     0.004 C 
HETATM   20  C14 UNL     1      23.658 -13.373   8.127  1.00  0.00     0.035 C 
ENDBRANCH  14  15
ENDBRANCH   1  14
TORSDOF 6
ENDMDL
MODEL 4
REMARK VINA RESULT: -7.018395011      1.298      1.982
REMARK  6 active torsions:
REMARK  status: ('A' for Active; 'I' for Inactive)
REMARK    1  A    between atoms: C2_2  and  C3_3 
REMARK    2  A    between atoms: C3_3  and  N1_4 
REMARK    3  A    between atoms: N1_4  and  C4_5 
REMARK    4  A    between atoms: N1_4  and  C8_14 
REMARK    5  A    between atoms: C4_5  and  C5_6 
REMARK    6  A    between atoms: C8_14  and  C9_15 
ROOT
HETATM    1  N1  UNL     1      26.581 -10.940   7.260  1.00  0.00    -0.384 N 
ENDROOT
BRANCH   1   2
HETATM    2  C3  UNL     1      25.851 -10.537   8.399  1.00  0.00     0.122 C 
BRANCH   2   3
HETATM    3  C2  UNL     1      24.455 -10.003   8.112  1.00  0.00     0.015 C 
HETATM    4  C1  UNL     1      23.409 -11.036   8.509  1.00  0.00     0.006 C 
ENDBRANCH   2   3
ENDBRANCH   1   2
BRANCH   1   5
HETATM    5  C4  UNL     1      26.180 -10.343   6.028  1.00  0.00     0.181 C 
BRANCH   5   6
HETATM    6  C5  UNL     1      27.147  -9.316   5.478  1.00  0.00     0.058 A 
HETATM    7  N2  UNL     1      28.357  -9.574   5.108  1.00  0.00    -0.296 N 
HETATM    8  N3  UNL     1      29.119  -8.649   4.618  1.00  0.00    -0.269 N 
ATOM      9  H2  UNL     1      28.718 -10.522   5.204  1.00  0.00     0.187 HD
HETATM   10  S1  UNL     1      28.138  -7.283   4.645  1.00  0.00    -0.002 SA
ATOM     11  H3  UNL     1      30.083  -8.729   4.294  1.00  0.00     0.195 HD
HETATM   12  C6  UNL     1      26.743  -7.989   5.308  1.00  0.00     0.022 A 
HETATM   13  C7  UNL     1      25.389  -7.416   5.651  1.00  0.00     0.060 C 
ENDBRANCH   5   6
ENDBRANCH   1   5
BRANCH   1  14
HETATM   14  C8  UNL     1      27.033 -12.268   7.152  1.00  0.00     0.088 C 
BRANCH  14  15
HETATM   15  C9  UNL     1      26.159 -13.436   7.261  1.00  0.00    -0.065 C 
HETATM   16  C10 UNL     1      25.011 -13.501   6.268  1.00  0.00     0.035 C 
HETATM   17  C11 UNL     1      24.803 -14.980   5.902  1.00  0.00     0.004 C 
HETATM   18  C12 UNL     1      24.884 -15.762   7.179  1.00  0.00     0.001 C 
HETATM   19  C13 UNL     1      24.545 -14.904   8.374  1.00  0.00     0.004 C 
HETATM   20  C14 UNL     1      25.696 -13.923   8.572  1.00  0.00     0.035 C 
ENDBRANCH  14  15
ENDBRANCH   1  14
TORSDOF 6
ENDMDL
MODEL 5
REMARK VINA RESULT: -6.933742663      1.338      2.300
REMARK  6 active torsions:
REMARK  status: ('A' for Active; 'I' for Inactive)
REMARK    1  A    between atoms: C2_2  and  C3_3 
REMARK    2  A    between atoms: C3_3  and  N1_4 
REMARK    3  A    between atoms: N1_4  and  C4_5 
REMARK    4  A    between atoms: N1_4  and  C8_14 
REMARK    5  A    between atoms: C4_5  and  C5_6 
REMARK    6  A    between atoms: C8_14  and  C9_15 
ROOT
HETATM    1  N1  UNL     1      26.633 -10.836   7.215  1.00  0.00    -0.384 N 
ENDROOT
BRANCH   1   2
HETATM    2  C3  UNL     1      25.980 -10.282   8.337  1.00  0.00     0.122 C 
BRANCH   2   3
HETATM    3  C2  UNL     1      24.584  -9.743   8.067  1.00  0.00     0.015 C 
HETATM    4  C1  UNL     1      23.539 -10.784   8.442  1.00  0.00     0.006 C 
ENDBRANCH   2   3
ENDBRANCH   1   2
BRANCH   1   5
HETATM    5  C4  UNL     1      26.266 -10.283   5.952  1.00  0.00     0.181 C 
BRANCH   5   6
HETATM    6  C5  UNL     1      27.252  -9.282   5.390  1.00  0.00     0.058 A 
HETATM    7  N2  UNL     1      28.466  -9.561   5.051  1.00  0.00    -0.296 N 
HETATM    8  N3  UNL     1      29.246  -8.658   4.547  1.00  0.00    -0.269 N 
ATOM      9  H2  UNL     1      28.817 -10.509   5.182  1.00  0.00     0.187 HD
HETATM   10  S1  UNL     1      28.277  -7.284   4.514  1.00  0.00    -0.002 SA
ATOM     11  H3  UNL     1      30.215  -8.756   4.244  1.00  0.00     0.195 HD
HETATM   12  C6  UNL     1      26.863  -7.957   5.172  1.00  0.00     0.022 A 
HETATM   13  C7  UNL     1      25.509  -7.363   5.472  1.00  0.00     0.060 C 
ENDBRANCH   5   6
ENDBRANCH   1   5
BRANCH   1  14
HETATM   14  C8  UNL     1      26.937 -12.211   7.190  1.00  0.00     0.088 C 
BRANCH  14  15
HETATM   15  C9  UNL     1      25.929 -13.268   7.261  1.00  0.00    -0.065 C 
HETATM   16  C10 UNL     1      25.785 -13.957   8.608  1.00  0.00     0.035 C 
HETATM   17  C11 UNL     1      24.295 -14.292   8.794  1.00  0.00     0.004 C 
HETATM   18  C12 UNL     1      23.803 -14.840   7.488  1.00  0.00     0.001 C 
HETATM   19  C13 UNL     1      24.932 -15.427   6.676  1.00  0.00     0.004 C 
HETATM   20  C14 UNL     1      25.794 -14.267   6.187  1.00  0.00     0.035 C 
ENDBRANCH  14  15
ENDBRANCH   1  14
TORSDOF 6
ENDMDL
