MODEL 1
REMARK VINA RESULT: -8.416847288      0.000      0.000
REMARK  10 active torsions:
REMARK  status: ('A' for Active; 'I' for Inactive)
REMARK    1  A    between atoms: N1_1  and  C1_5 
REMARK    2  A    between atoms: C1_5  and  C2_6 
REMARK    3  A    between atoms: C3_7  and  C4_8 
REMARK    4  A    between atoms: C4_8  and  C5_9 
REMARK    5  A    between atoms: C5_9  and  C6_10 
REMARK    6  A    between atoms: C6_10  and  C7_11 
REMARK    7  A    between atoms: N3_20  and  C14_21 
REMARK    8  A    between atoms: C14_21  and  C15_22 
REMARK    9  A    between atoms: C15_22  and  C16_23 
REMARK   10  A    between atoms: C16_23  and  N4_24 
ROOT
HETATM    1  C2  UNL     1     -21.667 -15.453  -8.805  1.00  0.00     0.060 A 
HETATM    2  C3  UNL     1     -21.997 -14.194  -9.339  1.00  0.00     0.034 A 
HETATM    3  N2  UNL     1     -20.842 -13.489  -9.292  1.00  0.00    -0.354 N 
ATOM      4  H2  UNL     1     -20.747 -12.525  -9.611  1.00  0.00     0.166 HD
HETATM    5  C13 UNL     1     -19.844 -14.208  -8.778  1.00  0.00     0.183 A 
HETATM    6  N3  UNL     1     -20.373 -15.416  -8.483  1.00  0.00    -0.343 N 
ENDROOT
BRANCH   2   7
HETATM    7  C4  UNL     1     -23.297 -13.718  -9.880  1.00  0.00     0.059 C 
BRANCH   7   8
HETATM    8  C5  UNL     1     -24.073 -12.979  -8.833  1.00  0.00     0.011 C 
BRANCH   8   9
HETATM    9  C6  UNL     1     -24.973 -13.865  -8.005  1.00  0.00     0.039 C 
BRANCH   9  10
HETATM   10  C7  UNL     1     -25.269 -13.299  -6.689  1.00  0.00    -0.058 A 
HETATM   11  C8  UNL     1     -25.323 -14.109  -5.587  1.00  0.00     0.007 A 
HETATM   12  C9  UNL     1     -25.594 -13.531  -4.371  1.00  0.00     0.001 A 
HETATM   13  C10 UNL     1     -25.810 -12.178  -4.228  1.00  0.00     0.000 A 
HETATM   14  C11 UNL     1     -25.747 -11.395  -5.367  1.00  0.00     0.001 A 
HETATM   15  C12 UNL     1     -25.481 -11.933  -6.593  1.00  0.00     0.007 A 
ENDBRANCH   9  10
ENDBRANCH   8   9
ENDBRANCH   7   8
ENDBRANCH   2   7
BRANCH   1  16
HETATM   16  C1  UNL     1     -22.704 -16.511  -8.672  1.00  0.00     0.288 C 
BRANCH  16  17
HETATM   17  N1  UNL     1     -23.033 -17.209  -9.868  1.00  0.00    -0.074 N 
ATOM     18  H13 UNL     1     -22.293 -17.083 -10.559  1.00  0.00     0.274 HD
ATOM     19  H12 UNL     1     -22.968 -18.215  -9.713  1.00  0.00     0.274 HD
ATOM     20  H11 UNL     1     -23.937 -16.979 -10.282  1.00  0.00     0.274 HD
ENDBRANCH  16  17
ENDBRANCH   1  16
BRANCH   6  21
HETATM   21  C14 UNL     1     -19.619 -16.501  -7.898  1.00  0.00     0.131 C 
BRANCH  21  22
HETATM   22  C15 UNL     1     -19.271 -17.575  -8.847  1.00  0.00     0.040 C 
BRANCH  22  23
HETATM   23  C16 UNL     1     -19.378 -18.930  -8.209  1.00  0.00     0.129 C 
BRANCH  23  24
HETATM   24  N4  UNL     1     -20.640 -19.532  -8.495  1.00  0.00    -0.366 N 
HETATM   25  C17 UNL     1     -21.571 -19.618  -7.532  1.00  0.00     0.090 A 
HETATM   26  C18 UNL     1     -22.805 -20.222  -7.754  1.00  0.00     0.017 A 
HETATM   27  C19 UNL     1     -23.065 -20.743  -9.003  1.00  0.00     0.003 A 
HETATM   28  C20 UNL     1     -22.112 -20.656  -9.993  1.00  0.00     0.017 A 
HETATM   29  C21 UNL     1     -20.905 -20.040  -9.698  1.00  0.00     0.090 A 
ENDBRANCH  23  24
ENDBRANCH  22  23
ENDBRANCH  21  22
ENDBRANCH   6  21
TORSDOF 10
ENDMDL
MODEL 2
REMARK VINA RESULT: -8.392526781      1.779      3.168
REMARK  10 active torsions:
REMARK  status: ('A' for Active; 'I' for Inactive)
REMARK    1  A    between atoms: N1_1  and  C1_5 
REMARK    2  A    between atoms: C1_5  and  C2_6 
REMARK    3  A    between atoms: C3_7  and  C4_8 
REMARK    4  A    between atoms: C4_8  and  C5_9 
REMARK    5  A    between atoms: C5_9  and  C6_10 
REMARK    6  A    between atoms: C6_10  and  C7_11 
REMARK    7  A    between atoms: N3_20  and  C14_21 
REMARK    8  A    between atoms: C14_21  and  C15_22 
REMARK    9  A    between atoms: C15_22  and  C16_23 
REMARK   10  A    between atoms: C16_23  and  N4_24 
ROOT
HETATM    1  C2  UNL     1     -23.192 -16.207  -7.071  1.00  0.00     0.060 A 
HETATM    2  C3  UNL     1     -23.451 -15.883  -8.415  1.00  0.00     0.034 A 
HETATM    3  N2  UNL     1     -24.382 -16.783  -8.812  1.00  0.00    -0.354 N 
ATOM      4  H2  UNL     1     -24.784 -16.816  -9.748  1.00  0.00     0.166 HD
HETATM    5  C13 UNL     1     -24.709 -17.621  -7.827  1.00  0.00     0.183 A 
HETATM    6  N3  UNL     1     -23.965 -17.250  -6.763  1.00  0.00    -0.343 N 
ENDROOT
BRANCH   2   7
HETATM    7  C4  UNL     1     -22.882 -14.786  -9.241  1.00  0.00     0.059 C 
BRANCH   7   8
HETATM    8  C5  UNL     1     -23.520 -13.474  -8.898  1.00  0.00     0.011 C 
BRANCH   8   9
HETATM    9  C6  UNL     1     -25.029 -13.520  -8.872  1.00  0.00     0.039 C 
BRANCH   9  10
HETATM   10  C7  UNL     1     -25.599 -12.743  -7.772  1.00  0.00    -0.058 A 
HETATM   11  C8  UNL     1     -26.725 -11.989  -7.972  1.00  0.00     0.007 A 
HETATM   12  C9  UNL     1     -27.230 -11.285  -6.907  1.00  0.00     0.001 A 
HETATM   13  C10 UNL     1     -26.646 -11.312  -5.660  1.00  0.00     0.000 A 
HETATM   14  C11 UNL     1     -25.511 -12.085  -5.500  1.00  0.00     0.001 A 
HETATM   15  C12 UNL     1     -24.978 -12.800  -6.535  1.00  0.00     0.007 A 
ENDBRANCH   9  10
ENDBRANCH   8   9
ENDBRANCH   7   8
ENDBRANCH   2   7
BRANCH   1  16
HETATM   16  C1  UNL     1     -22.189 -15.436  -6.290  1.00  0.00     0.288 C 
BRANCH  16  17
HETATM   17  N1  UNL     1     -20.877 -15.989  -6.250  1.00  0.00    -0.074 N 
ATOM     18  H13 UNL     1     -20.790 -16.619  -5.453  1.00  0.00     0.274 HD
ATOM     19  H12 UNL     1     -20.755 -16.648  -7.019  1.00  0.00     0.274 HD
ATOM     20  H11 UNL     1     -20.112 -15.314  -6.246  1.00  0.00     0.274 HD
ENDBRANCH  16  17
ENDBRANCH   1  16
BRANCH   6  21
HETATM   21  C14 UNL     1     -24.016 -17.910  -5.479  1.00  0.00     0.131 C 
BRANCH  21  22
HETATM   22  C15 UNL     1     -23.661 -19.341  -5.521  1.00  0.00     0.040 C 
BRANCH  22  23
HETATM   23  C16 UNL     1     -22.264 -19.548  -6.029  1.00  0.00     0.129 C 
BRANCH  23  24
HETATM   24  N4  UNL     1     -22.272 -19.977  -7.390  1.00  0.00    -0.366 N 
HETATM   25  C17 UNL     1     -21.326 -19.539  -8.234  1.00  0.00     0.090 A 
HETATM   26  C18 UNL     1     -21.310 -19.906  -9.576  1.00  0.00     0.017 A 
HETATM   27  C19 UNL     1     -22.301 -20.744 -10.039  1.00  0.00     0.003 A 
HETATM   28  C20 UNL     1     -23.275 -21.195  -9.176  1.00  0.00     0.017 A 
HETATM   29  C21 UNL     1     -23.226 -20.787  -7.851  1.00  0.00     0.090 A 
ENDBRANCH  23  24
ENDBRANCH  22  23
ENDBRANCH  21  22
ENDBRANCH   6  21
TORSDOF 10
ENDMDL
MODEL 3
REMARK VINA RESULT: -8.379289702      1.153      1.616
REMARK  10 active torsions:
REMARK  status: ('A' for Active; 'I' for Inactive)
REMARK    1  A    between atoms: N1_1  and  C1_5 
REMARK    2  A    between atoms: C1_5  and  C2_6 
REMARK    3  A    between atoms: C3_7  and  C4_8 
REMARK    4  A    between atoms: C4_8  and  C5_9 
REMARK    5  A    between atoms: C5_9  and  C6_10 
REMARK    6  A    between atoms: C6_10  and  C7_11 
REMARK    7  A    between atoms: N3_20  and  C14_21 
REMARK    8  A    between atoms: C14_21  and  C15_22 
REMARK    9  A    between atoms: C15_22  and  C16_23 
REMARK   10  A    between atoms: C16_23  and  N4_24 
ROOT
HETATM    1  C2  UNL     1     -21.925 -15.382  -8.568  1.00  0.00     0.060 A 
HETATM    2  C3  UNL     1     -22.240 -14.135  -9.137  1.00  0.00     0.034 A 
HETATM    3  N2  UNL     1     -21.040 -13.545  -9.355  1.00  0.00    -0.354 N 
ATOM      4  H2  UNL     1     -20.923 -12.618  -9.764  1.00  0.00     0.166 HD
HETATM    5  C13 UNL     1     -20.029 -14.325  -8.969  1.00  0.00     0.183 A 
HETATM    6  N3  UNL     1     -20.596 -15.452  -8.487  1.00  0.00    -0.343 N 
ENDROOT
BRANCH   2   7
HETATM    7  C4  UNL     1     -23.572 -13.568  -9.475  1.00  0.00     0.059 C 
BRANCH   7   8
HETATM    8  C5  UNL     1     -24.312 -13.168  -8.236  1.00  0.00     0.011 C 
BRANCH   8   9
HETATM    9  C6  UNL     1     -25.814 -13.224  -8.381  1.00  0.00     0.039 C 
BRANCH   9  10
HETATM   10  C7  UNL     1     -26.493 -12.147  -7.659  1.00  0.00    -0.058 A 
HETATM   11  C8  UNL     1     -27.708 -11.687  -8.090  1.00  0.00     0.007 A 
HETATM   12  C9  UNL     1     -28.312 -10.682  -7.375  1.00  0.00     0.001 A 
HETATM   13  C10 UNL     1     -27.738 -10.131  -6.250  1.00  0.00     0.000 A 
HETATM   14  C11 UNL     1     -26.510 -10.623  -5.848  1.00  0.00     0.001 A 
HETATM   15  C12 UNL     1     -25.879 -11.622  -6.534  1.00  0.00     0.007 A 
ENDBRANCH   9  10
ENDBRANCH   8   9
ENDBRANCH   7   8
ENDBRANCH   2   7
BRANCH   1  16
HETATM   16  C1  UNL     1     -23.007 -16.321  -8.166  1.00  0.00     0.288 C 
BRANCH  16  17
HETATM   17  N1  UNL     1     -23.536 -17.137  -9.205  1.00  0.00    -0.074 N 
ATOM     18  H13 UNL     1     -22.858 -17.852  -9.466  1.00  0.00     0.274 HD
ATOM     19  H12 UNL     1     -24.286 -17.723  -8.839  1.00  0.00     0.274 HD
ATOM     20  H11 UNL     1     -23.857 -16.642 -10.038  1.00  0.00     0.274 HD
ENDBRANCH  16  17
ENDBRANCH   1  16
BRANCH   6  21
HETATM   21  C14 UNL     1     -19.842 -16.566  -7.958  1.00  0.00     0.131 C 
BRANCH  21  22
HETATM   22  C15 UNL     1     -19.718 -17.706  -8.885  1.00  0.00     0.040 C 
BRANCH  22  23
HETATM   23  C16 UNL     1     -19.806 -19.018  -8.161  1.00  0.00     0.129 C 
BRANCH  23  24
HETATM   24  N4  UNL     1     -21.080 -19.629  -8.362  1.00  0.00    -0.366 N 
HETATM   25  C17 UNL     1     -21.931 -19.752  -7.332  1.00  0.00     0.090 A 
HETATM   26  C18 UNL     1     -23.172 -20.366  -7.472  1.00  0.00     0.017 A 
HETATM   27  C19 UNL     1     -23.523 -20.859  -8.710  1.00  0.00     0.003 A 
HETATM   28  C20 UNL     1     -22.652 -20.735  -9.769  1.00  0.00     0.017 A 
HETATM   29  C21 UNL     1     -21.433 -20.110  -9.554  1.00  0.00     0.090 A 
ENDBRANCH  23  24
ENDBRANCH  22  23
ENDBRANCH  21  22
ENDBRANCH   6  21
TORSDOF 10
ENDMDL
MODEL 4
REMARK VINA RESULT: -8.361578141      1.809      2.915
REMARK  10 active torsions:
REMARK  status: ('A' for Active; 'I' for Inactive)
REMARK    1  A    between atoms: N1_1  and  C1_5 
REMARK    2  A    between atoms: C1_5  and  C2_6 
REMARK    3  A    between atoms: C3_7  and  C4_8 
REMARK    4  A    between atoms: C4_8  and  C5_9 
REMARK    5  A    between atoms: C5_9  and  C6_10 
REMARK    6  A    between atoms: C6_10  and  C7_11 
REMARK    7  A    between atoms: N3_20  and  C14_21 
REMARK    8  A    between atoms: C14_21  and  C15_22 
REMARK    9  A    between atoms: C15_22  and  C16_23 
REMARK   10  A    between atoms: C16_23  and  N4_24 
ROOT
HETATM    1  C2  UNL     1     -21.140 -16.114  -8.202  1.00  0.00     0.060 A 
HETATM    2  C3  UNL     1     -22.118 -15.279  -8.771  1.00  0.00     0.034 A 
HETATM    3  N2  UNL     1     -22.743 -16.057  -9.686  1.00  0.00    -0.354 N 
ATOM      4  H2  UNL     1     -23.512 -15.740 -10.277  1.00  0.00     0.166 HD
HETATM    5  C13 UNL     1     -22.230 -17.287  -9.721  1.00  0.00     0.183 A 
HETATM    6  N3  UNL     1     -21.243 -17.302  -8.799  1.00  0.00    -0.343 N 
ENDROOT
BRANCH   2   7
HETATM    7  C4  UNL     1     -22.450 -13.867  -8.443  1.00  0.00     0.059 C 
BRANCH   7   8
HETATM    8  C5  UNL     1     -23.785 -13.487  -9.008  1.00  0.00     0.011 C 
BRANCH   8   9
HETATM    9  C6  UNL     1     -24.953 -14.087  -8.261  1.00  0.00     0.039 C 
BRANCH   9  10
HETATM   10  C7  UNL     1     -25.199 -13.431  -6.976  1.00  0.00    -0.058 A 
HETATM   11  C8  UNL     1     -25.106 -14.143  -5.811  1.00  0.00     0.007 A 
HETATM   12  C9  UNL     1     -25.335 -13.483  -4.628  1.00  0.00     0.001 A 
HETATM   13  C10 UNL     1     -25.653 -12.144  -4.581  1.00  0.00     0.000 A 
HETATM   14  C11 UNL     1     -25.738 -11.462  -5.781  1.00  0.00     0.001 A 
HETATM   15  C12 UNL     1     -25.516 -12.083  -6.977  1.00  0.00     0.007 A 
ENDBRANCH   9  10
ENDBRANCH   8   9
ENDBRANCH   7   8
ENDBRANCH   2   7
BRANCH   1  16
HETATM   16  C1  UNL     1     -20.223 -15.595  -7.152  1.00  0.00     0.288 C 
BRANCH  16  17
HETATM   17  N1  UNL     1     -18.973 -15.096  -7.613  1.00  0.00    -0.074 N 
ATOM     18  H13 UNL     1     -19.110 -14.542  -8.458  1.00  0.00     0.274 HD
ATOM     19  H12 UNL     1     -18.630 -14.376  -6.977  1.00  0.00     0.274 HD
ATOM     20  H11 UNL     1     -18.247 -15.795  -7.770  1.00  0.00     0.274 HD
ENDBRANCH  16  17
ENDBRANCH   1  16
BRANCH   6  21
HETATM   21  C14 UNL     1     -20.425 -18.460  -8.519  1.00  0.00     0.131 C 
BRANCH  21  22
HETATM   22  C15 UNL     1     -20.810 -19.191  -7.299  1.00  0.00     0.040 C 
BRANCH  22  23
HETATM   23  C16 UNL     1     -22.134 -19.879  -7.462  1.00  0.00     0.129 C 
BRANCH  23  24
HETATM   24  N4  UNL     1     -23.130 -19.275  -6.637  1.00  0.00    -0.366 N 
HETATM   25  C17 UNL     1     -24.013 -18.420  -7.174  1.00  0.00     0.090 A 
HETATM   26  C18 UNL     1     -24.983 -17.785  -6.405  1.00  0.00     0.017 A 
HETATM   27  C19 UNL     1     -25.025 -18.050  -5.053  1.00  0.00     0.003 A 
HETATM   28  C20 UNL     1     -24.120 -18.927  -4.499  1.00  0.00     0.017 A 
HETATM   29  C21 UNL     1     -23.182 -19.523  -5.328  1.00  0.00     0.090 A 
ENDBRANCH  23  24
ENDBRANCH  22  23
ENDBRANCH  21  22
ENDBRANCH   6  21
TORSDOF 10
ENDMDL
MODEL 5
REMARK VINA RESULT: -8.346992726      2.448      3.714
REMARK  10 active torsions:
REMARK  status: ('A' for Active; 'I' for Inactive)
REMARK    1  A    between atoms: N1_1  and  C1_5 
REMARK    2  A    between atoms: C1_5  and  C2_6 
REMARK    3  A    between atoms: C3_7  and  C4_8 
REMARK    4  A    between atoms: C4_8  and  C5_9 
REMARK    5  A    between atoms: C5_9  and  C6_10 
REMARK    6  A    between atoms: C6_10  and  C7_11 
REMARK    7  A    between atoms: N3_20  and  C14_21 
REMARK    8  A    between atoms: C14_21  and  C15_22 
REMARK    9  A    between atoms: C15_22  and  C16_23 
REMARK   10  A    between atoms: C16_23  and  N4_24 
ROOT
HETATM    1  C2  UNL     1     -24.333 -14.070  -7.591  1.00  0.00     0.060 A 
HETATM    2  C3  UNL     1     -24.924 -14.028  -6.315  1.00  0.00     0.034 A 
HETATM    3  N2  UNL     1     -24.145 -14.829  -5.550  1.00  0.00    -0.354 N 
ATOM      4  H2  UNL     1     -24.310 -15.012  -4.560  1.00  0.00     0.166 HD
HETATM    5  C13 UNL     1     -23.136 -15.350  -6.249  1.00  0.00     0.183 A 
HETATM    6  N3  UNL     1     -23.270 -14.870  -7.504  1.00  0.00    -0.343 N 
ENDROOT
BRANCH   2   7
HETATM    7  C4  UNL     1     -26.113 -13.262  -5.858  1.00  0.00     0.059 C 
BRANCH   7   8
HETATM    8  C5  UNL     1     -25.701 -11.990  -5.181  1.00  0.00     0.011 C 
BRANCH   8   9
HETATM    9  C6  UNL     1     -25.751 -10.779  -6.082  1.00  0.00     0.039 C 
BRANCH   9  10
HETATM   10  C7  UNL     1     -27.087 -10.535  -6.628  1.00  0.00    -0.058 A 
HETATM   11  C8  UNL     1     -27.341 -10.762  -7.953  1.00  0.00     0.007 A 
HETATM   12  C9  UNL     1     -28.612 -10.529  -8.418  1.00  0.00     0.001 A 
HETATM   13  C10 UNL     1     -29.625 -10.078  -7.601  1.00  0.00     0.000 A 
HETATM   14  C11 UNL     1     -29.326  -9.861  -6.269  1.00  0.00     0.001 A 
HETATM   15  C12 UNL     1     -28.074 -10.081  -5.769  1.00  0.00     0.007 A 
ENDBRANCH   9  10
ENDBRANCH   8   9
ENDBRANCH   7   8
ENDBRANCH   2   7
BRANCH   1  16
HETATM   16  C1  UNL     1     -24.932 -13.315  -8.724  1.00  0.00     0.288 C 
BRANCH  16  17
HETATM   17  N1  UNL     1     -26.101 -13.887  -9.300  1.00  0.00    -0.074 N 
ATOM     18  H13 UNL     1     -25.990 -13.960 -10.311  1.00  0.00     0.274 HD
ATOM     19  H12 UNL     1     -26.162 -14.875  -9.052  1.00  0.00     0.274 HD
ATOM     20  H11 UNL     1     -26.979 -13.418  -9.080  1.00  0.00     0.274 HD
ENDBRANCH  16  17
ENDBRANCH   1  16
BRANCH   6  21
HETATM   21  C14 UNL     1     -22.370 -15.197  -8.588  1.00  0.00     0.131 C 
BRANCH  21  22
HETATM   22  C15 UNL     1     -22.720 -16.433  -9.310  1.00  0.00     0.040 C 
BRANCH  22  23
HETATM   23  C16 UNL     1     -21.825 -17.573  -8.921  1.00  0.00     0.129 C 
BRANCH  23  24
HETATM   24  N4  UNL     1     -22.569 -18.782  -8.775  1.00  0.00    -0.366 N 
HETATM   25  C17 UNL     1     -23.523 -18.869  -7.837  1.00  0.00     0.090 A 
HETATM   26  C18 UNL     1     -24.255 -20.036  -7.638  1.00  0.00     0.017 A 
HETATM   27  C19 UNL     1     -23.981 -21.126  -8.435  1.00  0.00     0.003 A 
HETATM   28  C20 UNL     1     -23.001 -21.040  -9.399  1.00  0.00     0.017 A 
HETATM   29  C21 UNL     1     -22.313 -19.844  -9.539  1.00  0.00     0.090 A 
ENDBRANCH  23  24
ENDBRANCH  22  23
ENDBRANCH  21  22
ENDBRANCH   6  21
TORSDOF 10
ENDMDL
