MODEL 1
REMARK VINA RESULT: -8.391870996      0.000      0.000
REMARK  9 active torsions:
REMARK  status: ('A' for Active; 'I' for Inactive)
REMARK    1  A    between atoms: N1_6  and  C6_7 
REMARK    2  A    between atoms: C6_7  and  C7_8 
REMARK    3  A    between atoms: C7_8  and  C8_9 
REMARK    4  A    between atoms: C8_9  and  C9_10 
REMARK    5  A    between atoms: C9_10  and  C10_11 
REMARK    6  A    between atoms: C10_11  and  C11_12 
REMARK    7  A    between atoms: C11_12  and  C12_13 
REMARK    8  A    between atoms: C12_13  and  C13_14 
REMARK    9  A    between atoms: C13_14  and  N2_15 
ROOT
HETATM    1  C10 UNL     1     -20.363 -14.040  -9.007  1.00  0.00     0.000 C 
ENDROOT
BRANCH   1   2
HETATM    2  C9  UNL     1     -21.674 -13.357  -8.808  1.00  0.00     0.000 C 
BRANCH   2   3
HETATM    3  C8  UNL     1     -22.699 -13.922  -9.765  1.00  0.00     0.002 C 
BRANCH   3   4
HETATM    4  C7  UNL     1     -23.819 -14.612  -9.054  1.00  0.00     0.022 C 
BRANCH   4   5
HETATM    5  C6  UNL     1     -25.007 -13.730  -8.884  1.00  0.00     0.148 C 
BRANCH   5   6
HETATM    6  N1  UNL     1     -25.285 -13.251  -7.577  1.00  0.00    -0.303 N 
HETATM    7  C5  UNL     1     -24.880 -13.736  -6.464  1.00  0.00     0.110 A 
HETATM    8  C4  UNL     1     -25.210 -13.187  -5.148  1.00  0.00     0.021 A 
HETATM    9  C3  UNL     1     -25.979 -12.118  -5.039  1.00  0.00     0.031 A 
HETATM   10  C2  UNL     1     -26.484 -11.510  -6.264  1.00  0.00     0.038 A 
HETATM   11  C1  UNL     1     -27.254 -10.444  -6.159  1.00  0.00     0.044 C 
HETATM   12  N4  UNL     1     -26.117 -12.101  -7.494  1.00  0.00    -0.300 N 
ATOM     13  H4  UNL     1     -26.464 -11.685  -8.358  1.00  0.00     0.187 HD
ENDBRANCH   5   6
ENDBRANCH   4   5
ENDBRANCH   3   4
ENDBRANCH   2   3
ENDBRANCH   1   2
BRANCH   1  14
HETATM   14  C11 UNL     1     -20.088 -14.966  -7.848  1.00  0.00     0.002 C 
BRANCH  14  15
HETATM   15  C12 UNL     1     -19.815 -16.344  -8.334  1.00  0.00     0.020 C 
BRANCH  15  16
HETATM   16  C13 UNL     1     -21.103 -17.072  -8.721  1.00  0.00     0.130 C 
BRANCH  16  17
HETATM   17  N2  UNL     1     -21.335 -18.065  -7.705  1.00  0.00    -0.341 N 
HETATM   18  C14 UNL     1     -20.572 -19.130  -7.441  1.00  0.00     0.183 A 
HETATM   19  N3  UNL     1     -21.121 -19.817  -6.422  1.00  0.00    -0.350 N 
HETATM   20  C15 UNL     1     -22.254 -19.182  -6.029  1.00  0.00     0.060 A 
ATOM     21  H3  UNL     1     -20.747 -20.674  -6.013  1.00  0.00     0.166 HD
HETATM   22  C16 UNL     1     -23.191 -19.439  -5.054  1.00  0.00     0.032 A 
HETATM   23  C20 UNL     1     -22.369 -18.080  -6.854  1.00  0.00     0.062 A 
HETATM   24  C17 UNL     1     -24.249 -18.581  -4.907  1.00  0.00     0.002 A 
HETATM   25  C18 UNL     1     -24.385 -17.474  -5.717  1.00  0.00     0.002 A 
HETATM   26  C19 UNL     1     -23.454 -17.207  -6.696  1.00  0.00     0.032 A 
ENDBRANCH  16  17
ENDBRANCH  15  16
ENDBRANCH  14  15
ENDBRANCH   1  14
TORSDOF 9
ENDMDL
MODEL 2
REMARK VINA RESULT: -8.378189777      1.792      7.537
REMARK  9 active torsions:
REMARK  status: ('A' for Active; 'I' for Inactive)
REMARK    1  A    between atoms: N1_6  and  C6_7 
REMARK    2  A    between atoms: C6_7  and  C7_8 
REMARK    3  A    between atoms: C7_8  and  C8_9 
REMARK    4  A    between atoms: C8_9  and  C9_10 
REMARK    5  A    between atoms: C9_10  and  C10_11 
REMARK    6  A    between atoms: C10_11  and  C11_12 
REMARK    7  A    between atoms: C11_12  and  C12_13 
REMARK    8  A    between atoms: C12_13  and  C13_14 
REMARK    9  A    between atoms: C13_14  and  N2_15 
ROOT
HETATM    1  C10 UNL     1     -24.228 -17.226  -8.037  1.00  0.00     0.000 C 
ENDROOT
BRANCH   1   2
HETATM    2  C9  UNL     1     -24.602 -17.383  -6.602  1.00  0.00     0.000 C 
BRANCH   2   3
HETATM    3  C8  UNL     1     -23.367 -17.664  -5.777  1.00  0.00     0.002 C 
BRANCH   3   4
HETATM    4  C7  UNL     1     -23.419 -19.003  -5.114  1.00  0.00     0.022 C 
BRANCH   4   5
HETATM    5  C6  UNL     1     -22.427 -19.955  -5.686  1.00  0.00     0.148 C 
BRANCH   5   6
HETATM    6  N1  UNL     1     -22.488 -20.202  -7.082  1.00  0.00    -0.303 N 
HETATM    7  C5  UNL     1     -23.419 -20.792  -7.732  1.00  0.00     0.110 A 
HETATM    8  C4  UNL     1     -23.413 -21.015  -9.179  1.00  0.00     0.021 A 
HETATM    9  C3  UNL     1     -22.398 -20.603  -9.917  1.00  0.00     0.031 A 
HETATM   10  C2  UNL     1     -21.294 -19.925  -9.249  1.00  0.00     0.038 A 
HETATM   11  C1  UNL     1     -20.278 -19.514  -9.983  1.00  0.00     0.044 C 
HETATM   12  N4  UNL     1     -21.379 -19.749  -7.849  1.00  0.00    -0.300 N 
ATOM     13  H4  UNL     1     -20.613 -19.276  -7.369  1.00  0.00     0.187 HD
ENDBRANCH   5   6
ENDBRANCH   4   5
ENDBRANCH   3   4
ENDBRANCH   2   3
ENDBRANCH   1   2
BRANCH   1  14
HETATM   14  C11 UNL     1     -22.940 -16.450  -8.149  1.00  0.00     0.002 C 
BRANCH  14  15
HETATM   15  C12 UNL     1     -23.190 -15.100  -8.719  1.00  0.00     0.020 C 
BRANCH  15  16
HETATM   16  C13 UNL     1     -23.592 -14.097  -7.637  1.00  0.00     0.130 C 
BRANCH  16  17
HETATM   17  N2  UNL     1     -24.902 -13.614  -7.989  1.00  0.00    -0.341 N 
HETATM   18  C14 UNL     1     -25.649 -14.013  -9.023  1.00  0.00     0.183 A 
HETATM   19  N3  UNL     1     -26.806 -13.326  -9.015  1.00  0.00    -0.350 N 
HETATM   20  C15 UNL     1     -26.799 -12.474  -7.959  1.00  0.00     0.060 A 
ATOM     21  H3  UNL     1     -27.563 -13.430  -9.690  1.00  0.00     0.166 HD
HETATM   22  C16 UNL     1     -27.706 -11.554  -7.482  1.00  0.00     0.032 A 
HETATM   23  C20 UNL     1     -25.588 -12.672  -7.328  1.00  0.00     0.062 A 
HETATM   24  C17 UNL     1     -27.391 -10.831  -6.363  1.00  0.00     0.002 A 
HETATM   25  C18 UNL     1     -26.188 -11.011  -5.713  1.00  0.00     0.002 A 
HETATM   26  C19 UNL     1     -25.274 -11.928  -6.182  1.00  0.00     0.032 A 
ENDBRANCH  16  17
ENDBRANCH  15  16
ENDBRANCH  14  15
ENDBRANCH   1  14
TORSDOF 9
ENDMDL
MODEL 3
REMARK VINA RESULT: -8.344839127      1.114      1.866
REMARK  9 active torsions:
REMARK  status: ('A' for Active; 'I' for Inactive)
REMARK    1  A    between atoms: N1_6  and  C6_7 
REMARK    2  A    between atoms: C6_7  and  C7_8 
REMARK    3  A    between atoms: C7_8  and  C8_9 
REMARK    4  A    between atoms: C8_9  and  C9_10 
REMARK    5  A    between atoms: C9_10  and  C10_11 
REMARK    6  A    between atoms: C10_11  and  C11_12 
REMARK    7  A    between atoms: C11_12  and  C12_13 
REMARK    8  A    between atoms: C12_13  and  C13_14 
REMARK    9  A    between atoms: C13_14  and  N2_15 
ROOT
HETATM    1  C10 UNL     1     -20.131 -15.045  -7.581  1.00  0.00     0.000 C 
ENDROOT
BRANCH   1   2
HETATM    2  C9  UNL     1     -20.040 -14.241  -8.834  1.00  0.00     0.000 C 
BRANCH   2   3
HETATM    3  C8  UNL     1     -21.284 -13.396  -8.995  1.00  0.00     0.002 C 
BRANCH   3   4
HETATM    4  C7  UNL     1     -22.409 -14.157  -9.620  1.00  0.00     0.022 C 
BRANCH   4   5
HETATM    5  C6  UNL     1     -23.737 -13.563  -9.302  1.00  0.00     0.148 C 
BRANCH   5   6
HETATM    6  N1  UNL     1     -24.203 -13.681  -7.967  1.00  0.00    -0.303 N 
HETATM    7  C5  UNL     1     -24.203 -14.727  -7.229  1.00  0.00     0.110 A 
HETATM    8  C4  UNL     1     -24.705 -14.776  -5.855  1.00  0.00     0.021 A 
HETATM    9  C3  UNL     1     -25.209 -13.696  -5.285  1.00  0.00     0.031 A 
HETATM   10  C2  UNL     1     -25.248 -12.464  -6.064  1.00  0.00     0.038 A 
HETATM   11  C1  UNL     1     -25.752 -11.384  -5.499  1.00  0.00     0.044 C 
HETATM   12  N4  UNL     1     -24.741 -12.502  -7.383  1.00  0.00    -0.300 N 
ATOM     13  H4  UNL     1     -24.763 -11.647  -7.939  1.00  0.00     0.187 HD
ENDBRANCH   5   6
ENDBRANCH   4   5
ENDBRANCH   3   4
ENDBRANCH   2   3
ENDBRANCH   1   2
BRANCH   1  14
HETATM   14  C11 UNL     1     -19.190 -16.221  -7.659  1.00  0.00     0.002 C 
BRANCH  14  15
HETATM   15  C12 UNL     1     -19.495 -17.058  -8.849  1.00  0.00     0.020 C 
BRANCH  15  16
HETATM   16  C13 UNL     1     -20.022 -18.437  -8.449  1.00  0.00     0.130 C 
BRANCH  16  17
HETATM   17  N2  UNL     1     -21.445 -18.301  -8.279  1.00  0.00    -0.341 N 
HETATM   18  C14 UNL     1     -22.322 -17.880  -9.195  1.00  0.00     0.183 A 
HETATM   19  N3  UNL     1     -23.555 -17.891  -8.655  1.00  0.00    -0.350 N 
HETATM   20  C15 UNL     1     -23.464 -18.324  -7.373  1.00  0.00     0.060 A 
ATOM     21  H3  UNL     1     -24.414 -17.618  -9.132  1.00  0.00     0.166 HD
HETATM   22  C16 UNL     1     -24.393 -18.526  -6.377  1.00  0.00     0.032 A 
HETATM   23  C20 UNL     1     -22.124 -18.576  -7.158  1.00  0.00     0.062 A 
HETATM   24  C17 UNL     1     -23.970 -18.984  -5.157  1.00  0.00     0.002 A 
HETATM   25  C18 UNL     1     -22.637 -19.243  -4.918  1.00  0.00     0.002 A 
HETATM   26  C19 UNL     1     -21.699 -19.045  -5.907  1.00  0.00     0.032 A 
ENDBRANCH  16  17
ENDBRANCH  15  16
ENDBRANCH  14  15
ENDBRANCH   1  14
TORSDOF 9
ENDMDL
MODEL 4
REMARK VINA RESULT: -8.284041481      1.354      6.254
REMARK  9 active torsions:
REMARK  status: ('A' for Active; 'I' for Inactive)
REMARK    1  A    between atoms: N1_6  and  C6_7 
REMARK    2  A    between atoms: C6_7  and  C7_8 
REMARK    3  A    between atoms: C7_8  and  C8_9 
REMARK    4  A    between atoms: C8_9  and  C9_10 
REMARK    5  A    between atoms: C9_10  and  C10_11 
REMARK    6  A    between atoms: C10_11  and  C11_12 
REMARK    7  A    between atoms: C11_12  and  C12_13 
REMARK    8  A    between atoms: C12_13  and  C13_14 
REMARK    9  A    between atoms: C13_14  and  N2_15 
ROOT
HETATM    1  C10 UNL     1     -22.906 -18.705  -5.486  1.00  0.00     0.000 C 
ENDROOT
BRANCH   1   2
HETATM    2  C9  UNL     1     -22.748 -20.074  -6.058  1.00  0.00     0.000 C 
BRANCH   2   3
HETATM    3  C8  UNL     1     -23.067 -20.055  -7.535  1.00  0.00     0.002 C 
BRANCH   3   4
HETATM    4  C7  UNL     1     -21.863 -19.765  -8.372  1.00  0.00     0.022 C 
BRANCH   4   5
HETATM    5  C6  UNL     1     -22.000 -18.496  -9.139  1.00  0.00     0.148 C 
BRANCH   5   6
HETATM    6  N1  UNL     1     -21.214 -17.391  -8.720  1.00  0.00    -0.303 N 
HETATM    7  C5  UNL     1     -20.161 -17.411  -7.993  1.00  0.00     0.110 A 
HETATM    8  C4  UNL     1     -19.400 -16.225  -7.597  1.00  0.00     0.021 A 
HETATM    9  C3  UNL     1     -19.782 -15.021  -7.985  1.00  0.00     0.031 A 
HETATM   10  C2  UNL     1     -20.977 -14.915  -8.813  1.00  0.00     0.038 A 
HETATM   11  C1  UNL     1     -21.362 -13.715  -9.201  1.00  0.00     0.044 C 
HETATM   12  N4  UNL     1     -21.653 -16.109  -9.152  1.00  0.00    -0.300 N 
ATOM     13  H4  UNL     1     -22.491 -16.049  -9.731  1.00  0.00     0.187 HD
ENDBRANCH   5   6
ENDBRANCH   4   5
ENDBRANCH   3   4
ENDBRANCH   2   3
ENDBRANCH   1   2
BRANCH   1  14
HETATM   14  C11 UNL     1     -24.346 -18.476  -5.097  1.00  0.00     0.002 C 
BRANCH  14  15
HETATM   15  C12 UNL     1     -24.913 -17.324  -5.846  1.00  0.00     0.020 C 
BRANCH  15  16
HETATM   16  C13 UNL     1     -23.819 -16.369  -6.325  1.00  0.00     0.130 C 
BRANCH  16  17
HETATM   17  N2  UNL     1     -24.476 -15.334  -7.078  1.00  0.00    -0.341 N 
HETATM   18  C14 UNL     1     -24.736 -15.341  -8.389  1.00  0.00     0.183 A 
HETATM   19  N3  UNL     1     -25.361 -14.195  -8.716  1.00  0.00    -0.350 N 
HETATM   20  C15 UNL     1     -25.504 -13.442  -7.596  1.00  0.00     0.060 A 
ATOM     21  H3  UNL     1     -25.677 -13.937  -9.650  1.00  0.00     0.166 HD
HETATM   22  C16 UNL     1     -26.059 -12.206  -7.354  1.00  0.00     0.032 A 
HETATM   23  C20 UNL     1     -24.937 -14.180  -6.576  1.00  0.00     0.062 A 
HETATM   24  C17 UNL     1     -26.044 -11.710  -6.077  1.00  0.00     0.002 A 
HETATM   25  C18 UNL     1     -25.485 -12.428  -5.041  1.00  0.00     0.002 A 
HETATM   26  C19 UNL     1     -24.927 -13.665  -5.272  1.00  0.00     0.032 A 
ENDBRANCH  16  17
ENDBRANCH  15  16
ENDBRANCH  14  15
ENDBRANCH   1  14
TORSDOF 9
ENDMDL
MODEL 5
REMARK VINA RESULT: -8.283667043      0.810      1.057
REMARK  9 active torsions:
REMARK  status: ('A' for Active; 'I' for Inactive)
REMARK    1  A    between atoms: N1_6  and  C6_7 
REMARK    2  A    between atoms: C6_7  and  C7_8 
REMARK    3  A    between atoms: C7_8  and  C8_9 
REMARK    4  A    between atoms: C8_9  and  C9_10 
REMARK    5  A    between atoms: C9_10  and  C10_11 
REMARK    6  A    between atoms: C10_11  and  C11_12 
REMARK    7  A    between atoms: C11_12  and  C12_13 
REMARK    8  A    between atoms: C12_13  and  C13_14 
REMARK    9  A    between atoms: C13_14  and  N2_15 
ROOT
HETATM    1  C10 UNL     1     -20.442 -13.940  -8.835  1.00  0.00     0.000 C 
ENDROOT
BRANCH   1   2
HETATM    2  C9  UNL     1     -21.769 -13.844  -9.509  1.00  0.00     0.000 C 
BRANCH   2   3
HETATM    3  C8  UNL     1     -22.854 -13.624  -8.480  1.00  0.00     0.002 C 
BRANCH   3   4
HETATM    4  C7  UNL     1     -24.223 -13.697  -9.076  1.00  0.00     0.022 C 
BRANCH   4   5
HETATM    5  C6  UNL     1     -25.275 -13.926  -8.046  1.00  0.00     0.148 C 
BRANCH   5   6
HETATM    6  N1  UNL     1     -25.785 -12.788  -7.369  1.00  0.00    -0.303 N 
HETATM    7  C5  UNL     1     -25.313 -12.225  -6.321  1.00  0.00     0.110 A 
HETATM    8  C4  UNL     1     -25.897 -11.049  -5.673  1.00  0.00     0.021 A 
HETATM    9  C3  UNL     1     -26.992 -10.490  -6.156  1.00  0.00     0.031 A 
HETATM   10  C2  UNL     1     -27.593 -11.078  -7.347  1.00  0.00     0.038 A 
HETATM   11  C1  UNL     1     -28.687 -10.522  -7.832  1.00  0.00     0.044 C 
HETATM   12  N4  UNL     1     -26.965 -12.210  -7.913  1.00  0.00    -0.300 N 
ATOM     13  H4  UNL     1     -27.376 -12.631  -8.746  1.00  0.00     0.187 HD
ENDBRANCH   5   6
ENDBRANCH   4   5
ENDBRANCH   3   4
ENDBRANCH   2   3
ENDBRANCH   1   2
BRANCH   1  14
HETATM   14  C11 UNL     1     -20.528 -14.890  -7.666  1.00  0.00     0.002 C 
BRANCH  14  15
HETATM   15  C12 UNL     1     -19.931 -16.205  -8.016  1.00  0.00     0.020 C 
BRANCH  15  16
HETATM   16  C13 UNL     1     -20.961 -17.142  -8.650  1.00  0.00     0.130 C 
BRANCH  16  17
HETATM   17  N2  UNL     1     -21.330 -18.094  -7.636  1.00  0.00    -0.341 N 
HETATM   18  C14 UNL     1     -20.662 -19.202  -7.301  1.00  0.00     0.183 A 
HETATM   19  N3  UNL     1     -21.326 -19.828  -6.311  1.00  0.00    -0.350 N 
HETATM   20  C15 UNL     1     -22.437 -19.110  -6.010  1.00  0.00     0.060 A 
ATOM     21  H3  UNL     1     -21.041 -20.699  -5.863  1.00  0.00     0.166 HD
HETATM   22  C16 UNL     1     -23.454 -19.282  -5.098  1.00  0.00     0.032 A 
HETATM   23  C20 UNL     1     -22.418 -18.021  -6.859  1.00  0.00     0.062 A 
HETATM   24  C17 UNL     1     -24.458 -18.351  -5.041  1.00  0.00     0.002 A 
HETATM   25  C18 UNL     1     -24.462 -17.255  -5.877  1.00  0.00     0.002 A 
HETATM   26  C19 UNL     1     -23.450 -17.074  -6.793  1.00  0.00     0.032 A 
ENDBRANCH  16  17
ENDBRANCH  15  16
ENDBRANCH  14  15
ENDBRANCH   1  14
TORSDOF 9
ENDMDL
