MODEL 1
REMARK VINA RESULT: -8.256894142      0.000      0.000
REMARK  10 active torsions:
REMARK  status: ('A' for Active; 'I' for Inactive)
REMARK    1  A    between atoms: O1_1  and  C1_3 
REMARK    2  A    between atoms: C1_3  and  C2_4 
REMARK    3  A    between atoms: C2_4  and  C3_5 
REMARK    4  A    between atoms: C8_10  and  C9_11 
REMARK    5  A    between atoms: C9_11  and  C10_12 
REMARK    6  A    between atoms: C10_12  and  C11_13 
REMARK    7  A    between atoms: C11_13  and  C12_14 
REMARK    8  A    between atoms: C12_14  and  N1_15 
REMARK    9  A    between atoms: C15_18  and  C16_19 
REMARK   10  A    between atoms: C16_19  and  N2_20 
ROOT
HETATM    1  C12 UNL     1     -24.552 -13.951  -5.965  1.00  0.00     0.128 C 
ENDROOT
BRANCH   1   2
HETATM    2  C11 UNL     1     -25.862 -13.735  -5.249  1.00  0.00     0.021 C 
BRANCH   2   3
HETATM    3  C10 UNL     1     -25.771 -12.326  -4.658  1.00  0.00     0.006 C 
BRANCH   3   4
HETATM    4  C9  UNL     1     -25.659 -11.271  -5.703  1.00  0.00     0.039 C 
BRANCH   4   5
HETATM    5  C8  UNL     1     -26.925 -10.950  -6.405  1.00  0.00    -0.052 A 
HETATM    6  C3  UNL     1     -27.205 -11.226  -7.718  1.00  0.00    -0.050 A 
HETATM    7  C4  UNL     1     -28.401 -10.828  -8.329  1.00  0.00     0.007 A 
HETATM    8  C5  UNL     1     -29.292 -10.143  -7.545  1.00  0.00     0.001 A 
HETATM    9  C6  UNL     1     -29.022  -9.862  -6.221  1.00  0.00     0.001 A 
HETATM   10  C7  UNL     1     -27.854 -10.247  -5.617  1.00  0.00     0.007 A 
BRANCH   6  11
HETATM   11  C2  UNL     1     -26.294 -12.020  -8.544  1.00  0.00     0.065 C 
BRANCH  11  12
HETATM   12  C1  UNL     1     -26.779 -13.425  -8.835  1.00  0.00     0.168 C 
BRANCH  12  13
HETATM   13  O1  UNL     1     -25.723 -14.214  -9.282  1.00  0.00    -0.401 OA
ATOM     14  H1  UNL     1     -25.960 -15.133  -9.242  1.00  0.00     0.209 HD
ENDBRANCH  12  13
ENDBRANCH  11  12
ENDBRANCH   6  11
ENDBRANCH   4   5
ENDBRANCH   3   4
ENDBRANCH   2   3
ENDBRANCH   1   2
BRANCH   1  15
HETATM   15  N1  UNL     1     -24.124 -15.309  -6.043  1.00  0.00    -0.366 N 
HETATM   16  C13 UNL     1     -24.991 -16.317  -5.856  1.00  0.00     0.091 A 
HETATM   17  C14 UNL     1     -24.635 -17.653  -5.918  1.00  0.00     0.026 A 
HETATM   18  C15 UNL     1     -23.326 -17.998  -6.183  1.00  0.00    -0.037 A 
HETATM   19  C20 UNL     1     -22.432 -16.959  -6.377  1.00  0.00     0.026 A 
HETATM   20  C21 UNL     1     -22.830 -15.645  -6.307  1.00  0.00     0.091 A 
BRANCH  18  21
HETATM   21  C16 UNL     1     -22.864 -19.413  -6.262  1.00  0.00     0.167 C 
BRANCH  21  22
HETATM   22  N2  UNL     1     -22.739 -19.840  -7.631  1.00  0.00    -0.347 N 
HETATM   23  C17 UNL     1     -21.692 -19.777  -8.451  1.00  0.00     0.109 A 
HETATM   24  C18 UNL     1     -22.044 -20.309  -9.672  1.00  0.00     0.106 A 
HETATM   25  N3  UNL     1     -23.336 -20.697  -9.571  1.00  0.00    -0.361 N 
HETATM   26  C19 UNL     1     -23.744 -20.408  -8.330  1.00  0.00     0.182 A 
ATOM     27  H3  UNL     1     -23.896 -21.131 -10.305  1.00  0.00     0.166 HD
ENDBRANCH  21  22
ENDBRANCH  18  21
ENDBRANCH   1  15
TORSDOF 10
ENDMDL
MODEL 2
REMARK VINA RESULT: -8.221291050      2.780      4.817
REMARK  10 active torsions:
REMARK  status: ('A' for Active; 'I' for Inactive)
REMARK    1  A    between atoms: O1_1  and  C1_3 
REMARK    2  A    between atoms: C1_3  and  C2_4 
REMARK    3  A    between atoms: C2_4  and  C3_5 
REMARK    4  A    between atoms: C8_10  and  C9_11 
REMARK    5  A    between atoms: C9_11  and  C10_12 
REMARK    6  A    between atoms: C10_12  and  C11_13 
REMARK    7  A    between atoms: C11_13  and  C12_14 
REMARK    8  A    between atoms: C12_14  and  N1_15 
REMARK    9  A    between atoms: C15_18  and  C16_19 
REMARK   10  A    between atoms: C16_19  and  N2_20 
ROOT
HETATM    1  C12 UNL     1     -20.125 -14.061  -8.811  1.00  0.00     0.128 C 
ENDROOT
BRANCH   1   2
HETATM    2  C11 UNL     1     -21.339 -13.168  -8.791  1.00  0.00     0.021 C 
BRANCH   2   3
HETATM    3  C10 UNL     1     -22.355 -13.845  -9.715  1.00  0.00     0.006 C 
BRANCH   3   4
HETATM    4  C9  UNL     1     -23.749 -13.757  -9.198  1.00  0.00     0.039 C 
BRANCH   4   5
HETATM    5  C8  UNL     1     -24.139 -14.843  -8.267  1.00  0.00    -0.052 A 
HETATM    6  C3  UNL     1     -24.500 -14.682  -6.955  1.00  0.00    -0.050 A 
HETATM    7  C4  UNL     1     -24.789 -15.768  -6.118  1.00  0.00     0.007 A 
HETATM    8  C5  UNL     1     -24.697 -17.015  -6.678  1.00  0.00     0.001 A 
HETATM    9  C6  UNL     1     -24.337 -17.189  -7.998  1.00  0.00     0.001 A 
HETATM   10  C7  UNL     1     -24.051 -16.132  -8.822  1.00  0.00     0.007 A 
BRANCH   6  11
HETATM   11  C2  UNL     1     -24.673 -13.353  -6.366  1.00  0.00     0.065 C 
BRANCH  11  12
HETATM   12  C1  UNL     1     -25.825 -13.248  -5.389  1.00  0.00     0.168 C 
BRANCH  12  13
HETATM   13  O1  UNL     1     -25.362 -12.835  -4.143  1.00  0.00    -0.401 OA
ATOM     14  H1  UNL     1     -25.208 -11.898  -4.144  1.00  0.00     0.209 HD
ENDBRANCH  12  13
ENDBRANCH  11  12
ENDBRANCH   6  11
ENDBRANCH   4   5
ENDBRANCH   3   4
ENDBRANCH   2   3
ENDBRANCH   1   2
BRANCH   1  15
HETATM   15  N1  UNL     1     -20.336 -15.378  -8.307  1.00  0.00    -0.366 N 
HETATM   16  C13 UNL     1     -19.999 -16.457  -9.031  1.00  0.00     0.091 A 
HETATM   17  C14 UNL     1     -20.182 -17.758  -8.597  1.00  0.00     0.026 A 
HETATM   18  C15 UNL     1     -20.739 -17.990  -7.357  1.00  0.00    -0.037 A 
HETATM   19  C20 UNL     1     -21.086 -16.879  -6.608  1.00  0.00     0.026 A 
HETATM   20  C21 UNL     1     -20.886 -15.602  -7.080  1.00  0.00     0.091 A 
BRANCH  18  21
HETATM   21  C16 UNL     1     -20.971 -19.362  -6.820  1.00  0.00     0.167 C 
BRANCH  21  22
HETATM   22  N2  UNL     1     -22.110 -19.976  -7.449  1.00  0.00    -0.347 N 
HETATM   23  C17 UNL     1     -22.330 -20.250  -8.734  1.00  0.00     0.109 A 
HETATM   24  C18 UNL     1     -23.567 -20.842  -8.863  1.00  0.00     0.106 A 
HETATM   25  N3  UNL     1     -24.093 -20.922  -7.619  1.00  0.00    -0.361 N 
HETATM   26  C19 UNL     1     -23.201 -20.394  -6.774  1.00  0.00     0.182 A 
ATOM     27  H3  UNL     1     -25.003 -21.311  -7.372  1.00  0.00     0.166 HD
ENDBRANCH  21  22
ENDBRANCH  18  21
ENDBRANCH   1  15
TORSDOF 10
ENDMDL
MODEL 3
REMARK VINA RESULT: -8.170391850      1.899      3.276
REMARK  10 active torsions:
REMARK  status: ('A' for Active; 'I' for Inactive)
REMARK    1  A    between atoms: O1_1  and  C1_3 
REMARK    2  A    between atoms: C1_3  and  C2_4 
REMARK    3  A    between atoms: C2_4  and  C3_5 
REMARK    4  A    between atoms: C8_10  and  C9_11 
REMARK    5  A    between atoms: C9_11  and  C10_12 
REMARK    6  A    between atoms: C10_12  and  C11_13 
REMARK    7  A    between atoms: C11_13  and  C12_14 
REMARK    8  A    between atoms: C12_14  and  N1_15 
REMARK    9  A    between atoms: C15_18  and  C16_19 
REMARK   10  A    between atoms: C16_19  and  N2_20 
ROOT
HETATM    1  C12 UNL     1     -22.494 -13.678  -8.383  1.00  0.00     0.128 C 
ENDROOT
BRANCH   1   2
HETATM    2  C11 UNL     1     -23.519 -13.471  -9.469  1.00  0.00     0.021 C 
BRANCH   2   3
HETATM    3  C10 UNL     1     -24.799 -14.131  -8.947  1.00  0.00     0.006 C 
BRANCH   3   4
HETATM    4  C9  UNL     1     -25.839 -13.139  -8.558  1.00  0.00     0.039 C 
BRANCH   4   5
HETATM    5  C8  UNL     1     -25.880 -12.812  -7.112  1.00  0.00    -0.052 A 
HETATM    6  C3  UNL     1     -26.306 -11.627  -6.571  1.00  0.00    -0.050 A 
HETATM    7  C4  UNL     1     -26.250 -11.369  -5.195  1.00  0.00     0.007 A 
HETATM    8  C5  UNL     1     -25.745 -12.368  -4.403  1.00  0.00     0.001 A 
HETATM    9  C6  UNL     1     -25.315 -13.565  -4.938  1.00  0.00     0.001 A 
HETATM   10  C7  UNL     1     -25.366 -13.825  -6.282  1.00  0.00     0.007 A 
BRANCH   6  11
HETATM   11  C2  UNL     1     -26.915 -10.583  -7.396  1.00  0.00     0.065 C 
BRANCH  11  12
HETATM   12  C1  UNL     1     -28.393 -10.779  -7.661  1.00  0.00     0.168 C 
BRANCH  12  13
HETATM   13  O1  UNL     1     -28.693 -10.446  -8.979  1.00  0.00    -0.401 OA
ATOM     14  H1  UNL     1     -29.559 -10.058  -9.030  1.00  0.00     0.209 HD
ENDBRANCH  12  13
ENDBRANCH  11  12
ENDBRANCH   6  11
ENDBRANCH   4   5
ENDBRANCH   3   4
ENDBRANCH   2   3
ENDBRANCH   1   2
BRANCH   1  15
HETATM   15  N1  UNL     1     -22.218 -15.040  -8.066  1.00  0.00    -0.366 N 
HETATM   16  C13 UNL     1     -21.845 -15.910  -9.018  1.00  0.00     0.091 A 
HETATM   17  C14 UNL     1     -21.567 -17.242  -8.772  1.00  0.00     0.026 A 
HETATM   18  C15 UNL     1     -21.669 -17.734  -7.488  1.00  0.00    -0.037 A 
HETATM   19  C20 UNL     1     -22.053 -16.839  -6.504  1.00  0.00     0.026 A 
HETATM   20  C21 UNL     1     -22.320 -15.521  -6.795  1.00  0.00     0.091 A 
BRANCH  18  21
HETATM   21  C16 UNL     1     -21.390 -19.157  -7.143  1.00  0.00     0.167 C 
BRANCH  21  22
HETATM   22  N2  UNL     1     -22.369 -20.032  -7.730  1.00  0.00    -0.347 N 
HETATM   23  C17 UNL     1     -22.387 -20.606  -8.932  1.00  0.00     0.109 A 
HETATM   24  C18 UNL     1     -23.532 -21.363  -9.052  1.00  0.00     0.106 A 
HETATM   25  N3  UNL     1     -24.210 -21.234  -7.889  1.00  0.00    -0.361 N 
HETATM   26  C19 UNL     1     -23.494 -20.425  -7.098  1.00  0.00     0.182 A 
ATOM     27  H3  UNL     1     -25.101 -21.671  -7.657  1.00  0.00     0.166 HD
ENDBRANCH  21  22
ENDBRANCH  18  21
ENDBRANCH   1  15
TORSDOF 10
ENDMDL
MODEL 4
REMARK VINA RESULT: -8.099706867      1.620      2.573
REMARK  10 active torsions:
REMARK  status: ('A' for Active; 'I' for Inactive)
REMARK    1  A    between atoms: O1_1  and  C1_3 
REMARK    2  A    between atoms: C1_3  and  C2_4 
REMARK    3  A    between atoms: C2_4  and  C3_5 
REMARK    4  A    between atoms: C8_10  and  C9_11 
REMARK    5  A    between atoms: C9_11  and  C10_12 
REMARK    6  A    between atoms: C10_12  and  C11_13 
REMARK    7  A    between atoms: C11_13  and  C12_14 
REMARK    8  A    between atoms: C12_14  and  N1_15 
REMARK    9  A    between atoms: C15_18  and  C16_19 
REMARK   10  A    between atoms: C16_19  and  N2_20 
ROOT
HETATM    1  C12 UNL     1     -23.592 -14.218  -7.389  1.00  0.00     0.128 C 
ENDROOT
BRANCH   1   2
HETATM    2  C11 UNL     1     -23.504 -13.657  -8.786  1.00  0.00     0.021 C 
BRANCH   2   3
HETATM    3  C10 UNL     1     -24.765 -12.806  -8.960  1.00  0.00     0.006 C 
BRANCH   3   4
HETATM    4  C9  UNL     1     -25.867 -13.220  -8.047  1.00  0.00     0.039 C 
BRANCH   4   5
HETATM    5  C8  UNL     1     -26.675 -12.105  -7.498  1.00  0.00    -0.052 A 
HETATM    6  C3  UNL     1     -26.533 -11.551  -6.252  1.00  0.00    -0.050 A 
HETATM    7  C4  UNL     1     -27.384 -10.543  -5.780  1.00  0.00     0.007 A 
HETATM    8  C5  UNL     1     -28.376 -10.128  -6.629  1.00  0.00     0.001 A 
HETATM    9  C6  UNL     1     -28.527 -10.678  -7.886  1.00  0.00     0.001 A 
HETATM   10  C7  UNL     1     -27.700 -11.665  -8.355  1.00  0.00     0.007 A 
BRANCH   6  11
HETATM   11  C2  UNL     1     -25.433 -11.932  -5.365  1.00  0.00     0.065 C 
BRANCH  11  12
HETATM   12  C1  UNL     1     -25.850 -12.788  -4.187  1.00  0.00     0.168 C 
BRANCH  12  13
HETATM   13  O1  UNL     1     -26.218 -14.058  -4.621  1.00  0.00    -0.401 OA
ATOM     14  H1  UNL     1     -25.473 -14.646  -4.583  1.00  0.00     0.209 HD
ENDBRANCH  12  13
ENDBRANCH  11  12
ENDBRANCH   6  11
ENDBRANCH   4   5
ENDBRANCH   3   4
ENDBRANCH   2   3
ENDBRANCH   1   2
BRANCH   1  15
HETATM   15  N1  UNL     1     -23.421 -15.630  -7.294  1.00  0.00    -0.366 N 
HETATM   16  C13 UNL     1     -24.231 -16.469  -7.958  1.00  0.00     0.091 A 
HETATM   17  C14 UNL     1     -24.116 -17.847  -7.903  1.00  0.00     0.026 A 
HETATM   18  C15 UNL     1     -23.124 -18.418  -7.133  1.00  0.00    -0.037 A 
HETATM   19  C20 UNL     1     -22.287 -17.554  -6.449  1.00  0.00     0.026 A 
HETATM   20  C21 UNL     1     -22.439 -16.189  -6.533  1.00  0.00     0.091 A 
BRANCH  18  21
HETATM   21  C16 UNL     1     -22.938 -19.893  -7.020  1.00  0.00     0.167 C 
BRANCH  21  22
HETATM   22  N2  UNL     1     -22.736 -20.488  -8.314  1.00  0.00    -0.347 N 
HETATM   23  C17 UNL     1     -23.475 -21.385  -8.965  1.00  0.00     0.109 A 
HETATM   24  C18 UNL     1     -22.885 -21.658 -10.179  1.00  0.00     0.106 A 
HETATM   25  N3  UNL     1     -21.766 -20.902 -10.250  1.00  0.00    -0.361 N 
HETATM   26  C19 UNL     1     -21.688 -20.198  -9.114  1.00  0.00     0.182 A 
ATOM     27  H3  UNL     1     -21.104 -20.873 -11.025  1.00  0.00     0.166 HD
ENDBRANCH  21  22
ENDBRANCH  18  21
ENDBRANCH   1  15
TORSDOF 10
ENDMDL
MODEL 5
REMARK VINA RESULT: -8.024439940      2.624      8.770
REMARK  10 active torsions:
REMARK  status: ('A' for Active; 'I' for Inactive)
REMARK    1  A    between atoms: O1_1  and  C1_3 
REMARK    2  A    between atoms: C1_3  and  C2_4 
REMARK    3  A    between atoms: C2_4  and  C3_5 
REMARK    4  A    between atoms: C8_10  and  C9_11 
REMARK    5  A    between atoms: C9_11  and  C10_12 
REMARK    6  A    between atoms: C10_12  and  C11_13 
REMARK    7  A    between atoms: C11_13  and  C12_14 
REMARK    8  A    between atoms: C12_14  and  N1_15 
REMARK    9  A    between atoms: C15_18  and  C16_19 
REMARK   10  A    between atoms: C16_19  and  N2_20 
ROOT
HETATM    1  C12 UNL     1     -24.100 -16.006  -6.583  1.00  0.00     0.128 C 
ENDROOT
BRANCH   1   2
HETATM    2  C11 UNL     1     -24.827 -17.052  -5.776  1.00  0.00     0.021 C 
BRANCH   2   3
HETATM    3  C10 UNL     1     -23.828 -18.201  -5.611  1.00  0.00     0.006 C 
BRANCH   3   4
HETATM    4  C9  UNL     1     -22.697 -18.121  -6.576  1.00  0.00     0.039 C 
BRANCH   4   5
HETATM    5  C8  UNL     1     -22.700 -19.165  -7.631  1.00  0.00    -0.052 A 
HETATM    6  C3  UNL     1     -21.847 -19.223  -8.701  1.00  0.00    -0.050 A 
HETATM    7  C4  UNL     1     -21.958 -20.205  -9.695  1.00  0.00     0.007 A 
HETATM    8  C5  UNL     1     -22.971 -21.116  -9.546  1.00  0.00     0.001 A 
HETATM    9  C6  UNL     1     -23.834 -21.067  -8.471  1.00  0.00     0.001 A 
HETATM   10  C7  UNL     1     -23.732 -20.110  -7.496  1.00  0.00     0.007 A 
BRANCH   6  11
HETATM   11  C2  UNL     1     -20.718 -18.301  -8.832  1.00  0.00     0.065 C 
BRANCH  11  12
HETATM   12  C1  UNL     1     -19.613 -18.792  -9.745  1.00  0.00     0.168 C 
BRANCH  12  13
HETATM   13  O1  UNL     1     -18.935 -17.712 -10.303  1.00  0.00    -0.401 OA
ATOM     14  H1  UNL     1     -19.482 -17.281 -10.950  1.00  0.00     0.209 HD
ENDBRANCH  12  13
ENDBRANCH  11  12
ENDBRANCH   6  11
ENDBRANCH   4   5
ENDBRANCH   3   4
ENDBRANCH   2   3
ENDBRANCH   1   2
BRANCH   1  15
HETATM   15  N1  UNL     1     -24.603 -14.680  -6.446  1.00  0.00    -0.366 N 
HETATM   16  C13 UNL     1     -25.346 -14.330  -5.383  1.00  0.00     0.091 A 
HETATM   17  C14 UNL     1     -25.864 -13.061  -5.196  1.00  0.00     0.026 A 
HETATM   18  C15 UNL     1     -25.621 -12.081  -6.135  1.00  0.00    -0.037 A 
HETATM   19  C20 UNL     1     -24.855 -12.439  -7.231  1.00  0.00     0.026 A 
HETATM   20  C21 UNL     1     -24.360 -13.714  -7.376  1.00  0.00     0.091 A 
BRANCH  18  21
HETATM   21  C16 UNL     1     -26.147 -10.692  -6.006  1.00  0.00     0.167 C 
BRANCH  21  22
HETATM   22  N2  UNL     1     -27.378 -10.537  -6.734  1.00  0.00    -0.347 N 
HETATM   23  C17 UNL     1     -28.591 -10.202  -6.298  1.00  0.00     0.109 A 
HETATM   24  C18 UNL     1     -29.463 -10.179  -7.363  1.00  0.00     0.106 A 
HETATM   25  N3  UNL     1     -28.746 -10.510  -8.462  1.00  0.00    -0.361 N 
HETATM   26  C19 UNL     1     -27.486 -10.723  -8.067  1.00  0.00     0.182 A 
ATOM     27  H3  UNL     1     -29.101 -10.583  -9.415  1.00  0.00     0.166 HD
ENDBRANCH  21  22
ENDBRANCH  18  21
ENDBRANCH   1  15
TORSDOF 10
ENDMDL
