MODEL 1
REMARK VINA RESULT: -7.550808308      0.000      0.000
REMARK  5 active torsions:
REMARK  status: ('A' for Active; 'I' for Inactive)
REMARK    1  A    between atoms: C2_2  and  N1_3 
REMARK    2  A    between atoms: C2_2  and  O1_8 
REMARK    3  A    between atoms: O1_8  and  C4_9 
REMARK    4  A    between atoms: C4_9  and  N5_13 
REMARK       I    between atoms: N6_16  and  C7_17 
REMARK    5  A    between atoms: C9_23  and  C10_24 
ROOT
HETATM    1  N5  UNL     1      19.227 -27.348 -15.537  1.00  0.00    -0.335 N 
HETATM    2  C5  UNL     1      18.588 -26.110 -15.837  1.00  0.00     0.147 C 
HETATM    3  C6  UNL     1      17.105 -26.223 -16.029  1.00  0.00     0.145 C 
HETATM    4  N6  UNL     1      16.510 -27.316 -15.313  1.00  0.00    -0.352 N 
HETATM    5  C7  UNL     1      15.243 -27.831 -15.656  1.00  0.00     0.184 C 
HETATM    6  N7  UNL     1      14.808 -28.920 -15.116  1.00  0.00    -0.374 N 
ATOM      7  H71 UNL     1      13.892 -29.293 -15.365  1.00  0.00     0.158 HD
ATOM      8  H72 UNL     1      15.414 -29.384 -14.440  1.00  0.00     0.158 HD
HETATM    9  N8  UNL     1      14.397 -27.183 -16.601  1.00  0.00    -0.064 NA
HETATM   10  C8  UNL     1      17.246 -27.897 -14.207  1.00  0.00     0.156 C 
HETATM   11  C9  UNL     1      18.602 -28.331 -14.686  1.00  0.00     0.143 C 
ENDROOT
BRANCH   1  12
HETATM   12  C4  UNL     1      20.506 -27.626 -16.083  1.00  0.00     0.217 C 
HETATM   13  N4  UNL     1      21.366 -28.386 -15.453  1.00  0.00    -0.365 N 
ATOM     14  H42 UNL     1      22.287 -28.587 -15.845  1.00  0.00     0.159 HD
ATOM     15  H41 UNL     1      21.058 -28.760 -14.556  1.00  0.00     0.159 HD
BRANCH  12  16
HETATM   16  O1  UNL     1      20.926 -27.117 -17.305  1.00  0.00    -0.297 OA
BRANCH  16  17
HETATM   17  C2  UNL     1      20.752 -27.907 -18.492  1.00  0.00     0.228 C 
HETATM   18  C1  UNL     1      19.784 -27.254 -19.439  1.00  0.00     0.063 C 
BRANCH  17  19
HETATM   19  N1  UNL     1      22.011 -28.200 -19.111  1.00  0.00    -0.340 N 
HETATM   20  C3  UNL     1      22.760 -29.183 -18.750  1.00  0.00     0.198 C 
HETATM   21  N2  UNL     1      22.290 -30.000 -17.684  1.00  0.00    -0.067 NA
HETATM   22  N3  UNL     1      24.000 -29.476 -19.355  1.00  0.00    -0.067 NA
ATOM     23  H1  UNL     1      22.329 -27.601 -19.875  1.00  0.00     0.164 HD
ENDBRANCH  17  19
ENDBRANCH  16  17
ENDBRANCH  12  16
ENDBRANCH   1  12
BRANCH  11  24
HETATM   24  C10 UNL     1      18.574 -29.651 -15.357  1.00  0.00     0.080 C 
HETATM   25  N9  UNL     1      17.832 -30.587 -14.904  1.00  0.00    -0.409 N 
ATOM     26  H92 UNL     1      17.263 -30.408 -14.077  1.00  0.00     0.155 HD
ATOM     27  H91 UNL     1      17.814 -31.496 -15.366  1.00  0.00     0.155 HD
ENDBRANCH  11  24
TORSDOF 5
ENDMDL
MODEL 2
REMARK VINA RESULT: -7.492971574      1.896      6.234
REMARK  5 active torsions:
REMARK  status: ('A' for Active; 'I' for Inactive)
REMARK    1  A    between atoms: C2_2  and  N1_3 
REMARK    2  A    between atoms: C2_2  and  O1_8 
REMARK    3  A    between atoms: O1_8  and  C4_9 
REMARK    4  A    between atoms: C4_9  and  N5_13 
REMARK       I    between atoms: N6_16  and  C7_17 
REMARK    5  A    between atoms: C9_23  and  C10_24 
ROOT
HETATM    1  N5  UNL     1      19.042 -27.585 -15.182  1.00  0.00    -0.335 N 
HETATM    2  C5  UNL     1      20.338 -27.950 -14.715  1.00  0.00     0.147 C 
HETATM    3  C6  UNL     1      21.291 -28.338 -15.805  1.00  0.00     0.145 C 
HETATM    4  N6  UNL     1      21.005 -27.723 -17.071  1.00  0.00    -0.352 N 
HETATM    5  C7  UNL     1      21.509 -28.239 -18.282  1.00  0.00     0.184 C 
HETATM    6  N7  UNL     1      21.099 -27.777 -19.415  1.00  0.00    -0.374 N 
ATOM      7  H71 UNL     1      21.464 -28.150 -20.291  1.00  0.00     0.158 HD
ATOM      8  H72 UNL     1      20.402 -27.033 -19.395  1.00  0.00     0.158 HD
HETATM    9  N8  UNL     1      22.482 -29.279 -18.310  1.00  0.00    -0.064 NA
HETATM   10  C8  UNL     1      20.171 -26.538 -17.087  1.00  0.00     0.156 C 
HETATM   11  C9  UNL     1      18.867 -26.838 -16.405  1.00  0.00     0.143 C 
ENDROOT
BRANCH   1  12
HETATM   12  C4  UNL     1      17.896 -27.959 -14.436  1.00  0.00     0.217 C 
HETATM   13  N4  UNL     1      17.026 -27.070 -14.030  1.00  0.00    -0.365 N 
ATOM     14  H42 UNL     1      16.201 -27.339 -13.493  1.00  0.00     0.159 HD
ATOM     15  H41 UNL     1      17.225 -26.102 -14.284  1.00  0.00     0.159 HD
BRANCH  12  16
HETATM   16  O1  UNL     1      17.625 -29.277 -14.090  1.00  0.00    -0.297 OA
BRANCH  16  17
HETATM   17  C2  UNL     1      16.617 -30.000 -14.813  1.00  0.00     0.228 C 
HETATM   18  C1  UNL     1      16.988 -31.450 -14.957  1.00  0.00     0.063 C 
BRANCH  17  19
HETATM   19  N1  UNL     1      15.324 -29.822 -14.222  1.00  0.00    -0.340 N 
HETATM   20  C3  UNL     1      14.419 -29.059 -14.728  1.00  0.00     0.198 C 
HETATM   21  N2  UNL     1      14.745 -28.373 -15.931  1.00  0.00    -0.067 NA
HETATM   22  N3  UNL     1      13.144 -28.878 -14.150  1.00  0.00    -0.067 NA
ATOM     23  H1  UNL     1      15.110 -30.323 -13.359  1.00  0.00     0.164 HD
ENDBRANCH  17  19
ENDBRANCH  16  17
ENDBRANCH  12  16
ENDBRANCH   1  12
BRANCH  11  24
HETATM   24  C10 UNL     1      17.902 -27.525 -17.294  1.00  0.00     0.080 C 
HETATM   25  N9  UNL     1      17.866 -28.801 -17.339  1.00  0.00    -0.409 N 
ATOM     26  H92 UNL     1      18.510 -29.333 -16.754  1.00  0.00     0.155 HD
ATOM     27  H91 UNL     1      17.203 -29.275 -17.952  1.00  0.00     0.155 HD
ENDBRANCH  11  24
TORSDOF 5
ENDMDL
MODEL 3
REMARK VINA RESULT: -7.484253629      1.382      2.522
REMARK  5 active torsions:
REMARK  status: ('A' for Active; 'I' for Inactive)
REMARK    1  A    between atoms: C2_2  and  N1_3 
REMARK    2  A    between atoms: C2_2  and  O1_8 
REMARK    3  A    between atoms: O1_8  and  C4_9 
REMARK    4  A    between atoms: C4_9  and  N5_13 
REMARK       I    between atoms: N6_16  and  C7_17 
REMARK    5  A    between atoms: C9_23  and  C10_24 
ROOT
HETATM    1  N5  UNL     1      18.676 -28.679 -15.852  1.00  0.00    -0.335 N 
HETATM    2  C5  UNL     1      18.718 -30.069 -15.540  1.00  0.00     0.147 C 
HETATM    3  C6  UNL     1      17.479 -30.578 -14.865  1.00  0.00     0.145 C 
HETATM    4  N6  UNL     1      16.296 -29.831 -15.187  1.00  0.00    -0.352 N 
HETATM    5  C7  UNL     1      15.139 -29.884 -14.383  1.00  0.00     0.184 C 
HETATM    6  N7  UNL     1      14.156 -29.075 -14.593  1.00  0.00    -0.374 N 
ATOM      7  H71 UNL     1      13.319 -29.113 -14.011  1.00  0.00     0.158 HD
ATOM      8  H72 UNL     1      14.252 -28.405 -15.356  1.00  0.00     0.158 HD
HETATM    9  N8  UNL     1      15.004 -30.819 -13.317  1.00  0.00    -0.064 NA
HETATM   10  C8  UNL     1      16.307 -29.005 -16.378  1.00  0.00     0.156 C 
HETATM   11  C9  UNL     1      17.461 -28.046 -16.307  1.00  0.00     0.143 C 
ENDROOT
BRANCH   1  12
HETATM   12  C4  UNL     1      19.850 -27.894 -15.717  1.00  0.00     0.217 C 
HETATM   13  N4  UNL     1      20.498 -27.827 -14.582  1.00  0.00    -0.365 N 
ATOM     14  H42 UNL     1      21.342 -27.263 -14.484  1.00  0.00     0.159 HD
ATOM     15  H41 UNL     1      20.108 -28.371 -13.812  1.00  0.00     0.159 HD
BRANCH  12  16
HETATM   16  O1  UNL     1      20.380 -27.154 -16.765  1.00  0.00    -0.297 OA
BRANCH  16  17
HETATM   17  C2  UNL     1      20.375 -27.708 -18.090  1.00  0.00     0.228 C 
HETATM   18  C1  UNL     1      19.389 -26.993 -18.972  1.00  0.00     0.063 C 
BRANCH  17  19
HETATM   19  N1  UNL     1      21.694 -27.731 -18.650  1.00  0.00    -0.340 N 
HETATM   20  C3  UNL     1      22.550 -28.658 -18.393  1.00  0.00     0.198 C 
HETATM   21  N2  UNL     1      22.139 -29.696 -17.510  1.00  0.00    -0.067 NA
HETATM   22  N3  UNL     1      23.850 -28.687 -18.940  1.00  0.00    -0.067 NA
ATOM     23  H1  UNL     1      21.968 -26.978 -19.282  1.00  0.00     0.164 HD
ENDBRANCH  17  19
ENDBRANCH  16  17
ENDBRANCH  12  16
ENDBRANCH   1  12
BRANCH  11  24
HETATM   24  C10 UNL     1      17.163 -26.852 -15.484  1.00  0.00     0.080 C 
HETATM   25  N9  UNL     1      17.527 -25.693 -15.877  1.00  0.00    -0.409 N 
ATOM     26  H92 UNL     1      18.024 -25.607 -16.763  1.00  0.00     0.155 HD
ATOM     27  H91 UNL     1      17.322 -24.871 -15.310  1.00  0.00     0.155 HD
ENDBRANCH  11  24
TORSDOF 5
ENDMDL
MODEL 4
REMARK VINA RESULT: -7.220043857      2.384      6.342
REMARK  5 active torsions:
REMARK  status: ('A' for Active; 'I' for Inactive)
REMARK    1  A    between atoms: C2_2  and  N1_3 
REMARK    2  A    between atoms: C2_2  and  O1_8 
REMARK    3  A    between atoms: O1_8  and  C4_9 
REMARK    4  A    between atoms: C4_9  and  N5_13 
REMARK       I    between atoms: N6_16  and  C7_17 
REMARK    5  A    between atoms: C9_23  and  C10_24 
ROOT
HETATM    1  N5  UNL     1      18.987 -27.782 -15.120  1.00  0.00    -0.335 N 
HETATM    2  C5  UNL     1      20.324 -28.041 -14.700  1.00  0.00     0.147 C 
HETATM    3  C6  UNL     1      21.274 -28.310 -15.828  1.00  0.00     0.145 C 
HETATM    4  N6  UNL     1      20.895 -27.688 -17.066  1.00  0.00    -0.352 N 
HETATM    5  C7  UNL     1      21.407 -28.122 -18.306  1.00  0.00     0.184 C 
HETATM    6  N7  UNL     1      20.921 -27.667 -19.412  1.00  0.00    -0.374 N 
ATOM      7  H71 UNL     1      21.291 -27.980 -20.309  1.00  0.00     0.158 HD
ATOM      8  H72 UNL     1      20.161 -26.989 -19.349  1.00  0.00     0.158 HD
HETATM    9  N8  UNL     1      22.467 -29.067 -18.394  1.00  0.00    -0.064 NA
HETATM   10  C8  UNL     1      19.958 -26.583 -17.021  1.00  0.00     0.156 C 
HETATM   11  C9  UNL     1      18.707 -27.019 -16.313  1.00  0.00     0.143 C 
ENDROOT
BRANCH   1  12
HETATM   12  C4  UNL     1      17.903 -28.280 -14.353  1.00  0.00     0.217 C 
HETATM   13  N4  UNL     1      16.916 -27.504 -13.982  1.00  0.00    -0.365 N 
ATOM     14  H42 UNL     1      16.135 -27.862 -13.431  1.00  0.00     0.159 HD
ATOM     15  H41 UNL     1      16.978 -26.530 -14.279  1.00  0.00     0.159 HD
BRANCH  12  16
HETATM   16  O1  UNL     1      17.818 -29.606 -13.950  1.00  0.00    -0.297 OA
BRANCH  16  17
HETATM   17  C2  UNL     1      16.691 -30.395 -14.364  1.00  0.00     0.228 C 
HETATM   18  C1  UNL     1      16.828 -30.822 -15.799  1.00  0.00     0.063 C 
BRANCH  17  19
HETATM   19  N1  UNL     1      16.480 -31.504 -13.480  1.00  0.00    -0.340 N 
HETATM   20  C3  UNL     1      15.381 -31.690 -12.837  1.00  0.00     0.198 C 
HETATM   21  N2  UNL     1      14.344 -30.735 -13.031  1.00  0.00    -0.067 NA
HETATM   22  N3  UNL     1      15.166 -32.778 -11.965  1.00  0.00    -0.067 NA
ATOM     23  H1  UNL     1      17.236 -32.178 -13.356  1.00  0.00     0.164 HD
ENDBRANCH  17  19
ENDBRANCH  16  17
ENDBRANCH  12  16
ENDBRANCH   1  12
BRANCH  11  24
HETATM   24  C10 UNL     1      17.782 -27.766 -17.196  1.00  0.00     0.080 C 
HETATM   25  N9  UNL     1      16.525 -27.541 -17.146  1.00  0.00    -0.409 N 
ATOM     26  H92 UNL     1      16.175 -26.843 -16.490  1.00  0.00     0.155 HD
ATOM     27  H91 UNL     1      15.888 -28.056 -17.753  1.00  0.00     0.155 HD
ENDBRANCH  11  24
TORSDOF 5
ENDMDL
MODEL 5
REMARK VINA RESULT: -7.145533797      1.342      2.617
REMARK  5 active torsions:
REMARK  status: ('A' for Active; 'I' for Inactive)
REMARK    1  A    between atoms: C2_2  and  N1_3 
REMARK    2  A    between atoms: C2_2  and  O1_8 
REMARK    3  A    between atoms: O1_8  and  C4_9 
REMARK    4  A    between atoms: C4_9  and  N5_13 
REMARK       I    between atoms: N6_16  and  C7_17 
REMARK    5  A    between atoms: C9_23  and  C10_24 
ROOT
HETATM    1  N5  UNL     1      18.580 -28.188 -16.543  1.00  0.00    -0.335 N 
HETATM    2  C5  UNL     1      19.098 -29.371 -15.942  1.00  0.00     0.147 C 
HETATM    3  C6  UNL     1      18.129 -30.065 -15.032  1.00  0.00     0.145 C 
HETATM    4  N6  UNL     1      16.752 -29.836 -15.368  1.00  0.00    -0.352 N 
HETATM    5  C7  UNL     1      15.712 -30.054 -14.441  1.00  0.00     0.184 C 
HETATM    6  N7  UNL     1      14.507 -29.676 -14.706  1.00  0.00    -0.374 N 
ATOM      7  H71 UNL     1      13.754 -29.834 -14.036  1.00  0.00     0.158 HD
ATOM      8  H72 UNL     1      14.343 -29.219 -15.603  1.00  0.00     0.158 HD
HETATM    9  N8  UNL     1      15.941 -30.693 -13.189  1.00  0.00    -0.064 NA
HETATM   10  C8  UNL     1      16.439 -29.366 -16.703  1.00  0.00     0.156 C 
HETATM   11  C9  UNL     1      17.206 -28.105 -16.979  1.00  0.00     0.143 C 
ENDROOT
BRANCH   1  12
HETATM   12  C4  UNL     1      19.425 -27.063 -16.720  1.00  0.00     0.217 C 
HETATM   13  N4  UNL     1      19.180 -25.924 -16.123  1.00  0.00    -0.365 N 
ATOM     14  H42 UNL     1      19.788 -25.115 -16.250  1.00  0.00     0.159 HD
ATOM     15  H41 UNL     1      18.352 -25.901 -15.529  1.00  0.00     0.159 HD
BRANCH  12  16
HETATM   16  O1  UNL     1      20.554 -27.095 -17.530  1.00  0.00    -0.297 OA
BRANCH  16  17
HETATM   17  C2  UNL     1      20.493 -27.776 -18.792  1.00  0.00     0.228 C 
HETATM   18  C1  UNL     1      19.686 -26.994 -19.791  1.00  0.00     0.063 C 
BRANCH  17  19
HETATM   19  N1  UNL     1      21.804 -28.093 -19.276  1.00  0.00    -0.340 N 
HETATM   20  C3  UNL     1      22.609 -28.886 -18.657  1.00  0.00     0.198 C 
HETATM   21  N2  UNL     1      22.148 -29.459 -17.439  1.00  0.00    -0.067 NA
HETATM   22  N3  UNL     1      23.901 -29.202 -19.127  1.00  0.00    -0.067 NA
ATOM     23  H1  UNL     1      22.116 -27.672 -20.151  1.00  0.00     0.164 HD
ENDBRANCH  17  19
ENDBRANCH  16  17
ENDBRANCH  12  16
ENDBRANCH   1  12
BRANCH  11  24
HETATM   24  C10 UNL     1      16.555 -26.904 -16.406  1.00  0.00     0.080 C 
HETATM   25  N9  UNL     1      15.285 -26.777 -16.455  1.00  0.00    -0.409 N 
ATOM     26  H92 UNL     1      14.732 -27.513 -16.893  1.00  0.00     0.155 HD
ATOM     27  H91 UNL     1      14.837 -25.949 -16.061  1.00  0.00     0.155 HD
ENDBRANCH  11  24
TORSDOF 5
ENDMDL
