MODEL 1
REMARK VINA RESULT: -7.050949712      0.000      0.000
REMARK  13 active torsions:
REMARK  status: ('A' for Active; 'I' for Inactive)
REMARK    1  A    between atoms: N1_1  and  C1_4 
REMARK    2  A    between atoms: C2_10  and  N4_11 
REMARK    3  A    between atoms: N4_11  and  C3_12 
REMARK    4  A    between atoms: N4_11  and  C7_21 
REMARK    5  A    between atoms: C3_12  and  C4_13 
REMARK    6  A    between atoms: C4_13  and  N5_14 
REMARK    7  A    between atoms: N5_14  and  C5_17 
REMARK    8  A    between atoms: C5_17  and  C6_18 
REMARK    9  A    between atoms: C6_18  and  O2_19 
REMARK   10  A    between atoms: N8_30  and  C11_31 
REMARK   11  A    between atoms: C13_36  and  O5_37 
REMARK   12  A    between atoms: C17_43  and  O7_44 
REMARK   13  A    between atoms: C19_47  and  S1_48 
ROOT
HETATM    1  C7  UNL     1      32.725  -3.053   8.185  1.00  0.00     0.139 A 
HETATM    2  N6  UNL     1      33.131  -2.155   7.214  1.00  0.00    -0.306 N 
ATOM      3  H6  UNL     1      32.789  -2.277   6.260  1.00  0.00     0.170 HD
HETATM    4  C8  UNL     1      33.942  -1.146   7.472  1.00  0.00     0.276 A 
HETATM    5  O3  UNL     1      34.323  -0.318   6.587  1.00  0.00    -0.266 OA
HETATM    6  C9  UNL     1      34.390  -0.992   8.755  1.00  0.00     0.131 A 
HETATM    7  N7  UNL     1      35.189  -0.044   9.326  1.00  0.00    -0.346 N 
ATOM      8  H7  UNL     1      35.633   0.737   8.843  1.00  0.00     0.167 HD
HETATM    9  C10 UNL     1      35.286  -0.320  10.618  1.00  0.00     0.185 A 
HETATM   10  N8  UNL     1      34.548  -1.457  10.905  1.00  0.00    -0.322 N 
HETATM   11  C18 UNL     1      34.001  -1.877   9.761  1.00  0.00     0.097 A 
HETATM   12  C19 UNL     1      33.140  -2.961   9.491  1.00  0.00     0.154 A 
ENDROOT
BRANCH   1  13
HETATM   13  N4  UNL     1      31.825  -4.027   7.653  1.00  0.00    -0.312 N 
BRANCH  13  14
HETATM   14  C2  UNL     1      30.497  -4.022   8.132  1.00  0.00     0.177 A 
HETATM   15  C1  UNL     1      29.773  -5.174   8.487  1.00  0.00     0.167 A 
HETATM   16  N2  UNL     1      28.555  -4.783   8.907  1.00  0.00    -0.222 N 
HETATM   17  O1  UNL     1      28.532  -3.496   8.817  1.00  0.00    -0.153 OA
ATOM     18  H2  UNL     1      27.800  -5.385   9.232  1.00  0.00     0.198 HD
HETATM   19  N3  UNL     1      29.642  -3.042   8.372  1.00  0.00    -0.222 N 
ATOM     20  H3  UNL     1      29.841  -2.053   8.221  1.00  0.00     0.198 HD
BRANCH  15  21
HETATM   21  N1  UNL     1      30.122  -6.383   8.436  1.00  0.00    -0.381 N 
ATOM     22  H12 UNL     1      29.625  -7.183   8.046  1.00  0.00     0.157 HD
ATOM     23  H11 UNL     1      31.005  -6.722   8.821  1.00  0.00     0.157 HD
ENDBRANCH  15  21
ENDBRANCH  13  14
BRANCH  13  24
HETATM   24  C3  UNL     1      32.264  -4.883   6.595  1.00  0.00     0.160 C 
BRANCH  24  25
HETATM   25  C4  UNL     1      33.727  -5.325   6.740  1.00  0.00     0.252 C 
BRANCH  25  26
HETATM   26  N5  UNL     1      33.642  -6.637   7.374  1.00  0.00    -0.072 N 
ATOM     27  H52 UNL     1      32.949  -6.635   8.122  1.00  0.00     0.277 HD
ATOM     28  H51 UNL     1      33.208  -7.316   6.747  1.00  0.00     0.277 HD
BRANCH  26  29
HETATM   29  C5  UNL     1      34.907  -7.114   7.848  1.00  0.00     0.258 C 
BRANCH  29  30
HETATM   30  C6  UNL     1      35.850  -6.021   8.263  1.00  0.00     0.191 C 
BRANCH  30  31
HETATM   31  O2  UNL     1      35.682  -5.859   9.656  1.00  0.00    -0.399 OA
ATOM     32  H2  UNL     1      36.280  -6.470  10.071  1.00  0.00     0.209 HD
ENDBRANCH  30  31
ENDBRANCH  29  30
ENDBRANCH  26  29
ENDBRANCH  25  26
ENDBRANCH  24  25
ENDBRANCH  13  24
ENDBRANCH   1  13
BRANCH  12  33
HETATM   33  S1  UNL     1      32.724  -4.050  10.719  1.00  0.00     0.143 S 
HETATM   34  O8  UNL     1      33.914  -4.402  11.640  1.00  0.00    -0.591 OA
HETATM   35  O9  UNL     1      31.424  -4.014  11.364  1.00  0.00    -0.591 OA
HETATM   36  O10 UNL     1      32.692  -5.637  10.052  1.00  0.00    -0.591 OA
ENDBRANCH  12  33
BRANCH  10  37
HETATM   37  C11 UNL     1      34.452  -1.869  12.228  1.00  0.00     0.226 C 
HETATM   38  C12 UNL     1      35.683  -1.384  12.915  1.00  0.00     0.247 C 
HETATM   39  O4  UNL     1      36.812  -1.877  12.706  1.00  0.00    -0.271 OA
HETATM   40  N9  UNL     1      35.433  -0.333  13.805  1.00  0.00    -0.318 N 
HETATM   41  C13 UNL     1      34.024  -0.176  13.928  1.00  0.00     0.238 C 
ATOM     42  H9  UNL     1      36.141   0.226  14.283  1.00  0.00     0.166 HD
HETATM   43  C14 UNL     1      33.594  -0.745  15.224  1.00  0.00     0.207 C 
HETATM   44  C17 UNL     1      33.352  -0.957  12.878  1.00  0.00     0.163 C 
HETATM   45  O6  UNL     1      34.068  -0.484  16.338  1.00  0.00    -0.288 OA
HETATM   46  C15 UNL     1      32.518  -1.663  14.936  1.00  0.00     0.055 C 
HETATM   47  C16 UNL     1      32.379  -1.785  13.648  1.00  0.00     0.022 C 
BRANCH  41  48
HETATM   48  O5  UNL     1      33.615   1.161  13.889  1.00  0.00    -0.361 OA
ATOM     49  H5  UNL     1      32.967   1.333  13.216  1.00  0.00     0.213 HD
ENDBRANCH  41  48
BRANCH  44  50
HETATM   50  O7  UNL     1      32.663  -0.251  11.926  1.00  0.00    -0.378 OA
ATOM     51  H7  UNL     1      33.211   0.414  11.526  1.00  0.00     0.211 HD
ENDBRANCH  44  50
ENDBRANCH  10  37
TORSDOF 13
ENDMDL
MODEL 2
REMARK VINA RESULT: -6.984515564      1.286      2.800
REMARK  13 active torsions:
REMARK  status: ('A' for Active; 'I' for Inactive)
REMARK    1  A    between atoms: N1_1  and  C1_4 
REMARK    2  A    between atoms: C2_10  and  N4_11 
REMARK    3  A    between atoms: N4_11  and  C3_12 
REMARK    4  A    between atoms: N4_11  and  C7_21 
REMARK    5  A    between atoms: C3_12  and  C4_13 
REMARK    6  A    between atoms: C4_13  and  N5_14 
REMARK    7  A    between atoms: N5_14  and  C5_17 
REMARK    8  A    between atoms: C5_17  and  C6_18 
REMARK    9  A    between atoms: C6_18  and  O2_19 
REMARK   10  A    between atoms: N8_30  and  C11_31 
REMARK   11  A    between atoms: C13_36  and  O5_37 
REMARK   12  A    between atoms: C17_43  and  O7_44 
REMARK   13  A    between atoms: C19_47  and  S1_48 
ROOT
HETATM    1  C7  UNL     1      32.612  -3.137   8.231  1.00  0.00     0.139 A 
HETATM    2  N6  UNL     1      33.033  -2.263   7.244  1.00  0.00    -0.306 N 
ATOM      3  H6  UNL     1      32.688  -2.396   6.293  1.00  0.00     0.170 HD
HETATM    4  C8  UNL     1      33.862  -1.263   7.483  1.00  0.00     0.276 A 
HETATM    5  O3  UNL     1      34.255  -0.458   6.584  1.00  0.00    -0.266 OA
HETATM    6  C9  UNL     1      34.313  -1.095   8.764  1.00  0.00     0.131 A 
HETATM    7  N7  UNL     1      35.129  -0.151   9.317  1.00  0.00    -0.346 N 
ATOM      8  H7  UNL     1      35.585   0.614   8.820  1.00  0.00     0.167 HD
HETATM    9  C10 UNL     1      35.222  -0.406  10.614  1.00  0.00     0.185 A 
HETATM   10  N8  UNL     1      34.465  -1.525  10.921  1.00  0.00    -0.322 N 
HETATM   11  C18 UNL     1      33.910  -1.956   9.786  1.00  0.00     0.097 A 
HETATM   12  C19 UNL     1      33.030  -3.029   9.535  1.00  0.00     0.154 A 
ENDROOT
BRANCH   1  13
HETATM   13  N4  UNL     1      31.695  -4.104   7.716  1.00  0.00    -0.312 N 
BRANCH  13  14
HETATM   14  C2  UNL     1      32.231  -5.203   7.011  1.00  0.00     0.177 A 
HETATM   15  C1  UNL     1      32.157  -5.369   5.616  1.00  0.00     0.167 A 
HETATM   16  N2  UNL     1      32.783  -6.519   5.304  1.00  0.00    -0.222 N 
HETATM   17  O1  UNL     1      33.206  -7.020   6.414  1.00  0.00    -0.153 OA
ATOM     18  H2  UNL     1      32.898  -6.916   4.371  1.00  0.00     0.198 HD
HETATM   19  N3  UNL     1      32.896  -6.276   7.407  1.00  0.00    -0.222 N 
ATOM     20  H3  UNL     1      33.131  -6.482   8.378  1.00  0.00     0.198 HD
BRANCH  15  21
HETATM   21  N1  UNL     1      31.611  -4.631   4.754  1.00  0.00    -0.381 N 
ATOM     22  H12 UNL     1      31.785  -4.573   3.750  1.00  0.00     0.157 HD
ATOM     23  H11 UNL     1      30.888  -3.949   4.985  1.00  0.00     0.157 HD
ENDBRANCH  15  21
ENDBRANCH  13  14
BRANCH  13  24
HETATM   24  C3  UNL     1      30.303  -3.985   8.024  1.00  0.00     0.160 C 
BRANCH  24  25
HETATM   25  C4  UNL     1      29.569  -5.333   8.042  1.00  0.00     0.252 C 
BRANCH  25  26
HETATM   26  N5  UNL     1      29.576  -5.722   9.449  1.00  0.00    -0.072 N 
ATOM     27  H52 UNL     1      30.314  -5.234   9.958  1.00  0.00     0.277 HD
ATOM     28  H51 UNL     1      28.762  -5.347   9.935  1.00  0.00     0.277 HD
BRANCH  26  29
HETATM   29  C5  UNL     1      29.676  -7.139   9.637  1.00  0.00     0.258 C 
BRANCH  29  30
HETATM   30  C6  UNL     1      29.725  -7.558  11.079  1.00  0.00     0.191 C 
BRANCH  30  31
HETATM   31  O2  UNL     1      29.344  -6.426  11.835  1.00  0.00    -0.399 OA
ATOM     32  H2  UNL     1      30.052  -5.798  11.752  1.00  0.00     0.209 HD
ENDBRANCH  30  31
ENDBRANCH  29  30
ENDBRANCH  26  29
ENDBRANCH  25  26
ENDBRANCH  24  25
ENDBRANCH  13  24
ENDBRANCH   1  13
BRANCH  12  33
HETATM   33  S1  UNL     1      32.596  -4.089  10.781  1.00  0.00     0.143 S 
HETATM   34  O8  UNL     1      33.757  -4.371  11.763  1.00  0.00    -0.591 OA
HETATM   35  O9  UNL     1      31.269  -4.074  11.370  1.00  0.00    -0.591 OA
HETATM   36  O10 UNL     1      32.642  -5.698  10.170  1.00  0.00    -0.591 OA
ENDBRANCH  12  33
BRANCH  10  37
HETATM   37  C11 UNL     1      34.363  -1.912  12.251  1.00  0.00     0.226 C 
HETATM   38  C12 UNL     1      35.605  -1.440  12.928  1.00  0.00     0.247 C 
HETATM   39  O4  UNL     1      36.724  -1.960  12.726  1.00  0.00    -0.271 OA
HETATM   40  N9  UNL     1      35.378  -0.369  13.800  1.00  0.00    -0.318 N 
HETATM   41  C13 UNL     1      33.972  -0.182  13.922  1.00  0.00     0.238 C 
ATOM     42  H9  UNL     1      36.097   0.184  14.268  1.00  0.00     0.166 HD
HETATM   43  C14 UNL     1      33.533  -0.720  15.229  1.00  0.00     0.207 C 
HETATM   44  C17 UNL     1      33.283  -0.967  12.887  1.00  0.00     0.163 C 
HETATM   45  O6  UNL     1      34.014  -0.449  16.338  1.00  0.00    -0.288 OA
HETATM   46  C15 UNL     1      32.438  -1.621  14.958  1.00  0.00     0.055 C 
HETATM   47  C16 UNL     1      32.295  -1.762  13.672  1.00  0.00     0.022 C 
BRANCH  41  48
HETATM   48  O5  UNL     1      33.590   1.162  13.861  1.00  0.00    -0.361 OA
ATOM     49  H5  UNL     1      33.116   1.378  13.066  1.00  0.00     0.213 HD
ENDBRANCH  41  48
BRANCH  44  50
HETATM   50  O7  UNL     1      32.606  -0.265  11.924  1.00  0.00    -0.378 OA
ATOM     51  H7  UNL     1      32.056  -0.837  11.402  1.00  0.00     0.211 HD
ENDBRANCH  44  50
ENDBRANCH  10  37
TORSDOF 13
ENDMDL
MODEL 3
REMARK VINA RESULT: -6.983369659      2.553      7.626
REMARK  13 active torsions:
REMARK  status: ('A' for Active; 'I' for Inactive)
REMARK    1  A    between atoms: N1_1  and  C1_4 
REMARK    2  A    between atoms: C2_10  and  N4_11 
REMARK    3  A    between atoms: N4_11  and  C3_12 
REMARK    4  A    between atoms: N4_11  and  C7_21 
REMARK    5  A    between atoms: C3_12  and  C4_13 
REMARK    6  A    between atoms: C4_13  and  N5_14 
REMARK    7  A    between atoms: N5_14  and  C5_17 
REMARK    8  A    between atoms: C5_17  and  C6_18 
REMARK    9  A    between atoms: C6_18  and  O2_19 
REMARK   10  A    between atoms: N8_30  and  C11_31 
REMARK   11  A    between atoms: C13_36  and  O5_37 
REMARK   12  A    between atoms: C17_43  and  O7_44 
REMARK   13  A    between atoms: C19_47  and  S1_48 
ROOT
HETATM    1  C7  UNL     1      35.106  -2.615  12.943  1.00  0.00     0.139 A 
HETATM    2  N6  UNL     1      36.470  -2.688  12.718  1.00  0.00    -0.306 N 
ATOM      3  H6  UNL     1      37.101  -2.269  13.402  1.00  0.00     0.170 HD
HETATM    4  C8  UNL     1      36.987  -3.276  11.655  1.00  0.00     0.276 A 
HETATM    5  O3  UNL     1      38.236  -3.344  11.439  1.00  0.00    -0.266 OA
HETATM    6  C9  UNL     1      36.128  -3.835  10.749  1.00  0.00     0.131 A 
HETATM    7  N7  UNL     1      36.357  -4.531   9.597  1.00  0.00    -0.346 N 
ATOM      8  H7  UNL     1      37.271  -4.732   9.189  1.00  0.00     0.167 HD
HETATM    9  C10 UNL     1      35.184  -4.899   9.105  1.00  0.00     0.185 A 
HETATM   10  N8  UNL     1      34.172  -4.444   9.934  1.00  0.00    -0.322 N 
HETATM   11  C18 UNL     1      34.747  -3.783  10.942  1.00  0.00     0.097 A 
HETATM   12  C19 UNL     1      34.188  -3.150  12.072  1.00  0.00     0.154 A 
ENDROOT
BRANCH   1  13
HETATM   13  N4  UNL     1      34.814  -1.958  14.177  1.00  0.00    -0.312 N 
BRANCH  13  14
HETATM   14  C2  UNL     1      34.833  -0.547  14.187  1.00  0.00     0.177 A 
HETATM   15  C1  UNL     1      35.996   0.236  14.070  1.00  0.00     0.167 A 
HETATM   16  N2  UNL     1      35.628   1.530  14.108  1.00  0.00    -0.222 N 
HETATM   17  O1  UNL     1      34.345   1.544  14.238  1.00  0.00    -0.153 OA
ATOM     18  H2  UNL     1      36.243   2.341  14.046  1.00  0.00     0.198 HD
HETATM   19  N3  UNL     1      33.872   0.356  14.286  1.00  0.00    -0.222 N 
ATOM     20  H3  UNL     1      32.881   0.134  14.387  1.00  0.00     0.198 HD
BRANCH  15  21
HETATM   21  N1  UNL     1      37.196  -0.130  13.962  1.00  0.00    -0.381 N 
ATOM     22  H12 UNL     1      37.969   0.325  13.477  1.00  0.00     0.157 HD
ATOM     23  H11 UNL     1      37.550  -0.997  14.369  1.00  0.00     0.157 HD
ENDBRANCH  15  21
ENDBRANCH  13  14
BRANCH  13  24
HETATM   24  C3  UNL     1      34.412  -2.735  15.308  1.00  0.00     0.160 C 
BRANCH  24  25
HETATM   25  C4  UNL     1      33.834  -1.889  16.451  1.00  0.00     0.252 C 
BRANCH  25  26
HETATM   26  N5  UNL     1      32.397  -2.136  16.386  1.00  0.00    -0.072 N 
ATOM     27  H52 UNL     1      31.873  -1.266  16.479  1.00  0.00     0.277 HD
ATOM     28  H51 UNL     1      32.116  -2.400  15.442  1.00  0.00     0.277 HD
BRANCH  26  29
HETATM   29  C5  UNL     1      31.952  -3.106  17.342  1.00  0.00     0.258 C 
BRANCH  29  30
HETATM   30  C6  UNL     1      31.010  -4.130  16.775  1.00  0.00     0.191 C 
BRANCH  30  31
HETATM   31  O2  UNL     1      30.842  -3.802  15.411  1.00  0.00    -0.399 OA
ATOM     32  H2  UNL     1      29.950  -4.037  15.187  1.00  0.00     0.209 HD
ENDBRANCH  30  31
ENDBRANCH  29  30
ENDBRANCH  26  29
ENDBRANCH  25  26
ENDBRANCH  24  25
ENDBRANCH  13  24
ENDBRANCH   1  13
BRANCH  12  33
HETATM   33  S1  UNL     1      32.509  -3.057  12.258  1.00  0.00     0.143 S 
HETATM   34  O8  UNL     1      31.820  -2.270  11.119  1.00  0.00    -0.591 OA
HETATM   35  O9  UNL     1      31.739  -4.156  12.812  1.00  0.00    -0.591 OA
HETATM   36  O10 UNL     1      32.155  -1.824  13.406  1.00  0.00    -0.591 OA
ENDBRANCH  12  33
BRANCH  10  37
HETATM   37  C11 UNL     1      32.862  -4.797   9.637  1.00  0.00     0.226 C 
HETATM   38  C12 UNL     1      32.607  -4.348   8.238  1.00  0.00     0.247 C 
HETATM   39  O4  UNL     1      32.491  -3.143   7.926  1.00  0.00    -0.271 OA
HETATM   40  N9  UNL     1      32.512  -5.411   7.332  1.00  0.00    -0.318 N 
HETATM   41  C13 UNL     1      32.495  -6.628   8.071  1.00  0.00     0.238 C 
ATOM     42  H9  UNL     1      32.465  -5.328   6.316  1.00  0.00     0.166 HD
HETATM   43  C14 UNL     1      31.110  -7.149   8.095  1.00  0.00     0.207 C 
HETATM   44  C17 UNL     1      32.871  -6.358   9.467  1.00  0.00     0.163 C 
HETATM   45  O6  UNL     1      30.373  -7.329   7.116  1.00  0.00    -0.288 OA
HETATM   46  C15 UNL     1      30.789  -7.404   9.479  1.00  0.00     0.055 C 
HETATM   47  C16 UNL     1      31.752  -6.971  10.239  1.00  0.00     0.022 C 
BRANCH  41  48
HETATM   48  O5  UNL     1      33.316  -7.616   7.519  1.00  0.00    -0.361 OA
ATOM     49  H5  UNL     1      33.425  -8.370   8.087  1.00  0.00     0.213 HD
ENDBRANCH  41  48
BRANCH  44  50
HETATM   50  O7  UNL     1      34.050  -6.900   9.907  1.00  0.00    -0.378 OA
ATOM     51  H7  UNL     1      34.112  -6.867  10.854  1.00  0.00     0.211 HD
ENDBRANCH  44  50
ENDBRANCH  10  37
TORSDOF 13
ENDMDL
MODEL 4
REMARK VINA RESULT: -6.906353063      1.230      1.388
REMARK  13 active torsions:
REMARK  status: ('A' for Active; 'I' for Inactive)
REMARK    1  A    between atoms: N1_1  and  C1_4 
REMARK    2  A    between atoms: C2_10  and  N4_11 
REMARK    3  A    between atoms: N4_11  and  C3_12 
REMARK    4  A    between atoms: N4_11  and  C7_21 
REMARK    5  A    between atoms: C3_12  and  C4_13 
REMARK    6  A    between atoms: C4_13  and  N5_14 
REMARK    7  A    between atoms: N5_14  and  C5_17 
REMARK    8  A    between atoms: C5_17  and  C6_18 
REMARK    9  A    between atoms: C6_18  and  O2_19 
REMARK   10  A    between atoms: N8_30  and  C11_31 
REMARK   11  A    between atoms: C13_36  and  O5_37 
REMARK   12  A    between atoms: C17_43  and  O7_44 
REMARK   13  A    between atoms: C19_47  and  S1_48 
ROOT
HETATM    1  C7  UNL     1      33.044  -3.898   7.759  1.00  0.00     0.139 A 
HETATM    2  N6  UNL     1      33.073  -2.935   6.766  1.00  0.00    -0.306 N 
ATOM      3  H6  UNL     1      32.760  -3.189   5.829  1.00  0.00     0.170 HD
HETATM    4  C8  UNL     1      33.489  -1.701   6.982  1.00  0.00     0.276 A 
HETATM    5  O3  UNL     1      33.522  -0.811   6.076  1.00  0.00    -0.266 OA
HETATM    6  C9  UNL     1      33.903  -1.373   8.244  1.00  0.00     0.131 A 
HETATM    7  N7  UNL     1      34.341  -0.194   8.773  1.00  0.00    -0.346 N 
ATOM      8  H7  UNL     1      34.464   0.683   8.266  1.00  0.00     0.167 HD
HETATM    9  C10 UNL     1      34.577  -0.390  10.062  1.00  0.00     0.185 A 
HETATM   10  N8  UNL     1      34.296  -1.708  10.388  1.00  0.00    -0.322 N 
HETATM   11  C18 UNL     1      33.887  -2.317   9.272  1.00  0.00     0.097 A 
HETATM   12  C19 UNL     1      33.451  -3.639   9.046  1.00  0.00     0.154 A 
ENDROOT
BRANCH   1  13
HETATM   13  N4  UNL     1      32.523  -5.136   7.273  1.00  0.00    -0.312 N 
BRANCH  13  14
HETATM   14  C2  UNL     1      31.219  -5.499   7.672  1.00  0.00     0.177 A 
HETATM   15  C1  UNL     1      30.049  -5.177   6.961  1.00  0.00     0.167 A 
HETATM   16  N2  UNL     1      29.003  -5.694   7.632  1.00  0.00    -0.222 N 
HETATM   17  O1  UNL     1      29.489  -6.285   8.671  1.00  0.00    -0.153 OA
ATOM     18  H2  UNL     1      28.019  -5.631   7.371  1.00  0.00     0.198 HD
HETATM   19  N3  UNL     1      30.763  -6.181   8.709  1.00  0.00    -0.222 N 
ATOM     20  H3  UNL     1      31.351  -6.573   9.445  1.00  0.00     0.198 HD
BRANCH  15  21
HETATM   21  N1  UNL     1      29.919  -4.519   5.895  1.00  0.00    -0.381 N 
ATOM     22  H12 UNL     1      29.327  -4.709   5.087  1.00  0.00     0.157 HD
ATOM     23  H11 UNL     1      30.441  -3.663   5.705  1.00  0.00     0.157 HD
ENDBRANCH  15  21
ENDBRANCH  13  14
BRANCH  13  24
HETATM   24  C3  UNL     1      33.284  -5.894   6.329  1.00  0.00     0.160 C 
BRANCH  24  25
HETATM   25  C4  UNL     1      33.212  -7.409   6.570  1.00  0.00     0.252 C 
BRANCH  25  26
HETATM   26  N5  UNL     1      34.535  -7.749   7.085  1.00  0.00    -0.072 N 
ATOM     27  H52 UNL     1      34.562  -7.668   8.102  1.00  0.00     0.277 HD
ATOM     28  H51 UNL     1      34.716  -8.749   6.993  1.00  0.00     0.277 HD
BRANCH  26  29
HETATM   29  C5  UNL     1      35.585  -6.983   6.483  1.00  0.00     0.258 C 
BRANCH  29  30
HETATM   30  C6  UNL     1      36.783  -6.794   7.369  1.00  0.00     0.191 C 
BRANCH  30  31
HETATM   31  O2  UNL     1      36.327  -6.102   8.513  1.00  0.00    -0.399 OA
ATOM     32  H2  UNL     1      36.965  -6.266   9.197  1.00  0.00     0.209 HD
ENDBRANCH  30  31
ENDBRANCH  29  30
ENDBRANCH  26  29
ENDBRANCH  25  26
ENDBRANCH  24  25
ENDBRANCH  13  24
ENDBRANCH   1  13
BRANCH  12  33
HETATM   33  S1  UNL     1      33.489  -4.778  10.297  1.00  0.00     0.143 S 
HETATM   34  O8  UNL     1      34.848  -4.817  11.034  1.00  0.00    -0.591 OA
HETATM   35  O9  UNL     1      32.324  -5.050  11.120  1.00  0.00    -0.591 OA
HETATM   36  O10 UNL     1      33.748  -6.335   9.609  1.00  0.00    -0.591 OA
ENDBRANCH  12  33
BRANCH  10  37
HETATM   37  C11 UNL     1      34.400  -2.099  11.716  1.00  0.00     0.226 C 
HETATM   38  C12 UNL     1      35.546  -1.340  12.295  1.00  0.00     0.247 C 
HETATM   39  O4  UNL     1      36.735  -1.579  11.994  1.00  0.00    -0.271 OA
HETATM   40  N9  UNL     1      35.143  -0.348  13.197  1.00  0.00    -0.318 N 
HETATM   41  C13 UNL     1      33.748  -0.502  13.437  1.00  0.00     0.238 C 
ATOM     42  H9  UNL     1      35.746   0.363  13.611  1.00  0.00     0.166 HD
HETATM   43  C14 UNL     1      33.561  -1.120  14.768  1.00  0.00     0.207 C 
HETATM   44  C17 UNL     1      33.183  -1.435  12.452  1.00  0.00     0.163 C 
HETATM   45  O6  UNL     1      34.055  -0.735  15.837  1.00  0.00    -0.288 OA
HETATM   46  C15 UNL     1      32.694  -2.258  14.576  1.00  0.00     0.055 C 
HETATM   47  C16 UNL     1      32.482  -2.438  13.305  1.00  0.00     0.022 C 
BRANCH  41  48
HETATM   48  O5  UNL     1      33.054   0.712  13.426  1.00  0.00    -0.361 OA
ATOM     49  H5  UNL     1      32.208   0.661  13.858  1.00  0.00     0.213 HD
ENDBRANCH  41  48
BRANCH  44  50
HETATM   50  O7  UNL     1      32.280  -0.921  11.558  1.00  0.00    -0.378 OA
ATOM     51  H7  UNL     1      32.715  -0.412  10.883  1.00  0.00     0.211 HD
ENDBRANCH  44  50
ENDBRANCH  10  37
TORSDOF 13
ENDMDL
MODEL 5
REMARK VINA RESULT: -6.879102466      2.310      4.777
REMARK  13 active torsions:
REMARK  status: ('A' for Active; 'I' for Inactive)
REMARK    1  A    between atoms: N1_1  and  C1_4 
REMARK    2  A    between atoms: C2_10  and  N4_11 
REMARK    3  A    between atoms: N4_11  and  C3_12 
REMARK    4  A    between atoms: N4_11  and  C7_21 
REMARK    5  A    between atoms: C3_12  and  C4_13 
REMARK    6  A    between atoms: C4_13  and  N5_14 
REMARK    7  A    between atoms: N5_14  and  C5_17 
REMARK    8  A    between atoms: C5_17  and  C6_18 
REMARK    9  A    between atoms: C6_18  and  O2_19 
REMARK   10  A    between atoms: N8_30  and  C11_31 
REMARK   11  A    between atoms: C13_36  and  O5_37 
REMARK   12  A    between atoms: C17_43  and  O7_44 
REMARK   13  A    between atoms: C19_47  and  S1_48 
ROOT
HETATM    1  C7  UNL     1      32.520  -5.517   9.942  1.00  0.00     0.139 A 
HETATM    2  N6  UNL     1      31.803  -6.341  10.792  1.00  0.00    -0.306 N 
ATOM      3  H6  UNL     1      31.449  -7.227  10.431  1.00  0.00     0.170 HD
HETATM    4  C8  UNL     1      31.561  -6.028  12.052  1.00  0.00     0.276 A 
HETATM    5  O3  UNL     1      30.902  -6.776  12.838  1.00  0.00    -0.266 OA
HETATM    6  C9  UNL     1      32.045  -4.839  12.523  1.00  0.00     0.131 A 
HETATM    7  N7  UNL     1      31.992  -4.269  13.762  1.00  0.00    -0.346 N 
ATOM      8  H7  UNL     1      31.523  -4.657  14.582  1.00  0.00     0.167 HD
HETATM    9  C10 UNL     1      32.657  -3.124  13.712  1.00  0.00     0.185 A 
HETATM   10  N8  UNL     1      33.152  -2.934  12.432  1.00  0.00    -0.322 N 
HETATM   11  C18 UNL     1      32.773  -3.982  11.696  1.00  0.00     0.097 A 
HETATM   12  C19 UNL     1      33.030  -4.307  10.348  1.00  0.00     0.154 A 
ENDROOT
BRANCH   1  13
HETATM   13  N4  UNL     1      32.668  -6.102   8.647  1.00  0.00    -0.312 N 
BRANCH  13  14
HETATM   14  C2  UNL     1      33.955  -6.544   8.272  1.00  0.00     0.177 A 
HETATM   15  C1  UNL     1      34.527  -7.766   8.671  1.00  0.00     0.167 A 
HETATM   16  N2  UNL     1      35.749  -7.850   8.115  1.00  0.00    -0.222 N 
HETATM   17  O1  UNL     1      35.917  -6.769   7.431  1.00  0.00    -0.153 OA
ATOM     18  H2  UNL     1      36.413  -8.617   8.215  1.00  0.00     0.198 HD
HETATM   19  N3  UNL     1      34.894  -6.006   7.511  1.00  0.00    -0.222 N 
ATOM     20  H3  UNL     1      34.812  -5.101   7.049  1.00  0.00     0.198 HD
BRANCH  15  21
HETATM   21  N1  UNL     1      34.053  -8.661   9.420  1.00  0.00    -0.381 N 
ATOM     22  H12 UNL     1      33.888  -9.647   9.222  1.00  0.00     0.157 HD
ATOM     23  H11 UNL     1      33.748  -8.479  10.377  1.00  0.00     0.157 HD
ENDBRANCH  15  21
ENDBRANCH  13  14
BRANCH  13  24
HETATM   24  C3  UNL     1      31.508  -6.317   7.838  1.00  0.00     0.160 C 
BRANCH  24  25
HETATM   25  C4  UNL     1      30.372  -5.328   8.133  1.00  0.00     0.252 C 
BRANCH  25  26
HETATM   26  N5  UNL     1      30.631  -4.209   7.232  1.00  0.00    -0.072 N 
ATOM     27  H52 UNL     1      31.605  -4.202   6.931  1.00  0.00     0.277 HD
ATOM     28  H51 UNL     1      30.179  -4.358   6.329  1.00  0.00     0.277 HD
BRANCH  26  29
HETATM   29  C5  UNL     1      30.257  -2.943   7.788  1.00  0.00     0.258 C 
BRANCH  29  30
HETATM   30  C6  UNL     1      29.784  -3.021   9.212  1.00  0.00     0.191 C 
BRANCH  30  31
HETATM   31  O2  UNL     1      30.475  -2.009   9.916  1.00  0.00    -0.399 OA
ATOM     32  H2  UNL     1      30.285  -2.147  10.836  1.00  0.00     0.209 HD
ENDBRANCH  30  31
ENDBRANCH  29  30
ENDBRANCH  26  29
ENDBRANCH  25  26
ENDBRANCH  24  25
ENDBRANCH  13  24
ENDBRANCH   1  13
BRANCH  12  33
HETATM   33  S1  UNL     1      33.872  -3.228   9.352  1.00  0.00     0.143 S 
HETATM   34  O8  UNL     1      33.222  -1.826   9.300  1.00  0.00    -0.591 OA
HETATM   35  O9  UNL     1      35.320  -3.250   9.253  1.00  0.00    -0.591 OA
HETATM   36  O10 UNL     1      33.447  -3.552   7.716  1.00  0.00    -0.591 OA
ENDBRANCH  12  33
BRANCH  10  37
HETATM   37  C11 UNL     1      33.954  -1.826  12.190  1.00  0.00     0.226 C 
HETATM   38  C12 UNL     1      33.177  -0.633  12.634  1.00  0.00     0.247 C 
HETATM   39  O4  UNL     1      32.177  -0.209  12.015  1.00  0.00    -0.271 OA
HETATM   40  N9  UNL     1      33.687  -0.053  13.801  1.00  0.00    -0.318 N 
HETATM   41  C13 UNL     1      34.931  -0.676  14.103  1.00  0.00     0.238 C 
ATOM     42  H9  UNL     1      33.243   0.689  14.343  1.00  0.00     0.166 HD
HETATM   43  C14 UNL     1      36.026   0.247  13.733  1.00  0.00     0.207 C 
HETATM   44  C17 UNL     1      35.090  -1.878  13.271  1.00  0.00     0.163 C 
HETATM   45  O6  UNL     1      36.141   1.432  14.078  1.00  0.00    -0.288 OA
HETATM   46  C15 UNL     1      36.931  -0.501  12.893  1.00  0.00     0.055 C 
HETATM   47  C16 UNL     1      36.423  -1.670  12.635  1.00  0.00     0.022 C 
BRANCH  41  48
HETATM   48  O5  UNL     1      35.073  -0.989  15.458  1.00  0.00    -0.361 OA
ATOM     49  H5  UNL     1      35.924  -0.752  15.809  1.00  0.00     0.213 HD
ENDBRANCH  41  48
BRANCH  44  50
HETATM   50  O7  UNL     1      35.104  -3.084  13.921  1.00  0.00    -0.378 OA
ATOM     51  H7  UNL     1      34.682  -3.760  13.404  1.00  0.00     0.211 HD
ENDBRANCH  44  50
ENDBRANCH  10  37
TORSDOF 13
ENDMDL
