MODEL 1
REMARK VINA RESULT: -9.710578665      0.000      0.000
REMARK  14 active torsions:
REMARK  status: ('A' for Active; 'I' for Inactive)
REMARK    1  A    between atoms: C2_2  and  O2_4 
REMARK    2  A    between atoms: O2_4  and  C3_5 
REMARK    3  A    between atoms: C3_5  and  C4_6 
REMARK    4  A    between atoms: C5_7  and  C6_8 
REMARK    5  A    between atoms: C7_12  and  N2_13 
REMARK       I    between atoms: C8_15  and  N4_17 
REMARK    6  A    between atoms: N4_17  and  N5_19 
REMARK    7  A    between atoms: C10_26  and  N8_27 
REMARK       I    between atoms: N8_27  and  C11_29 
REMARK    8  A    between atoms: C11_29  and  C12_31 
REMARK    9  A    between atoms: C12_31  and  N9_32 
REMARK   10  A    between atoms: C12_31  and  C13_36 
REMARK   11  A    between atoms: C13_36  and  C14_37 
REMARK   12  A    between atoms: C14_37  and  O6_38 
REMARK   13  A    between atoms: C14_37  and  C16_42 
REMARK   14  A    between atoms: O6_38  and  C15_39 
ROOT
HETATM    1  C4  UNL     1      32.343  -3.870  13.369  1.00  0.00    -0.019 C 
HETATM    2  C5  UNL     1      32.926  -2.678  13.402  1.00  0.00     0.134 C 
HETATM    3  N1  UNL     1      33.209  -2.114  14.723  1.00  0.00    -0.152 N 
HETATM    4  C7  UNL     1      34.250  -1.388  15.299  1.00  0.00     0.701 C 
HETATM    5  N6  UNL     1      33.935  -1.132  16.524  1.00  0.00    -0.134 N 
ATOM      6  H6  UNL     1      34.529  -0.610  17.168  1.00  0.00     0.201 HD
HETATM    7  N7  UNL     1      32.688  -1.653  16.862  1.00  0.00    -0.097 NA
HETATM    8  C9  UNL     1      32.198  -2.401  15.756  1.00  0.00     0.245 C 
HETATM    9  C10 UNL     1      32.273  -3.900  15.905  1.00  0.00     0.130 C 
HETATM   10  C18 UNL     1      31.887  -4.536  14.624  1.00  0.00     0.067 C 
ENDROOT
BRANCH   9  11
HETATM   11  N8  UNL     1      31.457  -4.418  16.962  1.00  0.00    -0.351 N 
HETATM   12  C11 UNL     1      31.571  -5.738  17.477  1.00  0.00     0.248 C 
HETATM   13  O5  UNL     1      32.441  -6.478  16.947  1.00  0.00    -0.271 OA
ATOM     14  H8  UNL     1      30.754  -3.803  17.370  1.00  0.00     0.163 HD
BRANCH  12  15
HETATM   15  C12 UNL     1      30.727  -6.263  18.582  1.00  0.00     0.277 C 
BRANCH  15  16
HETATM   16  N9  UNL     1      30.114  -7.520  18.303  1.00  0.00    -0.066 N 
ATOM     17  H93 UNL     1      30.417  -7.872  17.394  1.00  0.00     0.275 HD
ATOM     18  H92 UNL     1      30.498  -8.246  18.908  1.00  0.00     0.275 HD
ATOM     19  H91 UNL     1      29.096  -7.511  18.359  1.00  0.00     0.275 HD
ENDBRANCH  15  16
BRANCH  15  20
HETATM   20  C13 UNL     1      29.717  -5.283  19.062  1.00  0.00     0.082 C 
BRANCH  20  21
HETATM   21  C14 UNL     1      29.454  -5.265  20.522  1.00  0.00     0.194 C 
BRANCH  21  22
HETATM   22  O6  UNL     1      30.043  -6.239  21.300  1.00  0.00    -0.294 OA
BRANCH  22  23
HETATM   23  C15 UNL     1      29.424  -7.343  21.858  1.00  0.00     0.373 C 
HETATM   24  N10 UNL     1      28.892  -8.408  21.092  1.00  0.00    -0.032 NA
HETATM   25  O7  UNL     1      29.337  -7.397  23.097  1.00  0.00    -0.242 OA
ENDBRANCH  22  23
ENDBRANCH  21  22
BRANCH  21  26
HETATM   26  C16 UNL     1      27.962  -5.147  20.709  1.00  0.00     0.099 A 
HETATM   27  N11 UNL     1      27.013  -5.863  20.105  1.00  0.00    -0.293 N 
HETATM   28  N12 UNL     1      25.792  -5.641  20.364  1.00  0.00    -0.279 N 
ATOM     29  H11 UNL     1      27.270  -6.588  19.435  1.00  0.00     0.187 HD
HETATM   30  C17 UNL     1      25.477  -4.687  21.246  1.00  0.00     0.158 A 
ATOM     31  H12 UNL     1      25.060  -6.184  19.906  1.00  0.00     0.189 HD
HETATM   32  N13 UNL     1      24.284  -4.309  21.643  1.00  0.00    -0.379 N 
HETATM   33  S1  UNL     1      27.024  -4.112  21.694  1.00  0.00    -0.036 SA
ATOM     34 2H13 UNL     1      23.361  -4.651  21.376  1.00  0.00     0.158 HD
ATOM     35 1H13 UNL     1      24.044  -3.580  22.316  1.00  0.00     0.158 HD
ENDBRANCH  21  26
ENDBRANCH  20  21
ENDBRANCH  15  20
ENDBRANCH  12  15
ENDBRANCH   9  11
BRANCH   1  36
HETATM   36  C3  UNL     1      32.075  -4.594  12.128  1.00  0.00     0.215 C 
BRANCH  36  37
HETATM   37  O2  UNL     1      31.047  -5.583  12.319  1.00  0.00    -0.317 OA
BRANCH  37  38
HETATM   38  C2  UNL     1      31.299  -6.888  11.951  1.00  0.00     0.255 C 
HETATM   39  C1  UNL     1      32.027  -7.268  10.709  1.00  0.00     0.126 C 
HETATM   40  O1  UNL     1      30.903  -7.847  12.684  1.00  0.00    -0.266 OA
ENDBRANCH  37  38
ENDBRANCH  36  37
ENDBRANCH   1  36
BRANCH   2  41
HETATM   41  C6  UNL     1      33.364  -1.940  12.253  1.00  0.00     0.228 C 
HETATM   42  O3  UNL     1      32.700  -1.080  11.603  1.00  0.00    -0.643 OA
HETATM   43  O4  UNL     1      34.663  -2.142  11.750  1.00  0.00    -0.643 OA
ENDBRANCH   2  41
BRANCH   4  44
HETATM   44  N2  UNL     1      35.465  -1.037  14.627  1.00  0.00    -0.161 N 
HETATM   45  C8  UNL     1      35.589   0.158  14.161  1.00  0.00     0.221 C 
HETATM   46  N3  UNL     1      34.572   1.137  14.289  1.00  0.00    -0.061 NA
HETATM   47  N4  UNL     1      36.805   0.448  13.503  1.00  0.00    -0.280 N 
ATOM     48  H4  UNL     1      37.449   1.135  13.896  1.00  0.00     0.189 HD
ATOM     49  H2  UNL     1      36.216  -1.718  14.519  1.00  0.00     0.187 HD
BRANCH  47  50
HETATM   50  N5  UNL     1      37.120  -0.202  12.324  1.00  0.00    -0.343 N 
ATOM     51  H52 UNL     1      36.791   0.186  11.439  1.00  0.00     0.176 HD
ATOM     52  H51 UNL     1      37.674  -1.058  12.351  1.00  0.00     0.176 HD
ENDBRANCH  47  50
ENDBRANCH   4  44
TORSDOF 14
ENDMDL
MODEL 2
REMARK VINA RESULT: -9.570780170      1.460      1.500
REMARK  14 active torsions:
REMARK  status: ('A' for Active; 'I' for Inactive)
REMARK    1  A    between atoms: C2_2  and  O2_4 
REMARK    2  A    between atoms: O2_4  and  C3_5 
REMARK    3  A    between atoms: C3_5  and  C4_6 
REMARK    4  A    between atoms: C5_7  and  C6_8 
REMARK    5  A    between atoms: C7_12  and  N2_13 
REMARK       I    between atoms: C8_15  and  N4_17 
REMARK    6  A    between atoms: N4_17  and  N5_19 
REMARK    7  A    between atoms: C10_26  and  N8_27 
REMARK       I    between atoms: N8_27  and  C11_29 
REMARK    8  A    between atoms: C11_29  and  C12_31 
REMARK    9  A    between atoms: C12_31  and  N9_32 
REMARK   10  A    between atoms: C12_31  and  C13_36 
REMARK   11  A    between atoms: C13_36  and  C14_37 
REMARK   12  A    between atoms: C14_37  and  O6_38 
REMARK   13  A    between atoms: C14_37  and  C16_42 
REMARK   14  A    between atoms: O6_38  and  C15_39 
ROOT
HETATM    1  C4  UNL     1      32.190  -4.009  13.463  1.00  0.00    -0.019 C 
HETATM    2  C5  UNL     1      32.724  -2.795  13.518  1.00  0.00     0.134 C 
HETATM    3  N1  UNL     1      32.932  -2.221  14.849  1.00  0.00    -0.152 N 
HETATM    4  C7  UNL     1      33.919  -1.455  15.464  1.00  0.00     0.701 C 
HETATM    5  N6  UNL     1      33.546  -1.212  16.676  1.00  0.00    -0.134 N 
ATOM      6  H6  UNL     1      34.092  -0.666  17.342  1.00  0.00     0.201 HD
HETATM    7  N7  UNL     1      32.308  -1.781  16.965  1.00  0.00    -0.097 NA
HETATM    8  C9  UNL     1      31.892  -2.547  15.841  1.00  0.00     0.245 C 
HETATM    9  C10 UNL     1      32.020  -4.043  15.995  1.00  0.00     0.130 C 
HETATM   10  C18 UNL     1      31.710  -4.693  14.701  1.00  0.00     0.067 C 
ENDROOT
BRANCH   9  11
HETATM   11  N8  UNL     1      31.184  -4.592  17.019  1.00  0.00    -0.351 N 
HETATM   12  C11 UNL     1      31.352  -5.893  17.567  1.00  0.00     0.248 C 
HETATM   13  O5  UNL     1      32.294  -6.586  17.098  1.00  0.00    -0.271 OA
ATOM     14  H8  UNL     1      30.423  -4.016  17.378  1.00  0.00     0.163 HD
BRANCH  12  15
HETATM   15  C12 UNL     1      30.487  -6.451  18.638  1.00  0.00     0.277 C 
BRANCH  15  16
HETATM   16  N9  UNL     1      30.037  -7.782  18.393  1.00  0.00    -0.066 N 
ATOM     17  H93 UNL     1      29.862  -7.922  17.397  1.00  0.00     0.275 HD
ATOM     18  H92 UNL     1      30.798  -8.447  18.531  1.00  0.00     0.275 HD
ATOM     19  H91 UNL     1      29.220  -8.055  18.939  1.00  0.00     0.275 HD
ENDBRANCH  15  16
BRANCH  15  20
HETATM   20  C13 UNL     1      29.341  -5.568  18.984  1.00  0.00     0.082 C 
BRANCH  20  21
HETATM   21  C14 UNL     1      28.942  -5.531  20.412  1.00  0.00     0.194 C 
BRANCH  21  22
HETATM   22  O6  UNL     1      28.235  -6.601  20.917  1.00  0.00    -0.294 OA
BRANCH  22  23
HETATM   23  C15 UNL     1      28.737  -7.649  21.667  1.00  0.00     0.373 C 
HETATM   24  N10 UNL     1      29.423  -7.472  22.892  1.00  0.00    -0.032 NA
HETATM   25  O7  UNL     1      28.573  -8.804  21.237  1.00  0.00    -0.242 OA
ENDBRANCH  22  23
ENDBRANCH  21  22
BRANCH  21  26
HETATM   26  C16 UNL     1      28.294  -4.192  20.663  1.00  0.00     0.099 A 
HETATM   27  N11 UNL     1      27.253  -3.934  21.455  1.00  0.00    -0.293 N 
HETATM   28  N12 UNL     1      26.815  -2.749  21.560  1.00  0.00    -0.279 N 
ATOM     29  H11 UNL     1      26.808  -4.691  21.975  1.00  0.00     0.187 HD
HETATM   30  C17 UNL     1      27.412  -1.772  20.870  1.00  0.00     0.158 A 
ATOM     31  H12 UNL     1      26.018  -2.544  22.163  1.00  0.00     0.189 HD
HETATM   32  N13 UNL     1      27.111  -0.495  20.843  1.00  0.00    -0.379 N 
HETATM   33  S1  UNL     1      28.643  -2.634  20.053  1.00  0.00    -0.036 SA
ATOM     34 2H13 UNL     1      26.377   0.020  21.330  1.00  0.00     0.158 HD
ATOM     35 1H13 UNL     1      27.567   0.251  20.316  1.00  0.00     0.158 HD
ENDBRANCH  21  26
ENDBRANCH  20  21
ENDBRANCH  15  20
ENDBRANCH  12  15
ENDBRANCH   9  11
BRANCH   1  36
HETATM   36  C3  UNL     1      32.000  -4.743  12.214  1.00  0.00     0.215 C 
BRANCH  36  37
HETATM   37  O2  UNL     1      31.219  -5.933  12.428  1.00  0.00    -0.317 OA
BRANCH  37  38
HETATM   38  C2  UNL     1      30.437  -6.413  11.398  1.00  0.00     0.255 C 
HETATM   39  C1  UNL     1      30.990  -7.027  10.160  1.00  0.00     0.126 C 
HETATM   40  O1  UNL     1      29.170  -6.342  11.471  1.00  0.00    -0.266 OA
ENDBRANCH  37  38
ENDBRANCH  36  37
ENDBRANCH   1  36
BRANCH   2  41
HETATM   41  C6  UNL     1      33.177  -2.041  12.387  1.00  0.00     0.228 C 
HETATM   42  O3  UNL     1      32.498  -1.228  11.692  1.00  0.00    -0.643 OA
HETATM   43  O4  UNL     1      34.512  -2.165  11.956  1.00  0.00    -0.643 OA
ENDBRANCH   2  41
BRANCH   4  44
HETATM   44  N2  UNL     1      35.145  -1.056  14.841  1.00  0.00    -0.161 N 
HETATM   45  C8  UNL     1      35.240   0.143  14.379  1.00  0.00     0.221 C 
HETATM   46  N3  UNL     1      34.182   1.081  14.465  1.00  0.00    -0.061 NA
HETATM   47  N4  UNL     1      36.470   0.481  13.769  1.00  0.00    -0.280 N 
ATOM     48  H4  UNL     1      37.070   1.192  14.187  1.00  0.00     0.189 HD
ATOM     49  H2  UNL     1      35.926  -1.707  14.764  1.00  0.00     0.187 HD
BRANCH  47  50
HETATM   50  N5  UNL     1      36.856  -0.156  12.604  1.00  0.00    -0.343 N 
ATOM     51  H52 UNL     1      37.120  -1.141  12.640  1.00  0.00     0.176 HD
ATOM     52  H51 UNL     1      36.873   0.362  11.726  1.00  0.00     0.176 HD
ENDBRANCH  47  50
ENDBRANCH   4  44
TORSDOF 14
ENDMDL
MODEL 3
REMARK VINA RESULT: -9.567631300      3.587      9.832
REMARK  14 active torsions:
REMARK  status: ('A' for Active; 'I' for Inactive)
REMARK    1  A    between atoms: C2_2  and  O2_4 
REMARK    2  A    between atoms: O2_4  and  C3_5 
REMARK    3  A    between atoms: C3_5  and  C4_6 
REMARK    4  A    between atoms: C5_7  and  C6_8 
REMARK    5  A    between atoms: C7_12  and  N2_13 
REMARK       I    between atoms: C8_15  and  N4_17 
REMARK    6  A    between atoms: N4_17  and  N5_19 
REMARK    7  A    between atoms: C10_26  and  N8_27 
REMARK       I    between atoms: N8_27  and  C11_29 
REMARK    8  A    between atoms: C11_29  and  C12_31 
REMARK    9  A    between atoms: C12_31  and  N9_32 
REMARK   10  A    between atoms: C12_31  and  C13_36 
REMARK   11  A    between atoms: C13_36  and  C14_37 
REMARK   12  A    between atoms: C14_37  and  O6_38 
REMARK   13  A    between atoms: C14_37  and  C16_42 
REMARK   14  A    between atoms: O6_38  and  C15_39 
ROOT
HETATM    1  C4  UNL     1      30.476  -7.475  19.009  1.00  0.00    -0.019 C 
HETATM    2  C5  UNL     1      29.991  -6.686  19.960  1.00  0.00     0.134 C 
HETATM    3  N1  UNL     1      30.039  -5.243  19.714  1.00  0.00    -0.152 N 
HETATM    4  C7  UNL     1      29.196  -4.160  19.954  1.00  0.00     0.701 C 
HETATM    5  N6  UNL     1      29.786  -3.090  19.538  1.00  0.00    -0.134 N 
ATOM      6  H6  UNL     1      29.381  -2.155  19.598  1.00  0.00     0.201 HD
HETATM    7  N7  UNL     1      31.041  -3.361  18.997  1.00  0.00    -0.097 NA
HETATM    8  C9  UNL     1      31.230  -4.770  18.987  1.00  0.00     0.245 C 
HETATM    9  C10 UNL     1      31.094  -5.431  17.637  1.00  0.00     0.130 C 
HETATM   10  C18 UNL     1      31.151  -6.902  17.807  1.00  0.00     0.067 C 
ENDROOT
BRANCH   9  11
HETATM   11  N8  UNL     1      32.085  -5.020  16.689  1.00  0.00    -0.351 N 
HETATM   12  C11 UNL     1      31.868  -4.026  15.697  1.00  0.00     0.248 C 
HETATM   13  O5  UNL     1      30.723  -3.499  15.666  1.00  0.00    -0.271 OA
ATOM     14  H8  UNL     1      33.001  -5.466  16.728  1.00  0.00     0.163 HD
BRANCH  12  15
HETATM   15  C12 UNL     1      32.905  -3.597  14.724  1.00  0.00     0.277 C 
BRANCH  15  16
HETATM   16  N9  UNL     1      34.015  -2.920  15.312  1.00  0.00    -0.066 N 
ATOM     17  H93 UNL     1      34.295  -2.126  14.735  1.00  0.00     0.275 HD
ATOM     18  H92 UNL     1      33.725  -2.428  16.157  1.00  0.00     0.275 HD
ATOM     19  H91 UNL     1      34.816  -3.520  15.505  1.00  0.00     0.275 HD
ENDBRANCH  15  16
BRANCH  15  20
HETATM   20  C13 UNL     1      32.354  -2.809  13.589  1.00  0.00     0.082 C 
BRANCH  20  21
HETATM   21  C14 UNL     1      33.120  -1.605  13.186  1.00  0.00     0.194 C 
BRANCH  21  22
HETATM   22  O6  UNL     1      32.784  -0.398  13.759  1.00  0.00    -0.294 OA
BRANCH  22  23
HETATM   23  C15 UNL     1      33.543   0.337  14.653  1.00  0.00     0.373 C 
HETATM   24  N10 UNL     1      33.457   0.183  16.058  1.00  0.00    -0.032 NA
HETATM   25  O7  UNL     1      34.339   1.172  14.192  1.00  0.00    -0.242 OA
ENDBRANCH  22  23
ENDBRANCH  21  22
BRANCH  21  26
HETATM   26  C16 UNL     1      33.158  -1.581  11.677  1.00  0.00     0.099 A 
HETATM   27  N11 UNL     1      32.161  -1.870  10.840  1.00  0.00    -0.293 N 
HETATM   28  N12 UNL     1      32.348  -1.809   9.588  1.00  0.00    -0.279 N 
ATOM     29  H11 UNL     1      31.249  -2.141  11.208  1.00  0.00     0.187 HD
HETATM   30  C17 UNL     1      33.552  -1.452   9.127  1.00  0.00     0.158 A 
ATOM     31  H12 UNL     1      31.592  -2.030   8.941  1.00  0.00     0.189 HD
HETATM   32  N13 UNL     1      33.942  -1.333   7.880  1.00  0.00    -0.379 N 
HETATM   33  S1  UNL     1      34.414  -1.204  10.583  1.00  0.00    -0.036 SA
ATOM     34 2H13 UNL     1      33.428  -1.481   7.011  1.00  0.00     0.158 HD
ATOM     35 1H13 UNL     1      34.860  -1.060   7.528  1.00  0.00     0.158 HD
ENDBRANCH  21  26
ENDBRANCH  20  21
ENDBRANCH  15  20
ENDBRANCH  12  15
ENDBRANCH   9  11
BRANCH   1  36
HETATM   36  C3  UNL     1      30.422  -8.934  19.076  1.00  0.00     0.215 C 
BRANCH  36  37
HETATM   37  O2  UNL     1      31.623  -9.469  19.662  1.00  0.00    -0.317 OA
BRANCH  37  38
HETATM   38  C2  UNL     1      31.842 -10.829  19.609  1.00  0.00     0.255 C 
HETATM   39  C1  UNL     1      32.998 -11.505  20.260  1.00  0.00     0.126 C 
HETATM   40  O1  UNL     1      31.036 -11.582  18.977  1.00  0.00    -0.266 OA
ENDBRANCH  37  38
ENDBRANCH  36  37
ENDBRANCH   1  36
BRANCH   2  41
HETATM   41  C6  UNL     1      29.363  -7.137  21.167  1.00  0.00     0.228 C 
HETATM   42  O3  UNL     1      29.938  -7.505  22.234  1.00  0.00    -0.643 OA
HETATM   43  O4  UNL     1      27.958  -7.194  21.241  1.00  0.00    -0.643 OA
ENDBRANCH   2  41
BRANCH   4  44
HETATM   44  N2  UNL     1      27.890  -4.258  20.531  1.00  0.00    -0.161 N 
HETATM   45  C8  UNL     1      27.507  -3.342  21.352  1.00  0.00     0.221 C 
HETATM   46  N3  UNL     1      28.327  -2.241  21.705  1.00  0.00    -0.061 NA
HETATM   47  N4  UNL     1      26.211  -3.492  21.896  1.00  0.00    -0.280 N 
ATOM     48  H4  UNL     1      25.481  -2.815  21.673  1.00  0.00     0.189 HD
ATOM     49  H2  UNL     1      27.274  -5.038  20.297  1.00  0.00     0.187 HD
BRANCH  47  50
HETATM   50  N5  UNL     1      25.936  -4.560  22.730  1.00  0.00    -0.343 N 
ATOM     51  H52 UNL     1      26.710  -5.057  23.173  1.00  0.00     0.176 HD
ATOM     52  H51 UNL     1      24.969  -4.839  22.893  1.00  0.00     0.176 HD
ENDBRANCH  47  50
ENDBRANCH   4  44
TORSDOF 14
ENDMDL
MODEL 4
REMARK VINA RESULT: -9.561575140      1.538      2.091
REMARK  14 active torsions:
REMARK  status: ('A' for Active; 'I' for Inactive)
REMARK    1  A    between atoms: C2_2  and  O2_4 
REMARK    2  A    between atoms: O2_4  and  C3_5 
REMARK    3  A    between atoms: C3_5  and  C4_6 
REMARK    4  A    between atoms: C5_7  and  C6_8 
REMARK    5  A    between atoms: C7_12  and  N2_13 
REMARK       I    between atoms: C8_15  and  N4_17 
REMARK    6  A    between atoms: N4_17  and  N5_19 
REMARK    7  A    between atoms: C10_26  and  N8_27 
REMARK       I    between atoms: N8_27  and  C11_29 
REMARK    8  A    between atoms: C11_29  and  C12_31 
REMARK    9  A    between atoms: C12_31  and  N9_32 
REMARK   10  A    between atoms: C12_31  and  C13_36 
REMARK   11  A    between atoms: C13_36  and  C14_37 
REMARK   12  A    between atoms: C14_37  and  O6_38 
REMARK   13  A    between atoms: C14_37  and  C16_42 
REMARK   14  A    between atoms: O6_38  and  C15_39 
ROOT
HETATM    1  C4  UNL     1      32.203  -3.929  13.588  1.00  0.00    -0.019 C 
HETATM    2  C5  UNL     1      32.834  -2.775  13.405  1.00  0.00     0.134 C 
HETATM    3  N1  UNL     1      33.046  -1.940  14.589  1.00  0.00    -0.152 N 
HETATM    4  C7  UNL     1      34.072  -1.132  15.073  1.00  0.00     0.701 C 
HETATM    5  N6  UNL     1      33.681  -0.602  16.183  1.00  0.00    -0.134 N 
ATOM      6  H6  UNL     1      34.250   0.034  16.742  1.00  0.00     0.201 HD
HETATM    7  N7  UNL     1      32.392  -1.002  16.527  1.00  0.00    -0.097 NA
HETATM    8  C9  UNL     1      31.951  -1.963  15.576  1.00  0.00     0.245 C 
HETATM    9  C10 UNL     1      31.950  -3.394  16.055  1.00  0.00     0.130 C 
HETATM   10  C18 UNL     1      31.629  -4.288  14.919  1.00  0.00     0.067 C 
ENDROOT
BRANCH   9  11
HETATM   11  N8  UNL     1      31.039  -3.642  17.132  1.00  0.00    -0.351 N 
HETATM   12  C11 UNL     1      31.310  -3.321  18.490  1.00  0.00     0.248 C 
HETATM   13  O5  UNL     1      32.429  -2.796  18.733  1.00  0.00    -0.271 OA
ATOM     14  H8  UNL     1      30.142  -4.075  16.911  1.00  0.00     0.163 HD
BRANCH  12  15
HETATM   15  C12 UNL     1      30.354  -3.572  19.599  1.00  0.00     0.277 C 
BRANCH  15  16
HETATM   16  N9  UNL     1      30.254  -2.504  20.539  1.00  0.00    -0.066 N 
ATOM     17  H93 UNL     1      31.029  -1.851  20.420  1.00  0.00     0.275 HD
ATOM     18  H92 UNL     1      29.473  -1.893  20.301  1.00  0.00     0.275 HD
ATOM     19  H91 UNL     1      30.188  -2.806  21.510  1.00  0.00     0.275 HD
ENDBRANCH  15  16
BRANCH  15  20
HETATM   20  C13 UNL     1      30.596  -4.863  20.298  1.00  0.00     0.082 C 
BRANCH  20  21
HETATM   21  C14 UNL     1      29.811  -6.029  19.824  1.00  0.00     0.194 C 
BRANCH  21  22
HETATM   22  O6  UNL     1      29.903  -6.377  18.494  1.00  0.00    -0.294 OA
BRANCH  22  23
HETATM   23  C15 UNL     1      30.824  -7.236  17.922  1.00  0.00     0.373 C 
HETATM   24  N10 UNL     1      32.099  -6.821  17.469  1.00  0.00    -0.032 NA
HETATM   25  O7  UNL     1      30.510  -8.433  17.805  1.00  0.00    -0.242 OA
ENDBRANCH  22  23
ENDBRANCH  21  22
BRANCH  21  26
HETATM   26  C16 UNL     1      28.397  -5.849  20.318  1.00  0.00     0.099 A 
HETATM   27  N11 UNL     1      27.749  -6.604  21.205  1.00  0.00    -0.293 N 
HETATM   28  N12 UNL     1      26.552  -6.329  21.517  1.00  0.00    -0.279 N 
ATOM     29  H11 UNL     1      28.217  -7.403  21.633  1.00  0.00     0.187 HD
HETATM   30  C17 UNL     1      25.957  -5.276  20.945  1.00  0.00     0.158 A 
ATOM     31  H12 UNL     1      26.049  -6.901  22.195  1.00  0.00     0.189 HD
HETATM   32  N13 UNL     1      24.735  -4.833  21.131  1.00  0.00    -0.379 N 
HETATM   33  S1  UNL     1      27.201  -4.692  19.929  1.00  0.00    -0.036 SA
ATOM     34 2H13 UNL     1      23.992  -5.181  21.738  1.00  0.00     0.158 HD
ATOM     35 1H13 UNL     1      24.281  -4.030  20.695  1.00  0.00     0.158 HD
ENDBRANCH  21  26
ENDBRANCH  20  21
ENDBRANCH  15  20
ENDBRANCH  12  15
ENDBRANCH   9  11
BRANCH   1  36
HETATM   36  C3  UNL     1      31.994  -4.903  12.519  1.00  0.00     0.215 C 
BRANCH  36  37
HETATM   37  O2  UNL     1      31.205  -6.015  12.981  1.00  0.00    -0.317 OA
BRANCH  37  38
HETATM   38  C2  UNL     1      30.556  -6.804  12.054  1.00  0.00     0.255 C 
HETATM   39  C1  UNL     1      31.187  -7.969  11.376  1.00  0.00     0.126 C 
HETATM   40  O1  UNL     1      29.353  -6.552  11.733  1.00  0.00    -0.266 OA
ENDBRANCH  37  38
ENDBRANCH  36  37
ENDBRANCH   1  36
BRANCH   2  41
HETATM   41  C6  UNL     1      33.384  -2.322  12.162  1.00  0.00     0.228 C 
HETATM   42  O3  UNL     1      32.767  -1.736  11.224  1.00  0.00    -0.643 OA
HETATM   43  O4  UNL     1      34.754  -2.513  11.896  1.00  0.00    -0.643 OA
ENDBRANCH   2  41
BRANCH   4  44
HETATM   44  N2  UNL     1      35.346  -0.971  14.439  1.00  0.00    -0.161 N 
HETATM   45  C8  UNL     1      35.701   0.207  14.056  1.00  0.00     0.221 C 
HETATM   46  N3  UNL     1      34.880   1.348  14.239  1.00  0.00    -0.061 NA
HETATM   47  N4  UNL     1      36.964   0.308  13.432  1.00  0.00    -0.280 N 
ATOM     48  H4  UNL     1      37.715   0.835  13.878  1.00  0.00     0.189 HD
ATOM     49  H2  UNL     1      35.961  -1.772  14.293  1.00  0.00     0.187 HD
BRANCH  47  50
HETATM   50  N5  UNL     1      37.180  -0.313  12.215  1.00  0.00    -0.343 N 
ATOM     51  H52 UNL     1      36.575  -1.086  11.937  1.00  0.00     0.176 HD
ATOM     52  H51 UNL     1      37.937   0.007  11.611  1.00  0.00     0.176 HD
ENDBRANCH  47  50
ENDBRANCH   4  44
TORSDOF 14
ENDMDL
MODEL 5
REMARK VINA RESULT: -9.501607929      1.666      2.086
REMARK  14 active torsions:
REMARK  status: ('A' for Active; 'I' for Inactive)
REMARK    1  A    between atoms: C2_2  and  O2_4 
REMARK    2  A    between atoms: O2_4  and  C3_5 
REMARK    3  A    between atoms: C3_5  and  C4_6 
REMARK    4  A    between atoms: C5_7  and  C6_8 
REMARK    5  A    between atoms: C7_12  and  N2_13 
REMARK       I    between atoms: C8_15  and  N4_17 
REMARK    6  A    between atoms: N4_17  and  N5_19 
REMARK    7  A    between atoms: C10_26  and  N8_27 
REMARK       I    between atoms: N8_27  and  C11_29 
REMARK    8  A    between atoms: C11_29  and  C12_31 
REMARK    9  A    between atoms: C12_31  and  N9_32 
REMARK   10  A    between atoms: C12_31  and  C13_36 
REMARK   11  A    between atoms: C13_36  and  C14_37 
REMARK   12  A    between atoms: C14_37  and  O6_38 
REMARK   13  A    between atoms: C14_37  and  C16_42 
REMARK   14  A    between atoms: O6_38  and  C15_39 
ROOT
HETATM    1  C4  UNL     1      32.212  -3.908  13.785  1.00  0.00    -0.019 C 
HETATM    2  C5  UNL     1      32.811  -2.731  13.657  1.00  0.00     0.134 C 
HETATM    3  N1  UNL     1      33.096  -1.994  14.890  1.00  0.00    -0.152 N 
HETATM    4  C7  UNL     1      34.144  -1.209  15.366  1.00  0.00     0.701 C 
HETATM    5  N6  UNL     1      33.827  -0.782  16.542  1.00  0.00    -0.134 N 
ATOM      6  H6  UNL     1      34.426  -0.184  17.112  1.00  0.00     0.201 HD
HETATM    7  N7  UNL     1      32.572  -1.235  16.942  1.00  0.00    -0.097 NA
HETATM    8  C9  UNL     1      32.077  -2.122  15.946  1.00  0.00     0.245 C 
HETATM    9  C10 UNL     1      32.131  -3.588  16.301  1.00  0.00     0.130 C 
HETATM   10  C18 UNL     1      31.741  -4.389  15.118  1.00  0.00     0.067 C 
ENDROOT
BRANCH   9  11
HETATM   11  N8  UNL     1      31.304  -3.944  17.414  1.00  0.00    -0.351 N 
HETATM   12  C11 UNL     1      31.225  -5.256  17.955  1.00  0.00     0.248 C 
HETATM   13  O5  UNL     1      31.927  -6.140  17.396  1.00  0.00    -0.271 OA
ATOM     14  H8  UNL     1      30.738  -3.213  17.845  1.00  0.00     0.163 HD
BRANCH  12  15
HETATM   15  C12 UNL     1      30.372  -5.614  19.118  1.00  0.00     0.277 C 
BRANCH  15  16
HETATM   16  N9  UNL     1      30.557  -6.947  19.591  1.00  0.00    -0.066 N 
ATOM     17  H93 UNL     1      31.356  -6.994  20.223  1.00  0.00     0.275 HD
ATOM     18  H92 UNL     1      29.809  -7.203  20.236  1.00  0.00     0.275 HD
ATOM     19  H91 UNL     1      30.646  -7.644  18.853  1.00  0.00     0.275 HD
ENDBRANCH  15  16
BRANCH  15  20
HETATM   20  C13 UNL     1      28.928  -5.335  18.893  1.00  0.00     0.082 C 
BRANCH  20  21
HETATM   21  C14 UNL     1      28.457  -3.971  19.235  1.00  0.00     0.194 C 
BRANCH  21  22
HETATM   22  O6  UNL     1      29.388  -2.957  19.293  1.00  0.00    -0.294 OA
BRANCH  22  23
HETATM   23  C15 UNL     1      30.096  -2.542  20.408  1.00  0.00     0.373 C 
HETATM   24  N10 UNL     1      31.505  -2.627  20.511  1.00  0.00    -0.032 NA
HETATM   25  O7  UNL     1      29.455  -2.071  21.362  1.00  0.00    -0.242 OA
ENDBRANCH  22  23
ENDBRANCH  21  22
BRANCH  21  26
HETATM   26  C16 UNL     1      27.597  -4.089  20.469  1.00  0.00     0.099 A 
HETATM   27  N11 UNL     1      26.880  -3.126  21.048  1.00  0.00    -0.293 N 
HETATM   28  N12 UNL     1      26.206  -3.379  22.092  1.00  0.00    -0.279 N 
ATOM     29  H11 UNL     1      26.874  -2.186  20.651  1.00  0.00     0.187 HD
HETATM   30  C17 UNL     1      26.228  -4.618  22.595  1.00  0.00     0.158 A 
ATOM     31  H12 UNL     1      25.656  -2.648  22.542  1.00  0.00     0.189 HD
HETATM   32  N13 UNL     1      25.607  -5.074  23.658  1.00  0.00    -0.379 N 
HETATM   33  S1  UNL     1      27.267  -5.414  21.495  1.00  0.00    -0.036 SA
ATOM     34 2H13 UNL     1      24.987  -4.599  24.314  1.00  0.00     0.158 HD
ATOM     35 1H13 UNL     1      25.623  -6.020  24.041  1.00  0.00     0.158 HD
ENDBRANCH  21  26
ENDBRANCH  20  21
ENDBRANCH  15  20
ENDBRANCH  12  15
ENDBRANCH   9  11
BRANCH   1  36
HETATM   36  C3  UNL     1      31.939  -4.793  12.654  1.00  0.00     0.215 C 
BRANCH  36  37
HETATM   37  O2  UNL     1      31.153  -5.927  13.064  1.00  0.00    -0.317 OA
BRANCH  37  38
HETATM   38  C2  UNL     1      30.611  -6.748  12.097  1.00  0.00     0.255 C 
HETATM   39  C1  UNL     1      31.400  -7.753  11.333  1.00  0.00     0.126 C 
HETATM   40  O1  UNL     1      29.375  -6.671  11.813  1.00  0.00    -0.266 OA
ENDBRANCH  37  38
ENDBRANCH  36  37
ENDBRANCH   1  36
BRANCH   2  41
HETATM   41  C6  UNL     1      33.263  -2.164  12.420  1.00  0.00     0.228 C 
HETATM   42  O3  UNL     1      34.436  -2.208  11.946  1.00  0.00    -0.643 OA
HETATM   43  O4  UNL     1      32.351  -1.479  11.594  1.00  0.00    -0.643 OA
ENDBRANCH   2  41
BRANCH   4  44
HETATM   44  N2  UNL     1      35.366  -0.969  14.659  1.00  0.00    -0.161 N 
HETATM   45  C8  UNL     1      35.579   0.205  14.174  1.00  0.00     0.221 C 
HETATM   46  N3  UNL     1      34.652   1.268  14.314  1.00  0.00    -0.061 NA
HETATM   47  N4  UNL     1      36.798   0.384  13.482  1.00  0.00    -0.280 N 
ATOM     48  H4  UNL     1      37.507   1.019  13.850  1.00  0.00     0.189 HD
ATOM     49  H2  UNL     1      36.055  -1.713  14.542  1.00  0.00     0.187 HD
BRANCH  47  50
HETATM   50  N5  UNL     1      37.026  -0.304  12.305  1.00  0.00    -0.343 N 
ATOM     51  H52 UNL     1      36.372  -1.034  12.021  1.00  0.00     0.176 HD
ATOM     52  H51 UNL     1      37.840  -0.076  11.735  1.00  0.00     0.176 HD
ENDBRANCH  47  50
ENDBRANCH   4  44
TORSDOF 14
ENDMDL
