MODEL 1
REMARK VINA RESULT: -9.233857165      0.000      0.000
REMARK  14 active torsions:
REMARK  status: ('A' for Active; 'I' for Inactive)
REMARK    1  A    between atoms: N1_1  and  N2_4 
REMARK       I    between atoms: N2_4  and  C1_6 
REMARK    2  A    between atoms: C1_6  and  C2_8 
REMARK    3  A    between atoms: C2_8  and  O2_9 
REMARK    4  A    between atoms: C3_11  and  C4_12 
REMARK    5  A    between atoms: C4_12  and  O3_13 
REMARK    6  A    between atoms: C5_16  and  N3_17 
REMARK    7  A    between atoms: C6_18  and  O5_19 
REMARK    8  A    between atoms: C7_21  and  O6_22 
REMARK    9  A    between atoms: O6_22  and  C8_23 
REMARK   10  A    between atoms: C8_23  and  C9_24 
REMARK   11  A    between atoms: N4_26  and  C11_27 
REMARK   12  A    between atoms: C14_30  and  O7_31 
REMARK   13  A    between atoms: C21_48  and  O9_49 
REMARK   14  A    between atoms: C21_48  and  C22_51 
ROOT
HETATM    1  N3  UNL     1      33.244  -2.671  11.565  1.00  0.00    -0.279 N 
HETATM    2  C6  UNL     1      32.980  -2.812  12.875  1.00  0.00     0.181 A 
HETATM    3  C7  UNL     1      33.976  -2.181  13.583  1.00  0.00     0.140 A 
HETATM    4  C17 UNL     1      34.856  -1.649  12.687  1.00  0.00     0.114 A 
HETATM    5  C18 UNL     1      36.035  -0.913  12.858  1.00  0.00     0.263 A 
HETATM    6  O8  UNL     1      36.448  -0.635  14.014  1.00  0.00    -0.267 OA
HETATM    7  N7  UNL     1      36.676  -0.533  11.756  1.00  0.00    -0.319 N 
ATOM      8  H7  UNL     1      37.539   0.005  11.843  1.00  0.00     0.169 HD
HETATM    9  C19 UNL     1      36.220  -0.837  10.538  1.00  0.00     0.184 A 
HETATM   10  N8  UNL     1      35.093  -1.540  10.363  1.00  0.00    -0.337 N 
ATOM     11  H8  UNL     1      34.769  -1.758   9.420  1.00  0.00     0.168 HD
HETATM   12  C20 UNL     1      34.393  -1.958  11.426  1.00  0.00     0.131 A 
ENDROOT
BRANCH   1  13
HETATM   13  C5  UNL     1      32.482  -3.162  10.464  1.00  0.00     0.279 C 
HETATM   14  O4  UNL     1      31.112  -3.029  10.711  1.00  0.00    -0.351 OA
HETATM   15  C3  UNL     1      30.464  -3.807   9.784  1.00  0.00     0.195 C 
HETATM   16  C2  UNL     1      31.370  -4.927   9.396  1.00  0.00     0.212 C 
HETATM   17  C21 UNL     1      32.620  -4.643  10.227  1.00  0.00     0.223 C 
BRANCH  15  18
HETATM   18  C4  UNL     1      29.908  -3.037   8.614  1.00  0.00     0.199 C 
BRANCH  18  19
HETATM   19  O3  UNL     1      30.638  -1.922   8.278  1.00  0.00    -0.398 OA
ATOM     20  H3  UNL     1      31.563  -2.090   8.143  1.00  0.00     0.209 HD
ENDBRANCH  18  19
ENDBRANCH  15  18
BRANCH  16  21
HETATM   21  C1  UNL     1      30.806  -6.268   9.651  1.00  0.00     0.276 C 
HETATM   22  N2  UNL     1      29.792  -6.551  10.566  1.00  0.00    -0.274 N 
ATOM     23  H2  UNL     1      29.385  -5.797  11.118  1.00  0.00     0.189 HD
HETATM   24  O1  UNL     1      31.303  -7.230   8.966  1.00  0.00    -0.268 OA
BRANCH  22  25
HETATM   25  N1  UNL     1      29.332  -7.852  10.731  1.00  0.00    -0.343 N 
ATOM     26  H12 UNL     1      29.999  -8.620  10.660  1.00  0.00     0.176 HD
ATOM     27  H11 UNL     1      28.346  -8.033  10.921  1.00  0.00     0.176 HD
ENDBRANCH  22  25
ENDBRANCH  16  21
BRANCH  16  28
HETATM   28  O2  UNL     1      31.709  -4.763   8.037  1.00  0.00    -0.375 OA
ATOM     29  H2  UNL     1      32.423  -4.146   7.931  1.00  0.00     0.211 HD
ENDBRANCH  16  28
BRANCH  17  30
HETATM   30  O9  UNL     1      32.624  -5.380  11.385  1.00  0.00    -0.374 OA
ATOM     31  H9  UNL     1      31.790  -5.316  11.834  1.00  0.00     0.211 HD
ENDBRANCH  17  30
BRANCH  17  32
HETATM   32  C22 UNL     1      33.843  -4.966   9.443  1.00  0.00     0.274 C 
HETATM   33  N9  UNL     1      34.457  -6.235   9.422  1.00  0.00    -0.059 NA
HETATM   34  O10 UNL     1      34.393  -4.066   8.742  1.00  0.00    -0.273 OA
ENDBRANCH  17  32
ENDBRANCH   1  13
BRANCH   2  35
HETATM   35  O5  UNL     1      31.870  -3.493  13.417  1.00  0.00    -0.344 OA
ATOM     36  H5  UNL     1      31.899  -4.103  14.144  1.00  0.00     0.219 HD
ENDBRANCH   2  35
BRANCH   3  37
HETATM   37  O6  UNL     1      34.051  -2.111  14.944  1.00  0.00    -0.340 OA
BRANCH  37  38
HETATM   38  C8  UNL     1      33.294  -1.271  15.765  1.00  0.00     0.236 C 
BRANCH  38  39
HETATM   39  C9  UNL     1      32.678  -2.102  16.837  1.00  0.00     0.069 A 
HETATM   40  C10 UNL     1      32.247  -3.407  16.738  1.00  0.00     0.146 A 
HETATM   41  N4  UNL     1      31.750  -3.806  17.921  1.00  0.00    -0.251 N 
HETATM   42  N5  UNL     1      31.863  -2.782  18.743  1.00  0.00    -0.236 N 
HETATM   43  N6  UNL     1      32.413  -1.764  18.111  1.00  0.00    -0.286 N 
ATOM     44  H5  UNL     1      31.570  -2.777  19.720  1.00  0.00     0.209 HD
ATOM     45  H6  UNL     1      32.609  -0.854  18.527  1.00  0.00     0.188 HD
BRANCH  41  46
HETATM   46  C11 UNL     1      31.202  -5.102  18.218  1.00  0.00     0.057 A 
HETATM   47  C12 UNL     1      30.215  -5.227  19.159  1.00  0.00     0.034 A 
HETATM   48  C13 UNL     1      29.698  -6.481  19.435  1.00  0.00     0.039 A 
HETATM   49  C14 UNL     1      30.152  -7.612  18.784  1.00  0.00     0.065 A 
HETATM   50  C15 UNL     1      31.147  -7.434  17.844  1.00  0.00     0.039 A 
HETATM   51  C16 UNL     1      31.674  -6.189  17.557  1.00  0.00     0.034 A 
BRANCH  49  52
HETATM   52  O7  UNL     1      29.643  -8.883  19.047  1.00  0.00    -0.361 OA
ATOM     53  H7  UNL     1      30.167  -9.572  19.440  1.00  0.00     0.217 HD
ENDBRANCH  49  52
ENDBRANCH  41  46
ENDBRANCH  38  39
ENDBRANCH  37  38
ENDBRANCH   3  37
TORSDOF 14
ENDMDL
MODEL 2
REMARK VINA RESULT: -9.228689842      1.515      1.737
REMARK  14 active torsions:
REMARK  status: ('A' for Active; 'I' for Inactive)
REMARK    1  A    between atoms: N1_1  and  N2_4 
REMARK       I    between atoms: N2_4  and  C1_6 
REMARK    2  A    between atoms: C1_6  and  C2_8 
REMARK    3  A    between atoms: C2_8  and  O2_9 
REMARK    4  A    between atoms: C3_11  and  C4_12 
REMARK    5  A    between atoms: C4_12  and  O3_13 
REMARK    6  A    between atoms: C5_16  and  N3_17 
REMARK    7  A    between atoms: C6_18  and  O5_19 
REMARK    8  A    between atoms: C7_21  and  O6_22 
REMARK    9  A    between atoms: O6_22  and  C8_23 
REMARK   10  A    between atoms: C8_23  and  C9_24 
REMARK   11  A    between atoms: N4_26  and  C11_27 
REMARK   12  A    between atoms: C14_30  and  O7_31 
REMARK   13  A    between atoms: C21_48  and  O9_49 
REMARK   14  A    between atoms: C21_48  and  C22_51 
ROOT
HETATM    1  N3  UNL     1      32.562  -4.199  11.396  1.00  0.00    -0.279 N 
HETATM    2  C6  UNL     1      32.447  -4.095  12.731  1.00  0.00     0.181 A 
HETATM    3  C7  UNL     1      33.499  -3.338  13.194  1.00  0.00     0.140 A 
HETATM    4  C17 UNL     1      34.262  -2.980  12.121  1.00  0.00     0.114 A 
HETATM    5  C18 UNL     1      35.434  -2.220  12.019  1.00  0.00     0.263 A 
HETATM    6  O8  UNL     1      35.965  -1.730  13.050  1.00  0.00    -0.267 OA
HETATM    7  N7  UNL     1      35.940  -2.049  10.801  1.00  0.00    -0.319 N 
ATOM      8  H7  UNL     1      36.794  -1.501  10.689  1.00  0.00     0.169 HD
HETATM    9  C19 UNL     1      35.360  -2.576   9.719  1.00  0.00     0.184 A 
HETATM   10  N8  UNL     1      34.239  -3.304   9.805  1.00  0.00    -0.337 N 
ATOM     11  H8  UNL     1      33.819  -3.695   8.962  1.00  0.00     0.168 HD
HETATM   12  C20 UNL     1      33.671  -3.520  10.999  1.00  0.00     0.131 A 
ENDROOT
BRANCH   1  13
HETATM   13  C5  UNL     1      31.696  -4.890  10.498  1.00  0.00     0.279 C 
HETATM   14  O4  UNL     1      30.356  -4.639  10.811  1.00  0.00    -0.351 OA
HETATM   15  C3  UNL     1      29.610  -5.576  10.139  1.00  0.00     0.195 C 
HETATM   16  C2  UNL     1      30.448  -6.795   9.950  1.00  0.00     0.212 C 
HETATM   17  C21 UNL     1      31.771  -6.390  10.596  1.00  0.00     0.223 C 
BRANCH  15  18
HETATM   18  C4  UNL     1      28.980  -5.064   8.869  1.00  0.00     0.199 C 
BRANCH  18  19
HETATM   19  O3  UNL     1      28.336  -3.858   9.008  1.00  0.00    -0.398 OA
ATOM     20  H3  UNL     1      27.810  -3.610   8.257  1.00  0.00     0.209 HD
ENDBRANCH  18  19
ENDBRANCH  15  18
BRANCH  16  21
HETATM   21  C1  UNL     1      29.869  -8.016  10.547  1.00  0.00     0.276 C 
HETATM   22  N2  UNL     1      29.358  -8.112  11.841  1.00  0.00    -0.274 N 
ATOM     23  H2  UNL     1      29.368  -7.294  12.449  1.00  0.00     0.189 HD
HETATM   24  O1  UNL     1      29.845  -9.055   9.798  1.00  0.00    -0.268 OA
BRANCH  22  25
HETATM   25  N1  UNL     1      28.836  -9.311  12.308  1.00  0.00    -0.343 N 
ATOM     26  H12 UNL     1      28.546 -10.016  11.631  1.00  0.00     0.176 HD
ATOM     27  H11 UNL     1      28.745  -9.482  13.310  1.00  0.00     0.176 HD
ENDBRANCH  22  25
ENDBRANCH  16  21
BRANCH  16  28
HETATM   28  O2  UNL     1      30.675  -6.959   8.567  1.00  0.00    -0.375 OA
ATOM     29  H2  UNL     1      29.994  -6.540   8.054  1.00  0.00     0.211 HD
ENDBRANCH  16  28
BRANCH  17  30
HETATM   30  O9  UNL     1      31.852  -6.846  11.889  1.00  0.00    -0.374 OA
ATOM     31  H9  UNL     1      32.134  -6.157  12.478  1.00  0.00     0.211 HD
ENDBRANCH  17  30
BRANCH  17  32
HETATM   32  C22 UNL     1      32.914  -6.939   9.817  1.00  0.00     0.274 C 
HETATM   33  N9  UNL     1      33.428  -8.242   9.978  1.00  0.00    -0.059 NA
HETATM   34  O10 UNL     1      33.483  -6.216   8.947  1.00  0.00    -0.273 OA
ENDBRANCH  17  32
ENDBRANCH   1  13
BRANCH   2  35
HETATM   35  O5  UNL     1      31.421  -4.667  13.511  1.00  0.00    -0.344 OA
ATOM     36  H5  UNL     1      31.527  -5.395  14.112  1.00  0.00     0.219 HD
ENDBRANCH   2  35
BRANCH   3  37
HETATM   37  O6  UNL     1      33.722  -3.017  14.501  1.00  0.00    -0.340 OA
BRANCH  37  38
HETATM   38  C8  UNL     1      33.185  -1.919  15.179  1.00  0.00     0.236 C 
BRANCH  38  39
HETATM   39  C9  UNL     1      32.645  -2.398  16.482  1.00  0.00     0.069 A 
HETATM   40  C10 UNL     1      32.105  -3.635  16.759  1.00  0.00     0.146 A 
HETATM   41  N4  UNL     1      31.731  -3.682  18.049  1.00  0.00    -0.251 N 
HETATM   42  N5  UNL     1      32.026  -2.508  18.571  1.00  0.00    -0.236 N 
HETATM   43  N6  UNL     1      32.569  -1.737  17.650  1.00  0.00    -0.286 N 
ATOM     44  H5  UNL     1      31.858  -2.238  19.540  1.00  0.00     0.209 HD
ATOM     45  H6  UNL     1      32.885  -0.779  17.802  1.00  0.00     0.188 HD
BRANCH  41  46
HETATM   46  C11 UNL     1      31.127  -4.804  18.716  1.00  0.00     0.057 A 
HETATM   47  C12 UNL     1      30.720  -4.685  20.019  1.00  0.00     0.034 A 
HETATM   48  C13 UNL     1      30.141  -5.773  20.649  1.00  0.00     0.039 A 
HETATM   49  C14 UNL     1      29.961  -6.977  19.997  1.00  0.00     0.065 A 
HETATM   50  C15 UNL     1      30.386  -7.047  18.686  1.00  0.00     0.039 A 
HETATM   51  C16 UNL     1      30.967  -5.970  18.042  1.00  0.00     0.034 A 
BRANCH  49  52
HETATM   52  O7  UNL     1      29.379  -8.084  20.613  1.00  0.00    -0.361 OA
ATOM     53  H7  UNL     1      29.442  -8.962  20.254  1.00  0.00     0.217 HD
ENDBRANCH  49  52
ENDBRANCH  41  46
ENDBRANCH  38  39
ENDBRANCH  37  38
ENDBRANCH   3  37
TORSDOF 14
ENDMDL
MODEL 3
REMARK VINA RESULT: -9.159109799      1.995      2.998
REMARK  14 active torsions:
REMARK  status: ('A' for Active; 'I' for Inactive)
REMARK    1  A    between atoms: N1_1  and  N2_4 
REMARK       I    between atoms: N2_4  and  C1_6 
REMARK    2  A    between atoms: C1_6  and  C2_8 
REMARK    3  A    between atoms: C2_8  and  O2_9 
REMARK    4  A    between atoms: C3_11  and  C4_12 
REMARK    5  A    between atoms: C4_12  and  O3_13 
REMARK    6  A    between atoms: C5_16  and  N3_17 
REMARK    7  A    between atoms: C6_18  and  O5_19 
REMARK    8  A    between atoms: C7_21  and  O6_22 
REMARK    9  A    between atoms: O6_22  and  C8_23 
REMARK   10  A    between atoms: C8_23  and  C9_24 
REMARK   11  A    between atoms: N4_26  and  C11_27 
REMARK   12  A    between atoms: C14_30  and  O7_31 
REMARK   13  A    between atoms: C21_48  and  O9_49 
REMARK   14  A    between atoms: C21_48  and  C22_51 
ROOT
HETATM    1  N3  UNL     1      32.522  -4.374  11.842  1.00  0.00    -0.279 N 
HETATM    2  C6  UNL     1      32.210  -4.074  13.115  1.00  0.00     0.181 A 
HETATM    3  C7  UNL     1      32.373  -2.719  13.287  1.00  0.00     0.140 A 
HETATM    4  C17 UNL     1      32.790  -2.191  12.100  1.00  0.00     0.114 A 
HETATM    5  C18 UNL     1      33.102  -0.881  11.718  1.00  0.00     0.263 A 
HETATM    6  O8  UNL     1      33.014   0.061  12.548  1.00  0.00    -0.267 OA
HETATM    7  N7  UNL     1      33.486  -0.693  10.458  1.00  0.00    -0.319 N 
ATOM      8  H7  UNL     1      33.721   0.248  10.144  1.00  0.00     0.169 HD
HETATM    9  C19 UNL     1      33.571  -1.707   9.592  1.00  0.00     0.184 A 
HETATM   10  N8  UNL     1      33.275  -2.964   9.947  1.00  0.00    -0.337 N 
ATOM     11  H8  UNL     1      33.350  -3.718   9.264  1.00  0.00     0.168 HD
HETATM   12  C20 UNL     1      32.881  -3.231  11.200  1.00  0.00     0.131 A 
ENDROOT
BRANCH   1  13
HETATM   13  C5  UNL     1      32.497  -5.656  11.217  1.00  0.00     0.279 C 
HETATM   14  O4  UNL     1      33.384  -5.699  10.138  1.00  0.00    -0.351 OA
HETATM   15  C3  UNL     1      33.065  -6.816   9.406  1.00  0.00     0.195 C 
HETATM   16  C2  UNL     1      31.615  -7.106   9.603  1.00  0.00     0.212 C 
HETATM   17  C21 UNL     1      31.184  -6.001  10.566  1.00  0.00     0.223 C 
BRANCH  15  18
HETATM   18  C4  UNL     1      33.965  -7.997   9.660  1.00  0.00     0.199 C 
BRANCH  18  19
HETATM   19  O3  UNL     1      35.278  -7.788   9.310  1.00  0.00    -0.398 OA
ATOM     20  H3  UNL     1      35.500  -8.096   8.440  1.00  0.00     0.209 HD
ENDBRANCH  18  19
ENDBRANCH  15  18
BRANCH  16  21
HETATM   21  C1  UNL     1      30.831  -7.113   8.351  1.00  0.00     0.276 C 
HETATM   22  N2  UNL     1      29.478  -7.437   8.253  1.00  0.00    -0.274 N 
ATOM     23  H2  UNL     1      28.959  -7.694   9.092  1.00  0.00     0.189 HD
HETATM   24  O1  UNL     1      31.465  -6.791   7.285  1.00  0.00    -0.268 OA
BRANCH  22  25
HETATM   25  N1  UNL     1      28.832  -7.414   7.024  1.00  0.00    -0.343 N 
ATOM     26  H12 UNL     1      29.395  -7.339   6.176  1.00  0.00     0.176 HD
ATOM     27  H11 UNL     1      27.815  -7.472   6.971  1.00  0.00     0.176 HD
ENDBRANCH  22  25
ENDBRANCH  16  21
BRANCH  16  28
HETATM   28  O2  UNL     1      31.505  -8.338  10.282  1.00  0.00    -0.375 OA
ATOM     29  H2  UNL     1      31.238  -8.211  11.185  1.00  0.00     0.211 HD
ENDBRANCH  16  28
BRANCH  17  30
HETATM   30  O9  UNL     1      30.620  -4.948   9.891  1.00  0.00    -0.374 OA
ATOM     31  H9  UNL     1      30.019  -4.467  10.447  1.00  0.00     0.211 HD
ENDBRANCH  17  30
BRANCH  17  32
HETATM   32  C22 UNL     1      30.201  -6.530  11.549  1.00  0.00     0.274 C 
HETATM   33  N9  UNL     1      30.551  -7.267  12.700  1.00  0.00    -0.059 NA
HETATM   34  O10 UNL     1      28.964  -6.325  11.370  1.00  0.00    -0.273 OA
ENDBRANCH  17  32
ENDBRANCH   1  13
BRANCH   2  35
HETATM   35  O5  UNL     1      31.790  -4.998  14.093  1.00  0.00    -0.344 OA
ATOM     36  H5  UNL     1      31.309  -5.799  13.924  1.00  0.00     0.219 HD
ENDBRANCH   2  35
BRANCH   3  37
HETATM   37  O6  UNL     1      32.151  -2.042  14.451  1.00  0.00    -0.340 OA
BRANCH  37  38
HETATM   38  C8  UNL     1      33.094  -1.806  15.455  1.00  0.00     0.236 C 
BRANCH  38  39
HETATM   39  C9  UNL     1      32.558  -2.352  16.733  1.00  0.00     0.069 A 
HETATM   40  C10 UNL     1      32.033  -3.608  16.950  1.00  0.00     0.146 A 
HETATM   41  N4  UNL     1      31.657  -3.719  18.236  1.00  0.00    -0.251 N 
HETATM   42  N5  UNL     1      31.934  -2.567  18.812  1.00  0.00    -0.236 N 
HETATM   43  N6  UNL     1      32.470  -1.747  17.930  1.00  0.00    -0.286 N 
ATOM     44  H5  UNL     1      31.761  -2.344  19.793  1.00  0.00     0.209 HD
ATOM     45  H6  UNL     1      32.773  -0.793  18.127  1.00  0.00     0.188 HD
BRANCH  41  46
HETATM   46  C11 UNL     1      31.065  -4.879  18.848  1.00  0.00     0.057 A 
HETATM   47  C12 UNL     1      30.652  -4.825  20.153  1.00  0.00     0.034 A 
HETATM   48  C13 UNL     1      30.086  -5.949  20.730  1.00  0.00     0.039 A 
HETATM   49  C14 UNL     1      29.925  -7.124  20.023  1.00  0.00     0.065 A 
HETATM   50  C15 UNL     1      30.356  -7.128  18.712  1.00  0.00     0.039 A 
HETATM   51  C16 UNL     1      30.925  -6.015  18.120  1.00  0.00     0.034 A 
BRANCH  49  52
HETATM   52  O7  UNL     1      29.356  -8.266  20.585  1.00  0.00    -0.361 OA
ATOM     53  H7  UNL     1      28.707  -8.226  21.279  1.00  0.00     0.217 HD
ENDBRANCH  49  52
ENDBRANCH  41  46
ENDBRANCH  38  39
ENDBRANCH  37  38
ENDBRANCH   3  37
TORSDOF 14
ENDMDL
MODEL 4
REMARK VINA RESULT: -9.145743046      1.927      2.220
REMARK  14 active torsions:
REMARK  status: ('A' for Active; 'I' for Inactive)
REMARK    1  A    between atoms: N1_1  and  N2_4 
REMARK       I    between atoms: N2_4  and  C1_6 
REMARK    2  A    between atoms: C1_6  and  C2_8 
REMARK    3  A    between atoms: C2_8  and  O2_9 
REMARK    4  A    between atoms: C3_11  and  C4_12 
REMARK    5  A    between atoms: C4_12  and  O3_13 
REMARK    6  A    between atoms: C5_16  and  N3_17 
REMARK    7  A    between atoms: C6_18  and  O5_19 
REMARK    8  A    between atoms: C7_21  and  O6_22 
REMARK    9  A    between atoms: O6_22  and  C8_23 
REMARK   10  A    between atoms: C8_23  and  C9_24 
REMARK   11  A    between atoms: N4_26  and  C11_27 
REMARK   12  A    between atoms: C14_30  and  O7_31 
REMARK   13  A    between atoms: C21_48  and  O9_49 
REMARK   14  A    between atoms: C21_48  and  C22_51 
ROOT
HETATM    1  N3  UNL     1      33.323  -2.222  11.611  1.00  0.00    -0.279 N 
HETATM    2  C6  UNL     1      32.944  -2.179  12.900  1.00  0.00     0.181 A 
HETATM    3  C7  UNL     1      33.926  -1.533  13.615  1.00  0.00     0.140 A 
HETATM    4  C17 UNL     1      34.915  -1.180  12.744  1.00  0.00     0.114 A 
HETATM    5  C18 UNL     1      36.131  -0.510  12.932  1.00  0.00     0.263 A 
HETATM    6  O8  UNL     1      36.470  -0.119  14.079  1.00  0.00    -0.267 OA
HETATM    7  N7  UNL     1      36.887  -0.316  11.855  1.00  0.00    -0.319 N 
ATOM      8  H7  UNL     1      37.780   0.168  11.954  1.00  0.00     0.169 HD
HETATM    9  C19 UNL     1      36.508  -0.739  10.646  1.00  0.00     0.184 A 
HETATM   10  N8  UNL     1      35.348  -1.380  10.455  1.00  0.00    -0.337 N 
ATOM     11  H8  UNL     1      35.085  -1.691   9.520  1.00  0.00     0.168 HD
HETATM   12  C20 UNL     1      34.533  -1.612  11.493  1.00  0.00     0.131 A 
ENDROOT
BRANCH   1  13
HETATM   13  C5  UNL     1      32.616  -2.794  10.513  1.00  0.00     0.279 C 
HETATM   14  O4  UNL     1      31.252  -2.498  10.594  1.00  0.00    -0.351 OA
HETATM   15  C3  UNL     1      30.611  -3.339   9.718  1.00  0.00     0.195 C 
HETATM   16  C2  UNL     1      31.423  -4.583   9.582  1.00  0.00     0.212 C 
HETATM   17  C21 UNL     1      32.616  -4.300  10.494  1.00  0.00     0.223 C 
BRANCH  15  18
HETATM   18  C4  UNL     1      30.251  -2.698   8.402  1.00  0.00     0.199 C 
BRANCH  18  19
HETATM   19  O3  UNL     1      31.203  -1.833   7.919  1.00  0.00    -0.398 OA
ATOM     20  H3  UNL     1      31.212  -0.986   8.349  1.00  0.00     0.209 HD
ENDBRANCH  18  19
ENDBRANCH  15  18
BRANCH  16  21
HETATM   21  C1  UNL     1      30.697  -5.814   9.955  1.00  0.00     0.276 C 
HETATM   22  N2  UNL     1      31.103  -7.111   9.640  1.00  0.00    -0.274 N 
ATOM     23  H2  UNL     1      31.964  -7.257   9.114  1.00  0.00     0.189 HD
HETATM   24  O1  UNL     1      29.614  -5.653  10.618  1.00  0.00    -0.268 OA
BRANCH  22  25
HETATM   25  N1  UNL     1      30.345  -8.205  10.037  1.00  0.00    -0.343 N 
ATOM     26  H12 UNL     1      29.759  -8.119  10.867  1.00  0.00     0.176 HD
ATOM     27  H11 UNL     1      30.375  -9.077   9.507  1.00  0.00     0.176 HD
ENDBRANCH  22  25
ENDBRANCH  16  21
BRANCH  16  28
HETATM   28  O2  UNL     1      31.900  -4.650   8.257  1.00  0.00    -0.375 OA
ATOM     29  H2  UNL     1      32.273  -3.821   7.982  1.00  0.00     0.211 HD
ENDBRANCH  16  28
BRANCH  17  30
HETATM   30  O9  UNL     1      32.434  -4.858  11.735  1.00  0.00    -0.374 OA
ATOM     31  H9  UNL     1      33.140  -4.619  12.325  1.00  0.00     0.211 HD
ENDBRANCH  17  30
BRANCH  17  32
HETATM   32  C22 UNL     1      33.863  -4.846   9.895  1.00  0.00     0.274 C 
HETATM   33  N9  UNL     1      34.807  -4.070   9.189  1.00  0.00    -0.059 NA
HETATM   34  O10 UNL     1      34.123  -6.080  10.005  1.00  0.00    -0.273 OA
ENDBRANCH  17  32
ENDBRANCH   1  13
BRANCH   2  35
HETATM   35  O5  UNL     1      31.744  -2.709  13.417  1.00  0.00    -0.344 OA
ATOM     36  H5  UNL     1      31.637  -3.090  14.280  1.00  0.00     0.219 HD
ENDBRANCH   2  35
BRANCH   3  37
HETATM   37  O6  UNL     1      33.896  -1.299  14.959  1.00  0.00    -0.340 OA
BRANCH  37  38
HETATM   38  C8  UNL     1      34.267  -2.204  15.957  1.00  0.00     0.236 C 
BRANCH  38  39
HETATM   39  C9  UNL     1      33.034  -2.873  16.458  1.00  0.00     0.069 A 
HETATM   40  C10 UNL     1      32.203  -2.445  17.470  1.00  0.00     0.146 A 
HETATM   41  N4  UNL     1      31.197  -3.323  17.625  1.00  0.00    -0.251 N 
HETATM   42  N5  UNL     1      31.388  -4.277  16.737  1.00  0.00    -0.236 N 
HETATM   43  N6  UNL     1      32.476  -4.022  16.037  1.00  0.00    -0.286 N 
ATOM     44  H5  UNL     1      30.785  -5.091  16.610  1.00  0.00     0.209 HD
ATOM     45  H6  UNL     1      32.841  -4.609  15.288  1.00  0.00     0.188 HD
BRANCH  41  46
HETATM   46  C11 UNL     1      30.126  -3.225  18.580  1.00  0.00     0.057 A 
HETATM   47  C12 UNL     1      28.914  -3.803  18.309  1.00  0.00     0.034 A 
HETATM   48  C13 UNL     1      27.892  -3.700  19.237  1.00  0.00     0.039 A 
HETATM   49  C14 UNL     1      28.063  -3.030  20.432  1.00  0.00     0.065 A 
HETATM   50  C15 UNL     1      29.302  -2.466  20.660  1.00  0.00     0.039 A 
HETATM   51  C16 UNL     1      30.333  -2.559  19.743  1.00  0.00     0.034 A 
BRANCH  49  52
HETATM   52  O7  UNL     1      27.048  -2.917  21.380  1.00  0.00    -0.361 OA
ATOM     53  H7  UNL     1      27.157  -2.433  22.191  1.00  0.00     0.217 HD
ENDBRANCH  49  52
ENDBRANCH  41  46
ENDBRANCH  38  39
ENDBRANCH  37  38
ENDBRANCH   3  37
TORSDOF 14
ENDMDL
MODEL 5
REMARK VINA RESULT: -9.137485614      1.965      2.540
REMARK  14 active torsions:
REMARK  status: ('A' for Active; 'I' for Inactive)
REMARK    1  A    between atoms: N1_1  and  N2_4 
REMARK       I    between atoms: N2_4  and  C1_6 
REMARK    2  A    between atoms: C1_6  and  C2_8 
REMARK    3  A    between atoms: C2_8  and  O2_9 
REMARK    4  A    between atoms: C3_11  and  C4_12 
REMARK    5  A    between atoms: C4_12  and  O3_13 
REMARK    6  A    between atoms: C5_16  and  N3_17 
REMARK    7  A    between atoms: C6_18  and  O5_19 
REMARK    8  A    between atoms: C7_21  and  O6_22 
REMARK    9  A    between atoms: O6_22  and  C8_23 
REMARK   10  A    between atoms: C8_23  and  C9_24 
REMARK   11  A    between atoms: N4_26  and  C11_27 
REMARK   12  A    between atoms: C14_30  and  O7_31 
REMARK   13  A    between atoms: C21_48  and  O9_49 
REMARK   14  A    between atoms: C21_48  and  C22_51 
ROOT
HETATM    1  N3  UNL     1      33.297  -4.284  11.119  1.00  0.00    -0.279 N 
HETATM    2  C6  UNL     1      33.233  -3.674  12.315  1.00  0.00     0.181 A 
HETATM    3  C7  UNL     1      34.507  -3.296  12.672  1.00  0.00     0.140 A 
HETATM    4  C17 UNL     1      35.355  -3.686  11.677  1.00  0.00     0.114 A 
HETATM    5  C18 UNL     1      36.740  -3.555  11.525  1.00  0.00     0.263 A 
HETATM    6  O8  UNL     1      37.427  -2.990  12.416  1.00  0.00    -0.267 OA
HETATM    7  N7  UNL     1      37.277  -4.050  10.413  1.00  0.00    -0.319 N 
ATOM      8  H7  UNL     1      38.284  -3.973  10.269  1.00  0.00     0.169 HD
HETATM    9  C19 UNL     1      36.530  -4.646   9.479  1.00  0.00     0.184 A 
HETATM   10  N8  UNL     1      35.204  -4.776   9.613  1.00  0.00    -0.337 N 
ATOM     11  H8  UNL     1      34.660  -5.236   8.883  1.00  0.00     0.168 HD
HETATM   12  C20 UNL     1      34.593  -4.301  10.708  1.00  0.00     0.131 A 
ENDROOT
BRANCH   1  13
HETATM   13  C5  UNL     1      32.221  -4.836  10.363  1.00  0.00     0.279 C 
HETATM   14  O4  UNL     1      31.033  -4.142  10.613  1.00  0.00    -0.351 OA
HETATM   15  C3  UNL     1      30.010  -4.918  10.126  1.00  0.00     0.195 C 
HETATM   16  C2  UNL     1      30.439  -6.346  10.180  1.00  0.00     0.212 C 
HETATM   17  C21 UNL     1      31.854  -6.245  10.747  1.00  0.00     0.223 C 
BRANCH  15  18
HETATM   18  C4  UNL     1      29.496  -4.484   8.778  1.00  0.00     0.199 C 
BRANCH  18  19
HETATM   19  O3  UNL     1      28.202  -4.865   8.520  1.00  0.00    -0.398 OA
ATOM     20  H3  UNL     1      27.900  -4.650   7.646  1.00  0.00     0.209 HD
ENDBRANCH  18  19
ENDBRANCH  15  18
BRANCH  16  21
HETATM   21  C1  UNL     1      29.556  -7.205  10.994  1.00  0.00     0.276 C 
HETATM   22  N2  UNL     1      29.525  -8.599  10.945  1.00  0.00    -0.274 N 
ATOM     23  H2  UNL     1      30.148  -9.095  10.309  1.00  0.00     0.189 HD
HETATM   24  O1  UNL     1      28.766  -6.600  11.801  1.00  0.00    -0.268 OA
BRANCH  22  25
HETATM   25  N1  UNL     1      28.653  -9.316  11.754  1.00  0.00    -0.343 N 
ATOM     26  H12 UNL     1      28.873  -9.414  12.745  1.00  0.00     0.176 HD
ATOM     27  H11 UNL     1      27.808  -9.735  11.364  1.00  0.00     0.176 HD
ENDBRANCH  22  25
ENDBRANCH  16  21
BRANCH  16  28
HETATM   28  O2  UNL     1      30.538  -6.822   8.855  1.00  0.00    -0.375 OA
ATOM     29  H2  UNL     1      30.799  -6.130   8.259  1.00  0.00     0.211 HD
ENDBRANCH  16  28
BRANCH  17  30
HETATM   30  O9  UNL     1      31.861  -6.458  12.102  1.00  0.00    -0.374 OA
ATOM     31  H9  UNL     1      31.306  -7.191  12.338  1.00  0.00     0.211 HD
ENDBRANCH  17  30
BRANCH  17  32
HETATM   32  C22 UNL     1      32.742  -7.245  10.094  1.00  0.00     0.274 C 
HETATM   33  N9  UNL     1      32.878  -8.582  10.523  1.00  0.00    -0.059 NA
HETATM   34  O10 UNL     1      33.434  -6.907   9.089  1.00  0.00    -0.273 OA
ENDBRANCH  17  32
ENDBRANCH   1  13
BRANCH   2  35
HETATM   35  O5  UNL     1      32.056  -3.463  13.063  1.00  0.00    -0.344 OA
ATOM     36  H5  UNL     1      31.776  -3.982  13.807  1.00  0.00     0.219 HD
ENDBRANCH   2  35
BRANCH   3  37
HETATM   37  O6  UNL     1      34.841  -2.650  13.826  1.00  0.00    -0.340 OA
BRANCH  37  38
HETATM   38  C8  UNL     1      34.436  -1.363  14.191  1.00  0.00     0.236 C 
BRANCH  38  39
HETATM   39  C9  UNL     1      33.721  -1.455  15.495  1.00  0.00     0.069 A 
HETATM   40  C10 UNL     1      33.154  -2.576  16.059  1.00  0.00     0.146 A 
HETATM   41  N4  UNL     1      32.601  -2.253  17.241  1.00  0.00    -0.251 N 
HETATM   42  N5  UNL     1      32.813  -0.964  17.417  1.00  0.00    -0.236 N 
HETATM   43  N6  UNL     1      33.477  -0.478  16.386  1.00  0.00    -0.286 N 
ATOM     44  H5  UNL     1      32.509  -0.423  18.227  1.00  0.00     0.209 HD
ATOM     45  H6  UNL     1      33.764   0.495  16.281  1.00  0.00     0.188 HD
BRANCH  41  46
HETATM   46  C11 UNL     1      31.915  -3.150  18.131  1.00  0.00     0.057 A 
HETATM   47  C12 UNL     1      31.559  -4.400  17.697  1.00  0.00     0.034 A 
HETATM   48  C13 UNL     1      30.898  -5.254  18.564  1.00  0.00     0.039 A 
HETATM   49  C14 UNL     1      30.588  -4.879  19.856  1.00  0.00     0.065 A 
HETATM   50  C15 UNL     1      30.968  -3.610  20.246  1.00  0.00     0.039 A 
HETATM   51  C16 UNL     1      31.629  -2.745  19.393  1.00  0.00     0.034 A 
BRANCH  49  52
HETATM   52  O7  UNL     1      29.924  -5.723  20.744  1.00  0.00    -0.361 OA
ATOM     53  H7  UNL     1      29.687  -6.617  20.520  1.00  0.00     0.217 HD
ENDBRANCH  49  52
ENDBRANCH  41  46
ENDBRANCH  38  39
ENDBRANCH  37  38
ENDBRANCH   3  37
TORSDOF 14
ENDMDL
