MODEL 1
REMARK VINA RESULT: -5.524620756      0.000      0.000
REMARK  4 active torsions:
REMARK  status: ('A' for Active; 'I' for Inactive)
REMARK    1  A    between atoms: C2_2  and  N1_3 
REMARK    2  A    between atoms: C2_2  and  C3_7 
REMARK    3  A    between atoms: C3_7  and  C4_8 
REMARK    4  A    between atoms: C4_8  and  N2_9 
ROOT
HETATM    1  N2  UNL     1      14.203  10.736  -0.562  1.00  0.00     0.089 N 
HETATM    2  C5  UNL     1      13.543   9.630  -0.056  1.00  0.00     0.282 C 
HETATM    3  C6  UNL     1      14.220   8.533   0.656  1.00  0.00     0.104 C 
HETATM    4  S1  UNL     1      14.727   9.179   2.300  1.00  0.00    -0.167 SA
HETATM    5  C7  UNL     1      15.720  10.687   1.937  1.00  0.00     0.079 C 
HETATM    6  C8  UNL     1      16.377  10.423   0.630  1.00  0.00     0.019 C 
HETATM    7  C9  UNL     1      17.742  11.074   0.621  1.00  0.00     0.012 C 
HETATM    8  C10 UNL     1      15.593  10.864  -0.558  1.00  0.00     0.277 C 
ENDROOT
BRANCH   1   9
HETATM    9  C4  UNL     1      13.754  10.984  -1.947  1.00  0.00     0.274 C 
BRANCH   9  10
HETATM   10  C3  UNL     1      12.734  10.010  -2.424  1.00  0.00     0.062 C 
BRANCH  10  11
HETATM   11  C2  UNL     1      13.139   9.418  -3.787  1.00  0.00     0.181 C 
HETATM   12  C1  UNL     1      14.461   9.947  -4.239  1.00  0.00     0.039 C 
BRANCH  11  13
HETATM   13  N1  UNL     1      12.116   9.790  -4.733  1.00  0.00    -0.075 N 
ATOM     14  H13 UNL     1      11.179   9.596  -4.381  1.00  0.00     0.274 HD
ATOM     15  H12 UNL     1      12.032  10.801  -4.829  1.00  0.00     0.274 HD
ATOM     16  H11 UNL     1      12.293   9.334  -5.628  1.00  0.00     0.274 HD
ENDBRANCH  11  13
ENDBRANCH  10  11
ENDBRANCH   9  10
ENDBRANCH   1   9
TORSDOF 4
ENDMDL
MODEL 2
REMARK VINA RESULT: -5.480750210      2.399      5.423
REMARK  4 active torsions:
REMARK  status: ('A' for Active; 'I' for Inactive)
REMARK    1  A    between atoms: C2_2  and  N1_3 
REMARK    2  A    between atoms: C2_2  and  C3_7 
REMARK    3  A    between atoms: C3_7  and  C4_8 
REMARK    4  A    between atoms: C4_8  and  N2_9 
ROOT
HETATM    1  N2  UNL     1      15.858  10.197  -1.485  1.00  0.00     0.089 N 
HETATM    2  C5  UNL     1      14.803  10.730  -0.765  1.00  0.00     0.282 C 
HETATM    3  C6  UNL     1      13.623  11.351  -1.389  1.00  0.00     0.104 C 
HETATM    4  S1  UNL     1      12.630  10.001  -2.145  1.00  0.00    -0.167 SA
HETATM    5  C7  UNL     1      13.800   9.111  -3.255  1.00  0.00     0.079 C 
HETATM    6  C8  UNL     1      14.759  10.143  -3.729  1.00  0.00     0.019 C 
HETATM    7  C9  UNL     1      15.169   9.823  -5.150  1.00  0.00     0.012 C 
HETATM    8  C10 UNL     1      15.967  10.306  -2.872  1.00  0.00     0.277 C 
ENDROOT
BRANCH   1   9
HETATM    9  C4  UNL     1      17.133  10.679  -0.916  1.00  0.00     0.274 C 
BRANCH   9  10
HETATM   10  C3  UNL     1      16.992  11.266   0.445  1.00  0.00     0.062 C 
BRANCH  10  11
HETATM   11  C2  UNL     1      18.171  12.205   0.759  1.00  0.00     0.181 C 
HETATM   12  C1  UNL     1      19.455  11.450   0.870  1.00  0.00     0.039 C 
BRANCH  11  13
HETATM   13  N1  UNL     1      17.877  12.852   2.014  1.00  0.00    -0.075 N 
ATOM     14  H13 UNL     1      17.668  12.181   2.752  1.00  0.00     0.274 HD
ATOM     15  H12 UNL     1      18.706  13.276   2.430  1.00  0.00     0.274 HD
ATOM     16  H11 UNL     1      17.125  13.529   1.885  1.00  0.00     0.274 HD
ENDBRANCH  11  13
ENDBRANCH  10  11
ENDBRANCH   9  10
ENDBRANCH   1   9
TORSDOF 4
ENDMDL
MODEL 3
REMARK VINA RESULT: -5.456460819      1.121      1.321
REMARK  4 active torsions:
REMARK  status: ('A' for Active; 'I' for Inactive)
REMARK    1  A    between atoms: C2_2  and  N1_3 
REMARK    2  A    between atoms: C2_2  and  C3_7 
REMARK    3  A    between atoms: C3_7  and  C4_8 
REMARK    4  A    between atoms: C4_8  and  N2_9 
ROOT
HETATM    1  N2  UNL     1      14.249  10.650  -0.613  1.00  0.00     0.089 N 
HETATM    2  C5  UNL     1      13.581   9.486  -0.271  1.00  0.00     0.282 C 
HETATM    3  C6  UNL     1      14.184   8.406   0.527  1.00  0.00     0.104 C 
HETATM    4  S1  UNL     1      14.330   9.019   2.254  1.00  0.00    -0.167 SA
HETATM    5  C7  UNL     1      15.270  10.597   2.125  1.00  0.00     0.079 C 
HETATM    6  C8  UNL     1      16.177  10.424   0.960  1.00  0.00     0.019 C 
HETATM    7  C9  UNL     1      17.472  11.157   1.228  1.00  0.00     0.012 C 
HETATM    8  C10 UNL     1      15.601  10.861  -0.343  1.00  0.00     0.277 C 
ENDROOT
BRANCH   1   9
HETATM    9  C4  UNL     1      14.052  10.922  -2.052  1.00  0.00     0.274 C 
BRANCH   9  10
HETATM   10  C3  UNL     1      14.986  10.167  -2.933  1.00  0.00     0.062 C 
BRANCH  10  11
HETATM   11  C2  UNL     1      14.382   9.984  -4.337  1.00  0.00     0.181 C 
HETATM   12  C1  UNL     1      13.428   8.835  -4.375  1.00  0.00     0.039 C 
BRANCH  11  13
HETATM   13  N1  UNL     1      15.478   9.737  -5.242  1.00  0.00    -0.075 N 
ATOM     14  H13 UNL     1      16.294  10.307  -5.021  1.00  0.00     0.274 HD
ATOM     15  H12 UNL     1      15.895   8.818  -5.097  1.00  0.00     0.274 HD
ATOM     16  H11 UNL     1      15.166   9.869  -6.204  1.00  0.00     0.274 HD
ENDBRANCH  11  13
ENDBRANCH  10  11
ENDBRANCH   9  10
ENDBRANCH   1   9
TORSDOF 4
ENDMDL
MODEL 4
REMARK VINA RESULT: -5.434262457      1.434      2.662
REMARK  4 active torsions:
REMARK  status: ('A' for Active; 'I' for Inactive)
REMARK    1  A    between atoms: C2_2  and  N1_3 
REMARK    2  A    between atoms: C2_2  and  C3_7 
REMARK    3  A    between atoms: C3_7  and  C4_8 
REMARK    4  A    between atoms: C4_8  and  N2_9 
ROOT
HETATM    1  N2  UNL     1      14.967  10.258   0.219  1.00  0.00     0.089 N 
HETATM    2  C5  UNL     1      16.128  10.706   0.827  1.00  0.00     0.282 C 
HETATM    3  C6  UNL     1      16.221  11.039   2.258  1.00  0.00     0.104 C 
HETATM    4  S1  UNL     1      16.154   9.457   3.193  1.00  0.00    -0.167 SA
HETATM    5  C7  UNL     1      14.614   8.626   2.619  1.00  0.00     0.079 C 
HETATM    6  C8  UNL     1      13.670   9.727   2.288  1.00  0.00     0.019 C 
HETATM    7  C9  UNL     1      12.262   9.289   2.624  1.00  0.00     0.012 C 
HETATM    8  C10 UNL     1      13.737  10.196   0.875  1.00  0.00     0.277 C 
ENDROOT
BRANCH   1   9
HETATM    9  C4  UNL     1      14.748  11.011  -1.032  1.00  0.00     0.274 C 
BRANCH   9  10
HETATM   10  C3  UNL     1      13.397  10.801  -1.623  1.00  0.00     0.062 C 
BRANCH  10  11
HETATM   11  C2  UNL     1      13.462   9.796  -2.788  1.00  0.00     0.181 C 
HETATM   12  C1  UNL     1      14.573  10.126  -3.731  1.00  0.00     0.039 C 
BRANCH  11  13
HETATM   13  N1  UNL     1      12.199   9.864  -3.480  1.00  0.00    -0.075 N 
ATOM     14  H13 UNL     1      11.411   9.686  -2.858  1.00  0.00     0.274 HD
ATOM     15  H12 UNL     1      11.961  10.817  -3.751  1.00  0.00     0.274 HD
ATOM     16  H11 UNL     1      12.209   9.230  -4.279  1.00  0.00     0.274 HD
ENDBRANCH  11  13
ENDBRANCH  10  11
ENDBRANCH   9  10
ENDBRANCH   1   9
TORSDOF 4
ENDMDL
MODEL 5
REMARK VINA RESULT: -5.427625034      1.756      2.703
REMARK  4 active torsions:
REMARK  status: ('A' for Active; 'I' for Inactive)
REMARK    1  A    between atoms: C2_2  and  N1_3 
REMARK    2  A    between atoms: C2_2  and  C3_7 
REMARK    3  A    between atoms: C3_7  and  C4_8 
REMARK    4  A    between atoms: C4_8  and  N2_9 
ROOT
HETATM    1  N2  UNL     1      15.046   9.553  -0.659  1.00  0.00     0.089 N 
HETATM    2  C5  UNL     1      16.270  10.199  -0.701  1.00  0.00     0.282 C 
HETATM    3  C6  UNL     1      16.642  11.297   0.206  1.00  0.00     0.104 C 
HETATM    4  S1  UNL     1      16.906  10.566   1.872  1.00  0.00    -0.167 SA
HETATM    5  C7  UNL     1      15.350   9.654   2.246  1.00  0.00     0.079 C 
HETATM    6  C8  UNL     1      14.272  10.411   1.557  1.00  0.00     0.019 C 
HETATM    7  C9  UNL     1      13.009  10.340   2.386  1.00  0.00     0.012 C 
HETATM    8  C10 UNL     1      13.995   9.962   0.163  1.00  0.00     0.277 C 
ENDROOT
BRANCH   1   9
HETATM    9  C4  UNL     1      14.501   9.446  -2.029  1.00  0.00     0.274 C 
BRANCH   9  10
HETATM   10  C3  UNL     1      15.354  10.100  -3.059  1.00  0.00     0.062 C 
BRANCH  10  11
HETATM   11  C2  UNL     1      14.645  10.113  -4.426  1.00  0.00     0.181 C 
HETATM   12  C1  UNL     1      13.462   9.199  -4.435  1.00  0.00     0.039 C 
BRANCH  11  13
HETATM   13  N1  UNL     1      15.605   9.675  -5.409  1.00  0.00    -0.075 N 
ATOM     14  H13 UNL     1      16.565   9.781  -5.080  1.00  0.00     0.274 HD
ATOM     15  H12 UNL     1      15.599   8.663  -5.526  1.00  0.00     0.274 HD
ATOM     16  H11 UNL     1      15.444  10.164  -6.289  1.00  0.00     0.274 HD
ENDBRANCH  11  13
ENDBRANCH  10  11
ENDBRANCH   9  10
ENDBRANCH   1   9
TORSDOF 4
ENDMDL
