MODEL 1
REMARK VINA RESULT: -6.193028661      0.000      0.000
REMARK  3 active torsions:
REMARK  status: ('A' for Active; 'I' for Inactive)
REMARK    1  A    between atoms: C2_2  and  C4_4 
REMARK    2  A    between atoms: C6_8  and  C7_9 
REMARK    3  A    between atoms: C7_9  and  N2_10 
ROOT
HETATM    1  C4  UNL     1      14.225   9.148   1.561  1.00  0.00     0.104 C 
HETATM    2  C5  UNL     1      15.218  10.230   1.761  1.00  0.00     0.146 C 
HETATM    3  N1  UNL     1      15.425  10.646   0.386  1.00  0.00    -0.377 N 
ATOM      4  H1  UNL     1      16.272  11.044  -0.022  1.00  0.00     0.160 HD
HETATM    5  C6  UNL     1      14.180  10.378  -0.278  1.00  0.00     0.102 C 
HETATM    6  N3  UNL     1      13.499   9.529   0.390  1.00  0.00    -0.372 N 
ATOM      7  H3  UNL     1      12.578   9.176   0.127  1.00  0.00     0.161 HD
ENDROOT
BRANCH   5   8
HETATM    8  C7  UNL     1      13.742  11.003  -1.578  1.00  0.00     0.347 C 
BRANCH   8   9
HETATM    9  N2  UNL     1      13.871  10.044  -2.619  1.00  0.00     0.095 N 
HETATM   10  C8  UNL     1      12.656   9.670  -3.254  1.00  0.00     0.273 C 
HETATM   11  C9  UNL     1      12.909   9.672  -4.750  1.00  0.00     0.032 C 
HETATM   12  C10 UNL     1      14.408   9.529  -4.824  1.00  0.00     0.032 C 
HETATM   13  C11 UNL     1      14.862  10.309  -3.610  1.00  0.00     0.273 C 
ENDBRANCH   8   9
ENDBRANCH   5   8
BRANCH   1  14
HETATM   14  C2  UNL     1      13.392   8.791   2.739  1.00  0.00     0.002 C 
HETATM   15  C1  UNL     1      14.003   9.480   3.966  1.00  0.00     0.011 C 
HETATM   16  C3  UNL     1      11.964   9.149   2.664  1.00  0.00     0.011 C 
ENDBRANCH   1  14
TORSDOF 3
ENDMDL
MODEL 2
REMARK VINA RESULT: -6.109089825      0.448      1.022
REMARK  3 active torsions:
REMARK  status: ('A' for Active; 'I' for Inactive)
REMARK    1  A    between atoms: C2_2  and  C4_4 
REMARK    2  A    between atoms: C6_8  and  C7_9 
REMARK    3  A    between atoms: C7_9  and  N2_10 
ROOT
HETATM    1  C4  UNL     1      14.282   9.746   1.696  1.00  0.00     0.104 C 
HETATM    2  C5  UNL     1      15.544  10.524   1.674  1.00  0.00     0.146 C 
HETATM    3  N1  UNL     1      15.727  10.679   0.243  1.00  0.00    -0.377 N 
ATOM      4  H1  UNL     1      16.608  10.766  -0.265  1.00  0.00     0.160 HD
HETATM    5  C6  UNL     1      14.399  10.684  -0.305  1.00  0.00     0.102 C 
HETATM    6  N3  UNL     1      13.579  10.155   0.520  1.00  0.00    -0.372 N 
ATOM      7  H3  UNL     1      12.578  10.042   0.364  1.00  0.00     0.161 HD
ENDROOT
BRANCH   5   8
HETATM    8  C7  UNL     1      14.026  11.227  -1.661  1.00  0.00     0.347 C 
BRANCH   8   9
HETATM    9  N2  UNL     1      14.027  10.163  -2.603  1.00  0.00     0.095 N 
HETATM   10  C8  UNL     1      12.744   9.755  -3.060  1.00  0.00     0.273 C 
HETATM   11  C9  UNL     1      12.831   9.596  -4.566  1.00  0.00     0.032 C 
HETATM   12  C10 UNL     1      14.311   9.408  -4.786  1.00  0.00     0.032 C 
HETATM   13  C11 UNL     1      14.907  10.298  -3.717  1.00  0.00     0.273 C 
ENDBRANCH   8   9
ENDBRANCH   5   8
BRANCH   1  14
HETATM   14  C2  UNL     1      13.497   9.797   2.957  1.00  0.00     0.002 C 
HETATM   15  C1  UNL     1      12.151   9.112   2.694  1.00  0.00     0.011 C 
HETATM   16  C3  UNL     1      14.117   9.173   4.140  1.00  0.00     0.011 C 
ENDBRANCH   1  14
TORSDOF 3
ENDMDL
MODEL 3
REMARK VINA RESULT: -6.002212849      1.309      1.666
REMARK  3 active torsions:
REMARK  status: ('A' for Active; 'I' for Inactive)
REMARK    1  A    between atoms: C2_2  and  C4_4 
REMARK    2  A    between atoms: C6_8  and  C7_9 
REMARK    3  A    between atoms: C7_9  and  N2_10 
ROOT
HETATM    1  C4  UNL     1      15.674  10.277   1.489  1.00  0.00     0.104 C 
HETATM    2  C5  UNL     1      16.786  11.031   0.861  1.00  0.00     0.146 C 
HETATM    3  N1  UNL     1      16.377  10.980  -0.531  1.00  0.00    -0.377 N 
ATOM      4  H1  UNL     1      16.979  10.985  -1.355  1.00  0.00     0.160 HD
HETATM    5  C6  UNL     1      14.943  10.922  -0.497  1.00  0.00     0.102 C 
HETATM    6  N3  UNL     1      14.544  10.525   0.649  1.00  0.00    -0.372 N 
ATOM      7  H3  UNL     1      13.569  10.402   0.923  1.00  0.00     0.161 HD
ENDROOT
BRANCH   5   8
HETATM    8  C7  UNL     1      14.037  11.273  -1.650  1.00  0.00     0.347 C 
BRANCH   8   9
HETATM    9  N2  UNL     1      14.007  10.185  -2.564  1.00  0.00     0.095 N 
HETATM   10  C8  UNL     1      12.709   9.765  -2.966  1.00  0.00     0.273 C 
HETATM   11  C9  UNL     1      12.745   9.567  -4.469  1.00  0.00     0.032 C 
HETATM   12  C10 UNL     1      14.216   9.374  -4.735  1.00  0.00     0.032 C 
HETATM   13  C11 UNL     1      14.847  10.292  -3.711  1.00  0.00     0.273 C 
ENDBRANCH   8   9
ENDBRANCH   5   8
BRANCH   1  14
HETATM   14  C2  UNL     1      15.454  10.514   2.940  1.00  0.00     0.002 C 
HETATM   15  C1  UNL     1      16.431  11.609   3.385  1.00  0.00     0.011 C 
HETATM   16  C3  UNL     1      14.092  10.911   3.339  1.00  0.00     0.011 C 
ENDBRANCH   1  14
TORSDOF 3
ENDMDL
MODEL 4
REMARK VINA RESULT: -5.944228337      1.160      5.732
REMARK  3 active torsions:
REMARK  status: ('A' for Active; 'I' for Inactive)
REMARK    1  A    between atoms: C2_2  and  C4_4 
REMARK    2  A    between atoms: C6_8  and  C7_9 
REMARK    3  A    between atoms: C7_9  and  N2_10 
ROOT
HETATM    1  C4  UNL     1      14.279  10.291  -2.994  1.00  0.00     0.104 C 
HETATM    2  C5  UNL     1      15.742  10.164  -2.789  1.00  0.00     0.146 C 
HETATM    3  N1  UNL     1      15.782   9.926  -1.358  1.00  0.00    -0.377 N 
ATOM      4  H1  UNL     1      16.527  10.178  -0.707  1.00  0.00     0.160 HD
HETATM    5  C6  UNL     1      14.548   9.258  -1.055  1.00  0.00     0.102 C 
HETATM    6  N3  UNL     1      13.695   9.464  -1.983  1.00  0.00    -0.372 N 
ATOM      7  H3  UNL     1      12.744   9.096  -2.001  1.00  0.00     0.161 HD
ENDROOT
BRANCH   5   8
HETATM    8  C7  UNL     1      14.291   8.437   0.183  1.00  0.00     0.347 C 
BRANCH   8   9
HETATM    9  N2  UNL     1      13.604   9.238   1.136  1.00  0.00     0.095 N 
HETATM   10  C8  UNL     1      12.938   8.520   2.166  1.00  0.00     0.273 C 
HETATM   11  C9  UNL     1      13.255   9.214   3.477  1.00  0.00     0.032 C 
HETATM   12  C10 UNL     1      13.646  10.597   3.025  1.00  0.00     0.032 C 
HETATM   13  C11 UNL     1      14.339  10.317   1.709  1.00  0.00     0.273 C 
ENDBRANCH   8   9
ENDBRANCH   5   8
BRANCH   1  14
HETATM   14  C2  UNL     1      13.783  10.056  -4.374  1.00  0.00     0.002 C 
HETATM   15  C1  UNL     1      14.978   9.614  -5.228  1.00  0.00     0.011 C 
HETATM   16  C3  UNL     1      12.707   9.059  -4.523  1.00  0.00     0.011 C 
ENDBRANCH   1  14
TORSDOF 3
ENDMDL
MODEL 5
REMARK VINA RESULT: -5.939481791      1.936      5.953
REMARK  3 active torsions:
REMARK  status: ('A' for Active; 'I' for Inactive)
REMARK    1  A    between atoms: C2_2  and  C4_4 
REMARK    2  A    between atoms: C6_8  and  C7_9 
REMARK    3  A    between atoms: C7_9  and  N2_10 
ROOT
HETATM    1  C4  UNL     1      14.001   9.393  -2.797  1.00  0.00     0.104 C 
HETATM    2  C5  UNL     1      12.950  10.243  -2.188  1.00  0.00     0.146 C 
HETATM    3  N1  UNL     1      13.601  10.604  -0.942  1.00  0.00    -0.377 N 
ATOM      4  H1  UNL     1      13.157  10.815  -0.048  1.00  0.00     0.160 HD
HETATM    5  C6  UNL     1      15.006  10.602  -1.239  1.00  0.00     0.102 C 
HETATM    6  N3  UNL     1      15.233   9.915  -2.293  1.00  0.00    -0.372 N 
ATOM      7  H3  UNL     1      16.151   9.763  -2.709  1.00  0.00     0.161 HD
ENDROOT
BRANCH   5   8
HETATM    8  C7  UNL     1      16.063  11.302  -0.424  1.00  0.00     0.347 C 
BRANCH   8   9
HETATM    9  N2  UNL     1      16.506  10.430   0.607  1.00  0.00     0.095 N 
HETATM   10  C8  UNL     1      17.889  10.518   0.924  1.00  0.00     0.273 C 
HETATM   11  C9  UNL     1      18.005  10.544   2.436  1.00  0.00     0.032 C 
HETATM   12  C10 UNL     1      16.700   9.927   2.871  1.00  0.00     0.032 C 
HETATM   13  C11 UNL     1      15.743  10.428   1.812  1.00  0.00     0.273 C 
ENDBRANCH   8   9
ENDBRANCH   5   8
BRANCH   1  14
HETATM   14  C2  UNL     1      13.939   9.221  -4.272  1.00  0.00     0.002 C 
HETATM   15  C1  UNL     1      12.495   9.496  -4.710  1.00  0.00     0.011 C 
HETATM   16  C3  UNL     1      14.841  10.071  -5.069  1.00  0.00     0.011 C 
ENDBRANCH   1  14
TORSDOF 3
ENDMDL
