MODEL 1
REMARK VINA RESULT: -5.697249537      0.000      0.000
REMARK  3 active torsions:
REMARK  status: ('A' for Active; 'I' for Inactive)
REMARK    1  A    between atoms: O1_2  and  S1_3 
REMARK    2  A    between atoms: S1_3  and  N1_6 
REMARK    3  A    between atoms: N1_6  and  C2_8 
ROOT
HETATM    1  N1  UNL     1      17.239  10.287   0.351  1.00  0.00    -0.292 N 
ATOM      2  H1  UNL     1      17.361   9.297   0.562  1.00  0.00     0.174 HD
ENDROOT
BRANCH   1   3
HETATM    3  S1  UNL     1      18.444  11.460   0.624  1.00  0.00     0.357 S 
HETATM    4  O2  UNL     1      18.039  12.816   0.122  1.00  0.00    -0.176 OA
HETATM    5  O3  UNL     1      19.725  11.094  -0.065  1.00  0.00    -0.176 OA
BRANCH   3   6
HETATM    6  O1  UNL     1      18.667  11.599   2.289  1.00  0.00    -0.265 OA
HETATM    7  C1  UNL     1      18.092  10.503   2.939  1.00  0.00     0.227 C 
ENDBRANCH   3   6
ENDBRANCH   1   3
BRANCH   1   8
HETATM    8  C2  UNL     1      16.019  10.842  -0.216  1.00  0.00     0.095 C 
HETATM    9  C3  UNL     1      14.884  10.396   0.655  1.00  0.00     0.026 C 
HETATM   10  C4  UNL     1      14.381   9.016   0.324  1.00  0.00     0.002 C 
HETATM   11  C5  UNL     1      13.935   9.056  -1.103  1.00  0.00     0.000 C 
HETATM   12  C6  UNL     1      15.001   9.444  -2.066  1.00  0.00     0.002 C 
HETATM   13  C7  UNL     1      15.932  10.497  -1.639  1.00  0.00     0.026 C 
ENDBRANCH   1   8
TORSDOF 3
ENDMDL
MODEL 2
REMARK VINA RESULT: -5.659667493      4.007      4.514
REMARK  3 active torsions:
REMARK  status: ('A' for Active; 'I' for Inactive)
REMARK    1  A    between atoms: O1_2  and  S1_3 
REMARK    2  A    between atoms: S1_3  and  N1_6 
REMARK    3  A    between atoms: N1_6  and  C2_8 
ROOT
HETATM    1  N1  UNL     1      14.428   8.157  -0.042  1.00  0.00    -0.292 N 
ATOM      2  H1  UNL     1      14.774   7.424  -0.661  1.00  0.00     0.174 HD
ENDROOT
BRANCH   1   3
HETATM    3  S1  UNL     1      13.756   7.850   1.493  1.00  0.00     0.357 S 
HETATM    4  O2  UNL     1      13.405   6.401   1.678  1.00  0.00    -0.176 OA
HETATM    5  O3  UNL     1      12.502   8.643   1.705  1.00  0.00    -0.176 OA
BRANCH   3   6
HETATM    6  O1  UNL     1      14.918   8.225   2.655  1.00  0.00    -0.265 OA
HETATM    7  C1  UNL     1      14.514   9.346   3.386  1.00  0.00     0.227 C 
ENDBRANCH   3   6
ENDBRANCH   1   3
BRANCH   1   8
HETATM    8  C2  UNL     1      14.459   9.572  -0.381  1.00  0.00     0.095 C 
HETATM    9  C3  UNL     1      13.302   9.835  -1.296  1.00  0.00     0.026 C 
HETATM   10  C4  UNL     1      13.592   9.509  -2.736  1.00  0.00     0.002 C 
HETATM   11  C5  UNL     1      14.755  10.358  -3.139  1.00  0.00     0.000 C 
HETATM   12  C6  UNL     1      15.980  10.145  -2.323  1.00  0.00     0.002 C 
HETATM   13  C7  UNL     1      15.790   9.933  -0.882  1.00  0.00     0.026 C 
ENDBRANCH   1   8
TORSDOF 3
ENDMDL
MODEL 3
REMARK VINA RESULT: -5.656269603      1.574      2.255
REMARK  3 active torsions:
REMARK  status: ('A' for Active; 'I' for Inactive)
REMARK    1  A    between atoms: O1_2  and  S1_3 
REMARK    2  A    between atoms: S1_3  and  N1_6 
REMARK    3  A    between atoms: N1_6  and  C2_8 
ROOT
HETATM    1  N1  UNL     1      15.770  11.454  -0.608  1.00  0.00    -0.292 N 
ATOM      2  H1  UNL     1      15.264  12.291  -0.896  1.00  0.00     0.174 HD
ENDROOT
BRANCH   1   3
HETATM    3  S1  UNL     1      17.171  11.491   0.360  1.00  0.00     0.357 S 
HETATM    4  O2  UNL     1      18.138  12.552  -0.083  1.00  0.00    -0.176 OA
HETATM    5  O3  UNL     1      17.897  10.180   0.316  1.00  0.00    -0.176 OA
BRANCH   3   6
HETATM    6  O1  UNL     1      16.707  11.877   1.934  1.00  0.00    -0.265 OA
HETATM    7  C1  UNL     1      16.171  10.748   2.561  1.00  0.00     0.227 C 
ENDBRANCH   3   6
ENDBRANCH   1   3
BRANCH   1   8
HETATM    8  C2  UNL     1      15.367  10.106  -0.981  1.00  0.00     0.095 C 
HETATM    9  C3  UNL     1      15.766   9.904  -2.411  1.00  0.00     0.026 C 
HETATM   10  C4  UNL     1      14.766  10.448  -3.394  1.00  0.00     0.002 C 
HETATM   11  C5  UNL     1      13.476   9.740  -3.126  1.00  0.00     0.000 C 
HETATM   12  C6  UNL     1      12.960   9.912  -1.742  1.00  0.00     0.002 C 
HETATM   13  C7  UNL     1      13.950   9.906  -0.657  1.00  0.00     0.026 C 
ENDBRANCH   1   8
TORSDOF 3
ENDMDL
MODEL 4
REMARK VINA RESULT: -5.635975957      4.043      4.660
REMARK  3 active torsions:
REMARK  status: ('A' for Active; 'I' for Inactive)
REMARK    1  A    between atoms: O1_2  and  S1_3 
REMARK    2  A    between atoms: S1_3  and  N1_6 
REMARK    3  A    between atoms: N1_6  and  C2_8 
ROOT
HETATM    1  N1  UNL     1      14.451   8.095  -0.149  1.00  0.00    -0.292 N 
ATOM      2  H1  UNL     1      14.757   7.381  -0.810  1.00  0.00     0.174 HD
ENDROOT
BRANCH   1   3
HETATM    3  S1  UNL     1      13.845   7.739   1.402  1.00  0.00     0.357 S 
HETATM    4  O2  UNL     1      14.788   8.167   2.491  1.00  0.00    -0.176 OA
HETATM    5  O3  UNL     1      13.611   6.267   1.569  1.00  0.00    -0.176 OA
BRANCH   3   6
HETATM    6  O1  UNL     1      12.419   8.611   1.617  1.00  0.00    -0.265 OA
HETATM    7  C1  UNL     1      12.516   9.403   2.766  1.00  0.00     0.227 C 
ENDBRANCH   3   6
ENDBRANCH   1   3
BRANCH   1   8
HETATM    8  C2  UNL     1      14.489   9.521  -0.436  1.00  0.00     0.095 C 
HETATM    9  C3  UNL     1      13.299   9.832  -1.292  1.00  0.00     0.026 C 
HETATM   10  C4  UNL     1      13.525   9.557  -2.755  1.00  0.00     0.002 C 
HETATM   11  C5  UNL     1      14.683  10.407  -3.174  1.00  0.00     0.000 C 
HETATM   12  C6  UNL     1      15.938  10.147  -2.417  1.00  0.00     0.002 C 
HETATM   13  C7  UNL     1      15.803   9.883  -0.978  1.00  0.00     0.026 C 
ENDBRANCH   1   8
TORSDOF 3
ENDMDL
MODEL 5
REMARK VINA RESULT: -5.615463767      1.601      1.711
REMARK  3 active torsions:
REMARK  status: ('A' for Active; 'I' for Inactive)
REMARK    1  A    between atoms: O1_2  and  S1_3 
REMARK    2  A    between atoms: S1_3  and  N1_6 
REMARK    3  A    between atoms: N1_6  and  C2_8 
ROOT
HETATM    1  N1  UNL     1      16.294  10.033  -0.570  1.00  0.00    -0.292 N 
ATOM      2  H1  UNL     1      16.125   9.041  -0.406  1.00  0.00     0.174 HD
ENDROOT
BRANCH   1   3
HETATM    3  S1  UNL     1      17.422  10.951   0.317  1.00  0.00     0.357 S 
HETATM    4  O2  UNL     1      18.014  12.064  -0.499  1.00  0.00    -0.176 OA
HETATM    5  O3  UNL     1      18.558  10.098   0.797  1.00  0.00    -0.176 OA
BRANCH   3   6
HETATM    6  O1  UNL     1      16.611  11.668   1.609  1.00  0.00    -0.265 OA
HETATM    7  C1  UNL     1      15.897  10.697   2.319  1.00  0.00     0.227 C 
ENDBRANCH   3   6
ENDBRANCH   1   3
BRANCH   1   8
HETATM    8  C2  UNL     1      15.597  10.809  -1.585  1.00  0.00     0.095 C 
HETATM    9  C3  UNL     1      14.264  11.189  -1.014  1.00  0.00     0.026 C 
HETATM   10  C4  UNL     1      13.223  10.112  -1.157  1.00  0.00     0.002 C 
HETATM   11  C5  UNL     1      13.085   9.843  -2.622  1.00  0.00     0.000 C 
HETATM   12  C6  UNL     1      14.345   9.411  -3.286  1.00  0.00     0.002 C 
HETATM   13  C7  UNL     1      15.584  10.069  -2.852  1.00  0.00     0.026 C 
ENDBRANCH   1   8
TORSDOF 3
ENDMDL
