MODEL 1
REMARK VINA RESULT: -5.992733563      0.000      0.000
REMARK  3 active torsions:
REMARK  status: ('A' for Active; 'I' for Inactive)
REMARK    1  A    between atoms: N1_4  and  O1_6 
REMARK    2  A    between atoms: O1_6  and  C4_7 
REMARK    3  A    between atoms: C4_7  and  C5_8 
ROOT
HETATM    1  C5  UNL     1      14.483  10.064   0.107  1.00  0.00     0.018 C 
HETATM    2  C6  UNL     1      14.090   8.626   0.110  1.00  0.00     0.040 C 
HETATM    3  C7  UNL     1      14.310   8.115   1.539  1.00  0.00     0.186 C 
HETATM    4  C8  UNL     1      15.104   9.253   2.194  1.00  0.00     0.038 C 
HETATM    5  C9  UNL     1      14.408  10.459   1.541  1.00  0.00    -0.005 C 
HETATM    6  C10 UNL     1      13.025  10.501   2.101  1.00  0.00     0.032 C 
HETATM    7  C11 UNL     1      12.671   9.242   2.874  1.00  0.00     0.233 C 
HETATM    8  N2  UNL     1      13.024   8.042   2.169  1.00  0.00    -0.071 N 
ATOM      9  H21 UNL     1      12.966   7.230   2.783  1.00  0.00     0.277 HD
ATOM     10  H22 UNL     1      12.302   7.793   1.492  1.00  0.00     0.277 HD
ENDROOT
BRANCH   1  11
HETATM   11  C4  UNL     1      13.654  10.895  -0.822  1.00  0.00     0.206 C 
BRANCH  11  12
HETATM   12  O1  UNL     1      13.466  10.129  -2.012  1.00  0.00    -0.280 OA
BRANCH  12  13
HETATM   13  N1  UNL     1      14.355  10.123  -3.037  1.00  0.00    -0.276 N 
HETATM   14  C2  UNL     1      14.009   9.753  -4.207  1.00  0.00     0.002 C 
HETATM   15  C1  UNL     1      12.623   9.327  -4.453  1.00  0.00     0.065 C 
HETATM   16  C3  UNL     1      15.056   9.781  -5.267  1.00  0.00     0.065 C 
ATOM     17  H1  UNL     1      15.316  10.419  -2.868  1.00  0.00     0.193 HD
ENDBRANCH  12  13
ENDBRANCH  11  12
ENDBRANCH   1  11
TORSDOF 3
ENDMDL
MODEL 2
REMARK VINA RESULT: -5.987872420      1.235      1.722
REMARK  3 active torsions:
REMARK  status: ('A' for Active; 'I' for Inactive)
REMARK    1  A    between atoms: N1_4  and  O1_6 
REMARK    2  A    between atoms: O1_6  and  C4_7 
REMARK    3  A    between atoms: C4_7  and  C5_8 
ROOT
HETATM    1  C5  UNL     1      13.811  10.424   0.316  1.00  0.00     0.018 C 
HETATM    2  C6  UNL     1      15.285  10.537   0.501  1.00  0.00     0.040 C 
HETATM    3  C7  UNL     1      15.535  10.590   2.012  1.00  0.00     0.186 C 
HETATM    4  C8  UNL     1      14.127  10.797   2.588  1.00  0.00     0.038 C 
HETATM    5  C9  UNL     1      13.325   9.906   1.625  1.00  0.00    -0.005 C 
HETATM    6  C10 UNL     1      13.724   8.498   1.921  1.00  0.00     0.032 C 
HETATM    7  C11 UNL     1      14.940   8.416   2.828  1.00  0.00     0.233 C 
HETATM    8  N2  UNL     1      15.999   9.293   2.413  1.00  0.00    -0.071 N 
ATOM      9  H21 UNL     1      16.711   9.371   3.140  1.00  0.00     0.277 HD
ATOM     10  H22 UNL     1      16.558   8.864   1.675  1.00  0.00     0.277 HD
ENDROOT
BRANCH   1  11
HETATM   11  C4  UNL     1      13.431   9.597  -0.872  1.00  0.00     0.206 C 
BRANCH  11  12
HETATM   12  O1  UNL     1      13.446  10.464  -2.007  1.00  0.00    -0.280 OA
BRANCH  12  13
HETATM   13  N1  UNL     1      14.336  10.339  -3.022  1.00  0.00    -0.276 N 
HETATM   14  C2  UNL     1      13.979   9.889  -4.160  1.00  0.00     0.002 C 
HETATM   15  C1  UNL     1      12.577   9.500  -4.379  1.00  0.00     0.065 C 
HETATM   16  C3  UNL     1      15.029   9.788  -5.212  1.00  0.00     0.065 C 
ATOM     17  H1  UNL     1      15.308  10.608  -2.873  1.00  0.00     0.193 HD
ENDBRANCH  12  13
ENDBRANCH  11  12
ENDBRANCH   1  11
TORSDOF 3
ENDMDL
MODEL 3
REMARK VINA RESULT: -5.965777559      1.533      1.953
REMARK  3 active torsions:
REMARK  status: ('A' for Active; 'I' for Inactive)
REMARK    1  A    between atoms: N1_4  and  O1_6 
REMARK    2  A    between atoms: O1_6  and  C4_7 
REMARK    3  A    between atoms: C4_7  and  C5_8 
ROOT
HETATM    1  C5  UNL     1      14.750   9.574   0.725  1.00  0.00     0.018 C 
HETATM    2  C6  UNL     1      13.436  10.259   0.886  1.00  0.00     0.040 C 
HETATM    3  C7  UNL     1      12.964   9.972   2.316  1.00  0.00     0.186 C 
HETATM    4  C8  UNL     1      13.933   8.877   2.785  1.00  0.00     0.038 C 
HETATM    5  C9  UNL     1      15.226   9.379   2.123  1.00  0.00    -0.005 C 
HETATM    6  C10 UNL     1      15.601  10.639   2.831  1.00  0.00     0.032 C 
HETATM    7  C11 UNL     1      14.493  11.150   3.736  1.00  0.00     0.233 C 
HETATM    8  N2  UNL     1      13.210  11.153   3.092  1.00  0.00    -0.071 N 
ATOM      9  H21 UNL     1      12.464  11.303   3.771  1.00  0.00     0.277 HD
ATOM     10  H22 UNL     1      13.091  11.992   2.523  1.00  0.00     0.277 HD
ENDROOT
BRANCH   1  11
HETATM   11  C4  UNL     1      15.694  10.319  -0.166  1.00  0.00     0.206 C 
BRANCH  11  12
HETATM   12  O1  UNL     1      14.927  10.812  -1.266  1.00  0.00    -0.280 OA
BRANCH  12  13
HETATM   13  N1  UNL     1      15.189  10.485  -2.556  1.00  0.00    -0.276 N 
HETATM   14  C2  UNL     1      14.267  10.061  -3.329  1.00  0.00     0.002 C 
HETATM   15  C1  UNL     1      12.896   9.925  -2.815  1.00  0.00     0.065 C 
HETATM   16  C3  UNL     1      14.653   9.727  -4.729  1.00  0.00     0.065 C 
ATOM     17  H1  UNL     1      16.139  10.578  -2.914  1.00  0.00     0.193 HD
ENDBRANCH  12  13
ENDBRANCH  11  12
ENDBRANCH   1  11
TORSDOF 3
ENDMDL
MODEL 4
REMARK VINA RESULT: -5.901235059      1.517      2.240
REMARK  3 active torsions:
REMARK  status: ('A' for Active; 'I' for Inactive)
REMARK    1  A    between atoms: N1_4  and  O1_6 
REMARK    2  A    between atoms: O1_6  and  C4_7 
REMARK    3  A    between atoms: C4_7  and  C5_8 
ROOT
HETATM    1  C5  UNL     1      14.175  10.466   0.657  1.00  0.00     0.018 C 
HETATM    2  C6  UNL     1      15.665  10.473   0.663  1.00  0.00     0.040 C 
HETATM    3  C7  UNL     1      16.097  10.641   2.125  1.00  0.00     0.186 C 
HETATM    4  C8  UNL     1      14.785  11.014   2.831  1.00  0.00     0.038 C 
HETATM    5  C9  UNL     1      13.812  10.109   2.057  1.00  0.00    -0.005 C 
HETATM    6  C10 UNL     1      14.144   8.705   2.445  1.00  0.00     0.032 C 
HETATM    7  C11 UNL     1      15.450   8.607   3.213  1.00  0.00     0.233 C 
HETATM    8  N2  UNL     1      16.512   9.353   2.597  1.00  0.00    -0.071 N 
ATOM      9  H21 UNL     1      17.309   9.437   3.228  1.00  0.00     0.277 HD
ATOM     10  H22 UNL     1      16.947   8.814   1.848  1.00  0.00     0.277 HD
ENDROOT
BRANCH   1  11
HETATM   11  C4  UNL     1      13.598   9.568  -0.393  1.00  0.00     0.206 C 
BRANCH  11  12
HETATM   12  O1  UNL     1      13.375  10.372  -1.552  1.00  0.00    -0.280 OA
BRANCH  12  13
HETATM   13  N1  UNL     1      12.457  10.063  -2.502  1.00  0.00    -0.276 N 
HETATM   14  C2  UNL     1      12.814   9.713  -3.675  1.00  0.00     0.002 C 
HETATM   15  C1  UNL     1      14.245   9.642  -4.007  1.00  0.00     0.065 C 
HETATM   16  C3  UNL     1      11.732   9.393  -4.648  1.00  0.00     0.065 C 
ATOM     17  H1  UNL     1      11.464  10.111  -2.274  1.00  0.00     0.193 HD
ENDBRANCH  12  13
ENDBRANCH  11  12
ENDBRANCH   1  11
TORSDOF 3
ENDMDL
MODEL 5
REMARK VINA RESULT: -5.875782021      1.186      2.086
REMARK  3 active torsions:
REMARK  status: ('A' for Active; 'I' for Inactive)
REMARK    1  A    between atoms: N1_4  and  O1_6 
REMARK    2  A    between atoms: O1_6  and  C4_7 
REMARK    3  A    between atoms: C4_7  and  C5_8 
ROOT
HETATM    1  C5  UNL     1      15.054  10.520  -0.176  1.00  0.00     0.018 C 
HETATM    2  C6  UNL     1      16.053  10.459   0.927  1.00  0.00     0.040 C 
HETATM    3  C7  UNL     1      15.264  10.224   2.221  1.00  0.00     0.186 C 
HETATM    4  C8  UNL     1      13.811  10.460   1.786  1.00  0.00     0.038 C 
HETATM    5  C9  UNL     1      13.859   9.830   0.384  1.00  0.00    -0.005 C 
HETATM    6  C10 UNL     1      14.030   8.361   0.587  1.00  0.00     0.032 C 
HETATM    7  C11 UNL     1      14.374   8.008   2.024  1.00  0.00     0.233 C 
HETATM    8  N2  UNL     1      15.412   8.840   2.565  1.00  0.00    -0.071 N 
ATOM      9  H21 UNL     1      15.481   8.723   3.576  1.00  0.00     0.277 HD
ATOM     10  H22 UNL     1      16.333   8.495   2.292  1.00  0.00     0.277 HD
ENDROOT
BRANCH   1  11
HETATM   11  C4  UNL     1      15.567   9.952  -1.463  1.00  0.00     0.206 C 
BRANCH  11  12
HETATM   12  O1  UNL     1      14.876  10.620  -2.519  1.00  0.00    -0.280 OA
BRANCH  12  13
HETATM   13  N1  UNL     1      13.690  10.188  -3.016  1.00  0.00    -0.276 N 
HETATM   14  C2  UNL     1      13.595   9.753  -4.211  1.00  0.00     0.002 C 
HETATM   15  C1  UNL     1      14.791   9.717  -5.067  1.00  0.00     0.065 C 
HETATM   16  C3  UNL     1      12.250   9.302  -4.666  1.00  0.00     0.065 C 
ATOM     17  H1  UNL     1      12.860  10.212  -2.424  1.00  0.00     0.193 HD
ENDBRANCH  12  13
ENDBRANCH  11  12
ENDBRANCH   1  11
TORSDOF 3
ENDMDL
