MODEL 1
REMARK VINA RESULT: -5.120826459      0.000      0.000
REMARK  2 active torsions:
REMARK  status: ('A' for Active; 'I' for Inactive)
REMARK    1  A    between atoms: C1_1  and  N2_9 
REMARK    2  A    between atoms: N1_2  and  C2_4 
ROOT
HETATM    1  C1  UNL     1      15.847  10.467   1.807  1.00  0.00     0.174 C 
HETATM    2  N1  UNL     1      15.445   9.718   0.855  1.00  0.00    -0.379 N 
ATOM      3  H1  UNL     1      16.106   9.407   0.143  1.00  0.00     0.160 HD
ENDROOT
BRANCH   1   4
HETATM    4  N2  UNL     1      17.194  10.866   1.881  1.00  0.00    -0.373 N 
HETATM    5  C6  UNL     1      18.130  10.073   2.616  1.00  0.00     0.149 C 
HETATM    6  C7  UNL     1      19.468  10.127   1.880  1.00  0.00     0.187 C 
HETATM    7  O2  UNL     1      19.273  10.489   0.542  1.00  0.00    -0.388 OA
HETATM    8  C8  UNL     1      18.939  11.848   0.538  1.00  0.00     0.187 C 
HETATM    9  C9  UNL     1      17.605  12.075   1.210  1.00  0.00     0.149 C 
ENDBRANCH   1   4
BRANCH   2  10
HETATM   10  C2  UNL     1      14.079   9.312   0.778  1.00  0.00     0.108 C 
HETATM   11  C3  UNL     1      13.214  10.168   1.668  1.00  0.00     0.053 C 
HETATM   12  C4  UNL     1      12.330   9.195   2.366  1.00  0.00     0.169 C 
HETATM   13  O1  UNL     1      12.665   7.923   1.993  1.00  0.00    -0.389 OA
HETATM   14  C5  UNL     1      13.872   7.933   1.349  1.00  0.00     0.192 C 
ENDBRANCH   2  10
TORSDOF 2
ENDMDL
MODEL 2
REMARK VINA RESULT: -5.108109535      1.380      5.637
REMARK  2 active torsions:
REMARK  status: ('A' for Active; 'I' for Inactive)
REMARK    1  A    between atoms: C1_1  and  N2_9 
REMARK    2  A    between atoms: N1_2  and  C2_4 
ROOT
HETATM    1  C1  UNL     1      15.489  10.633   1.212  1.00  0.00     0.174 C 
HETATM    2  N1  UNL     1      16.666  10.380   1.633  1.00  0.00    -0.379 N 
ATOM      3  H1  UNL     1      16.796   9.979   2.562  1.00  0.00     0.160 HD
ENDROOT
BRANCH   1   4
HETATM    4  N2  UNL     1      14.369  10.362   2.019  1.00  0.00    -0.373 N 
HETATM    5  C6  UNL     1      13.138   9.956   1.414  1.00  0.00     0.149 C 
HETATM    6  C7  UNL     1      12.474   8.941   2.343  1.00  0.00     0.187 C 
HETATM    7  O2  UNL     1      13.423   8.369   3.198  1.00  0.00    -0.388 OA
HETATM    8  C8  UNL     1      13.773   9.355   4.127  1.00  0.00     0.187 C 
HETATM    9  C9  UNL     1      14.487  10.501   3.451  1.00  0.00     0.149 C 
ENDBRANCH   1   4
BRANCH   2  10
HETATM   10  C2  UNL     1      17.804  10.654   0.815  1.00  0.00     0.108 C 
HETATM   11  C3  UNL     1      19.081  10.326   1.548  1.00  0.00     0.053 C 
HETATM   12  C4  UNL     1      19.968  11.490   1.277  1.00  0.00     0.169 C 
HETATM   13  O1  UNL     1      19.291  12.419   0.538  1.00  0.00    -0.389 OA
HETATM   14  C5  UNL     1      17.955  12.128   0.540  1.00  0.00     0.192 C 
ENDBRANCH   2  10
TORSDOF 2
ENDMDL
MODEL 3
REMARK VINA RESULT: -5.095674364      4.632      6.089
REMARK  2 active torsions:
REMARK  status: ('A' for Active; 'I' for Inactive)
REMARK    1  A    between atoms: C1_1  and  N2_9 
REMARK    2  A    between atoms: N1_2  and  C2_4 
ROOT
HETATM    1  C1  UNL     1      14.461  10.492   5.481  1.00  0.00     0.174 C 
HETATM    2  N1  UNL     1      13.721  10.486   4.443  1.00  0.00    -0.379 N 
ATOM      3  H1  UNL     1      12.831   9.988   4.459  1.00  0.00     0.160 HD
ENDROOT
BRANCH   1   4
HETATM    4  N2  UNL     1      14.058   9.818   6.649  1.00  0.00    -0.373 N 
HETATM    5  C6  UNL     1      13.739   8.425   6.591  1.00  0.00     0.149 C 
HETATM    6  C7  UNL     1      14.205   7.784   7.897  1.00  0.00     0.187 C 
HETATM    7  O2  UNL     1      15.184   8.577   8.507  1.00  0.00    -0.388 OA
HETATM    8  C8  UNL     1      14.529   9.707   9.011  1.00  0.00     0.187 C 
HETATM    9  C9  UNL     1      13.974  10.552   7.888  1.00  0.00     0.149 C 
ENDBRANCH   1   4
BRANCH   2  10
HETATM   10  C2  UNL     1      14.128  11.169   3.257  1.00  0.00     0.108 C 
HETATM   11  C3  UNL     1      14.211  10.216   2.091  1.00  0.00     0.053 C 
HETATM   12  C4  UNL     1      15.495  10.563   1.425  1.00  0.00     0.169 C 
HETATM   13  O1  UNL     1      16.128  11.546   2.134  1.00  0.00    -0.389 OA
HETATM   14  C5  UNL     1      15.541  11.681   3.362  1.00  0.00     0.192 C 
ENDBRANCH   2  10
TORSDOF 2
ENDMDL
MODEL 4
REMARK VINA RESULT: -5.078457174      5.169      6.217
REMARK  2 active torsions:
REMARK  status: ('A' for Active; 'I' for Inactive)
REMARK    1  A    between atoms: C1_1  and  N2_9 
REMARK    2  A    between atoms: N1_2  and  C2_4 
ROOT
HETATM    1  C1  UNL     1      14.467  10.346   5.824  1.00  0.00     0.174 C 
HETATM    2  N1  UNL     1      13.785   9.678   4.978  1.00  0.00    -0.379 N 
ATOM      3  H1  UNL     1      13.202   8.904   5.297  1.00  0.00     0.160 HD
ENDROOT
BRANCH   1   4
HETATM    4  N2  UNL     1      14.421  10.023   7.192  1.00  0.00    -0.373 N 
HETATM    5  C6  UNL     1      15.488   9.275   7.783  1.00  0.00     0.149 C 
HETATM    6  C7  UNL     1      15.692   9.794   9.205  1.00  0.00     0.187 C 
HETATM    7  O2  UNL     1      15.164  11.084   9.333  1.00  0.00    -0.388 OA
HETATM    8  C8  UNL     1      13.771  10.951   9.321  1.00  0.00     0.187 C 
HETATM    9  C9  UNL     1      13.290  10.456   7.978  1.00  0.00     0.149 C 
ENDBRANCH   1   4
BRANCH   2  10
HETATM   10  C2  UNL     1      13.830  10.004   3.589  1.00  0.00     0.108 C 
HETATM   11  C3  UNL     1      14.857   9.162   2.874  1.00  0.00     0.053 C 
HETATM   12  C4  UNL     1      15.586  10.129   2.009  1.00  0.00     0.169 C 
HETATM   13  O1  UNL     1      15.105  11.390   2.227  1.00  0.00    -0.389 OA
HETATM   14  C5  UNL     1      14.337  11.404   3.358  1.00  0.00     0.192 C 
ENDBRANCH   2  10
TORSDOF 2
ENDMDL
MODEL 5
REMARK VINA RESULT: -5.053535746      4.789      5.978
REMARK  2 active torsions:
REMARK  status: ('A' for Active; 'I' for Inactive)
REMARK    1  A    between atoms: C1_1  and  N2_9 
REMARK    2  A    between atoms: N1_2  and  C2_4 
ROOT
HETATM    1  C1  UNL     1      14.295   9.162   5.557  1.00  0.00     0.174 C 
HETATM    2  N1  UNL     1      13.409   9.336   4.656  1.00  0.00    -0.379 N 
ATOM      3  H1  UNL     1      12.437   9.492   4.926  1.00  0.00     0.160 HD
ENDROOT
BRANCH   1   4
HETATM    4  N2  UNL     1      13.943   9.183   6.918  1.00  0.00    -0.373 N 
HETATM    5  C6  UNL     1      13.820   7.954   7.640  1.00  0.00     0.149 C 
HETATM    6  C7  UNL     1      14.317   8.197   9.064  1.00  0.00     0.187 C 
HETATM    7  O2  UNL     1      15.153   9.319   9.103  1.00  0.00    -0.388 OA
HETATM    8  C8  UNL     1      14.331  10.440   8.940  1.00  0.00     0.187 C 
HETATM    9  C9  UNL     1      13.710  10.454   7.563  1.00  0.00     0.149 C 
ENDBRANCH   1   4
BRANCH   2  10
HETATM   10  C2  UNL     1      13.764   9.315   3.273  1.00  0.00     0.108 C 
HETATM   11  C3  UNL     1      13.594  10.681   2.656  1.00  0.00     0.053 C 
HETATM   12  C4  UNL     1      12.907  10.416   1.363  1.00  0.00     0.169 C 
HETATM   13  O1  UNL     1      12.641   9.079   1.252  1.00  0.00    -0.389 OA
HETATM   14  C5  UNL     1      12.814   8.470   2.464  1.00  0.00     0.192 C 
ENDBRANCH   2  10
TORSDOF 2
ENDMDL
