MODEL 1
REMARK VINA RESULT: -5.597624244      0.000      0.000
REMARK  2 active torsions:
REMARK  status: ('A' for Active; 'I' for Inactive)
REMARK    1  A    between atoms: C2_3  and  N2_4 
REMARK    2  A    between atoms: N3_7  and  C5_8 
ROOT
HETATM    1  N1  UNL     1      17.784  12.862   1.419  1.00  0.00    -0.195 NA
HETATM    2  C1  UNL     1      17.166  11.890   1.631  1.00  0.00     0.089 C 
HETATM    3  C2  UNL     1      16.368  10.683   1.893  1.00  0.00     0.396 C 
ENDROOT
BRANCH   3   4
HETATM    4  N2  UNL     1      16.180  10.552   3.316  1.00  0.00     0.107 N 
HETATM    5  C3  UNL     1      14.744  10.371   3.588  1.00  0.00     0.293 C 
HETATM    6  C4  UNL     1      14.631  10.569   5.099  1.00  0.00     0.152 C 
HETATM    7  N3  UNL     1      15.276   9.465   5.719  1.00  0.00    -0.385 N 
HETATM    8  C10 UNL     1      16.565   9.130   5.269  1.00  0.00     0.088 C 
HETATM    9  C11 UNL     1      16.795   9.338   3.816  1.00  0.00     0.318 C 
BRANCH   7  10
HETATM   10  C5  UNL     1      15.007   9.435   7.090  1.00  0.00     0.083 C 
HETATM   11  C6  UNL     1      13.649   9.900   7.525  1.00  0.00     0.025 C 
HETATM   12  C7  UNL     1      12.845   8.696   7.903  1.00  0.00     0.002 C 
HETATM   13  C8  UNL     1      13.743   7.508   7.863  1.00  0.00     0.002 C 
HETATM   14  C9  UNL     1      15.117   8.094   7.764  1.00  0.00     0.025 C 
ENDBRANCH   7  10
ENDBRANCH   3   4
TORSDOF 2
ENDMDL
MODEL 2
REMARK VINA RESULT: -5.426821210      1.798      2.743
REMARK  2 active torsions:
REMARK  status: ('A' for Active; 'I' for Inactive)
REMARK    1  A    between atoms: C2_3  and  N2_4 
REMARK    2  A    between atoms: N3_7  and  C5_8 
ROOT
HETATM    1  N1  UNL     1      15.936  11.977   2.781  1.00  0.00    -0.195 NA
HETATM    2  C1  UNL     1      15.322  11.049   3.148  1.00  0.00     0.089 C 
HETATM    3  C2  UNL     1      14.528   9.899   3.605  1.00  0.00     0.396 C 
ENDROOT
BRANCH   3   4
HETATM    4  N2  UNL     1      14.544   9.870   5.046  1.00  0.00     0.107 N 
HETATM    5  C3  UNL     1      13.469   8.979   5.513  1.00  0.00     0.293 C 
HETATM    6  C4  UNL     1      13.373   9.275   7.009  1.00  0.00     0.152 C 
HETATM    7  N3  UNL     1      14.562   8.784   7.614  1.00  0.00    -0.385 N 
HETATM    8  C10 UNL     1      15.786   9.144   7.025  1.00  0.00     0.088 C 
HETATM    9  C11 UNL     1      15.760   9.256   5.544  1.00  0.00     0.318 C 
BRANCH   7  10
HETATM   10  C5  UNL     1      14.451   8.788   9.007  1.00  0.00     0.083 C 
HETATM   11  C6  UNL     1      15.590   9.388   9.777  1.00  0.00     0.025 C 
HETATM   12  C7  UNL     1      15.152  10.722  10.291  1.00  0.00     0.002 C 
HETATM   13  C8  UNL     1      13.702  10.883   9.987  1.00  0.00     0.002 C 
HETATM   14  C9  UNL     1      13.262   9.511   9.582  1.00  0.00     0.025 C 
ENDBRANCH   7  10
ENDBRANCH   3   4
TORSDOF 2
ENDMDL
MODEL 3
REMARK VINA RESULT: -5.418064637      1.027      1.961
REMARK  2 active torsions:
REMARK  status: ('A' for Active; 'I' for Inactive)
REMARK    1  A    between atoms: C2_3  and  N2_4 
REMARK    2  A    between atoms: N3_7  and  C5_8 
ROOT
HETATM    1  N1  UNL     1      17.587  13.117   2.025  1.00  0.00    -0.195 NA
HETATM    2  C1  UNL     1      17.271  12.021   1.757  1.00  0.00     0.089 C 
HETATM    3  C2  UNL     1      16.852  10.655   1.410  1.00  0.00     0.396 C 
ENDROOT
BRANCH   3   4
HETATM    4  N2  UNL     1      16.230  10.054   2.563  1.00  0.00     0.107 N 
HETATM    5  C3  UNL     1      17.215  10.002   3.657  1.00  0.00     0.293 C 
HETATM    6  C4  UNL     1      16.567   9.077   4.687  1.00  0.00     0.152 C 
HETATM    7  N3  UNL     1      15.442   9.761   5.221  1.00  0.00    -0.385 N 
HETATM    8  C10 UNL     1      14.542  10.342   4.310  1.00  0.00     0.088 C 
HETATM    9  C11 UNL     1      15.165  10.892   3.079  1.00  0.00     0.318 C 
BRANCH   7  10
HETATM   10  C5  UNL     1      14.939   9.095   6.342  1.00  0.00     0.083 C 
HETATM   11  C6  UNL     1      15.751   9.174   7.601  1.00  0.00     0.025 C 
HETATM   12  C7  UNL     1      15.064  10.114   8.538  1.00  0.00     0.002 C 
HETATM   13  C8  UNL     1      13.752  10.491   7.940  1.00  0.00     0.002 C 
HETATM   14  C9  UNL     1      13.574   9.519   6.816  1.00  0.00     0.025 C 
ENDBRANCH   7  10
ENDBRANCH   3   4
TORSDOF 2
ENDMDL
MODEL 4
REMARK VINA RESULT: -5.377488815      2.292      3.446
REMARK  2 active torsions:
REMARK  status: ('A' for Active; 'I' for Inactive)
REMARK    1  A    between atoms: C2_3  and  N2_4 
REMARK    2  A    between atoms: N3_7  and  C5_8 
ROOT
HETATM    1  N1  UNL     1      13.453   9.347   2.127  1.00  0.00    -0.195 NA
HETATM    2  C1  UNL     1      14.390   9.387   2.829  1.00  0.00     0.089 C 
HETATM    3  C2  UNL     1      15.571   9.413   3.704  1.00  0.00     0.396 C 
ENDROOT
BRANCH   3   4
HETATM    4  N2  UNL     1      15.137   9.259   5.070  1.00  0.00     0.107 N 
HETATM    5  C3  UNL     1      16.325   9.161   5.935  1.00  0.00     0.293 C 
HETATM    6  C4  UNL     1      15.763   8.684   7.274  1.00  0.00     0.152 C 
HETATM    7  N3  UNL     1      14.991   9.749   7.811  1.00  0.00    -0.385 N 
HETATM    8  C10 UNL     1      14.046  10.357   6.965  1.00  0.00     0.088 C 
HETATM    9  C11 UNL     1      14.450  10.447   5.539  1.00  0.00     0.318 C 
BRANCH   7  10
HETATM   10  C5  UNL     1      14.646   9.494   9.141  1.00  0.00     0.083 C 
HETATM   11  C6  UNL     1      15.526  10.092  10.198  1.00  0.00     0.025 C 
HETATM   12  C7  UNL     1      14.799  11.246  10.810  1.00  0.00     0.002 C 
HETATM   13  C8  UNL     1      13.415  11.268  10.258  1.00  0.00     0.002 C 
HETATM   14  C9  UNL     1      13.276   9.944   9.575  1.00  0.00     0.025 C 
ENDBRANCH   7  10
ENDBRANCH   3   4
TORSDOF 2
ENDMDL
MODEL 5
REMARK VINA RESULT: -5.375881524      1.959      3.061
REMARK  2 active torsions:
REMARK  status: ('A' for Active; 'I' for Inactive)
REMARK    1  A    between atoms: C2_3  and  N2_4 
REMARK    2  A    between atoms: N3_7  and  C5_8 
ROOT
HETATM    1  N1  UNL     1      15.971  12.069   3.204  1.00  0.00    -0.195 NA
HETATM    2  C1  UNL     1      15.740  10.932   3.366  1.00  0.00     0.089 C 
HETATM    3  C2  UNL     1      15.425   9.509   3.559  1.00  0.00     0.396 C 
ENDROOT
BRANCH   3   4
HETATM    4  N2  UNL     1      15.071   9.297   4.940  1.00  0.00     0.107 N 
HETATM    5  C3  UNL     1      16.303   9.270   5.745  1.00  0.00     0.293 C 
HETATM    6  C4  UNL     1      15.844   8.727   7.098  1.00  0.00     0.152 C 
HETATM    7  N3  UNL     1      15.023   9.722   7.695  1.00  0.00    -0.385 N 
HETATM    8  C10 UNL     1      13.996  10.274   6.908  1.00  0.00     0.088 C 
HETATM    9  C11 UNL     1      14.323  10.422   5.467  1.00  0.00     0.318 C 
BRANCH   7  10
HETATM   10  C5  UNL     1      14.762   9.416   9.033  1.00  0.00     0.083 C 
HETATM   11  C6  UNL     1      15.845   9.725  10.024  1.00  0.00     0.025 C 
HETATM   12  C7  UNL     1      15.436  10.938  10.797  1.00  0.00     0.002 C 
HETATM   13  C8  UNL     1      14.039  11.285  10.409  1.00  0.00     0.002 C 
HETATM   14  C9  UNL     1      13.564  10.085   9.652  1.00  0.00     0.025 C 
ENDBRANCH   7  10
ENDBRANCH   3   4
TORSDOF 2
ENDMDL
