MODEL 1
REMARK VINA RESULT: -5.100490050      0.000      0.000
REMARK  2 active torsions:
REMARK  status: ('A' for Active; 'I' for Inactive)
REMARK    1  A    between atoms: N1_7  and  C6_8 
REMARK    2  A    between atoms: C6_8  and  C7_9 
ROOT
HETATM    1  C1  UNL     1      15.577   9.880   3.872  1.00  0.00     0.198 C 
HETATM    2  C2  UNL     1      14.519  10.862   4.288  1.00  0.00     0.198 C 
HETATM    3  O1  UNL     1      14.602  10.835   5.674  1.00  0.00    -0.351 OA
HETATM    4  C3  UNL     1      14.794   9.480   5.920  1.00  0.00     0.192 C 
HETATM    5  C4  UNL     1      13.427   8.813   5.954  1.00  0.00     0.100 C 
HETATM    6  C5  UNL     1      13.019   9.098   7.407  1.00  0.00     0.278 C 
HETATM    7  N1  UNL     1      14.230   8.687   8.089  1.00  0.00     0.094 N 
HETATM    8  C10 UNL     1      15.304   9.219   7.321  1.00  0.00     0.340 C 
HETATM    9  O2  UNL     1      15.609   8.988   4.937  1.00  0.00    -0.351 OA
ENDROOT
BRANCH   7  10
HETATM   10  C6  UNL     1      14.250   9.076   9.474  1.00  0.00     0.277 C 
BRANCH  10  11
HETATM   11  C7  UNL     1      14.402  10.587   9.517  1.00  0.00     0.014 A 
HETATM   12  C8  UNL     1      14.857  11.237  10.782  1.00  0.00     0.007 A 
HETATM   13  C9  UNL     1      13.394  11.398  10.288  1.00  0.00     0.007 A 
ENDBRANCH  10  11
ENDBRANCH   7  10
TORSDOF 2
ENDMDL
MODEL 2
REMARK VINA RESULT: -5.042653857      2.451      3.834
REMARK  2 active torsions:
REMARK  status: ('A' for Active; 'I' for Inactive)
REMARK    1  A    between atoms: N1_7  and  C6_8 
REMARK    2  A    between atoms: C6_8  and  C7_9 
ROOT
HETATM    1  C1  UNL     1      13.086   9.753   1.050  1.00  0.00     0.198 C 
HETATM    2  C2  UNL     1      13.887   8.483   1.109  1.00  0.00     0.198 C 
HETATM    3  O1  UNL     1      13.988   8.247   2.473  1.00  0.00    -0.351 OA
HETATM    4  C3  UNL     1      14.197   9.528   2.970  1.00  0.00     0.192 C 
HETATM    5  C4  UNL     1      15.684   9.829   2.876  1.00  0.00     0.100 C 
HETATM    6  C5  UNL     1      16.180   9.165   4.170  1.00  0.00     0.278 C 
HETATM    7  N1  UNL     1      15.217   9.704   5.109  1.00  0.00     0.094 N 
HETATM    8  C10 UNL     1      13.953   9.611   4.461  1.00  0.00     0.340 C 
HETATM    9  O2  UNL     1      13.426  10.391   2.237  1.00  0.00    -0.351 OA
ENDROOT
BRANCH   7  10
HETATM   10  C6  UNL     1      15.267   9.057   6.393  1.00  0.00     0.277 C 
BRANCH  10  11
HETATM   11  C7  UNL     1      13.880   8.503   6.674  1.00  0.00     0.014 A 
HETATM   12  C8  UNL     1      13.243   8.773   7.997  1.00  0.00     0.007 A 
HETATM   13  C9  UNL     1      13.739   7.348   7.630  1.00  0.00     0.007 A 
ENDBRANCH  10  11
ENDBRANCH   7  10
TORSDOF 2
ENDMDL
MODEL 3
REMARK VINA RESULT: -5.041201893      2.173      4.942
REMARK  2 active torsions:
REMARK  status: ('A' for Active; 'I' for Inactive)
REMARK    1  A    between atoms: N1_7  and  C6_8 
REMARK    2  A    between atoms: C6_8  and  C7_9 
ROOT
HETATM    1  C1  UNL     1      12.705  12.437  10.424  1.00  0.00     0.198 C 
HETATM    2  C2  UNL     1      13.856  11.637  10.964  1.00  0.00     0.198 C 
HETATM    3  O1  UNL     1      14.425  11.104   9.815  1.00  0.00    -0.351 OA
HETATM    4  C3  UNL     1      13.301  10.771   9.069  1.00  0.00     0.192 C 
HETATM    5  C4  UNL     1      12.832   9.396   9.517  1.00  0.00     0.100 C 
HETATM    6  C5  UNL     1      13.752   8.504   8.670  1.00  0.00     0.278 C 
HETATM    7  N1  UNL     1      13.578   9.128   7.374  1.00  0.00     0.094 N 
HETATM    8  C10 UNL     1      13.631  10.531   7.611  1.00  0.00     0.340 C 
HETATM    9  O2  UNL     1      12.363  11.750   9.266  1.00  0.00    -0.351 OA
ENDROOT
BRANCH   7  10
HETATM   10  C6  UNL     1      14.526   8.662   6.398  1.00  0.00     0.277 C 
BRANCH  10  11
HETATM   11  C7  UNL     1      14.602   9.714   5.304  1.00  0.00     0.014 A 
HETATM   12  C8  UNL     1      13.898   9.471   4.010  1.00  0.00     0.007 A 
HETATM   13  C9  UNL     1      15.448   9.439   4.088  1.00  0.00     0.007 A 
ENDBRANCH  10  11
ENDBRANCH   7  10
TORSDOF 2
ENDMDL
MODEL 4
REMARK VINA RESULT: -4.995454923      2.352      4.648
REMARK  2 active torsions:
REMARK  status: ('A' for Active; 'I' for Inactive)
REMARK    1  A    between atoms: N1_7  and  C6_8 
REMARK    2  A    between atoms: C6_8  and  C7_9 
ROOT
HETATM    1  C1  UNL     1      12.737  12.496  10.428  1.00  0.00     0.198 C 
HETATM    2  C2  UNL     1      13.861  11.660  10.971  1.00  0.00     0.198 C 
HETATM    3  O1  UNL     1      14.374  11.058   9.830  1.00  0.00    -0.351 OA
HETATM    4  C3  UNL     1      13.217  10.756   9.122  1.00  0.00     0.192 C 
HETATM    5  C4  UNL     1      12.693   9.422   9.631  1.00  0.00     0.100 C 
HETATM    6  C5  UNL     1      13.547   8.456   8.796  1.00  0.00     0.278 C 
HETATM    7  N1  UNL     1      13.371   9.041   7.483  1.00  0.00     0.094 N 
HETATM    8  C10 UNL     1      13.499  10.447   7.667  1.00  0.00     0.340 C 
HETATM    9  O2  UNL     1      12.334  11.786   9.305  1.00  0.00    -0.351 OA
ENDROOT
BRANCH   7  10
HETATM   10  C6  UNL     1      14.271   8.494   6.503  1.00  0.00     0.277 C 
BRANCH  10  11
HETATM   11  C7  UNL     1      15.554   9.305   6.564  1.00  0.00     0.014 A 
HETATM   12  C8  UNL     1      16.670   8.974   5.629  1.00  0.00     0.007 A 
HETATM   13  C9  UNL     1      16.789   8.669   7.147  1.00  0.00     0.007 A 
ENDBRANCH  10  11
ENDBRANCH   7  10
TORSDOF 2
ENDMDL
MODEL 5
REMARK VINA RESULT: -4.980348596      1.319      1.732
REMARK  2 active torsions:
REMARK  status: ('A' for Active; 'I' for Inactive)
REMARK    1  A    between atoms: N1_7  and  C6_8 
REMARK    2  A    between atoms: C6_8  and  C7_9 
ROOT
HETATM    1  C1  UNL     1      13.914  10.370   3.251  1.00  0.00     0.198 C 
HETATM    2  C2  UNL     1      13.675   8.936   3.628  1.00  0.00     0.198 C 
HETATM    3  O1  UNL     1      13.488   9.007   5.002  1.00  0.00    -0.351 OA
HETATM    4  C3  UNL     1      14.448   9.942   5.372  1.00  0.00     0.192 C 
HETATM    5  C4  UNL     1      15.768   9.210   5.554  1.00  0.00     0.100 C 
HETATM    6  C5  UNL     1      15.601   8.699   6.993  1.00  0.00     0.278 C 
HETATM    7  N1  UNL     1      15.160   9.919   7.639  1.00  0.00     0.094 N 
HETATM    8  C10 UNL     1      14.202  10.497   6.759  1.00  0.00     0.340 C 
HETATM    9  O2  UNL     1      14.495  10.901   4.396  1.00  0.00    -0.351 OA
ENDROOT
BRANCH   7  10
HETATM   10  C6  UNL     1      14.671   9.698   8.974  1.00  0.00     0.277 C 
BRANCH  10  11
HETATM   11  C7  UNL     1      14.553  11.057   9.643  1.00  0.00     0.014 A 
HETATM   12  C8  UNL     1      14.993  11.212  11.061  1.00  0.00     0.007 A 
HETATM   13  C9  UNL     1      13.487  11.265  10.686  1.00  0.00     0.007 A 
ENDBRANCH  10  11
ENDBRANCH   7  10
TORSDOF 2
ENDMDL
