MODEL 1
REMARK VINA RESULT: -5.273611824      0.000      0.000
REMARK  2 active torsions:
REMARK  status: ('A' for Active; 'I' for Inactive)
REMARK    1  A    between atoms: N1_4  and  C4_5 
REMARK    2  A    between atoms: C4_5  and  C5_6 
ROOT
HETATM    1  C1  UNL     1      12.730   9.369   9.707  1.00  0.00     0.028 C 
HETATM    2  C2  UNL     1      12.719   8.644   8.381  1.00  0.00     0.022 C 
HETATM    3  C3  UNL     1      14.058   8.121   7.965  1.00  0.00     0.122 C 
HETATM    4  N1  UNL     1      15.005   9.090   7.529  1.00  0.00    -0.389 N 
HETATM    5  C8  UNL     1      15.740   9.665   8.548  1.00  0.00     0.148 C 
HETATM    6  C9  UNL     1      15.051  10.963   8.999  1.00  0.00     0.187 C 
HETATM    7  O2  UNL     1      13.781  11.106   8.474  1.00  0.00    -0.390 OA
HETATM    8  C10 UNL     1      12.793  10.875   9.436  1.00  0.00     0.167 C 
ENDROOT
BRANCH   4   9
HETATM    9  C4  UNL     1      15.373   8.976   6.212  1.00  0.00     0.090 C 
BRANCH   9  10
HETATM   10  C5  UNL     1      14.397   9.325   5.130  1.00  0.00     0.161 C 
HETATM   11  C6  UNL     1      14.604  10.763   4.630  1.00  0.00     0.063 C 
HETATM   12  C7  UNL     1      14.150  10.060   3.371  1.00  0.00     0.171 C 
HETATM   13  O1  UNL     1      14.860   8.940   3.843  1.00  0.00    -0.381 OA
ENDBRANCH   9  10
ENDBRANCH   4   9
TORSDOF 2
ENDMDL
MODEL 2
REMARK VINA RESULT: -5.049970611      1.086      1.524
REMARK  2 active torsions:
REMARK  status: ('A' for Active; 'I' for Inactive)
REMARK    1  A    between atoms: N1_4  and  C4_5 
REMARK    2  A    between atoms: C4_5  and  C5_6 
ROOT
HETATM    1  C1  UNL     1      13.506  10.475   9.936  1.00  0.00     0.028 C 
HETATM    2  C2  UNL     1      13.298  10.801   8.475  1.00  0.00     0.022 C 
HETATM    3  C3  UNL     1      13.332   9.605   7.576  1.00  0.00     0.122 C 
HETATM    4  N1  UNL     1      14.609   9.019   7.356  1.00  0.00    -0.389 N 
HETATM    5  C8  UNL     1      14.982   8.093   8.311  1.00  0.00     0.148 C 
HETATM    6  C9  UNL     1      15.811   8.794   9.399  1.00  0.00     0.187 C 
HETATM    7  O2  UNL     1      15.774  10.171   9.297  1.00  0.00    -0.390 OA
HETATM    8  C10 UNL     1      14.971  10.743  10.290  1.00  0.00     0.167 C 
ENDROOT
BRANCH   4   9
HETATM    9  C4  UNL     1      15.053   9.086   6.059  1.00  0.00     0.090 C 
BRANCH   9  10
HETATM   10  C5  UNL     1      14.124   9.536   4.973  1.00  0.00     0.161 C 
HETATM   11  C6  UNL     1      14.622  10.828   4.308  1.00  0.00     0.063 C 
HETATM   12  C7  UNL     1      13.953  10.122   3.150  1.00  0.00     0.171 C 
HETATM   13  O1  UNL     1      14.416   8.924   3.725  1.00  0.00    -0.381 OA
ENDBRANCH   9  10
ENDBRANCH   4   9
TORSDOF 2
ENDMDL
MODEL 3
REMARK VINA RESULT: -4.934211746      1.361      1.979
REMARK  2 active torsions:
REMARK  status: ('A' for Active; 'I' for Inactive)
REMARK    1  A    between atoms: N1_4  and  C4_5 
REMARK    2  A    between atoms: C4_5  and  C5_6 
ROOT
HETATM    1  C1  UNL     1      13.808  10.776  10.319  1.00  0.00     0.028 C 
HETATM    2  C2  UNL     1      13.107  10.900   8.986  1.00  0.00     0.022 C 
HETATM    3  C3  UNL     1      12.720   9.587   8.380  1.00  0.00     0.122 C 
HETATM    4  N1  UNL     1      13.782   8.802   7.849  1.00  0.00    -0.389 N 
HETATM    5  C8  UNL     1      14.408   7.992   8.776  1.00  0.00     0.148 C 
HETATM    6  C9  UNL     1      15.627   8.730   9.353  1.00  0.00     0.187 C 
HETATM    7  O2  UNL     1      15.657  10.067   9.007  1.00  0.00    -0.390 OA
HETATM    8  C10 UNL     1      15.317  10.889  10.086  1.00  0.00     0.167 C 
ENDROOT
BRANCH   4   9
HETATM    9  C4  UNL     1      13.725   8.608   6.492  1.00  0.00     0.090 C 
BRANCH   9  10
HETATM   10  C5  UNL     1      14.619   9.398   5.585  1.00  0.00     0.161 C 
HETATM   11  C6  UNL     1      14.009   9.543   4.183  1.00  0.00     0.063 C 
HETATM   12  C7  UNL     1      14.753  10.851   4.333  1.00  0.00     0.171 C 
HETATM   13  O1  UNL     1      14.398  10.796   5.695  1.00  0.00    -0.381 OA
ENDBRANCH   9  10
ENDBRANCH   4   9
TORSDOF 2
ENDMDL
MODEL 4
REMARK VINA RESULT: -4.885820680      1.176      1.269
REMARK  2 active torsions:
REMARK  status: ('A' for Active; 'I' for Inactive)
REMARK    1  A    between atoms: N1_4  and  C4_5 
REMARK    2  A    between atoms: C4_5  and  C5_6 
ROOT
HETATM    1  C1  UNL     1      13.142   9.190   9.088  1.00  0.00     0.028 C 
HETATM    2  C2  UNL     1      13.138   9.333   7.584  1.00  0.00     0.022 C 
HETATM    3  C3  UNL     1      14.117   8.440   6.887  1.00  0.00     0.122 C 
HETATM    4  N1  UNL     1      15.490   8.796   7.007  1.00  0.00    -0.389 N 
HETATM    5  C8  UNL     1      16.109   8.301   8.139  1.00  0.00     0.148 C 
HETATM    6  C9  UNL     1      16.036   9.353   9.258  1.00  0.00     0.187 C 
HETATM    7  O2  UNL     1      15.184  10.397   8.956  1.00  0.00    -0.390 OA
HETATM    8  C10 UNL     1      13.991  10.318   9.681  1.00  0.00     0.167 C 
ENDROOT
BRANCH   4   9
HETATM    9  C4  UNL     1      16.094   9.148   5.826  1.00  0.00     0.090 C 
BRANCH   9  10
HETATM   10  C5  UNL     1      15.273   9.303   4.583  1.00  0.00     0.161 C 
HETATM   11  C6  UNL     1      15.705  10.535   3.775  1.00  0.00     0.063 C 
HETATM   12  C7  UNL     1      15.280   9.582   2.681  1.00  0.00     0.171 C 
HETATM   13  O1  UNL     1      15.796   8.555   3.495  1.00  0.00    -0.381 OA
ENDBRANCH   9  10
ENDBRANCH   4   9
TORSDOF 2
ENDMDL
MODEL 5
REMARK VINA RESULT: -4.821633433      5.126      7.591
REMARK  2 active torsions:
REMARK  status: ('A' for Active; 'I' for Inactive)
REMARK    1  A    between atoms: N1_4  and  C4_5 
REMARK    2  A    between atoms: C4_5  and  C5_6 
ROOT
HETATM    1  C1  UNL     1      21.283  10.528   1.565  1.00  0.00     0.028 C 
HETATM    2  C2  UNL     1      20.629  10.273   2.904  1.00  0.00     0.022 C 
HETATM    3  C3  UNL     1      19.228   9.757   2.806  1.00  0.00     0.122 C 
HETATM    4  N1  UNL     1      18.238  10.695   2.400  1.00  0.00    -0.389 N 
HETATM    5  C8  UNL     1      18.101  10.821   1.031  1.00  0.00     0.148 C 
HETATM    6  C9  UNL     1      18.986  11.977   0.538  1.00  0.00     0.187 C 
HETATM    7  O2  UNL     1      19.862  12.431   1.505  1.00  0.00    -0.390 OA
HETATM    8  C10 UNL     1      21.175  12.022   1.248  1.00  0.00     0.167 C 
ENDROOT
BRANCH   4   9
HETATM    9  C4  UNL     1      17.286  10.968   3.350  1.00  0.00     0.090 C 
BRANCH   9  10
HETATM   10  C5  UNL     1      15.850  11.121   2.949  1.00  0.00     0.161 C 
HETATM   11  C6  UNL     1      14.919  10.331   3.880  1.00  0.00     0.063 C 
HETATM   12  C7  UNL     1      14.060  11.522   3.521  1.00  0.00     0.171 C 
HETATM   13  O1  UNL     1      15.251  12.273   3.524  1.00  0.00    -0.381 OA
ENDBRANCH   9  10
ENDBRANCH   4   9
TORSDOF 2
ENDMDL
