MODEL 1
REMARK VINA RESULT: -8.019268226      0.000      0.000
REMARK  10 active torsions:
REMARK  status: ('A' for Active; 'I' for Inactive)
REMARK    1  A    between atoms: C2_2  and  C3_3 
REMARK    2  A    between atoms: C3_3  and  N1_4 
REMARK       I    between atoms: N1_4  and  C4_6 
REMARK    3  A    between atoms: C4_6  and  C5_8 
REMARK    4  A    between atoms: C5_8  and  C6_9 
REMARK    5  A    between atoms: C5_8  and  C22_30 
REMARK    6  A    between atoms: C6_9  and  C7_10 
REMARK    7  A    between atoms: C7_10  and  C8_11 
REMARK    8  A    between atoms: C8_11  and  C10_13 
REMARK    9  A    between atoms: C15_18  and  O2_19 
REMARK   10  A    between atoms: C16_22  and  O4_23 
ROOT
HETATM    1  C10 UNL     1      -7.424 -24.289   5.626  1.00  0.00    -0.002 C 
HETATM    2  C11 UNL     1      -8.087 -23.358   4.548  1.00  0.00     0.006 C 
HETATM    3  C12 UNL     1      -9.288 -24.186   4.136  1.00  0.00     0.006 C 
HETATM    4  C13 UNL     1      -9.010 -25.541   4.684  1.00  0.00     0.003 C 
HETATM    5  C14 UNL     1      -9.655 -26.669   4.139  1.00  0.00     0.054 C 
HETATM    6  C15 UNL     1      -9.932 -26.899   2.700  1.00  0.00     0.265 C 
HETATM    7  O3  UNL     1     -10.705 -28.096   2.862  1.00  0.00    -0.331 OA
HETATM    8  C16 UNL     1      -9.686 -28.886   3.461  1.00  0.00     0.264 C 
HETATM    9  C17 UNL     1      -9.096 -28.009   4.544  1.00  0.00     0.050 C 
HETATM   10  C18 UNL     1      -7.622 -28.008   4.621  1.00  0.00     0.011 C 
HETATM   11  C19 UNL     1      -7.101 -26.809   5.407  1.00  0.00     0.010 C 
HETATM   12  C20 UNL     1      -7.453 -25.511   4.822  1.00  0.00    -0.036 C 
HETATM   13  C21 UNL     1      -6.929 -25.284   3.429  1.00  0.00     0.016 C 
ENDROOT
BRANCH   1  14
HETATM   14  C8  UNL     1      -6.291 -23.629   6.255  1.00  0.00    -0.014 C 
HETATM   15  C9  UNL     1      -6.355 -22.103   6.285  1.00  0.00     0.010 C 
BRANCH  14  16
HETATM   16  C7  UNL     1      -4.983 -23.913   5.602  1.00  0.00     0.005 C 
BRANCH  16  17
HETATM   17  C6  UNL     1      -3.825 -23.022   5.793  1.00  0.00     0.015 C 
BRANCH  17  18
HETATM   18  C5  UNL     1      -2.798 -23.290   6.807  1.00  0.00     0.081 C 
BRANCH  18  19
HETATM   19  C4  UNL     1      -1.500 -23.711   6.333  1.00  0.00     0.226 C 
HETATM   20  N1  UNL     1      -0.325 -23.720   7.148  1.00  0.00    -0.337 N 
ATOM     21  H1  UNL     1      -0.441 -23.396   8.108  1.00  0.00     0.168 HD
HETATM   22  O1  UNL     1      -1.301 -24.113   5.135  1.00  0.00    -0.273 OA
BRANCH  20  23
HETATM   23  C3  UNL     1       0.974 -24.125   6.779  1.00  0.00     0.090 C 
BRANCH  23  24
HETATM   24  C2  UNL     1       2.053 -23.171   6.984  1.00  0.00     0.007 C 
HETATM   25  C1  UNL     1       2.028 -21.904   7.296  1.00  0.00     0.012 C 
ENDBRANCH  23  24
ENDBRANCH  20  23
ENDBRANCH  18  19
BRANCH  18  26
HETATM   26  C22 UNL     1      -2.675 -22.212   7.857  1.00  0.00    -0.010 C 
HETATM   27  C23 UNL     1      -2.310 -20.869   7.282  1.00  0.00     0.010 C 
HETATM   28  C24 UNL     1      -4.028 -22.026   8.506  1.00  0.00     0.010 C 
ENDBRANCH  18  26
ENDBRANCH  17  18
ENDBRANCH  16  17
ENDBRANCH  14  16
ENDBRANCH   1  14
BRANCH   6  29
HETATM   29  O2  UNL     1      -8.880 -27.396   1.934  1.00  0.00    -0.371 OA
ATOM     30  H2  UNL     1      -8.757 -27.007   1.076  1.00  0.00     0.212 HD
ENDBRANCH   6  29
BRANCH   8  31
HETATM   31  O4  UNL     1     -10.392 -29.932   4.101  1.00  0.00    -0.371 OA
ATOM     32  H4  UNL     1      -9.748 -30.626   4.189  1.00  0.00     0.212 HD
ENDBRANCH   8  31
TORSDOF 10
ENDMDL
MODEL 2
REMARK VINA RESULT: -8.015669314      2.999      5.300
REMARK  10 active torsions:
REMARK  status: ('A' for Active; 'I' for Inactive)
REMARK    1  A    between atoms: C2_2  and  C3_3 
REMARK    2  A    between atoms: C3_3  and  N1_4 
REMARK       I    between atoms: N1_4  and  C4_6 
REMARK    3  A    between atoms: C4_6  and  C5_8 
REMARK    4  A    between atoms: C5_8  and  C6_9 
REMARK    5  A    between atoms: C5_8  and  C22_30 
REMARK    6  A    between atoms: C6_9  and  C7_10 
REMARK    7  A    between atoms: C7_10  and  C8_11 
REMARK    8  A    between atoms: C8_11  and  C10_13 
REMARK    9  A    between atoms: C15_18  and  O2_19 
REMARK   10  A    between atoms: C16_22  and  O4_23 
ROOT
HETATM    1  C10 UNL     1      -9.096 -26.652   2.447  1.00  0.00    -0.002 C 
HETATM    2  C11 UNL     1      -8.000 -25.828   1.683  1.00  0.00     0.006 C 
HETATM    3  C12 UNL     1      -8.837 -25.106   0.646  1.00  0.00     0.006 C 
HETATM    4  C13 UNL     1     -10.146 -25.813   0.669  1.00  0.00     0.003 C 
HETATM    5  C14 UNL     1     -11.012 -25.731  -0.440  1.00  0.00     0.054 C 
HETATM    6  C15 UNL     1     -10.601 -25.755  -1.866  1.00  0.00     0.265 C 
HETATM    7  O3  UNL     1     -11.896 -25.492  -2.422  1.00  0.00    -0.331 OA
HETATM    8  C16 UNL     1     -12.547 -26.650  -1.915  1.00  0.00     0.264 C 
HETATM    9  C17 UNL     1     -12.160 -26.707  -0.454  1.00  0.00     0.050 C 
HETATM   10  C18 UNL     1     -11.775 -28.042   0.044  1.00  0.00     0.011 C 
HETATM   11  C19 UNL     1     -11.000 -27.952   1.355  1.00  0.00     0.010 C 
HETATM   12  C20 UNL     1      -9.742 -27.204   1.256  1.00  0.00    -0.036 C 
HETATM   13  C21 UNL     1      -8.743 -27.776   0.284  1.00  0.00     0.016 C 
ENDROOT
BRANCH   1  14
HETATM   14  C8  UNL     1      -8.520 -27.349   3.586  1.00  0.00    -0.014 C 
HETATM   15  C9  UNL     1      -9.455 -27.542   4.778  1.00  0.00     0.010 C 
BRANCH  14  16
HETATM   16  C7  UNL     1      -7.332 -26.672   4.176  1.00  0.00     0.005 C 
BRANCH  16  17
HETATM   17  C6  UNL     1      -7.433 -25.918   5.438  1.00  0.00     0.015 C 
BRANCH  17  18
HETATM   18  C5  UNL     1      -7.158 -24.477   5.506  1.00  0.00     0.081 C 
BRANCH  18  19
HETATM   19  C4  UNL     1      -5.774 -24.069   5.442  1.00  0.00     0.226 C 
HETATM   20  N1  UNL     1      -5.161 -23.201   6.399  1.00  0.00    -0.337 N 
ATOM     21  H1  UNL     1      -5.763 -22.861   7.148  1.00  0.00     0.168 HD
HETATM   22  O1  UNL     1      -4.983 -24.457   4.515  1.00  0.00    -0.273 OA
BRANCH  20  23
HETATM   23  C3  UNL     1      -3.821 -22.762   6.427  1.00  0.00     0.090 C 
BRANCH  23  24
HETATM   24  C2  UNL     1      -3.450 -21.824   7.476  1.00  0.00     0.007 C 
HETATM   25  C1  UNL     1      -2.281 -21.410   7.881  1.00  0.00     0.012 C 
ENDBRANCH  23  24
ENDBRANCH  20  23
ENDBRANCH  18  19
BRANCH  18  26
HETATM   26  C22 UNL     1      -8.019 -23.644   4.587  1.00  0.00    -0.010 C 
HETATM   27  C23 UNL     1      -9.492 -23.884   4.782  1.00  0.00     0.010 C 
HETATM   28  C24 UNL     1      -7.793 -22.186   4.919  1.00  0.00     0.010 C 
ENDBRANCH  18  26
ENDBRANCH  17  18
ENDBRANCH  16  17
ENDBRANCH  14  16
ENDBRANCH   1  14
BRANCH   6  29
HETATM   29  O2  UNL     1     -10.351 -27.008  -2.421  1.00  0.00    -0.371 OA
ATOM     30  H2  UNL     1      -9.540 -27.105  -2.904  1.00  0.00     0.212 HD
ENDBRANCH   6  29
BRANCH   8  31
HETATM   31  O4  UNL     1     -13.923 -26.327  -1.978  1.00  0.00    -0.371 OA
ATOM     32  H4  UNL     1     -13.981 -25.702  -2.691  1.00  0.00     0.212 HD
ENDBRANCH   8  31
TORSDOF 10
ENDMDL
MODEL 3
REMARK VINA RESULT: -7.990442258      1.303      2.281
REMARK  10 active torsions:
REMARK  status: ('A' for Active; 'I' for Inactive)
REMARK    1  A    between atoms: C2_2  and  C3_3 
REMARK    2  A    between atoms: C3_3  and  N1_4 
REMARK       I    between atoms: N1_4  and  C4_6 
REMARK    3  A    between atoms: C4_6  and  C5_8 
REMARK    4  A    between atoms: C5_8  and  C6_9 
REMARK    5  A    between atoms: C5_8  and  C22_30 
REMARK    6  A    between atoms: C6_9  and  C7_10 
REMARK    7  A    between atoms: C7_10  and  C8_11 
REMARK    8  A    between atoms: C8_11  and  C10_13 
REMARK    9  A    between atoms: C15_18  and  O2_19 
REMARK   10  A    between atoms: C16_22  and  O4_23 
ROOT
HETATM    1  C10 UNL     1      -7.041 -25.479   4.758  1.00  0.00    -0.002 C 
HETATM    2  C11 UNL     1      -7.896 -26.336   5.759  1.00  0.00     0.006 C 
HETATM    3  C12 UNL     1      -8.423 -27.425   4.845  1.00  0.00     0.006 C 
HETATM    4  C13 UNL     1      -8.157 -26.918   3.471  1.00  0.00     0.003 C 
HETATM    5  C14 UNL     1      -8.889 -27.423   2.379  1.00  0.00     0.054 C 
HETATM    6  C15 UNL     1     -10.337 -27.750   2.381  1.00  0.00     0.265 C 
HETATM    7  O3  UNL     1     -10.384 -28.328   1.069  1.00  0.00    -0.331 OA
HETATM    8  C16 UNL     1      -9.983 -27.168   0.350  1.00  0.00     0.264 C 
HETATM    9  C17 UNL     1      -8.771 -26.649   1.091  1.00  0.00     0.050 C 
HETATM   10  C18 UNL     1      -8.742 -25.189   1.307  1.00  0.00     0.011 C 
HETATM   11  C19 UNL     1      -7.755 -24.803   2.405  1.00  0.00     0.010 C 
HETATM   12  C20 UNL     1      -8.065 -25.377   3.718  1.00  0.00    -0.036 C 
HETATM   13  C21 UNL     1      -9.405 -24.979   4.280  1.00  0.00     0.016 C 
ENDROOT
BRANCH   1  14
HETATM   14  C8  UNL     1      -6.333 -24.419   5.458  1.00  0.00    -0.014 C 
HETATM   15  C9  UNL     1      -6.945 -23.026   5.330  1.00  0.00     0.010 C 
BRANCH  14  16
HETATM   16  C7  UNL     1      -4.926 -24.228   5.008  1.00  0.00     0.005 C 
BRANCH  16  17
HETATM   17  C6  UNL     1      -4.088 -23.150   5.563  1.00  0.00     0.015 C 
BRANCH  17  18
HETATM   18  C5  UNL     1      -3.166 -23.382   6.682  1.00  0.00     0.081 C 
BRANCH  18  19
HETATM   19  C4  UNL     1      -1.778 -23.613   6.353  1.00  0.00     0.226 C 
HETATM   20  N1  UNL     1      -0.706 -23.444   7.284  1.00  0.00    -0.337 N 
ATOM     21  H1  UNL     1      -0.968 -23.132   8.219  1.00  0.00     0.168 HD
HETATM   22  O1  UNL     1      -1.399 -23.991   5.191  1.00  0.00    -0.273 OA
BRANCH  20  23
HETATM   23  C3  UNL     1       0.669 -23.658   7.060  1.00  0.00     0.090 C 
BRANCH  23  24
HETATM   24  C2  UNL     1       1.562 -22.528   7.269  1.00  0.00     0.007 C 
HETATM   25  C1  UNL     1       1.320 -21.305   7.655  1.00  0.00     0.012 C 
ENDBRANCH  23  24
ENDBRANCH  20  23
ENDBRANCH  18  19
BRANCH  18  26
HETATM   26  C22 UNL     1      -3.305 -22.387   7.809  1.00  0.00    -0.010 C 
HETATM   27  C23 UNL     1      -2.495 -21.136   7.592  1.00  0.00     0.010 C 
HETATM   28  C24 UNL     1      -4.747 -21.937   7.868  1.00  0.00     0.010 C 
ENDBRANCH  18  26
ENDBRANCH  17  18
ENDBRANCH  16  17
ENDBRANCH  14  16
ENDBRANCH   1  14
BRANCH   6  29
HETATM   29  O2  UNL     1     -11.217 -26.685   2.207  1.00  0.00    -0.371 OA
ATOM     30  H2  UNL     1     -11.889 -26.576   2.869  1.00  0.00     0.212 HD
ENDBRANCH   6  29
BRANCH   8  31
HETATM   31  O4  UNL     1      -9.537 -27.673  -0.894  1.00  0.00    -0.371 OA
ATOM     32  H4  UNL     1     -10.303 -27.619  -1.454  1.00  0.00     0.212 HD
ENDBRANCH   8  31
TORSDOF 10
ENDMDL
MODEL 4
REMARK VINA RESULT: -7.577021096      2.955      5.552
REMARK  10 active torsions:
REMARK  status: ('A' for Active; 'I' for Inactive)
REMARK    1  A    between atoms: C2_2  and  C3_3 
REMARK    2  A    between atoms: C3_3  and  N1_4 
REMARK       I    between atoms: N1_4  and  C4_6 
REMARK    3  A    between atoms: C4_6  and  C5_8 
REMARK    4  A    between atoms: C5_8  and  C6_9 
REMARK    5  A    between atoms: C5_8  and  C22_30 
REMARK    6  A    between atoms: C6_9  and  C7_10 
REMARK    7  A    between atoms: C7_10  and  C8_11 
REMARK    8  A    between atoms: C8_11  and  C10_13 
REMARK    9  A    between atoms: C15_18  and  O2_19 
REMARK   10  A    between atoms: C16_22  and  O4_23 
ROOT
HETATM    1  C10 UNL     1      -8.629 -27.674   2.369  1.00  0.00    -0.002 C 
HETATM    2  C11 UNL     1      -9.483 -28.918   1.934  1.00  0.00     0.006 C 
HETATM    3  C12 UNL     1      -9.498 -28.759   0.427  1.00  0.00     0.006 C 
HETATM    4  C13 UNL     1      -9.024 -27.368   0.196  1.00  0.00     0.003 C 
HETATM    5  C14 UNL     1      -9.323 -26.712  -1.015  1.00  0.00     0.054 C 
HETATM    6  C15 UNL     1     -10.608 -26.794  -1.752  1.00  0.00     0.265 C 
HETATM    7  O3  UNL     1     -10.192 -26.052  -2.906  1.00  0.00    -0.331 OA
HETATM    8  C16 UNL     1      -9.905 -24.830  -2.238  1.00  0.00     0.264 C 
HETATM    9  C17 UNL     1      -9.070 -25.226  -1.040  1.00  0.00     0.050 C 
HETATM   10  C18 UNL     1      -9.436 -24.568   0.229  1.00  0.00     0.011 C 
HETATM   11  C19 UNL     1      -8.871 -25.314   1.434  1.00  0.00     0.010 C 
HETATM   12  C20 UNL     1      -9.357 -26.692   1.565  1.00  0.00    -0.036 C 
HETATM   13  C21 UNL     1     -10.848 -26.821   1.727  1.00  0.00     0.016 C 
ENDROOT
BRANCH   1  14
HETATM   14  C8  UNL     1      -8.384 -27.688   3.803  1.00  0.00    -0.014 C 
HETATM   15  C9  UNL     1      -9.588 -27.347   4.677  1.00  0.00     0.010 C 
BRANCH  14  16
HETATM   16  C7  UNL     1      -7.339 -26.727   4.250  1.00  0.00     0.005 C 
BRANCH  16  17
HETATM   17  C6  UNL     1      -7.510 -25.932   5.479  1.00  0.00     0.015 C 
BRANCH  17  18
HETATM   18  C5  UNL     1      -7.224 -24.492   5.518  1.00  0.00     0.081 C 
BRANCH  18  19
HETATM   19  C4  UNL     1      -5.836 -24.096   5.447  1.00  0.00     0.226 C 
HETATM   20  N1  UNL     1      -5.206 -23.249   6.411  1.00  0.00    -0.337 N 
ATOM     21  H1  UNL     1      -5.798 -22.914   7.172  1.00  0.00     0.168 HD
HETATM   22  O1  UNL     1      -5.058 -24.478   4.508  1.00  0.00    -0.273 OA
BRANCH  20  23
HETATM   23  C3  UNL     1      -3.862 -22.823   6.434  1.00  0.00     0.090 C 
BRANCH  23  24
HETATM   24  C2  UNL     1      -3.413 -22.098   7.613  1.00  0.00     0.007 C 
HETATM   25  C1  UNL     1      -2.311 -21.440   7.846  1.00  0.00     0.012 C 
ENDBRANCH  23  24
ENDBRANCH  20  23
ENDBRANCH  18  19
BRANCH  18  26
HETATM   26  C22 UNL     1      -8.078 -23.670   4.582  1.00  0.00    -0.010 C 
HETATM   27  C23 UNL     1      -9.552 -23.912   4.766  1.00  0.00     0.010 C 
HETATM   28  C24 UNL     1      -7.859 -22.209   4.902  1.00  0.00     0.010 C 
ENDBRANCH  18  26
ENDBRANCH  17  18
ENDBRANCH  16  17
ENDBRANCH  14  16
ENDBRANCH   1  14
BRANCH   6  29
HETATM   29  O2  UNL     1     -11.640 -25.975  -1.299  1.00  0.00    -0.371 OA
ATOM     30  H2  UNL     1     -12.130 -26.285  -0.547  1.00  0.00     0.212 HD
ENDBRANCH   6  29
BRANCH   8  31
HETATM   31  O4  UNL     1      -9.058 -24.138  -3.136  1.00  0.00    -0.371 OA
ATOM     32  H4  UNL     1      -9.285 -23.224  -3.010  1.00  0.00     0.212 HD
ENDBRANCH   8  31
TORSDOF 10
ENDMDL
MODEL 5
REMARK VINA RESULT: -7.503765885      4.344      7.501
REMARK  10 active torsions:
REMARK  status: ('A' for Active; 'I' for Inactive)
REMARK    1  A    between atoms: C2_2  and  C3_3 
REMARK    2  A    between atoms: C3_3  and  N1_4 
REMARK       I    between atoms: N1_4  and  C4_6 
REMARK    3  A    between atoms: C4_6  and  C5_8 
REMARK    4  A    between atoms: C5_8  and  C6_9 
REMARK    5  A    between atoms: C5_8  and  C22_30 
REMARK    6  A    between atoms: C6_9  and  C7_10 
REMARK    7  A    between atoms: C7_10  and  C8_11 
REMARK    8  A    between atoms: C8_11  and  C10_13 
REMARK    9  A    between atoms: C15_18  and  O2_19 
REMARK   10  A    between atoms: C16_22  and  O4_23 
ROOT
HETATM    1  C10 UNL     1      -9.508 -26.627  -0.364  1.00  0.00    -0.002 C 
HETATM    2  C11 UNL     1      -9.213 -25.652  -1.559  1.00  0.00     0.006 C 
HETATM    3  C12 UNL     1     -10.600 -25.116  -1.856  1.00  0.00     0.006 C 
HETATM    4  C13 UNL     1     -11.517 -26.035  -1.127  1.00  0.00     0.003 C 
HETATM    5  C14 UNL     1     -12.868 -26.136  -1.514  1.00  0.00     0.054 C 
HETATM    6  C15 UNL     1     -13.374 -26.135  -2.909  1.00  0.00     0.265 C 
HETATM    7  O3  UNL     1     -14.771 -26.113  -2.585  1.00  0.00    -0.331 OA
HETATM    8  C16 UNL     1     -14.810 -27.349  -1.882  1.00  0.00     0.264 C 
HETATM    9  C17 UNL     1     -13.636 -27.293  -0.929  1.00  0.00     0.050 C 
HETATM   10  C18 UNL     1     -12.829 -28.527  -0.851  1.00  0.00     0.011 C 
HETATM   11  C19 UNL     1     -11.458 -28.265  -0.235  1.00  0.00     0.010 C 
HETATM   12  C20 UNL     1     -10.634 -27.317  -0.993  1.00  0.00    -0.036 C 
HETATM   13  C21 UNL     1     -10.321 -27.741  -2.403  1.00  0.00     0.016 C 
ENDROOT
BRANCH   1  14
HETATM   14  C8  UNL     1      -8.273 -27.180   0.170  1.00  0.00    -0.014 C 
HETATM   15  C9  UNL     1      -8.389 -28.574   0.781  1.00  0.00     0.010 C 
BRANCH  14  16
HETATM   16  C7  UNL     1      -7.664 -26.367   1.260  1.00  0.00     0.005 C 
BRANCH  16  17
HETATM   17  C6  UNL     1      -8.486 -25.470   2.091  1.00  0.00     0.015 C 
BRANCH  17  18
HETATM   18  C5  UNL     1      -8.573 -25.625   3.549  1.00  0.00     0.081 C 
BRANCH  18  19
HETATM   19  C4  UNL     1      -8.476 -24.423   4.345  1.00  0.00     0.226 C 
HETATM   20  N1  UNL     1      -7.234 -23.845   4.754  1.00  0.00    -0.337 N 
ATOM     21  H1  UNL     1      -6.390 -24.337   4.462  1.00  0.00     0.168 HD
HETATM   22  O1  UNL     1      -9.504 -23.778   4.746  1.00  0.00    -0.273 OA
BRANCH  20  23
HETATM   23  C3  UNL     1      -7.040 -22.674   5.515  1.00  0.00     0.090 C 
BRANCH  23  24
HETATM   24  C2  UNL     1      -6.080 -22.739   6.606  1.00  0.00     0.007 C 
HETATM   25  C1  UNL     1      -4.866 -22.273   6.708  1.00  0.00     0.012 C 
ENDBRANCH  23  24
ENDBRANCH  20  23
ENDBRANCH  18  19
BRANCH  18  26
HETATM   26  C22 UNL     1      -9.718 -26.495   4.007  1.00  0.00    -0.010 C 
HETATM   27  C23 UNL     1     -10.730 -26.755   2.922  1.00  0.00     0.010 C 
HETATM   28  C24 UNL     1      -9.163 -27.851   4.382  1.00  0.00     0.010 C 
ENDBRANCH  18  26
ENDBRANCH  17  18
ENDBRANCH  16  17
ENDBRANCH  14  16
ENDBRANCH   1  14
BRANCH   6  29
HETATM   29  O2  UNL     1     -13.307 -27.343  -3.598  1.00  0.00    -0.371 OA
ATOM     30  H2  UNL     1     -13.947 -28.004  -3.362  1.00  0.00     0.212 HD
ENDBRANCH   6  29
BRANCH   8  31
HETATM   31  O4  UNL     1     -15.990 -27.266  -1.106  1.00  0.00    -0.371 OA
ATOM     32  H4  UNL     1     -15.678 -27.259  -0.209  1.00  0.00     0.212 HD
ENDBRANCH   8  31
TORSDOF 10
ENDMDL
