MODEL 1
REMARK VINA RESULT: -6.961344089      0.000      0.000
REMARK  4 active torsions:
REMARK  status: ('A' for Active; 'I' for Inactive)
REMARK    1  A    between atoms: C2_2  and  C4_5 
REMARK    2  A    between atoms: C5_6  and  C6_7 
REMARK    3  A    between atoms: C11_18  and  N5_19 
REMARK    4  A    between atoms: N5_19  and  C12_21 
ROOT
HETATM    1  C6  UNL     1      10.402  -6.906  14.421  1.00  0.00     0.079 A 
HETATM    2  C7  UNL     1       9.116  -6.701  13.916  1.00  0.00     0.094 A 
HETATM    3  N1  UNL     1       8.131  -7.659  14.166  1.00  0.00    -0.099 NA
HETATM    4  C8  UNL     1       8.969  -5.538  13.208  1.00  0.00     0.140 A 
HETATM    5  C9  UNL     1       7.635  -5.304  12.672  1.00  0.00     0.107 C 
HETATM    6  N2  UNL     1       6.573  -5.106  12.254  1.00  0.00    -0.191 NA
HETATM    7  C10 UNL     1       9.950  -4.624  12.983  1.00  0.00     0.290 A 
HETATM    8  O1  UNL     1       9.647  -3.608  12.313  1.00  0.00    -0.264 OA
HETATM    9  N3  UNL     1      11.218  -4.833  13.485  1.00  0.00    -0.209 N 
HETATM   10  N4  UNL     1      12.221  -4.031  13.330  1.00  0.00    -0.269 N 
ATOM     11  H4  UNL     1      12.117  -3.164  12.805  1.00  0.00     0.190 HD
HETATM   12  C11 UNL     1      13.394  -4.363  13.873  1.00  0.00     0.162 A 
HETATM   13  S1  UNL     1      13.037  -5.857  14.618  1.00  0.00    -0.032 SA
HETATM   14  C16 UNL     1      11.391  -5.951  14.175  1.00  0.00     0.125 A 
ENDROOT
BRANCH   1  15
HETATM   15  C5  UNL     1      10.698  -8.076  15.178  1.00  0.00    -0.060 C 
HETATM   16  C4  UNL     1      10.937  -9.073  15.839  1.00  0.00    -0.075 C 
BRANCH  16  17
HETATM   17  C2  UNL     1      11.210 -10.265  16.650  1.00  0.00     0.093 C 
HETATM   18  C1  UNL     1      10.427 -10.260  17.929  1.00  0.00     0.046 C 
HETATM   19  C3  UNL     1      12.684 -10.264  16.988  1.00  0.00     0.046 C 
HETATM   20 CL1  UNL     1      10.790 -11.756  15.753  1.00  0.00    -0.106 Cl
ENDBRANCH  16  17
ENDBRANCH   1  15
BRANCH  12  21
HETATM   21  N5  UNL     1      14.538  -3.766  13.878  1.00  0.00    -0.361 N 
ATOM     22  H5  UNL     1      14.581  -2.832  14.287  1.00  0.00     0.162 HD
BRANCH  21  23
HETATM   23  C12 UNL     1      15.747  -4.311  13.354  1.00  0.00     0.021 C 
HETATM   24  C13 UNL     1      15.544  -5.253  12.184  1.00  0.00     0.037 C 
HETATM   25  C14 UNL     1      16.492  -4.990  14.503  1.00  0.00     0.037 C 
HETATM   26  C15 UNL     1      16.643  -3.192  12.855  1.00  0.00     0.037 C 
ENDBRANCH  21  23
ENDBRANCH  12  21
TORSDOF 4
ENDMDL
MODEL 2
REMARK VINA RESULT: -6.738178286      2.762      6.134
REMARK  4 active torsions:
REMARK  status: ('A' for Active; 'I' for Inactive)
REMARK    1  A    between atoms: C2_2  and  C4_5 
REMARK    2  A    between atoms: C5_6  and  C6_7 
REMARK    3  A    between atoms: C11_18  and  N5_19 
REMARK    4  A    between atoms: N5_19  and  C12_21 
ROOT
HETATM    1  C6  UNL     1      10.072  -5.917  13.720  1.00  0.00     0.079 A 
HETATM    2  C7  UNL     1       8.937  -5.200  13.334  1.00  0.00     0.094 A 
HETATM    3  N1  UNL     1       9.064  -3.840  13.044  1.00  0.00    -0.099 NA
HETATM    4  C8  UNL     1       7.791  -5.946  13.284  1.00  0.00     0.140 A 
HETATM    5  C9  UNL     1       6.595  -5.218  12.883  1.00  0.00     0.107 C 
HETATM    6  N2  UNL     1       5.643  -4.647  12.553  1.00  0.00    -0.191 NA
HETATM    7  C10 UNL     1       7.700  -7.272  13.573  1.00  0.00     0.290 A 
HETATM    8  O1  UNL     1       6.570  -7.806  13.476  1.00  0.00    -0.264 OA
HETATM    9  N3  UNL     1       8.825  -7.974  13.954  1.00  0.00    -0.209 N 
HETATM   10  N4  UNL     1       8.851  -9.233  14.250  1.00  0.00    -0.269 N 
ATOM     11  H4  UNL     1       8.000  -9.793  14.214  1.00  0.00     0.190 HD
HETATM   12  C11 UNL     1      10.015  -9.782  14.603  1.00  0.00     0.162 A 
HETATM   13  S1  UNL     1      11.085  -8.455  14.504  1.00  0.00    -0.032 SA
HETATM   14  C16 UNL     1       9.951  -7.278  14.011  1.00  0.00     0.125 A 
ENDROOT
BRANCH   1  15
HETATM   15  C5  UNL     1      11.335  -5.266  13.815  1.00  0.00    -0.060 C 
HETATM   16  C4  UNL     1      12.425  -4.724  13.905  1.00  0.00    -0.075 C 
BRANCH  16  17
HETATM   17  C2  UNL     1      13.742  -4.090  14.028  1.00  0.00     0.093 C 
HETATM   18  C1  UNL     1      13.642  -2.702  14.586  1.00  0.00     0.046 C 
HETATM   19  C3  UNL     1      14.345  -4.011  12.644  1.00  0.00     0.046 C 
HETATM   20 CL1  UNL     1      14.809  -5.040  15.106  1.00  0.00    -0.106 Cl
ENDBRANCH  16  17
ENDBRANCH   1  15
BRANCH  12  21
HETATM   21  N5  UNL     1      10.329 -10.987  14.943  1.00  0.00    -0.361 N 
ATOM     22  H5  UNL     1      10.209 -11.720  14.243  1.00  0.00     0.162 HD
BRANCH  21  23
HETATM   23  C12 UNL     1      10.829 -11.372  16.221  1.00  0.00     0.021 C 
HETATM   24  C13 UNL     1      10.129 -10.702  17.387  1.00  0.00     0.037 C 
HETATM   25  C14 UNL     1      12.334 -11.103  16.235  1.00  0.00     0.037 C 
HETATM   26  C15 UNL     1      10.652 -12.867  16.414  1.00  0.00     0.037 C 
ENDBRANCH  21  23
ENDBRANCH  12  21
TORSDOF 4
ENDMDL
MODEL 3
REMARK VINA RESULT: -6.663657789      3.488      6.226
REMARK  4 active torsions:
REMARK  status: ('A' for Active; 'I' for Inactive)
REMARK    1  A    between atoms: C2_2  and  C4_5 
REMARK    2  A    between atoms: C5_6  and  C6_7 
REMARK    3  A    between atoms: C11_18  and  N5_19 
REMARK    4  A    between atoms: N5_19  and  C12_21 
ROOT
HETATM    1  C6  UNL     1      11.394  -6.476  14.201  1.00  0.00     0.079 A 
HETATM    2  C7  UNL     1      12.215  -5.640  13.441  1.00  0.00     0.094 A 
HETATM    3  N1  UNL     1      11.703  -5.072  12.272  1.00  0.00    -0.099 NA
HETATM    4  C8  UNL     1      13.474  -5.472  13.953  1.00  0.00     0.140 A 
HETATM    5  C9  UNL     1      14.347  -4.604  13.175  1.00  0.00     0.107 C 
HETATM    6  N2  UNL     1      15.042  -3.905  12.568  1.00  0.00    -0.191 NA
HETATM    7  C10 UNL     1      13.942  -6.042  15.096  1.00  0.00     0.290 A 
HETATM    8  O1  UNL     1      15.124  -5.782  15.425  1.00  0.00    -0.264 OA
HETATM    9  N3  UNL     1      13.125  -6.866  15.841  1.00  0.00    -0.209 N 
HETATM   10  N4  UNL     1      13.468  -7.456  16.940  1.00  0.00    -0.269 N 
ATOM     11  H4  UNL     1      14.404  -7.334  17.326  1.00  0.00     0.190 HD
HETATM   12  C11 UNL     1      12.571  -8.228  17.557  1.00  0.00     0.162 A 
HETATM   13  S1  UNL     1      11.213  -8.094  16.531  1.00  0.00    -0.032 SA
HETATM   14  C16 UNL     1      11.900  -7.048  15.371  1.00  0.00     0.125 A 
ENDROOT
BRANCH   1  15
HETATM   15  C5  UNL     1      10.057  -6.740  13.786  1.00  0.00    -0.060 C 
HETATM   16  C4  UNL     1       8.917  -6.964  13.412  1.00  0.00    -0.075 C 
BRANCH  16  17
HETATM   17  C2  UNL     1       7.553  -7.228  12.941  1.00  0.00     0.093 C 
HETATM   18  C1  UNL     1       6.784  -8.077  13.907  1.00  0.00     0.046 C 
HETATM   19  C3  UNL     1       7.657  -7.969  11.626  1.00  0.00     0.046 C 
HETATM   20 CL1  UNL     1       6.651  -5.700  12.711  1.00  0.00    -0.106 Cl
ENDBRANCH  16  17
ENDBRANCH   1  15
BRANCH  12  21
HETATM   21  N5  UNL     1      12.638  -8.922  18.644  1.00  0.00    -0.361 N 
ATOM     22  H5  UNL     1      13.000  -9.872  18.574  1.00  0.00     0.162 HD
BRANCH  21  23
HETATM   23  C12 UNL     1      12.242  -8.461  19.934  1.00  0.00     0.021 C 
HETATM   24  C13 UNL     1      12.106  -6.954  20.037  1.00  0.00     0.037 C 
HETATM   25  C14 UNL     1      13.242  -9.008  20.953  1.00  0.00     0.037 C 
HETATM   26  C15 UNL     1      10.888  -9.042  20.296  1.00  0.00     0.037 C 
ENDBRANCH  21  23
ENDBRANCH  12  21
TORSDOF 4
ENDMDL
MODEL 4
REMARK VINA RESULT: -6.637411186      3.240      4.951
REMARK  4 active torsions:
REMARK  status: ('A' for Active; 'I' for Inactive)
REMARK    1  A    between atoms: C2_2  and  C4_5 
REMARK    2  A    between atoms: C5_6  and  C6_7 
REMARK    3  A    between atoms: C11_18  and  N5_19 
REMARK    4  A    between atoms: N5_19  and  C12_21 
ROOT
HETATM    1  C6  UNL     1      11.413  -7.368  15.371  1.00  0.00     0.079 A 
HETATM    2  C7  UNL     1      11.516  -8.247  16.451  1.00  0.00     0.094 A 
HETATM    3  N1  UNL     1      10.456  -9.120  16.714  1.00  0.00    -0.099 NA
HETATM    4  C8  UNL     1      12.688  -8.146  17.150  1.00  0.00     0.140 A 
HETATM    5  C9  UNL     1      12.816  -9.055  18.281  1.00  0.00     0.107 C 
HETATM    6  N2  UNL     1      12.928  -9.784  19.174  1.00  0.00    -0.191 NA
HETATM    7  C10 UNL     1      13.701  -7.284  16.867  1.00  0.00     0.290 A 
HETATM    8  O1  UNL     1      14.711  -7.320  17.610  1.00  0.00    -0.264 OA
HETATM    9  N3  UNL     1      13.593  -6.418  15.799  1.00  0.00    -0.209 N 
HETATM   10  N4  UNL     1      14.494  -5.561  15.443  1.00  0.00    -0.269 N 
ATOM     11  H4  UNL     1      15.370  -5.481  15.960  1.00  0.00     0.190 HD
HETATM   12  C11 UNL     1      14.254  -4.783  14.385  1.00  0.00     0.162 A 
HETATM   13  S1  UNL     1      12.702  -5.303  13.902  1.00  0.00    -0.032 SA
HETATM   14  C16 UNL     1      12.469  -6.493  15.103  1.00  0.00     0.125 A 
ENDROOT
BRANCH   1  15
HETATM   15  C5  UNL     1      10.246  -7.364  14.555  1.00  0.00    -0.060 C 
HETATM   16  C4  UNL     1       9.237  -7.349  13.868  1.00  0.00    -0.075 C 
BRANCH  16  17
HETATM   17  C2  UNL     1       8.014  -7.318  13.060  1.00  0.00     0.093 C 
HETATM   18  C1  UNL     1       6.904  -8.098  13.697  1.00  0.00     0.046 C 
HETATM   19  C3  UNL     1       8.333  -7.941  11.719  1.00  0.00     0.046 C 
HETATM   20 CL1  UNL     1       7.444  -5.637  12.831  1.00  0.00    -0.106 Cl
ENDBRANCH  16  17
ENDBRANCH   1  15
BRANCH  12  21
HETATM   21  N5  UNL     1      14.958  -3.862  13.819  1.00  0.00    -0.361 N 
ATOM     22  H5  UNL     1      14.580  -2.914  13.818  1.00  0.00     0.162 HD
BRANCH  21  23
HETATM   23  C12 UNL     1      16.222  -4.067  13.193  1.00  0.00     0.021 C 
HETATM   24  C13 UNL     1      16.833  -2.810  12.605  1.00  0.00     0.037 C 
HETATM   25  C14 UNL     1      16.050  -5.158  12.136  1.00  0.00     0.037 C 
HETATM   26  C15 UNL     1      17.219  -4.597  14.207  1.00  0.00     0.037 C 
ENDBRANCH  21  23
ENDBRANCH  12  21
TORSDOF 4
ENDMDL
MODEL 5
REMARK VINA RESULT: -6.578134841      1.883      2.095
REMARK  4 active torsions:
REMARK  status: ('A' for Active; 'I' for Inactive)
REMARK    1  A    between atoms: C2_2  and  C4_5 
REMARK    2  A    between atoms: C5_6  and  C6_7 
REMARK    3  A    between atoms: C11_18  and  N5_19 
REMARK    4  A    between atoms: N5_19  and  C12_21 
ROOT
HETATM    1  C6  UNL     1      11.877  -6.797  14.958  1.00  0.00     0.079 A 
HETATM    2  C7  UNL     1      10.644  -7.086  14.367  1.00  0.00     0.094 A 
HETATM    3  N1  UNL     1       9.809  -8.026  14.975  1.00  0.00    -0.099 NA
HETATM    4  C8  UNL     1      10.393  -6.384  13.220  1.00  0.00     0.140 A 
HETATM    5  C9  UNL     1       9.112  -6.669  12.588  1.00  0.00     0.107 C 
HETATM    6  N2  UNL     1       8.089  -6.883  12.087  1.00  0.00    -0.191 NA
HETATM    7  C10 UNL     1      11.230  -5.473  12.654  1.00  0.00     0.290 A 
HETATM    8  O1  UNL     1      10.845  -4.917  11.598  1.00  0.00    -0.264 OA
HETATM    9  N3  UNL     1      12.446  -5.194  13.242  1.00  0.00    -0.209 N 
HETATM   10  N4  UNL     1      13.313  -4.348  12.790  1.00  0.00    -0.269 N 
ATOM     11  H4  UNL     1      13.131  -3.822  11.935  1.00  0.00     0.190 HD
HETATM   12  C11 UNL     1      14.452  -4.178  13.464  1.00  0.00     0.162 A 
HETATM   13  S1  UNL     1      14.260  -5.259  14.772  1.00  0.00    -0.032 SA
HETATM   14  C16 UNL     1      12.717  -5.858  14.356  1.00  0.00     0.125 A 
ENDROOT
BRANCH   1  15
HETATM   15  C5  UNL     1      12.270  -7.455  16.158  1.00  0.00    -0.060 C 
HETATM   16  C4  UNL     1      12.603  -8.002  17.198  1.00  0.00    -0.075 C 
BRANCH  16  17
HETATM   17  C2  UNL     1      13.000  -8.639  18.458  1.00  0.00     0.093 C 
HETATM   18  C1  UNL     1      13.662  -7.667  19.389  1.00  0.00     0.046 C 
HETATM   19  C3  UNL     1      13.988  -9.736  18.127  1.00  0.00     0.046 C 
HETATM   20 CL1  UNL     1      11.580  -9.328  19.300  1.00  0.00    -0.106 Cl
ENDBRANCH  16  17
ENDBRANCH   1  15
BRANCH  12  21
HETATM   21  N5  UNL     1      15.473  -3.419  13.249  1.00  0.00    -0.361 N 
ATOM     22  H5  UNL     1      15.372  -2.424  13.454  1.00  0.00     0.162 HD
BRANCH  21  23
HETATM   23  C12 UNL     1      16.731  -3.863  12.747  1.00  0.00     0.021 C 
HETATM   24  C13 UNL     1      16.698  -5.251  12.137  1.00  0.00     0.037 C 
HETATM   25  C14 UNL     1      17.749  -3.770  13.884  1.00  0.00     0.037 C 
HETATM   26  C15 UNL     1      17.211  -2.924  11.656  1.00  0.00     0.037 C 
ENDBRANCH  21  23
ENDBRANCH  12  21
TORSDOF 4
ENDMDL
