MODEL 1
REMARK VINA RESULT: -6.098080914      0.000      0.000
REMARK  3 active torsions:
REMARK  status: ('A' for Active; 'I' for Inactive)
REMARK    1  A    between atoms: N2_3  and  C2_5 
REMARK    2  A    between atoms: C2_5  and  N3_7 
REMARK       I    between atoms: N3_7  and  C3_9 
REMARK    3  A    between atoms: C3_9  and  C4_11 
ROOT
HETATM    1  N1  UNL     1      11.649  55.275  -4.065  1.00  0.00    -0.172 NA
HETATM    2  C1  UNL     1      11.061  55.675  -3.155  1.00  0.00     0.184 C 
HETATM    3  N2  UNL     1      10.313  56.170  -2.036  1.00  0.00    -0.270 N 
ATOM      4  H2  UNL     1      10.264  55.645  -1.163  1.00  0.00     0.180 HD
ENDROOT
BRANCH   3   5
HETATM    5  C2  UNL     1       9.656  57.391  -2.176  1.00  0.00     0.187 C 
HETATM    6  S1  UNL     1      10.469  58.600  -2.983  1.00  0.00    -0.040 SA
BRANCH   5   7
HETATM    7  N3  UNL     1       8.389  57.682  -1.700  1.00  0.00    -0.300 N 
HETATM    8  C3  UNL     1       7.963  57.840  -0.348  1.00  0.00     0.247 C 
HETATM    9  O1  UNL     1       8.771  57.715   0.574  1.00  0.00    -0.268 OA
ATOM     10  H3  UNL     1       7.666  57.799  -2.410  1.00  0.00     0.171 HD
BRANCH   8  11
HETATM   11  C4  UNL     1       6.578  58.146  -0.082  1.00  0.00     0.077 C 
HETATM   12  C5  UNL     1       5.622  57.287   0.009  1.00  0.00    -0.073 C 
HETATM   13  C6  UNL     1       4.251  57.892   0.302  1.00  0.00     0.044 C 
HETATM   14  C9  UNL     1       5.619  55.836  -0.114  1.00  0.00     0.044 C 
HETATM   15  C7  UNL     1       4.148  57.929   1.803  1.00  0.00     0.078 C 
HETATM   16  S2  UNL     1       5.029  56.515   2.480  1.00  0.00    -0.169 SA
HETATM   17  C8  UNL     1       5.383  55.229   1.274  1.00  0.00     0.078 C 
ENDBRANCH   8  11
ENDBRANCH   5   7
ENDBRANCH   3   5
TORSDOF 3
ENDMDL
MODEL 2
REMARK VINA RESULT: -5.914541794      5.992      8.118
REMARK  3 active torsions:
REMARK  status: ('A' for Active; 'I' for Inactive)
REMARK    1  A    between atoms: N2_3  and  C2_5 
REMARK    2  A    between atoms: C2_5  and  N3_7 
REMARK       I    between atoms: N3_7  and  C3_9 
REMARK    3  A    between atoms: C3_9  and  C4_11 
ROOT
HETATM    1  N1  UNL     1       3.952  48.351   4.568  1.00  0.00    -0.172 NA
HETATM    2  C1  UNL     1       3.475  49.358   4.262  1.00  0.00     0.184 C 
HETATM    3  N2  UNL     1       2.866  50.597   3.875  1.00  0.00    -0.270 N 
ATOM      4  H2  UNL     1       2.626  51.304   4.571  1.00  0.00     0.180 HD
ENDROOT
BRANCH   3   5
HETATM    5  C2  UNL     1       2.613  50.809   2.522  1.00  0.00     0.187 C 
HETATM    6  S1  UNL     1       1.560  49.755   1.776  1.00  0.00    -0.040 SA
BRANCH   5   7
HETATM    7  N3  UNL     1       3.162  51.816   1.748  1.00  0.00    -0.300 N 
HETATM    8  C3  UNL     1       4.427  52.459   1.894  1.00  0.00     0.247 C 
HETATM    9  O1  UNL     1       5.187  52.128   2.807  1.00  0.00    -0.268 OA
ATOM     10  H3  UNL     1       2.586  52.142   0.971  1.00  0.00     0.171 HD
BRANCH   8  11
HETATM   11  C4  UNL     1       4.798  53.496   0.962  1.00  0.00     0.077 C 
HETATM   12  C5  UNL     1       4.662  54.762   1.152  1.00  0.00    -0.073 C 
HETATM   13  C6  UNL     1       5.143  55.633  -0.006  1.00  0.00     0.044 C 
HETATM   14  C9  UNL     1       4.134  55.513   2.283  1.00  0.00     0.044 C 
HETATM   15  C7  UNL     1       6.595  55.905   0.280  1.00  0.00     0.078 C 
HETATM   16  S2  UNL     1       6.827  56.005   2.061  1.00  0.00    -0.169 SA
HETATM   17  C8  UNL     1       5.299  56.221   2.985  1.00  0.00     0.078 C 
ENDBRANCH   8  11
ENDBRANCH   5   7
ENDBRANCH   3   5
TORSDOF 3
ENDMDL
MODEL 3
REMARK VINA RESULT: -5.894795803      1.712      2.251
REMARK  3 active torsions:
REMARK  status: ('A' for Active; 'I' for Inactive)
REMARK    1  A    between atoms: N2_3  and  C2_5 
REMARK    2  A    between atoms: C2_5  and  N3_7 
REMARK       I    between atoms: N3_7  and  C3_9 
REMARK    3  A    between atoms: C3_9  and  C4_11 
ROOT
HETATM    1  N1  UNL     1       9.951  60.815  -3.588  1.00  0.00    -0.172 NA
HETATM    2  C1  UNL     1      10.209  59.913  -2.916  1.00  0.00     0.184 C 
HETATM    3  N2  UNL     1      10.536  58.781  -2.097  1.00  0.00    -0.270 N 
ATOM      4  H2  UNL     1      11.307  58.820  -1.431  1.00  0.00     0.180 HD
ENDROOT
BRANCH   3   5
HETATM    5  C2  UNL     1       9.769  57.626  -2.239  1.00  0.00     0.187 C 
HETATM    6  S1  UNL     1      10.470  56.347  -3.043  1.00  0.00    -0.040 SA
BRANCH   5   7
HETATM    7  N3  UNL     1       8.479  57.455  -1.770  1.00  0.00    -0.300 N 
HETATM    8  C3  UNL     1       7.983  57.640  -0.445  1.00  0.00     0.247 C 
HETATM    9  O1  UNL     1       8.745  57.998   0.456  1.00  0.00    -0.268 OA
ATOM     10  H3  UNL     1       7.791  57.157  -2.463  1.00  0.00     0.171 HD
BRANCH   8  11
HETATM   11  C4  UNL     1       6.585  57.401  -0.180  1.00  0.00     0.077 C 
HETATM   12  C5  UNL     1       6.078  56.296   0.246  1.00  0.00    -0.073 C 
HETATM   13  C6  UNL     1       4.564  56.326   0.442  1.00  0.00     0.044 C 
HETATM   14  C9  UNL     1       6.696  55.020   0.579  1.00  0.00     0.044 C 
HETATM   15  C7  UNL     1       4.359  56.784   1.860  1.00  0.00     0.078 C 
HETATM   16  S2  UNL     1       5.709  56.162   2.873  1.00  0.00    -0.169 SA
HETATM   17  C8  UNL     1       6.650  54.838   2.100  1.00  0.00     0.078 C 
ENDBRANCH   8  11
ENDBRANCH   5   7
ENDBRANCH   3   5
TORSDOF 3
ENDMDL
MODEL 4
REMARK VINA RESULT: -5.890758292      4.973      6.012
REMARK  3 active torsions:
REMARK  status: ('A' for Active; 'I' for Inactive)
REMARK    1  A    between atoms: N2_3  and  C2_5 
REMARK    2  A    between atoms: C2_5  and  N3_7 
REMARK       I    between atoms: N3_7  and  C3_9 
REMARK    3  A    between atoms: C3_9  and  C4_11 
ROOT
HETATM    1  N1  UNL     1       5.437  61.499   0.457  1.00  0.00    -0.172 NA
HETATM    2  C1  UNL     1       4.988  60.465   0.207  1.00  0.00     0.184 C 
HETATM    3  N2  UNL     1       4.412  59.189  -0.105  1.00  0.00    -0.270 N 
ATOM      4  H2  UNL     1       4.615  58.723  -0.989  1.00  0.00     0.180 HD
ENDROOT
BRANCH   3   5
HETATM    5  C2  UNL     1       3.566  58.604   0.836  1.00  0.00     0.187 C 
HETATM    6  S1  UNL     1       2.580  59.627   1.705  1.00  0.00    -0.040 SA
BRANCH   5   7
HETATM    7  N3  UNL     1       3.478  57.250   1.107  1.00  0.00    -0.300 N 
HETATM    8  C3  UNL     1       4.239  56.480   2.036  1.00  0.00     0.247 C 
HETATM    9  O1  UNL     1       5.108  57.021   2.723  1.00  0.00    -0.268 OA
ATOM     10  H3  UNL     1       2.777  56.736   0.574  1.00  0.00     0.171 HD
BRANCH   8  11
HETATM   11  C4  UNL     1       3.975  55.066   2.156  1.00  0.00     0.077 C 
HETATM   12  C5  UNL     1       4.512  54.138   1.443  1.00  0.00    -0.073 C 
HETATM   13  C6  UNL     1       4.049  52.724   1.788  1.00  0.00     0.044 C 
HETATM   14  C9  UNL     1       5.489  54.197   0.365  1.00  0.00     0.044 C 
HETATM   15  C7  UNL     1       5.003  52.244   2.849  1.00  0.00     0.078 C 
HETATM   16  S2  UNL     1       6.625  52.955   2.535  1.00  0.00    -0.169 SA
HETATM   17  C8  UNL     1       6.818  53.631   0.880  1.00  0.00     0.078 C 
ENDBRANCH   8  11
ENDBRANCH   5   7
ENDBRANCH   3   5
TORSDOF 3
ENDMDL
MODEL 5
REMARK VINA RESULT: -5.877324821      3.298      4.382
REMARK  3 active torsions:
REMARK  status: ('A' for Active; 'I' for Inactive)
REMARK    1  A    between atoms: N2_3  and  C2_5 
REMARK    2  A    between atoms: C2_5  and  N3_7 
REMARK       I    between atoms: N3_7  and  C3_9 
REMARK    3  A    between atoms: C3_9  and  C4_11 
ROOT
HETATM    1  N1  UNL     1       5.623  61.569   0.556  1.00  0.00    -0.172 NA
HETATM    2  C1  UNL     1       6.183  60.902  -0.201  1.00  0.00     0.184 C 
HETATM    3  N2  UNL     1       6.862  60.059  -1.143  1.00  0.00    -0.270 N 
ATOM      4  H2  UNL     1       7.070  60.387  -2.086  1.00  0.00     0.180 HD
ENDROOT
BRANCH   3   5
HETATM    5  C2  UNL     1       7.231  58.780  -0.731  1.00  0.00     0.187 C 
HETATM    6  S1  UNL     1       8.684  58.193  -1.296  1.00  0.00    -0.040 SA
BRANCH   5   7
HETATM    7  N3  UNL     1       6.493  57.960   0.104  1.00  0.00    -0.300 N 
HETATM    8  C3  UNL     1       5.083  57.745   0.118  1.00  0.00     0.247 C 
HETATM    9  O1  UNL     1       4.359  58.332  -0.689  1.00  0.00    -0.268 OA
ATOM     10  H3  UNL     1       7.028  57.440   0.801  1.00  0.00     0.171 HD
BRANCH   8  11
HETATM   11  C4  UNL     1       4.523  56.834   1.087  1.00  0.00     0.077 C 
HETATM   12  C5  UNL     1       4.580  55.548   1.031  1.00  0.00    -0.073 C 
HETATM   13  C6  UNL     1       3.902  54.832   2.197  1.00  0.00     0.044 C 
HETATM   14  C9  UNL     1       5.182  54.654   0.052  1.00  0.00     0.044 C 
HETATM   15  C7  UNL     1       4.974  54.677   3.242  1.00  0.00     0.078 C 
HETATM   16  S2  UNL     1       6.557  54.445   2.419  1.00  0.00    -0.169 SA
HETATM   17  C8  UNL     1       6.419  54.003   0.681  1.00  0.00     0.078 C 
ENDBRANCH   8  11
ENDBRANCH   5   7
ENDBRANCH   3   5
TORSDOF 3
ENDMDL
