MODEL 1
REMARK VINA RESULT: -6.427718149      0.000      0.000
REMARK  3 active torsions:
REMARK  status: ('A' for Active; 'I' for Inactive)
REMARK       I    between atoms: C2_2  and  N1_4 
REMARK    1  A    between atoms: N1_4  and  C3_6 
REMARK    2  A    between atoms: C8_13  and  C9_14 
REMARK       I    between atoms: C9_14  and  N3_16 
REMARK    3  A    between atoms: N3_16  and  C10_18 
ROOT
HETATM    1  C3  UNL     1       4.796  50.408   2.743  1.00  0.00     0.142 C 
HETATM    2  C4  UNL     1       3.832  49.237   2.749  1.00  0.00     0.061 C 
HETATM    3  C5  UNL     1       2.451  49.856   2.796  1.00  0.00     0.025 C 
HETATM    4  C6  UNL     1       1.870  49.822   4.194  1.00  0.00     0.038 C 
HETATM    5  C7  UNL     1       1.498  49.212   1.819  1.00  0.00     0.038 C 
HETATM    6  N2  UNL     1       2.674  51.221   2.441  1.00  0.00    -0.379 N 
ATOM      7  H2  UNL     1       1.918  51.872   2.236  1.00  0.00     0.160 HD
HETATM    8  C8  UNL     1       3.910  51.553   2.401  1.00  0.00     0.097 C 
ENDROOT
BRANCH   8   9
HETATM    9  C9  UNL     1       4.375  52.891   2.063  1.00  0.00     0.266 C 
HETATM   10  O2  UNL     1       4.424  53.272   0.866  1.00  0.00    -0.266 OA
HETATM   11  N3  UNL     1       4.788  53.822   3.048  1.00  0.00    -0.348 N 
ATOM     12  H3  UNL     1       4.755  53.533   4.026  1.00  0.00     0.163 HD
BRANCH  11  13
HETATM   13  C10 UNL     1       5.249  55.143   2.754  1.00  0.00     0.022 C 
HETATM   14  C11 UNL     1       5.603  55.879   4.005  1.00  0.00     0.037 C 
HETATM   15  C12 UNL     1       6.470  55.047   1.865  1.00  0.00     0.037 C 
HETATM   16  C13 UNL     1       4.130  55.893   2.036  1.00  0.00     0.037 C 
ENDBRANCH  11  13
ENDBRANCH   8   9
BRANCH   1  17
HETATM   17  N1  UNL     1       5.745  50.204   1.681  1.00  0.00    -0.351 N 
HETATM   18  C2  UNL     1       7.015  50.836   1.655  1.00  0.00     0.214 C 
HETATM   19  C1  UNL     1       7.994  50.643   0.585  1.00  0.00     0.117 C 
HETATM   20  O1  UNL     1       7.338  51.617   2.602  1.00  0.00    -0.274 OA
ATOM     21  H1  UNL     1       5.494  49.579   0.916  1.00  0.00     0.163 HD
ENDBRANCH   1  17
TORSDOF 3
ENDMDL
MODEL 2
REMARK VINA RESULT: -6.366772314      0.343      1.101
REMARK  3 active torsions:
REMARK  status: ('A' for Active; 'I' for Inactive)
REMARK       I    between atoms: C2_2  and  N1_4 
REMARK    1  A    between atoms: N1_4  and  C3_6 
REMARK    2  A    between atoms: C8_13  and  C9_14 
REMARK       I    between atoms: C9_14  and  N3_16 
REMARK    3  A    between atoms: N3_16  and  C10_18 
ROOT
HETATM    1  C3  UNL     1       4.615  50.315   2.726  1.00  0.00     0.142 C 
HETATM    2  C4  UNL     1       3.657  49.141   2.795  1.00  0.00     0.061 C 
HETATM    3  C5  UNL     1       2.273  49.756   2.807  1.00  0.00     0.025 C 
HETATM    4  C6  UNL     1       1.690  49.795   4.204  1.00  0.00     0.038 C 
HETATM    5  C7  UNL     1       1.324  49.054   1.866  1.00  0.00     0.038 C 
HETATM    6  N2  UNL     1       2.490  51.100   2.378  1.00  0.00    -0.379 N 
ATOM      7  H2  UNL     1       1.730  51.736   2.138  1.00  0.00     0.160 HD
HETATM    8  C8  UNL     1       3.724  51.435   2.321  1.00  0.00     0.097 C 
ENDROOT
BRANCH   8   9
HETATM    9  C9  UNL     1       4.183  52.755   1.911  1.00  0.00     0.266 C 
HETATM   10  O2  UNL     1       4.410  53.011   0.701  1.00  0.00    -0.266 OA
HETATM   11  N3  UNL     1       4.393  53.807   2.837  1.00  0.00    -0.348 N 
ATOM     12  H3  UNL     1       4.214  53.620   3.824  1.00  0.00     0.163 HD
BRANCH  11  13
HETATM   13  C10 UNL     1       4.842  55.114   2.471  1.00  0.00     0.022 C 
HETATM   14  C11 UNL     1       5.899  55.043   1.418  1.00  0.00     0.037 C 
HETATM   15  C12 UNL     1       3.663  55.906   1.947  1.00  0.00     0.037 C 
HETATM   16  C13 UNL     1       5.422  55.787   3.711  1.00  0.00     0.037 C 
ENDBRANCH  11  13
ENDBRANCH   8   9
BRANCH   1  17
HETATM   17  N1  UNL     1       5.566  50.058   1.677  1.00  0.00    -0.351 N 
HETATM   18  C2  UNL     1       6.870  50.616   1.670  1.00  0.00     0.214 C 
HETATM   19  C1  UNL     1       7.852  50.368   0.614  1.00  0.00     0.117 C 
HETATM   20  O1  UNL     1       7.224  51.376   2.623  1.00  0.00    -0.274 OA
ATOM     21  H1  UNL     1       5.291  49.449   0.907  1.00  0.00     0.163 HD
ENDBRANCH   1  17
TORSDOF 3
ENDMDL
MODEL 3
REMARK VINA RESULT: -6.361882592      1.623      1.821
REMARK  3 active torsions:
REMARK  status: ('A' for Active; 'I' for Inactive)
REMARK       I    between atoms: C2_2  and  N1_4 
REMARK    1  A    between atoms: N1_4  and  C3_6 
REMARK    2  A    between atoms: C8_13  and  C9_14 
REMARK       I    between atoms: C9_14  and  N3_16 
REMARK    3  A    between atoms: N3_16  and  C10_18 
ROOT
HETATM    1  C3  UNL     1       5.196  51.538   2.154  1.00  0.00     0.142 C 
HETATM    2  C4  UNL     1       4.315  50.392   1.691  1.00  0.00     0.061 C 
HETATM    3  C5  UNL     1       2.900  50.928   1.748  1.00  0.00     0.025 C 
HETATM    4  C6  UNL     1       2.172  50.454   2.988  1.00  0.00     0.038 C 
HETATM    5  C7  UNL     1       2.104  50.583   0.512  1.00  0.00     0.038 C 
HETATM    6  N2  UNL     1       3.071  52.342   1.846  1.00  0.00    -0.379 N 
ATOM      7  H2  UNL     1       2.300  53.003   1.752  1.00  0.00     0.160 HD
HETATM    8  C8  UNL     1       4.279  52.706   2.061  1.00  0.00     0.097 C 
ENDROOT
BRANCH   8   9
HETATM    9  C9  UNL     1       4.690  54.097   2.198  1.00  0.00     0.266 C 
HETATM   10  O2  UNL     1       4.954  54.582   3.327  1.00  0.00    -0.266 OA
HETATM   11  N3  UNL     1       4.815  54.964   1.084  1.00  0.00    -0.348 N 
ATOM     12  H3  UNL     1       4.606  54.589   0.158  1.00  0.00     0.163 HD
BRANCH  11  13
HETATM   13  C10 UNL     1       5.216  56.332   1.180  1.00  0.00     0.022 C 
HETATM   14  C11 UNL     1       4.296  57.100   2.074  1.00  0.00     0.037 C 
HETATM   15  C12 UNL     1       6.622  56.391   1.737  1.00  0.00     0.037 C 
HETATM   16  C13 UNL     1       5.175  56.945  -0.217  1.00  0.00     0.037 C 
ENDBRANCH  11  13
ENDBRANCH   8   9
BRANCH   1  17
HETATM   17  N1  UNL     1       6.266  51.694   1.206  1.00  0.00    -0.351 N 
HETATM   18  C2  UNL     1       7.562  52.136   1.578  1.00  0.00     0.214 C 
HETATM   19  C1  UNL     1       8.665  52.301   0.630  1.00  0.00     0.117 C 
HETATM   20  O1  UNL     1       7.798  52.410   2.795  1.00  0.00    -0.274 OA
ATOM     21  H1  UNL     1       6.087  51.477   0.226  1.00  0.00     0.163 HD
ENDBRANCH   1  17
TORSDOF 3
ENDMDL
MODEL 4
REMARK VINA RESULT: -6.316117552      1.584      2.038
REMARK  3 active torsions:
REMARK  status: ('A' for Active; 'I' for Inactive)
REMARK       I    between atoms: C2_2  and  N1_4 
REMARK    1  A    between atoms: N1_4  and  C3_6 
REMARK    2  A    between atoms: C8_13  and  C9_14 
REMARK       I    between atoms: C9_14  and  N3_16 
REMARK    3  A    between atoms: N3_16  and  C10_18 
ROOT
HETATM    1  C3  UNL     1       5.151  51.497   2.181  1.00  0.00     0.142 C 
HETATM    2  C4  UNL     1       4.284  50.329   1.750  1.00  0.00     0.061 C 
HETATM    3  C5  UNL     1       2.860  50.840   1.823  1.00  0.00     0.025 C 
HETATM    4  C6  UNL     1       2.161  50.372   3.082  1.00  0.00     0.038 C 
HETATM    5  C7  UNL     1       2.051  50.462   0.606  1.00  0.00     0.038 C 
HETATM    6  N2  UNL     1       3.007  52.258   1.897  1.00  0.00    -0.379 N 
ATOM      7  H2  UNL     1       2.223  52.903   1.806  1.00  0.00     0.160 HD
HETATM    8  C8  UNL     1       4.212  52.647   2.087  1.00  0.00     0.097 C 
ENDROOT
BRANCH   8   9
HETATM    9  C9  UNL     1       4.599  54.047   2.196  1.00  0.00     0.266 C 
HETATM   10  O2  UNL     1       4.831  54.565   3.318  1.00  0.00    -0.266 OA
HETATM   11  N3  UNL     1       4.736  54.887   1.063  1.00  0.00    -0.348 N 
ATOM     12  H3  UNL     1       4.554  54.485   0.143  1.00  0.00     0.163 HD
BRANCH  11  13
HETATM   13  C10 UNL     1       5.115  56.263   1.132  1.00  0.00     0.022 C 
HETATM   14  C11 UNL     1       5.332  56.830  -0.234  1.00  0.00     0.037 C 
HETATM   15  C12 UNL     1       4.018  57.038   1.829  1.00  0.00     0.037 C 
HETATM   16  C13 UNL     1       6.417  56.364   1.923  1.00  0.00     0.037 C 
ENDBRANCH  11  13
ENDBRANCH   8   9
BRANCH   1  17
HETATM   17  N1  UNL     1       6.203  51.658   1.214  1.00  0.00    -0.351 N 
HETATM   18  C2  UNL     1       7.505  52.101   1.562  1.00  0.00     0.214 C 
HETATM   19  C1  UNL     1       8.588  52.272   0.594  1.00  0.00     0.117 C 
HETATM   20  O1  UNL     1       7.763  52.371   2.775  1.00  0.00    -0.274 OA
ATOM     21  H1  UNL     1       6.004  51.444   0.237  1.00  0.00     0.163 HD
ENDBRANCH   1  17
TORSDOF 3
ENDMDL
MODEL 5
REMARK VINA RESULT: -6.304015353      3.837      6.003
REMARK  3 active torsions:
REMARK  status: ('A' for Active; 'I' for Inactive)
REMARK       I    between atoms: C2_2  and  N1_4 
REMARK    1  A    between atoms: N1_4  and  C3_6 
REMARK    2  A    between atoms: C8_13  and  C9_14 
REMARK       I    between atoms: C9_14  and  N3_16 
REMARK    3  A    between atoms: N3_16  and  C10_18 
ROOT
HETATM    1  C3  UNL     1       9.437  54.797   0.456  1.00  0.00     0.142 C 
HETATM    2  C4  UNL     1      10.338  53.770  -0.203  1.00  0.00     0.061 C 
HETATM    3  C5  UNL     1       9.645  52.440   0.003  1.00  0.00     0.025 C 
HETATM    4  C6  UNL     1      10.262  51.657   1.143  1.00  0.00     0.038 C 
HETATM    5  C7  UNL     1       9.624  51.603  -1.253  1.00  0.00     0.038 C 
HETATM    6  N2  UNL     1       8.315  52.800   0.378  1.00  0.00    -0.379 N 
ATOM      7  H2  UNL     1       7.555  52.124   0.442  1.00  0.00     0.160 HD
HETATM    8  C8  UNL     1       8.164  54.046   0.627  1.00  0.00     0.097 C 
ENDROOT
BRANCH   8   9
HETATM    9  C9  UNL     1       6.897  54.640   1.029  1.00  0.00     0.266 C 
HETATM   10  O2  UNL     1       5.899  54.608   0.264  1.00  0.00    -0.266 OA
HETATM   11  N3  UNL     1       6.720  55.274   2.284  1.00  0.00    -0.348 N 
ATOM     12  H3  UNL     1       7.517  55.310   2.920  1.00  0.00     0.163 HD
BRANCH  11  13
HETATM   13  C10 UNL     1       5.492  55.866   2.712  1.00  0.00     0.022 C 
HETATM   14  C11 UNL     1       5.099  56.995   1.815  1.00  0.00     0.037 C 
HETATM   15  C12 UNL     1       4.408  54.810   2.695  1.00  0.00     0.037 C 
HETATM   16  C13 UNL     1       5.685  56.403   4.128  1.00  0.00     0.037 C 
ENDBRANCH  11  13
ENDBRANCH   8   9
BRANCH   1  17
HETATM   17  N1  UNL     1       9.233  55.877  -0.472  1.00  0.00    -0.351 N 
HETATM   18  C2  UNL     1       8.848  57.180  -0.061  1.00  0.00     0.214 C 
HETATM   19  C1  UNL     1       8.635  58.292  -0.988  1.00  0.00     0.117 C 
HETATM   20  O1  UNL     1       8.673  57.413   1.174  1.00  0.00    -0.274 OA
ATOM     21  H1  UNL     1       9.370  55.700  -1.466  1.00  0.00     0.163 HD
ENDBRANCH   1  17
TORSDOF 3
ENDMDL
