MODEL 1
REMARK VINA RESULT: -5.979997908      0.000      0.000
REMARK  4 active torsions:
REMARK  status: ('A' for Active; 'I' for Inactive)
REMARK    1  A    between atoms: C2_2  and  C5_5 
REMARK    2  A    between atoms: C5_5  and  N1_6 
REMARK    3  A    between atoms: C11_15  and  C12_16 
REMARK    4  A    between atoms: N2_20  and  O3_21 
ROOT
HETATM    1  C5  UNL     1       6.011  57.057   0.353  1.00  0.00     0.138 C 
HETATM    2  C6  UNL     1       5.578  57.413   1.737  1.00  0.00     0.062 C 
HETATM    3  C7  UNL     1       5.212  56.131   2.460  1.00  0.00     0.090 C 
HETATM    4  C8  UNL     1       4.255  55.307   1.632  1.00  0.00     0.027 C 
HETATM    5  C9  UNL     1       4.980  54.847   0.394  1.00  0.00    -0.001 C 
HETATM    6  C10 UNL     1       5.892  53.712   0.885  1.00  0.00     0.044 C 
HETATM    7  C11 UNL     1       6.824  54.865   1.308  1.00  0.00     0.133 C 
HETATM    8  C13 UNL     1       6.264  55.619   0.160  1.00  0.00     0.062 C 
HETATM    9  N2  UNL     1       6.434  55.370   2.603  1.00  0.00    -0.174 NA
ENDROOT
BRANCH   1  10
HETATM   10  C2  UNL     1       7.098  57.978  -0.115  1.00  0.00    -0.018 C 
HETATM   11  C1  UNL     1       6.486  59.346  -0.419  1.00  0.00     0.017 C 
HETATM   12  C3  UNL     1       7.876  57.529  -1.280  1.00  0.00     0.017 C 
HETATM   13  C4  UNL     1       8.047  58.196   1.053  1.00  0.00     0.017 C 
ENDBRANCH   1  10
BRANCH   1  14
HETATM   14  N1  UNL     1       4.882  57.403  -0.534  1.00  0.00    -0.069 N 
ATOM     15  H13 UNL     1       3.968  57.399  -0.082  1.00  0.00     0.275 HD
ATOM     16  H12 UNL     1       4.849  58.381  -0.821  1.00  0.00     0.275 HD
ATOM     17  H11 UNL     1       4.982  56.736  -1.299  1.00  0.00     0.275 HD
ENDBRANCH   1  14
BRANCH   7  18
HETATM   18  C12 UNL     1       8.205  54.381   1.201  1.00  0.00     0.200 C 
HETATM   19  O1  UNL     1       9.025  55.010   0.512  1.00  0.00    -0.646 OA
HETATM   20  O2  UNL     1       8.595  53.240   1.854  1.00  0.00    -0.646 OA
ENDBRANCH   7  18
BRANCH   9  21
HETATM   21  O3  UNL     1       6.309  54.345   3.475  1.00  0.00    -0.311 OA
ATOM     22  H3  UNL     1       6.804  54.482   4.274  1.00  0.00     0.237 HD
ENDBRANCH   9  21
TORSDOF 4
ENDMDL
MODEL 2
REMARK VINA RESULT: -5.906735121      0.425      1.067
REMARK  4 active torsions:
REMARK  status: ('A' for Active; 'I' for Inactive)
REMARK    1  A    between atoms: C2_2  and  C5_5 
REMARK    2  A    between atoms: C5_5  and  N1_6 
REMARK    3  A    between atoms: C11_15  and  C12_16 
REMARK    4  A    between atoms: N2_20  and  O3_21 
ROOT
HETATM    1  C5  UNL     1       5.972  57.133   0.359  1.00  0.00     0.138 C 
HETATM    2  C6  UNL     1       5.578  57.421   1.769  1.00  0.00     0.062 C 
HETATM    3  C7  UNL     1       5.278  56.101   2.453  1.00  0.00     0.090 C 
HETATM    4  C8  UNL     1       4.319  55.278   1.625  1.00  0.00     0.027 C 
HETATM    5  C9  UNL     1       5.014  54.890   0.347  1.00  0.00    -0.001 C 
HETATM    6  C10 UNL     1       5.979  53.767   0.761  1.00  0.00     0.044 C 
HETATM    7  C11 UNL     1       6.887  54.934   1.198  1.00  0.00     0.133 C 
HETATM    8  C13 UNL     1       6.264  55.713   0.100  1.00  0.00     0.062 C 
HETATM    9  N2  UNL     1       6.528  55.376   2.524  1.00  0.00    -0.174 NA
ENDROOT
BRANCH   1  10
HETATM   10  C2  UNL     1       7.013  58.107  -0.109  1.00  0.00    -0.018 C 
HETATM   11  C1  UNL     1       8.027  58.321   1.015  1.00  0.00     0.017 C 
HETATM   12  C3  UNL     1       6.521  59.415  -0.570  1.00  0.00     0.017 C 
HETATM   13  C4  UNL     1       7.781  57.445  -1.243  1.00  0.00     0.017 C 
ENDBRANCH   1  10
BRANCH   1  14
HETATM   14  N1  UNL     1       4.803  57.475  -0.475  1.00  0.00    -0.069 N 
ATOM     15  H13 UNL     1       4.158  58.142  -0.052  1.00  0.00     0.275 HD
ATOM     16  H12 UNL     1       5.016  58.044  -1.294  1.00  0.00     0.275 HD
ATOM     17  H11 UNL     1       4.397  56.563  -0.683  1.00  0.00     0.275 HD
ENDBRANCH   1  14
BRANCH   7  18
HETATM   18  C12 UNL     1       8.278  54.500   1.025  1.00  0.00     0.200 C 
HETATM   19  O1  UNL     1       9.204  55.226   1.425  1.00  0.00    -0.646 OA
HETATM   20  O2  UNL     1       8.563  53.301   0.423  1.00  0.00    -0.646 OA
ENDBRANCH   7  18
BRANCH   9  21
HETATM   21  O3  UNL     1       6.466  54.314   3.358  1.00  0.00    -0.311 OA
ATOM     22  H3  UNL     1       6.693  53.498   2.928  1.00  0.00     0.237 HD
ENDBRANCH   9  21
TORSDOF 4
ENDMDL
MODEL 3
REMARK VINA RESULT: -5.898293585      1.364      2.050
REMARK  4 active torsions:
REMARK  status: ('A' for Active; 'I' for Inactive)
REMARK    1  A    between atoms: C2_2  and  C5_5 
REMARK    2  A    between atoms: C5_5  and  N1_6 
REMARK    3  A    between atoms: C11_15  and  C12_16 
REMARK    4  A    between atoms: N2_20  and  O3_21 
ROOT
HETATM    1  C5  UNL     1       5.319  58.316   0.143  1.00  0.00     0.138 C 
HETATM    2  C6  UNL     1       4.742  58.346   1.519  1.00  0.00     0.062 C 
HETATM    3  C7  UNL     1       4.895  56.964   2.125  1.00  0.00     0.090 C 
HETATM    4  C8  UNL     1       4.367  55.909   1.182  1.00  0.00     0.027 C 
HETATM    5  C9  UNL     1       5.250  55.884  -0.038  1.00  0.00    -0.001 C 
HETATM    6  C10 UNL     1       6.524  55.160   0.426  1.00  0.00     0.044 C 
HETATM    7  C11 UNL     1       6.908  56.544   0.986  1.00  0.00     0.133 C 
HETATM    8  C13 UNL     1       6.127  57.117  -0.137  1.00  0.00     0.062 C 
HETATM    9  N2  UNL     1       6.314  56.737   2.288  1.00  0.00    -0.174 NA
ENDROOT
BRANCH   1  10
HETATM   10  C2  UNL     1       5.963  59.629  -0.191  1.00  0.00    -0.018 C 
HETATM   11  C1  UNL     1       6.831  59.447  -1.436  1.00  0.00     0.017 C 
HETATM   12  C3  UNL     1       6.770  60.248   0.873  1.00  0.00     0.017 C 
HETATM   13  C4  UNL     1       4.857  60.592  -0.590  1.00  0.00     0.017 C 
ENDBRANCH   1  10
BRANCH   1  14
HETATM   14  N1  UNL     1       4.171  58.268  -0.785  1.00  0.00    -0.069 N 
ATOM     15  H13 UNL     1       4.191  58.970  -1.524  1.00  0.00     0.275 HD
ATOM     16  H12 UNL     1       4.161  57.462  -1.410  1.00  0.00     0.275 HD
ATOM     17  H11 UNL     1       3.369  58.331  -0.158  1.00  0.00     0.275 HD
ENDBRANCH   1  14
BRANCH   7  18
HETATM   18  C12 UNL     1       8.370  56.654   0.929  1.00  0.00     0.200 C 
HETATM   19  O1  UNL     1       8.893  57.717   0.554  1.00  0.00    -0.646 OA
HETATM   20  O2  UNL     1       9.162  55.593   1.286  1.00  0.00    -0.646 OA
ENDBRANCH   7  18
BRANCH   9  21
HETATM   21  O3  UNL     1       6.582  55.671   3.074  1.00  0.00    -0.311 OA
ATOM     22  H3  UNL     1       7.512  55.482   3.130  1.00  0.00     0.237 HD
ENDBRANCH   9  21
TORSDOF 4
ENDMDL
MODEL 4
REMARK VINA RESULT: -5.881054084      2.621      4.390
REMARK  4 active torsions:
REMARK  status: ('A' for Active; 'I' for Inactive)
REMARK    1  A    between atoms: C2_2  and  C5_5 
REMARK    2  A    between atoms: C5_5  and  N1_6 
REMARK    3  A    between atoms: C11_15  and  C12_16 
REMARK    4  A    between atoms: N2_20  and  O3_21 
ROOT
HETATM    1  C5  UNL     1       6.151  54.460   1.768  1.00  0.00     0.138 C 
HETATM    2  C6  UNL     1       7.121  54.083   0.698  1.00  0.00     0.062 C 
HETATM    3  C7  UNL     1       7.559  52.652   0.943  1.00  0.00     0.090 C 
HETATM    4  C8  UNL     1       8.010  52.471   2.373  1.00  0.00     0.027 C 
HETATM    5  C9  UNL     1       6.814  52.656   3.270  1.00  0.00    -0.001 C 
HETATM    6  C10 UNL     1       6.014  51.353   3.115  1.00  0.00     0.044 C 
HETATM    7  C11 UNL     1       5.477  52.027   1.837  1.00  0.00     0.133 C 
HETATM    8  C13 UNL     1       5.653  53.316   2.551  1.00  0.00     0.062 C 
HETATM    9  N2  UNL     1       6.393  51.820   0.742  1.00  0.00    -0.174 NA
ENDROOT
BRANCH   1  10
HETATM   10  C2  UNL     1       5.101  55.386   1.229  1.00  0.00    -0.018 C 
HETATM   11  C1  UNL     1       5.584  56.827   1.396  1.00  0.00     0.017 C 
HETATM   12  C3  UNL     1       3.756  55.259   1.814  1.00  0.00     0.017 C 
HETATM   13  C4  UNL     1       5.007  55.148  -0.270  1.00  0.00     0.017 C 
ENDBRANCH   1  10
BRANCH   1  14
HETATM   14  N1  UNL     1       6.892  55.318   2.714  1.00  0.00    -0.069 N 
ATOM     15  H13 UNL     1       7.357  56.120   2.287  1.00  0.00     0.275 HD
ATOM     16  H12 UNL     1       6.305  55.864   3.344  1.00  0.00     0.275 HD
ATOM     17  H11 UNL     1       7.517  54.659   3.176  1.00  0.00     0.275 HD
ENDBRANCH   1  14
BRANCH   7  18
HETATM   18  C12 UNL     1       4.107  51.545   1.624  1.00  0.00     0.200 C 
HETATM   19  O1  UNL     1       3.708  51.317   0.470  1.00  0.00    -0.646 OA
HETATM   20  O2  UNL     1       3.266  51.347   2.690  1.00  0.00    -0.646 OA
ENDBRANCH   7  18
BRANCH   9  21
HETATM   21  O3  UNL     1       6.702  50.507   0.648  1.00  0.00    -0.311 OA
ATOM     22  H3  UNL     1       6.606  50.049   1.474  1.00  0.00     0.237 HD
ENDBRANCH   9  21
TORSDOF 4
ENDMDL
MODEL 5
REMARK VINA RESULT: -5.592233419      0.717      1.237
REMARK  4 active torsions:
REMARK  status: ('A' for Active; 'I' for Inactive)
REMARK    1  A    between atoms: C2_2  and  C5_5 
REMARK    2  A    between atoms: C5_5  and  N1_6 
REMARK    3  A    between atoms: C11_15  and  C12_16 
REMARK    4  A    between atoms: N2_20  and  O3_21 
ROOT
HETATM    1  C5  UNL     1       6.018  56.620   0.650  1.00  0.00     0.138 C 
HETATM    2  C6  UNL     1       5.701  56.783   2.099  1.00  0.00     0.062 C 
HETATM    3  C7  UNL     1       5.404  55.411   2.673  1.00  0.00     0.090 C 
HETATM    4  C8  UNL     1       4.385  54.688   1.824  1.00  0.00     0.027 C 
HETATM    5  C9  UNL     1       5.006  54.407   0.480  1.00  0.00    -0.001 C 
HETATM    6  C10 UNL     1       5.962  53.232   0.739  1.00  0.00     0.044 C 
HETATM    7  C11 UNL     1       6.920  54.335   1.233  1.00  0.00     0.133 C 
HETATM    8  C13 UNL     1       6.261  55.225   0.246  1.00  0.00     0.062 C 
HETATM    9  N2  UNL     1       6.638  54.658   2.612  1.00  0.00    -0.174 NA
ENDROOT
BRANCH   1  10
HETATM   10  C2  UNL     1       7.057  57.613   0.220  1.00  0.00    -0.018 C 
HETATM   11  C1  UNL     1       7.787  57.061  -1.004  1.00  0.00     0.017 C 
HETATM   12  C3  UNL     1       8.047  58.002   1.237  1.00  0.00     0.017 C 
HETATM   13  C4  UNL     1       6.328  58.860  -0.256  1.00  0.00     0.017 C 
ENDBRANCH   1  10
BRANCH   1  14
HETATM   14  N1  UNL     1       4.817  57.061  -0.087  1.00  0.00    -0.069 N 
ATOM     15  H13 UNL     1       4.150  57.599   0.467  1.00  0.00     0.275 HD
ATOM     16  H12 UNL     1       4.986  57.792  -0.779  1.00  0.00     0.275 HD
ATOM     17  H11 UNL     1       4.450  56.189  -0.468  1.00  0.00     0.275 HD
ENDBRANCH   1  14
BRANCH   7  18
HETATM   18  C12 UNL     1       8.290  53.892   0.949  1.00  0.00     0.200 C 
HETATM   19  O1  UNL     1       9.250  54.591   1.312  1.00  0.00    -0.646 OA
HETATM   20  O2  UNL     1       8.516  52.714   0.284  1.00  0.00    -0.646 OA
ENDBRANCH   7  18
BRANCH   9  21
HETATM   21  O3  UNL     1       6.592  53.525   3.346  1.00  0.00    -0.311 OA
ATOM     22  H3  UNL     1       7.447  53.126   3.457  1.00  0.00     0.237 HD
ENDBRANCH   9  21
TORSDOF 4
ENDMDL
