MODEL 1
REMARK VINA RESULT: -7.974313451      0.000      0.000
REMARK  3 active torsions:
REMARK  status: ('A' for Active; 'I' for Inactive)
REMARK    1  A    between atoms: N1_1  and  N2_4 
REMARK    2  A    between atoms: N2_4  and  N3_5 
REMARK    3  A    between atoms: N3_5  and  C1_7 
ROOT
HETATM    1  C1  UNL     1       5.627  53.705   1.563  1.00  0.00     0.064 A 
HETATM    2  C2  UNL     1       6.788  53.390   0.886  1.00  0.00     0.034 A 
HETATM    3  C3  UNL     1       7.554  54.367   0.295  1.00  0.00     0.033 A 
HETATM    4  C4  UNL     1       7.155  55.713   0.376  1.00  0.00     0.054 A 
HETATM    5  C5  UNL     1       5.996  55.985   1.057  1.00  0.00     0.093 A 
HETATM    6  C6  UNL     1       5.229  55.014   1.648  1.00  0.00     0.058 A 
HETATM    7  S1  UNL     1       5.483  57.654   1.168  1.00  0.00     0.211 S 
HETATM    8  O1  UNL     1       4.106  57.829   0.592  1.00  0.00    -0.217 OA
HETATM    9  O2  UNL     1       5.502  58.023   2.626  1.00  0.00    -0.217 OA
HETATM   10  C7  UNL     1       6.656  58.623   0.327  1.00  0.00     0.090 A 
HETATM   11  C8  UNL     1       6.462  59.991   0.279  1.00  0.00     0.026 A 
HETATM   12  C9  UNL     1       7.377  60.773  -0.379  1.00  0.00     0.002 A 
HETATM   13  C10 UNL     1       8.491  60.235  -1.000  1.00  0.00     0.002 A 
HETATM   14  C11 UNL     1       8.681  58.879  -0.950  1.00  0.00     0.031 A 
HETATM   15  C12 UNL     1       7.747  58.065  -0.276  1.00  0.00     0.054 A 
HETATM   16  N4  UNL     1       7.979  56.671  -0.249  1.00  0.00    -0.354 N 
ATOM     17  H4  UNL     1       8.816  56.328  -0.722  1.00  0.00     0.166 HD
ENDROOT
BRANCH   1  18
HETATM   18  N3  UNL     1       4.861  52.662   2.161  1.00  0.00    -0.217 N 
ATOM     19  H3  UNL     1       3.861  52.590   1.975  1.00  0.00     0.203 HD
BRANCH  18  20
HETATM   20  N2  UNL     1       5.410  51.846   2.905  1.00  0.00    -0.243 NA
BRANCH  20  21
HETATM   21  N1  UNL     1       5.849  51.112   3.786  1.00  0.00    -0.260 N 
ATOM     22  H12 UNL     1       4.940  51.195   4.242  1.00  0.00     0.193 HD
ATOM     23  H11 UNL     1       6.349  50.500   4.432  1.00  0.00     0.193 HD
ENDBRANCH  20  21
ENDBRANCH  18  20
ENDBRANCH   1  18
TORSDOF 3
ENDMDL
MODEL 2
REMARK VINA RESULT: -7.864204616      2.628      3.178
REMARK  3 active torsions:
REMARK  status: ('A' for Active; 'I' for Inactive)
REMARK    1  A    between atoms: N1_1  and  N2_4 
REMARK    2  A    between atoms: N2_4  and  N3_5 
REMARK    3  A    between atoms: N3_5  and  C1_7 
ROOT
HETATM    1  C1  UNL     1       8.291  53.469   0.640  1.00  0.00     0.064 A 
HETATM    2  C2  UNL     1       6.928  53.474   0.861  1.00  0.00     0.034 A 
HETATM    3  C3  UNL     1       6.203  54.640   0.803  1.00  0.00     0.033 A 
HETATM    4  C4  UNL     1       6.850  55.855   0.514  1.00  0.00     0.054 A 
HETATM    5  C5  UNL     1       8.204  55.808   0.301  1.00  0.00     0.093 A 
HETATM    6  C6  UNL     1       8.933  54.648   0.357  1.00  0.00     0.058 A 
HETATM    7  S1  UNL     1       9.029  57.309  -0.060  1.00  0.00     0.211 S 
HETATM    8  O1  UNL     1      10.119  57.572   0.939  1.00  0.00    -0.217 OA
HETATM    9  O2  UNL     1       9.595  57.176  -1.446  1.00  0.00    -0.217 OA
HETATM   10  C7  UNL     1       7.840  58.577  -0.057  1.00  0.00     0.090 A 
HETATM   11  C8  UNL     1       8.258  59.868  -0.321  1.00  0.00     0.026 A 
HETATM   12  C9  UNL     1       7.336  60.883  -0.324  1.00  0.00     0.002 A 
HETATM   13  C10 UNL     1       5.994  60.655  -0.071  1.00  0.00     0.002 A 
HETATM   14  C11 UNL     1       5.581  59.375   0.190  1.00  0.00     0.031 A 
HETATM   15  C12 UNL     1       6.522  58.323   0.195  1.00  0.00     0.054 A 
HETATM   16  N4  UNL     1       6.055  57.017   0.469  1.00  0.00    -0.354 N 
ATOM     17  H4  UNL     1       5.057  56.907   0.649  1.00  0.00     0.166 HD
ENDROOT
BRANCH   1  18
HETATM   18  N3  UNL     1       9.007  52.239   0.709  1.00  0.00    -0.217 N 
ATOM     19  H3  UNL     1      10.026  52.237   0.665  1.00  0.00     0.203 HD
BRANCH  18  20
HETATM   20  N2  UNL     1       8.392  51.176   0.823  1.00  0.00    -0.243 NA
BRANCH  20  21
HETATM   21  N1  UNL     1       7.940  50.053   1.023  1.00  0.00    -0.260 N 
ATOM     22  H12 UNL     1       8.880  49.776   1.305  1.00  0.00     0.193 HD
ATOM     23  H11 UNL     1       7.423  49.180   1.140  1.00  0.00     0.193 HD
ENDBRANCH  20  21
ENDBRANCH  18  20
ENDBRANCH   1  18
TORSDOF 3
ENDMDL
MODEL 3
REMARK VINA RESULT: -7.664407569      4.308      5.833
REMARK  3 active torsions:
REMARK  status: ('A' for Active; 'I' for Inactive)
REMARK    1  A    between atoms: N1_1  and  N2_4 
REMARK    2  A    between atoms: N2_4  and  N3_5 
REMARK    3  A    between atoms: N3_5  and  C1_7 
ROOT
HETATM    1  C1  UNL     1      10.547  58.013  -1.824  1.00  0.00     0.064 A 
HETATM    2  C2  UNL     1      10.326  59.358  -2.044  1.00  0.00     0.034 A 
HETATM    3  C3  UNL     1       9.203  59.982  -1.555  1.00  0.00     0.033 A 
HETATM    4  C4  UNL     1       8.258  59.248  -0.815  1.00  0.00     0.054 A 
HETATM    5  C5  UNL     1       8.515  57.915  -0.619  1.00  0.00     0.093 A 
HETATM    6  C6  UNL     1       9.633  57.287  -1.105  1.00  0.00     0.058 A 
HETATM    7  S1  UNL     1       7.352  56.983   0.298  1.00  0.00     0.211 S 
HETATM    8  O1  UNL     1       6.839  55.826  -0.510  1.00  0.00    -0.217 OA
HETATM    9  O2  UNL     1       8.056  56.499   1.536  1.00  0.00    -0.217 OA
HETATM   10  C7  UNL     1       6.067  58.057   0.766  1.00  0.00     0.090 A 
HETATM   11  C8  UNL     1       5.020  57.542   1.507  1.00  0.00     0.026 A 
HETATM   12  C9  UNL     1       3.997  58.373   1.886  1.00  0.00     0.002 A 
HETATM   13  C10 UNL     1       3.978  59.716   1.548  1.00  0.00     0.002 A 
HETATM   14  C11 UNL     1       5.018  60.224   0.813  1.00  0.00     0.031 A 
HETATM   15  C12 UNL     1       6.076  59.378   0.418  1.00  0.00     0.054 A 
HETATM   16  N4  UNL     1       7.128  59.941  -0.339  1.00  0.00    -0.354 N 
ATOM     17  H4  UNL     1       7.063  60.935  -0.560  1.00  0.00     0.166 HD
ENDROOT
BRANCH   1  18
HETATM   18  N3  UNL     1      11.724  57.403  -2.349  1.00  0.00    -0.217 N 
ATOM     19  H3  UNL     1      12.614  57.507  -1.863  1.00  0.00     0.203 HD
BRANCH  18  20
HETATM   20  N2  UNL     1      11.663  56.750  -3.393  1.00  0.00    -0.243 NA
BRANCH  20  21
HETATM   21  N1  UNL     1      11.412  56.095  -4.400  1.00  0.00    -0.260 N 
ATOM     22  H12 UNL     1      11.507  56.961  -4.930  1.00  0.00     0.193 HD
ATOM     23  H11 UNL     1      11.192  55.424  -5.137  1.00  0.00     0.193 HD
ENDBRANCH  20  21
ENDBRANCH  18  20
ENDBRANCH   1  18
TORSDOF 3
ENDMDL
MODEL 4
REMARK VINA RESULT: -7.653998015      3.464      4.282
REMARK  3 active torsions:
REMARK  status: ('A' for Active; 'I' for Inactive)
REMARK    1  A    between atoms: N1_1  and  N2_4 
REMARK    2  A    between atoms: N2_4  and  N3_5 
REMARK    3  A    between atoms: N3_5  and  C1_7 
ROOT
HETATM    1  C1  UNL     1      10.158  56.076  -0.182  1.00  0.00     0.064 A 
HETATM    2  C2  UNL     1      10.470  57.281  -0.781  1.00  0.00     0.034 A 
HETATM    3  C3  UNL     1       9.593  58.339  -0.747  1.00  0.00     0.033 A 
HETATM    4  C4  UNL     1       8.356  58.204  -0.092  1.00  0.00     0.054 A 
HETATM    5  C5  UNL     1       8.084  56.992   0.490  1.00  0.00     0.093 A 
HETATM    6  C6  UNL     1       8.954  55.933   0.459  1.00  0.00     0.058 A 
HETATM    7  S1  UNL     1       6.550  56.803   1.309  1.00  0.00     0.211 S 
HETATM    8  O1  UNL     1       5.767  55.663   0.722  1.00  0.00    -0.217 OA
HETATM    9  O2  UNL     1       6.855  56.549   2.760  1.00  0.00    -0.217 OA
HETATM   10  C7  UNL     1       5.689  58.307   1.171  1.00  0.00     0.090 A 
HETATM   11  C8  UNL     1       4.436  58.401   1.748  1.00  0.00     0.026 A 
HETATM   12  C9  UNL     1       3.741  59.579   1.649  1.00  0.00     0.002 A 
HETATM   13  C10 UNL     1       4.255  60.682   0.988  1.00  0.00     0.002 A 
HETATM   14  C11 UNL     1       5.498  60.587   0.417  1.00  0.00     0.031 A 
HETATM   15  C12 UNL     1       6.222  59.379   0.513  1.00  0.00     0.054 A 
HETATM   16  N4  UNL     1       7.499  59.322  -0.090  1.00  0.00    -0.354 N 
ATOM     17  H4  UNL     1       7.828  60.163  -0.564  1.00  0.00     0.166 HD
ENDROOT
BRANCH   1  18
HETATM   18  N3  UNL     1      11.094  55.003  -0.240  1.00  0.00    -0.217 N 
ATOM     19  H3  UNL     1      11.499  54.726  -1.134  1.00  0.00     0.203 HD
BRANCH  18  20
HETATM   20  N2  UNL     1      11.412  54.409   0.792  1.00  0.00    -0.243 NA
BRANCH  20  21
HETATM   21  N1  UNL     1      11.884  53.933   1.820  1.00  0.00    -0.260 N 
ATOM     22  H12 UNL     1      11.418  54.685   2.326  1.00  0.00     0.193 HD
ATOM     23  H11 UNL     1      12.342  53.426   2.578  1.00  0.00     0.193 HD
ENDBRANCH  20  21
ENDBRANCH  18  20
ENDBRANCH   1  18
TORSDOF 3
ENDMDL
MODEL 5
REMARK VINA RESULT: -7.548921483      1.646      1.978
REMARK  3 active torsions:
REMARK  status: ('A' for Active; 'I' for Inactive)
REMARK    1  A    between atoms: N1_1  and  N2_4 
REMARK    2  A    between atoms: N2_4  and  N3_5 
REMARK    3  A    between atoms: N3_5  and  C1_7 
ROOT
HETATM    1  C1  UNL     1       8.426  52.850   2.127  1.00  0.00     0.064 A 
HETATM    2  C2  UNL     1       9.635  52.937   1.466  1.00  0.00     0.034 A 
HETATM    3  C3  UNL     1       9.979  54.066   0.761  1.00  0.00     0.033 A 
HETATM    4  C4  UNL     1       9.092  55.156   0.705  1.00  0.00     0.054 A 
HETATM    5  C5  UNL     1       7.901  55.030   1.375  1.00  0.00     0.093 A 
HETATM    6  C6  UNL     1       7.553  53.907   2.080  1.00  0.00     0.058 A 
HETATM    7  S1  UNL     1       6.783  56.374   1.318  1.00  0.00     0.211 S 
HETATM    8  O1  UNL     1       5.459  55.944   0.753  1.00  0.00    -0.217 OA
HETATM    9  O2  UNL     1       6.625  56.873   2.728  1.00  0.00    -0.217 OA
HETATM   10  C7  UNL     1       7.512  57.626   0.358  1.00  0.00     0.090 A 
HETATM   11  C8  UNL     1       6.809  58.801   0.168  1.00  0.00     0.026 A 
HETATM   12  C9  UNL     1       7.367  59.801  -0.586  1.00  0.00     0.002 A 
HETATM   13  C10 UNL     1       8.618  59.672  -1.167  1.00  0.00     0.002 A 
HETATM   14  C11 UNL     1       9.314  58.506  -0.978  1.00  0.00     0.031 A 
HETATM   15  C12 UNL     1       8.749  57.471  -0.203  1.00  0.00     0.054 A 
HETATM   16  N4  UNL     1       9.499  56.285  -0.033  1.00  0.00    -0.354 N 
ATOM     17  H4  UNL     1      10.413  56.243  -0.483  1.00  0.00     0.166 HD
ENDROOT
BRANCH   1  18
HETATM   18  N3  UNL     1       8.106  51.662   2.847  1.00  0.00    -0.217 N 
ATOM     19  H3  UNL     1       8.846  51.015   3.119  1.00  0.00     0.203 HD
BRANCH  18  20
HETATM   20  N2  UNL     1       6.934  51.418   3.140  1.00  0.00    -0.243 NA
BRANCH  20  21
HETATM   21  N1  UNL     1       5.815  51.232   3.610  1.00  0.00    -0.260 N 
ATOM     22  H12 UNL     1       6.159  50.333   3.948  1.00  0.00     0.193 HD
ATOM     23  H11 UNL     1       4.850  51.221   3.940  1.00  0.00     0.193 HD
ENDBRANCH  20  21
ENDBRANCH  18  20
ENDBRANCH   1  18
TORSDOF 3
ENDMDL
