MODEL 1
REMARK VINA RESULT: -8.468683788      0.000      0.000
REMARK  2 active torsions:
REMARK  status: ('A' for Active; 'I' for Inactive)
REMARK    1  A    between atoms: C10_14  and  O2_15 
REMARK    2  A    between atoms: C10_14  and  C11_17 
ROOT
HETATM    1  N1  UNL     1      11.466  54.652   0.941  1.00  0.00    -0.374 N 
ATOM      2  H11 UNL     1      11.522  53.788   1.480  1.00  0.00     0.158 HD
ATOM      3  H12 UNL     1      12.337  55.023   0.561  1.00  0.00     0.158 HD
HETATM    4  C1  UNL     1      10.354  55.274   0.727  1.00  0.00     0.182 C 
HETATM    5  O1  UNL     1      10.279  56.431   0.005  1.00  0.00    -0.288 OA
HETATM    6  C2  UNL     1       9.213  57.291  -0.058  1.00  0.00     0.086 A 
HETATM    7  C3  UNL     1       9.436  58.425  -0.867  1.00  0.00     0.038 A 
HETATM    8  C4  UNL     1       8.498  59.410  -1.033  1.00  0.00     0.003 A 
HETATM    9  C5  UNL     1       7.310  59.250  -0.372  1.00  0.00     0.001 A 
HETATM   10  C6  UNL     1       7.082  58.144   0.420  1.00  0.00     0.012 A 
HETATM   11  C7  UNL     1       8.028  57.120   0.601  1.00  0.00    -0.001 A 
HETATM   12  C8  UNL     1       7.618  55.966   1.408  1.00  0.00     0.086 A 
HETATM   13  C9  UNL     1       6.907  56.170   2.680  1.00  0.00     0.076 A 
HETATM   14  C10 UNL     1       6.203  55.526   1.496  1.00  0.00     0.130 A 
HETATM   15  S1  UNL     1       8.850  54.634   1.383  1.00  0.00    -0.068 SA
ENDROOT
BRANCH  14  16
HETATM   16  O2  UNL     1       5.227  56.202   0.826  1.00  0.00    -0.381 OA
ATOM     17  H2  UNL     1       4.674  55.751   0.198  1.00  0.00     0.211 HD
ENDBRANCH  14  16
BRANCH  14  18
HETATM   18  C11 UNL     1       5.965  54.031   1.594  1.00  0.00     0.089 A 
HETATM   19  C12 UNL     1       5.945  53.168   0.526  1.00  0.00     0.038 A 
HETATM   20  C13 UNL     1       5.697  51.887   1.031  1.00  0.00     0.027 A 
HETATM   21  C14 UNL     1       5.587  52.092   2.404  1.00  0.00     0.142 A 
HETATM   22  O3  UNL     1       5.751  53.364   2.697  1.00  0.00    -0.324 OA
ENDBRANCH  14  18
TORSDOF 2
ENDMDL
MODEL 2
REMARK VINA RESULT: -8.157199932      1.413      1.792
REMARK  2 active torsions:
REMARK  status: ('A' for Active; 'I' for Inactive)
REMARK    1  A    between atoms: C10_14  and  O2_15 
REMARK    2  A    between atoms: C10_14  and  C11_17 
ROOT
HETATM    1  N1  UNL     1      10.259  55.441  -0.069  1.00  0.00    -0.374 N 
ATOM      2  H11 UNL     1      10.710  54.563   0.189  1.00  0.00     0.158 HD
ATOM      3  H12 UNL     1      10.805  56.102  -0.622  1.00  0.00     0.158 HD
HETATM    4  C1  UNL     1       9.048  55.734   0.272  1.00  0.00     0.182 C 
HETATM    5  O1  UNL     1       8.444  56.910  -0.074  1.00  0.00    -0.288 OA
HETATM    6  C2  UNL     1       7.283  57.419   0.446  1.00  0.00     0.086 A 
HETATM    7  C3  UNL     1       6.916  58.673  -0.086  1.00  0.00     0.038 A 
HETATM    8  C4  UNL     1       5.800  59.353   0.327  1.00  0.00     0.003 A 
HETATM    9  C5  UNL     1       5.037  58.759   1.296  1.00  0.00     0.001 A 
HETATM   10  C6  UNL     1       5.386  57.532   1.822  1.00  0.00     0.012 A 
HETATM   11  C7  UNL     1       6.524  56.816   1.409  1.00  0.00    -0.001 A 
HETATM   12  C8  UNL     1       6.728  55.488   2.000  1.00  0.00     0.086 A 
HETATM   13  C9  UNL     1       6.554  55.289   3.447  1.00  0.00     0.076 A 
HETATM   14  C10 UNL     1       5.595  54.645   2.458  1.00  0.00     0.130 A 
HETATM   15  S1  UNL     1       8.104  54.594   1.227  1.00  0.00    -0.068 SA
ENDROOT
BRANCH  14  16
HETATM   16  O2  UNL     1       4.312  55.094   2.352  1.00  0.00    -0.381 OA
ATOM     17  H2  UNL     1       3.628  54.524   2.020  1.00  0.00     0.211 HD
ENDBRANCH  14  16
BRANCH  14  18
HETATM   18  C11 UNL     1       5.745  53.148   2.262  1.00  0.00     0.089 A 
HETATM   19  C12 UNL     1       5.568  52.490   1.070  1.00  0.00     0.038 A 
HETATM   20  C13 UNL     1       5.795  51.130   1.307  1.00  0.00     0.027 A 
HETATM   21  C14 UNL     1       6.100  51.082   2.665  1.00  0.00     0.142 A 
HETATM   22  O3  UNL     1       6.062  52.286   3.192  1.00  0.00    -0.324 OA
ENDBRANCH  14  18
TORSDOF 2
ENDMDL
MODEL 3
REMARK VINA RESULT: -7.561230114      1.038      1.270
REMARK  2 active torsions:
REMARK  status: ('A' for Active; 'I' for Inactive)
REMARK    1  A    between atoms: C10_14  and  O2_15 
REMARK    2  A    between atoms: C10_14  and  C11_17 
ROOT
HETATM    1  N1  UNL     1      10.998  54.288   0.863  1.00  0.00    -0.374 N 
ATOM      2  H11 UNL     1      11.231  53.399   1.306  1.00  0.00     0.158 HD
ATOM      3  H12 UNL     1      11.756  54.793   0.403  1.00  0.00     0.158 HD
HETATM    4  C1  UNL     1       9.804  54.781   0.864  1.00  0.00     0.182 C 
HETATM    5  O1  UNL     1       9.493  55.971   0.270  1.00  0.00    -0.288 OA
HETATM    6  C2  UNL     1       8.339  56.693   0.436  1.00  0.00     0.086 A 
HETATM    7  C3  UNL     1       8.311  57.905  -0.287  1.00  0.00     0.038 A 
HETATM    8  C4  UNL     1       7.253  58.774  -0.230  1.00  0.00     0.003 A 
HETATM    9  C5  UNL     1       6.202  58.417   0.571  1.00  0.00     0.001 A 
HETATM   10  C6  UNL     1       6.219  57.234   1.281  1.00  0.00     0.012 A 
HETATM   11  C7  UNL     1       7.292  56.326   1.233  1.00  0.00    -0.001 A 
HETATM   12  C8  UNL     1       7.138  55.071   1.977  1.00  0.00     0.086 A 
HETATM   13  C9  UNL     1       6.605  55.087   3.348  1.00  0.00     0.076 A 
HETATM   14  C10 UNL     1       5.811  54.452   2.218  1.00  0.00     0.130 A 
HETATM   15  S1  UNL     1       8.495  53.909   1.658  1.00  0.00    -0.068 SA
ENDROOT
BRANCH  14  16
HETATM   16  O2  UNL     1       4.676  55.050   1.755  1.00  0.00    -0.381 OA
ATOM     17  H2  UNL     1       3.825  54.666   1.929  1.00  0.00     0.211 HD
ENDBRANCH  14  16
BRANCH  14  18
HETATM   18  C11 UNL     1       5.761  52.936   2.207  1.00  0.00     0.089 A 
HETATM   19  C12 UNL     1       5.401  52.170   1.127  1.00  0.00     0.038 A 
HETATM   20  C13 UNL     1       5.481  50.830   1.520  1.00  0.00     0.027 A 
HETATM   21  C14 UNL     1       5.897  50.904   2.848  1.00  0.00     0.142 A 
HETATM   22  O3  UNL     1       6.052  52.157   3.216  1.00  0.00    -0.324 OA
ENDBRANCH  14  18
TORSDOF 2
ENDMDL
MODEL 4
REMARK VINA RESULT: -7.524309688      1.956      2.531
REMARK  2 active torsions:
REMARK  status: ('A' for Active; 'I' for Inactive)
REMARK    1  A    between atoms: C10_14  and  O2_15 
REMARK    2  A    between atoms: C10_14  and  C11_17 
ROOT
HETATM    1  N1  UNL     1      10.718  57.053  -0.155  1.00  0.00    -0.374 N 
ATOM      2  H11 UNL     1      11.490  56.421   0.059  1.00  0.00     0.158 HD
ATOM      3  H12 UNL     1      10.943  57.915  -0.652  1.00  0.00     0.158 HD
HETATM    4  C1  UNL     1       9.494  56.800   0.174  1.00  0.00     0.182 C 
HETATM    5  O1  UNL     1       8.460  57.646  -0.113  1.00  0.00    -0.288 OA
HETATM    6  C2  UNL     1       7.194  57.599   0.410  1.00  0.00     0.086 A 
HETATM    7  C3  UNL     1       6.343  58.625  -0.051  1.00  0.00     0.038 A 
HETATM    8  C4  UNL     1       5.048  58.759   0.376  1.00  0.00     0.003 A 
HETATM    9  C5  UNL     1       4.599  57.840   1.286  1.00  0.00     0.001 A 
HETATM   10  C6  UNL     1       5.422  56.832   1.742  1.00  0.00     0.012 A 
HETATM   11  C7  UNL     1       6.753  56.674   1.314  1.00  0.00    -0.001 A 
HETATM   12  C8  UNL     1       7.485  55.509   1.824  1.00  0.00     0.086 A 
HETATM   13  C9  UNL     1       7.412  55.159   3.251  1.00  0.00     0.076 A 
HETATM   14  C10 UNL     1       6.799  54.247   2.200  1.00  0.00     0.130 A 
HETATM   15  S1  UNL     1       9.105  55.312   1.031  1.00  0.00    -0.068 SA
ENDROOT
BRANCH  14  16
HETATM   16  O2  UNL     1       5.445  54.138   2.090  1.00  0.00    -0.381 OA
ATOM     17  H2  UNL     1       4.882  54.380   2.817  1.00  0.00     0.211 HD
ENDBRANCH  14  16
BRANCH  14  18
HETATM   18  C11 UNL     1       7.550  52.960   1.914  1.00  0.00     0.089 A 
HETATM   19  C12 UNL     1       8.457  52.376   2.763  1.00  0.00     0.038 A 
HETATM   20  C13 UNL     1       8.923  51.214   2.139  1.00  0.00     0.027 A 
HETATM   21  C14 UNL     1       8.235  51.195   0.927  1.00  0.00     0.142 A 
HETATM   22  O3  UNL     1       7.437  52.236   0.832  1.00  0.00    -0.324 OA
ENDBRANCH  14  18
TORSDOF 2
ENDMDL
MODEL 5
REMARK VINA RESULT: -7.316982175      2.782      3.634
REMARK  2 active torsions:
REMARK  status: ('A' for Active; 'I' for Inactive)
REMARK    1  A    between atoms: C10_14  and  O2_15 
REMARK    2  A    between atoms: C10_14  and  C11_17 
ROOT
HETATM    1  N1  UNL     1       3.606  59.096   1.793  1.00  0.00    -0.374 N 
ATOM      2  H11 UNL     1       2.913  58.431   2.136  1.00  0.00     0.158 HD
ATOM      3  H12 UNL     1       3.351  60.083   1.803  1.00  0.00     0.158 HD
HETATM    4  C1  UNL     1       4.768  58.735   1.358  1.00  0.00     0.182 C 
HETATM    5  O1  UNL     1       5.697  59.625   0.899  1.00  0.00    -0.288 OA
HETATM    6  C2  UNL     1       6.832  59.333   0.188  1.00  0.00     0.086 A 
HETATM    7  C3  UNL     1       7.589  60.465  -0.178  1.00  0.00     0.038 A 
HETATM    8  C4  UNL     1       8.743  60.377  -0.911  1.00  0.00     0.003 A 
HETATM    9  C5  UNL     1       9.144  59.122  -1.284  1.00  0.00     0.001 A 
HETATM   10  C6  UNL     1       8.412  58.008  -0.930  1.00  0.00     0.012 A 
HETATM   11  C7  UNL     1       7.228  58.076  -0.174  1.00  0.00    -0.001 A 
HETATM   12  C8  UNL     1       6.598  56.804   0.196  1.00  0.00     0.086 A 
HETATM   13  C9  UNL     1       6.449  55.736  -0.805  1.00  0.00     0.076 A 
HETATM   14  C10 UNL     1       7.383  55.558   0.381  1.00  0.00     0.130 A 
HETATM   15  S1  UNL     1       5.209  57.029   1.341  1.00  0.00    -0.068 SA
ENDROOT
BRANCH  14  16
HETATM   16  O2  UNL     1       8.734  55.559   0.199  1.00  0.00    -0.381 OA
ATOM     17  H2  UNL     1       9.226  56.370   0.252  1.00  0.00     0.211 HD
ENDBRANCH  14  16
BRANCH  14  18
HETATM   18  C11 UNL     1       6.906  54.615   1.470  1.00  0.00     0.089 A 
HETATM   19  C12 UNL     1       6.161  53.482   1.256  1.00  0.00     0.038 A 
HETATM   20  C13 UNL     1       5.927  52.894   2.503  1.00  0.00     0.027 A 
HETATM   21  C14 UNL     1       6.572  53.750   3.393  1.00  0.00     0.142 A 
HETATM   22  O3  UNL     1       7.137  54.748   2.749  1.00  0.00    -0.324 OA
ENDBRANCH  14  18
TORSDOF 2
ENDMDL
