MODEL 1
REMARK VINA RESULT: -9.741764140      0.000      0.000
REMARK  2 active torsions:
REMARK  status: ('A' for Active; 'I' for Inactive)
REMARK    1  A    between atoms: N1_1  and  N2_4 
REMARK    2  A    between atoms: N2_4  and  C1_6 
ROOT
HETATM    1  C1  UNL     1       9.458  57.491  -0.878  1.00  0.00     0.072 A 
HETATM    2  C2  UNL     1       8.236  57.814  -0.273  1.00  0.00    -0.013 A 
HETATM    3  C3  UNL     1       7.666  59.081  -0.430  1.00  0.00    -0.014 A 
HETATM    4  C4  UNL     1       8.365  59.980  -1.202  1.00  0.00     0.051 A 
HETATM    5  C5  UNL     1       9.570  59.707  -1.816  1.00  0.00     0.092 A 
HETATM    6  O1  UNL     1      10.210  60.579  -2.542  1.00  0.00    -0.322 OA
HETATM    7  C6  UNL     1      11.355  60.335  -3.136  1.00  0.00     0.146 A 
HETATM    8  C7  UNL     1      11.959  59.107  -3.017  1.00  0.00     0.080 A 
HETATM    9  C8  UNL     1      11.299  58.145  -2.241  1.00  0.00     0.189 A 
HETATM   10  O2  UNL     1      11.804  57.001  -2.098  1.00  0.00    -0.287 OA
HETATM   11  C9  UNL     1      10.103  58.431  -1.634  1.00  0.00     0.076 A 
HETATM   12  C10 UNL     1       6.402  59.141   0.302  1.00  0.00    -0.019 A 
HETATM   13  C11 UNL     1       5.482  60.162   0.452  1.00  0.00     0.013 A 
HETATM   14  C12 UNL     1       4.360  59.978   1.197  1.00  0.00     0.001 A 
HETATM   15  C13 UNL     1       4.151  58.751   1.803  1.00  0.00     0.001 A 
HETATM   16  C14 UNL     1       5.076  57.735   1.648  1.00  0.00     0.008 A 
HETATM   17  C15 UNL     1       6.225  57.907   0.893  1.00  0.00    -0.043 A 
HETATM   18  C16 UNL     1       7.355  57.000   0.572  1.00  0.00     0.081 A 
ENDROOT
BRANCH   1  19
HETATM   19  N2  UNL     1      10.014  56.204  -0.707  1.00  0.00    -0.306 N 
ATOM     20  H2  UNL     1       9.876  55.514  -1.445  1.00  0.00     0.186 HD
BRANCH  19  21
HETATM   21  N1  UNL     1      10.747  55.832   0.429  1.00  0.00    -0.345 N 
ATOM     22  H12 UNL     1      11.681  55.451   0.281  1.00  0.00     0.176 HD
ATOM     23  H11 UNL     1      10.387  55.924   1.379  1.00  0.00     0.176 HD
ENDBRANCH  19  21
ENDBRANCH   1  19
TORSDOF 2
ENDMDL
MODEL 2
REMARK VINA RESULT: -9.614560895      3.124      5.173
REMARK  2 active torsions:
REMARK  status: ('A' for Active; 'I' for Inactive)
REMARK    1  A    between atoms: N1_1  and  N2_4 
REMARK    2  A    between atoms: N2_4  and  C1_6 
ROOT
HETATM    1  C1  UNL     1       8.700  55.185   0.275  1.00  0.00     0.072 A 
HETATM    2  C2  UNL     1       8.254  56.508   0.148  1.00  0.00    -0.013 A 
HETATM    3  C3  UNL     1       6.926  56.850   0.420  1.00  0.00    -0.014 A 
HETATM    4  C4  UNL     1       6.094  55.827   0.813  1.00  0.00     0.051 A 
HETATM    5  C5  UNL     1       6.489  54.512   0.951  1.00  0.00     0.092 A 
HETATM    6  O1  UNL     1       5.678  53.563   1.326  1.00  0.00    -0.322 OA
HETATM    7  C6  UNL     1       6.036  52.309   1.465  1.00  0.00     0.146 A 
HETATM    8  C7  UNL     1       7.329  51.917   1.213  1.00  0.00     0.080 A 
HETATM    9  C8  UNL     1       8.228  52.911   0.806  1.00  0.00     0.189 A 
HETATM   10  O2  UNL     1       9.426  52.612   0.563  1.00  0.00    -0.287 OA
HETATM   11  C9  UNL     1       7.821  54.214   0.671  1.00  0.00     0.076 A 
HETATM   12  C10 UNL     1       6.740  58.285   0.209  1.00  0.00    -0.019 A 
HETATM   13  C11 UNL     1       5.623  59.089   0.344  1.00  0.00     0.013 A 
HETATM   14  C12 UNL     1       5.696  60.421   0.085  1.00  0.00     0.001 A 
HETATM   15  C13 UNL     1       6.906  60.962  -0.315  1.00  0.00     0.001 A 
HETATM   16  C14 UNL     1       8.018  60.151  -0.447  1.00  0.00     0.008 A 
HETATM   17  C15 UNL     1       7.960  58.791  -0.188  1.00  0.00    -0.043 A 
HETATM   18  C16 UNL     1       8.983  57.716  -0.250  1.00  0.00     0.081 A 
ENDROOT
BRANCH   1  19
HETATM   19  N2  UNL     1      10.047  54.863  -0.004  1.00  0.00    -0.306 N 
ATOM     20  H2  UNL     1      10.270  54.453  -0.911  1.00  0.00     0.186 HD
BRANCH  19  21
HETATM   21  N1  UNL     1      11.090  55.078   0.908  1.00  0.00    -0.345 N 
ATOM     22  H12 UNL     1      10.835  55.311   1.867  1.00  0.00     0.176 HD
ATOM     23  H11 UNL     1      12.076  55.013   0.652  1.00  0.00     0.176 HD
ENDBRANCH  19  21
ENDBRANCH   1  19
TORSDOF 2
ENDMDL
MODEL 3
REMARK VINA RESULT: -9.246785224      3.029      4.923
REMARK  2 active torsions:
REMARK  status: ('A' for Active; 'I' for Inactive)
REMARK    1  A    between atoms: N1_1  and  N2_4 
REMARK    2  A    between atoms: N2_4  and  C1_6 
ROOT
HETATM    1  C1  UNL     1       9.651  55.657   0.620  1.00  0.00     0.072 A 
HETATM    2  C2  UNL     1       8.848  56.790   0.428  1.00  0.00    -0.013 A 
HETATM    3  C3  UNL     1       7.513  56.805   0.841  1.00  0.00    -0.014 A 
HETATM    4  C4  UNL     1       7.039  55.660   1.438  1.00  0.00     0.051 A 
HETATM    5  C5  UNL     1       7.792  54.522   1.647  1.00  0.00     0.092 A 
HETATM    6  O1  UNL     1       7.316  53.451   2.216  1.00  0.00    -0.322 OA
HETATM    7  C6  UNL     1       8.017  52.362   2.425  1.00  0.00     0.146 A 
HETATM    8  C7  UNL     1       9.335  52.292   2.041  1.00  0.00     0.080 A 
HETATM    9  C8  UNL     1       9.880  53.427   1.424  1.00  0.00     0.189 A 
HETATM   10  O2  UNL     1      11.081  53.421   1.052  1.00  0.00    -0.287 OA
HETATM   11  C9  UNL     1       9.119  54.549   1.221  1.00  0.00     0.076 A 
HETATM   12  C10 UNL     1       6.919  58.102   0.521  1.00  0.00    -0.019 A 
HETATM   13  C11 UNL     1       5.644  58.597   0.726  1.00  0.00     0.013 A 
HETATM   14  C12 UNL     1       5.321  59.858   0.334  1.00  0.00     0.001 A 
HETATM   15  C13 UNL     1       6.288  60.640  -0.274  1.00  0.00     0.001 A 
HETATM   16  C14 UNL     1       7.560  60.137  -0.476  1.00  0.00     0.008 A 
HETATM   17  C15 UNL     1       7.905  58.854  -0.083  1.00  0.00    -0.043 A 
HETATM   18  C16 UNL     1       9.172  58.085  -0.178  1.00  0.00     0.081 A 
ENDROOT
BRANCH   1  19
HETATM   19  N2  UNL     1      10.998  55.664   0.195  1.00  0.00    -0.306 N 
ATOM     20  H2  UNL     1      11.727  55.805   0.895  1.00  0.00     0.186 HD
BRANCH  19  21
HETATM   21  N1  UNL     1      11.381  55.488  -1.142  1.00  0.00    -0.345 N 
ATOM     22  H12 UNL     1      11.903  56.244  -1.584  1.00  0.00     0.176 HD
ATOM     23  H11 UNL     1      11.160  54.649  -1.679  1.00  0.00     0.176 HD
ENDBRANCH  19  21
ENDBRANCH   1  19
TORSDOF 2
ENDMDL
MODEL 4
REMARK VINA RESULT: -9.237993758      3.953      5.904
REMARK  2 active torsions:
REMARK  status: ('A' for Active; 'I' for Inactive)
REMARK    1  A    between atoms: N1_1  and  N2_4 
REMARK    2  A    between atoms: N2_4  and  C1_6 
ROOT
HETATM    1  C1  UNL     1       5.529  55.238   1.742  1.00  0.00     0.072 A 
HETATM    2  C2  UNL     1       5.770  56.547   1.304  1.00  0.00    -0.013 A 
HETATM    3  C3  UNL     1       6.923  56.865   0.580  1.00  0.00    -0.014 A 
HETATM    4  C4  UNL     1       7.794  55.831   0.326  1.00  0.00     0.051 A 
HETATM    5  C5  UNL     1       7.599  54.529   0.737  1.00  0.00     0.092 A 
HETATM    6  O1  UNL     1       8.443  53.569   0.482  1.00  0.00    -0.322 OA
HETATM    7  C6  UNL     1       8.272  52.325   0.862  1.00  0.00     0.146 A 
HETATM    8  C7  UNL     1       7.157  51.957   1.575  1.00  0.00     0.080 A 
HETATM    9  C8  UNL     1       6.228  52.964   1.869  1.00  0.00     0.189 A 
HETATM   10  O2  UNL     1       5.187  52.687   2.518  1.00  0.00    -0.287 OA
HETATM   11  C9  UNL     1       6.437  54.255   1.457  1.00  0.00     0.076 A 
HETATM   12  C10 UNL     1       6.916  58.290   0.253  1.00  0.00    -0.019 A 
HETATM   13  C11 UNL     1       7.823  59.071  -0.439  1.00  0.00     0.013 A 
HETATM   14  C12 UNL     1       7.596  60.399  -0.618  1.00  0.00     0.001 A 
HETATM   15  C13 UNL     1       6.442  60.959  -0.097  1.00  0.00     0.001 A 
HETATM   16  C14 UNL     1       5.541  60.171   0.594  1.00  0.00     0.008 A 
HETATM   17  C15 UNL     1       5.758  58.815   0.785  1.00  0.00    -0.043 A 
HETATM   18  C16 UNL     1       4.968  57.764   1.474  1.00  0.00     0.081 A 
ENDROOT
BRANCH   1  19
HETATM   19  N2  UNL     1       4.357  54.941   2.472  1.00  0.00    -0.306 N 
ATOM     20  H2  UNL     1       4.353  54.113   3.068  1.00  0.00     0.186 HD
BRANCH  19  21
HETATM   21  N1  UNL     1       3.198  55.729   2.415  1.00  0.00    -0.345 N 
ATOM     22  H12 UNL     1       2.474  55.550   3.110  1.00  0.00     0.176 HD
ATOM     23  H11 UNL     1       3.055  56.460   1.718  1.00  0.00     0.176 HD
ENDBRANCH  19  21
ENDBRANCH   1  19
TORSDOF 2
ENDMDL
MODEL 5
REMARK VINA RESULT: -9.162888958      2.422      5.690
REMARK  2 active torsions:
REMARK  status: ('A' for Active; 'I' for Inactive)
REMARK    1  A    between atoms: N1_1  and  N2_4 
REMARK    2  A    between atoms: N2_4  and  C1_6 
ROOT
HETATM    1  C1  UNL     1       7.325  57.452   0.271  1.00  0.00     0.072 A 
HETATM    2  C2  UNL     1       8.379  57.943  -0.512  1.00  0.00    -0.013 A 
HETATM    3  C3  UNL     1       8.402  59.275  -0.937  1.00  0.00    -0.014 A 
HETATM    4  C4  UNL     1       7.344  60.064  -0.547  1.00  0.00     0.051 A 
HETATM    5  C5  UNL     1       6.286  59.624   0.221  1.00  0.00     0.092 A 
HETATM    6  O1  UNL     1       5.296  60.395   0.575  1.00  0.00    -0.322 OA
HETATM    7  C6  UNL     1       4.284  59.994   1.307  1.00  0.00     0.146 A 
HETATM    8  C7  UNL     1       4.211  58.697   1.753  1.00  0.00     0.080 A 
HETATM    9  C8  UNL     1       5.258  57.839   1.391  1.00  0.00     0.189 A 
HETATM   10  O2  UNL     1       5.247  56.640   1.772  1.00  0.00    -0.287 OA
HETATM   11  C9  UNL     1       6.302  58.289   0.624  1.00  0.00     0.076 A 
HETATM   12  C10 UNL     1       9.607  59.513  -1.729  1.00  0.00    -0.019 A 
HETATM   13  C11 UNL     1      10.073  60.651  -2.361  1.00  0.00     0.013 A 
HETATM   14  C12 UNL     1      11.243  60.627  -3.053  1.00  0.00     0.001 A 
HETATM   15  C13 UNL     1      11.961  59.445  -3.116  1.00  0.00     0.001 A 
HETATM   16  C14 UNL     1      11.487  58.312  -2.483  1.00  0.00     0.008 A 
HETATM   17  C15 UNL     1      10.297  58.320  -1.773  1.00  0.00    -0.043 A 
HETATM   18  C16 UNL     1       9.577  57.264  -1.016  1.00  0.00     0.081 A 
ENDROOT
BRANCH   1  19
HETATM   19  N2  UNL     1       7.324  56.103   0.690  1.00  0.00    -0.306 N 
ATOM     20  H2  UNL     1       7.660  55.886   1.628  1.00  0.00     0.186 HD
BRANCH  19  21
HETATM   21  N1  UNL     1       6.882  55.049  -0.123  1.00  0.00    -0.345 N 
ATOM     22  H12 UNL     1       5.910  54.758  -0.027  1.00  0.00     0.176 HD
ATOM     23  H11 UNL     1       7.485  54.571  -0.793  1.00  0.00     0.176 HD
ENDBRANCH  19  21
ENDBRANCH   1  19
TORSDOF 2
ENDMDL
