MODEL 1
REMARK VINA RESULT: -4.692959736      0.000      0.000
REMARK  2 active torsions:
REMARK  status: ('A' for Active; 'I' for Inactive)
REMARK    1  A    between atoms: C2_2  and  N1_4 
REMARK    2  A    between atoms: C2_2  and  C5_8 
ROOT
HETATM    1  N1  UNL     1      10.846  21.192  21.536  1.00  0.00    -0.319 N 
ATOM      2  H1  UNL     1      11.670  20.610  21.387  1.00  0.00     0.172 HD
HETATM    3  C4  UNL     1       9.587  20.711  21.159  1.00  0.00     0.178 C 
HETATM    4  N2  UNL     1       8.548  20.308  20.861  1.00  0.00    -0.172 NA
ENDROOT
BRANCH   1   5
HETATM    5  C2  UNL     1      11.002  22.500  22.133  1.00  0.00     0.036 C 
HETATM    6  C1  UNL     1      10.302  23.510  21.287  1.00  0.00     0.039 C 
HETATM    7  C3  UNL     1      10.240  22.440  23.466  1.00  0.00     0.039 C 
BRANCH   5   8
HETATM    8  C5  UNL     1      12.447  22.839  22.395  1.00  0.00     0.014 C 
HETATM    9  C6  UNL     1      12.604  24.341  22.336  1.00  0.00     0.007 C 
HETATM   10  C7  UNL     1      14.018  24.613  22.810  1.00  0.00     0.000 C 
HETATM   11  C8  UNL     1      14.961  24.091  21.788  1.00  0.00     0.000 C 
HETATM   12  C9  UNL     1      14.727  22.698  21.334  1.00  0.00     0.000 C 
HETATM   13  C10 UNL     1      13.393  22.125  21.511  1.00  0.00     0.007 C 
ENDBRANCH   5   8
ENDBRANCH   1   5
TORSDOF 2
ENDMDL
MODEL 2
REMARK VINA RESULT: -4.459436772      1.896      4.706
REMARK  2 active torsions:
REMARK  status: ('A' for Active; 'I' for Inactive)
REMARK    1  A    between atoms: C2_2  and  N1_4 
REMARK    2  A    between atoms: C2_2  and  C5_8 
ROOT
HETATM    1  N1  UNL     1      12.159  21.670  22.380  1.00  0.00    -0.319 N 
ATOM      2  H1  UNL     1      12.136  20.882  23.028  1.00  0.00     0.172 HD
HETATM    3  C4  UNL     1      13.358  21.991  21.732  1.00  0.00     0.178 C 
HETATM    4  N2  UNL     1      14.342  22.246  21.188  1.00  0.00    -0.172 NA
ENDROOT
BRANCH   1   5
HETATM    5  C2  UNL     1      10.953  22.433  22.150  1.00  0.00     0.036 C 
HETATM    6  C1  UNL     1      10.132  22.435  23.396  1.00  0.00     0.039 C 
HETATM    7  C3  UNL     1      11.415  23.881  21.925  1.00  0.00     0.039 C 
BRANCH   5   8
HETATM    8  C5  UNL     1      10.196  21.954  20.938  1.00  0.00     0.014 C 
HETATM    9  C6  UNL     1       9.248  23.047  20.503  1.00  0.00     0.007 C 
HETATM   10  C7  UNL     1       8.684  22.580  19.174  1.00  0.00     0.000 C 
HETATM   11  C8  UNL     1       7.816  21.401  19.426  1.00  0.00     0.000 C 
HETATM   12  C9  UNL     1       8.406  20.319  20.251  1.00  0.00     0.000 C 
HETATM   13  C10 UNL     1       9.524  20.652  21.135  1.00  0.00     0.007 C 
ENDBRANCH   5   8
ENDBRANCH   1   5
TORSDOF 2
ENDMDL
MODEL 3
REMARK VINA RESULT: -4.353990273      0.921      1.820
REMARK  2 active torsions:
REMARK  status: ('A' for Active; 'I' for Inactive)
REMARK    1  A    between atoms: C2_2  and  N1_4 
REMARK    2  A    between atoms: C2_2  and  C5_8 
ROOT
HETATM    1  N1  UNL     1      10.308  21.217  21.269  1.00  0.00    -0.319 N 
ATOM      2  H1  UNL     1      11.254  20.845  21.184  1.00  0.00     0.172 HD
HETATM    3  C4  UNL     1       9.217  20.390  20.978  1.00  0.00     0.178 C 
HETATM    4  N2  UNL     1       8.318  19.704  20.753  1.00  0.00    -0.172 NA
ENDROOT
BRANCH   1   5
HETATM    5  C2  UNL     1      10.121  22.589  21.686  1.00  0.00     0.036 C 
HETATM    6  C1  UNL     1       9.012  23.193  20.893  1.00  0.00     0.039 C 
HETATM    7  C3  UNL     1       9.632  22.515  23.141  1.00  0.00     0.039 C 
BRANCH   5   8
HETATM    8  C5  UNL     1      11.400  23.383  21.627  1.00  0.00     0.014 C 
HETATM    9  C6  UNL     1      12.533  22.503  22.101  1.00  0.00     0.007 C 
HETATM   10  C7  UNL     1      13.797  23.291  21.817  1.00  0.00     0.000 C 
HETATM   11  C8  UNL     1      13.825  24.468  22.723  1.00  0.00     0.000 C 
HETATM   12  C9  UNL     1      12.590  25.290  22.765  1.00  0.00     0.000 C 
HETATM   13  C10 UNL     1      11.331  24.672  22.348  1.00  0.00     0.007 C 
ENDBRANCH   5   8
ENDBRANCH   1   5
TORSDOF 2
ENDMDL
MODEL 4
REMARK VINA RESULT: -4.353931518      1.090      1.463
REMARK  2 active torsions:
REMARK  status: ('A' for Active; 'I' for Inactive)
REMARK    1  A    between atoms: C2_2  and  N1_4 
REMARK    2  A    between atoms: C2_2  and  C5_8 
ROOT
HETATM    1  N1  UNL     1      10.457  21.213  21.365  1.00  0.00    -0.319 N 
ATOM      2  H1  UNL     1      11.388  20.838  21.185  1.00  0.00     0.172 HD
HETATM    3  C4  UNL     1       9.332  20.472  20.986  1.00  0.00     0.178 C 
HETATM    4  N2  UNL     1       8.405  19.854  20.686  1.00  0.00    -0.172 NA
ENDROOT
BRANCH   1   5
HETATM    5  C2  UNL     1      10.326  22.502  22.007  1.00  0.00     0.036 C 
HETATM    6  C1  UNL     1       9.906  23.512  20.992  1.00  0.00     0.039 C 
HETATM    7  C3  UNL     1       9.156  22.356  22.992  1.00  0.00     0.039 C 
BRANCH   5   8
HETATM    8  C5  UNL     1      11.571  22.894  22.760  1.00  0.00     0.014 C 
HETATM    9  C6  UNL     1      11.214  23.992  23.735  1.00  0.00     0.007 C 
HETATM   10  C7  UNL     1      12.452  24.184  24.591  1.00  0.00     0.000 C 
HETATM   11  C8  UNL     1      13.521  24.765  23.738  1.00  0.00     0.000 C 
HETATM   12  C9  UNL     1      13.772  24.079  22.447  1.00  0.00     0.000 C 
HETATM   13  C10 UNL     1      12.707  23.249  21.883  1.00  0.00     0.007 C 
ENDBRANCH   5   8
ENDBRANCH   1   5
TORSDOF 2
ENDMDL
MODEL 5
REMARK VINA RESULT: -4.296364471      2.240      3.843
REMARK  2 active torsions:
REMARK  status: ('A' for Active; 'I' for Inactive)
REMARK    1  A    between atoms: C2_2  and  N1_4 
REMARK    2  A    between atoms: C2_2  and  C5_8 
ROOT
HETATM    1  N1  UNL     1       8.738  21.802  19.099  1.00  0.00    -0.319 N 
ATOM      2  H1  UNL     1       9.674  21.948  18.722  1.00  0.00     0.172 HD
HETATM    3  C4  UNL     1       7.633  21.880  18.242  1.00  0.00     0.178 C 
HETATM    4  N2  UNL     1       6.724  21.929  17.534  1.00  0.00    -0.172 NA
ENDROOT
BRANCH   1   5
HETATM    5  C2  UNL     1       8.578  21.519  20.508  1.00  0.00     0.036 C 
HETATM    6  C1  UNL     1       7.164  21.787  20.902  1.00  0.00     0.039 C 
HETATM    7  C3  UNL     1       8.796  20.005  20.653  1.00  0.00     0.039 C 
BRANCH   5   8
HETATM    8  C5  UNL     1       9.583  22.255  21.355  1.00  0.00     0.014 C 
HETATM    9  C6  UNL     1      10.865  21.455  21.379  1.00  0.00     0.007 C 
HETATM   10  C7  UNL     1      11.880  22.348  22.067  1.00  0.00     0.000 C 
HETATM   11  C8  UNL     1      11.489  22.483  23.494  1.00  0.00     0.000 C 
HETATM   12  C9  UNL     1      10.076  22.855  23.752  1.00  0.00     0.000 C 
HETATM   13  C10 UNL     1       9.087  22.589  22.707  1.00  0.00     0.007 C 
ENDBRANCH   5   8
ENDBRANCH   1   5
TORSDOF 2
ENDMDL
