MODEL 1
REMARK VINA RESULT: -4.075022649      0.000      0.000
REMARK  4 active torsions:
REMARK  status: ('A' for Active; 'I' for Inactive)
REMARK    1  A    between atoms: C4_4  and  C5_5 
REMARK    2  A    between atoms: C6_6  and  C7_7 
REMARK    3  A    between atoms: C7_7  and  N1_9 
REMARK    4  A    between atoms: N1_9  and  C9_11 
ROOT
HETATM    1  C7  UNL     1      -9.653  19.927 -22.034  1.00  0.00     0.102 C 
HETATM    2  C8  UNL     1      -9.958  21.255 -21.380  1.00  0.00     0.036 C 
ENDROOT
BRANCH   1   3
HETATM    3  C6  UNL     1     -10.923  19.366 -22.549  1.00  0.00    -0.002 C 
HETATM    4  C5  UNL     1     -11.402  19.667 -23.731  1.00  0.00    -0.002 C 
BRANCH   4   5
HETATM    5  C4  UNL     1     -10.710  20.592 -24.643  1.00  0.00     0.002 C 
HETATM    6  C2  UNL     1     -11.308  21.686 -25.055  1.00  0.00    -0.088 C 
HETATM    7  C1  UNL     1     -12.674  22.047 -24.641  1.00  0.00     0.043 C 
HETATM    8  C3  UNL     1     -10.567  22.597 -25.984  1.00  0.00     0.043 C 
ENDBRANCH   4   5
ENDBRANCH   1   3
BRANCH   1   9
HETATM    9  N1  UNL     1      -9.026  19.020 -21.080  1.00  0.00    -0.362 N 
ATOM     10  H1  UNL     1      -9.534  18.782 -20.228  1.00  0.00     0.162 HD
BRANCH   9  11
HETATM   11  C9  UNL     1      -7.757  18.460 -21.279  1.00  0.00     0.181 C 
HETATM   12  N2  UNL     1      -7.545  17.482 -22.284  1.00  0.00    -0.070 NA
HETATM   13  S1  UNL     1      -6.480  18.909 -20.369  1.00  0.00    -0.044 SA
ENDBRANCH   9  11
ENDBRANCH   1   9
TORSDOF 4
ENDMDL
MODEL 2
REMARK VINA RESULT: -4.047097604      1.075      1.124
REMARK  4 active torsions:
REMARK  status: ('A' for Active; 'I' for Inactive)
REMARK    1  A    between atoms: C4_4  and  C5_5 
REMARK    2  A    between atoms: C6_6  and  C7_7 
REMARK    3  A    between atoms: C7_7  and  N1_9 
REMARK    4  A    between atoms: N1_9  and  C9_11 
ROOT
HETATM    1  C7  UNL     1     -10.219  19.831 -22.543  1.00  0.00     0.102 C 
HETATM    2  C8  UNL     1     -10.117  21.079 -21.699  1.00  0.00     0.036 C 
ENDROOT
BRANCH   1   3
HETATM    3  C6  UNL     1     -11.642  19.428 -22.599  1.00  0.00    -0.002 C 
HETATM    4  C5  UNL     1     -12.447  19.805 -23.563  1.00  0.00    -0.002 C 
BRANCH   4   5
HETATM    5  C4  UNL     1     -11.994  20.662 -24.670  1.00  0.00     0.002 C 
HETATM    6  C2  UNL     1     -12.517  21.854 -24.841  1.00  0.00    -0.088 C 
HETATM    7  C1  UNL     1     -13.564  22.395 -23.957  1.00  0.00     0.043 C 
HETATM    8  C3  UNL     1     -12.027  22.692 -25.981  1.00  0.00     0.043 C 
ENDBRANCH   4   5
ENDBRANCH   1   3
BRANCH   1   9
HETATM    9  N1  UNL     1      -9.394  18.767 -21.982  1.00  0.00    -0.362 N 
ATOM     10  H1  UNL     1      -9.857  17.984 -21.521  1.00  0.00     0.162 HD
BRANCH   9  11
HETATM   11  C9  UNL     1      -7.994  18.772 -22.047  1.00  0.00     0.181 C 
HETATM   12  N2  UNL     1      -7.324  19.079 -23.259  1.00  0.00    -0.070 NA
HETATM   13  S1  UNL     1      -7.084  18.427 -20.737  1.00  0.00    -0.044 SA
ENDBRANCH   9  11
ENDBRANCH   1   9
TORSDOF 4
ENDMDL
MODEL 3
REMARK VINA RESULT: -4.035623297      2.142      2.650
REMARK  4 active torsions:
REMARK  status: ('A' for Active; 'I' for Inactive)
REMARK    1  A    between atoms: C4_4  and  C5_5 
REMARK    2  A    between atoms: C6_6  and  C7_7 
REMARK    3  A    between atoms: C7_7  and  N1_9 
REMARK    4  A    between atoms: N1_9  and  C9_11 
ROOT
HETATM    1  C7  UNL     1     -10.007  20.394 -22.657  1.00  0.00     0.102 C 
HETATM    2  C8  UNL     1      -9.612  20.605 -21.214  1.00  0.00     0.036 C 
ENDROOT
BRANCH   1   3
HETATM    3  C6  UNL     1     -11.027  19.322 -22.702  1.00  0.00    -0.002 C 
HETATM    4  C5  UNL     1     -12.306  19.567 -22.854  1.00  0.00    -0.002 C 
BRANCH   4   5
HETATM    5  C4  UNL     1     -12.829  20.936 -22.991  1.00  0.00     0.002 C 
HETATM    6  C2  UNL     1     -14.057  21.216 -22.622  1.00  0.00    -0.088 C 
HETATM    7  C1  UNL     1     -14.966  20.202 -22.062  1.00  0.00     0.043 C 
HETATM    8  C3  UNL     1     -14.548  22.621 -22.780  1.00  0.00     0.043 C 
ENDBRANCH   4   5
ENDBRANCH   1   3
BRANCH   1   9
HETATM    9  N1  UNL     1      -8.841  20.045 -23.459  1.00  0.00    -0.362 N 
ATOM     10  H1  UNL     1      -8.876  20.206 -24.466  1.00  0.00     0.162 HD
BRANCH   9  11
HETATM   11  C9  UNL     1      -7.673  19.497 -22.911  1.00  0.00     0.181 C 
HETATM   12  N2  UNL     1      -7.637  18.146 -22.480  1.00  0.00    -0.070 NA
HETATM   13  S1  UNL     1      -6.315  20.387 -22.751  1.00  0.00    -0.044 SA
ENDBRANCH   9  11
ENDBRANCH   1   9
TORSDOF 4
ENDMDL
MODEL 4
REMARK VINA RESULT: -3.905154741      3.291      4.069
REMARK  4 active torsions:
REMARK  status: ('A' for Active; 'I' for Inactive)
REMARK    1  A    between atoms: C4_4  and  C5_5 
REMARK    2  A    between atoms: C6_6  and  C7_7 
REMARK    3  A    between atoms: C7_7  and  N1_9 
REMARK    4  A    between atoms: N1_9  and  C9_11 
ROOT
HETATM    1  C7  UNL     1     -10.424  20.473 -22.834  1.00  0.00     0.102 C 
HETATM    2  C8  UNL     1      -9.629  20.388 -21.552  1.00  0.00     0.036 C 
ENDROOT
BRANCH   1   3
HETATM    3  C6  UNL     1     -11.444  19.401 -22.815  1.00  0.00    -0.002 C 
HETATM    4  C5  UNL     1     -12.731  19.648 -22.856  1.00  0.00    -0.002 C 
BRANCH   4   5
HETATM    5  C4  UNL     1     -13.263  21.018 -22.924  1.00  0.00     0.002 C 
HETATM    6  C2  UNL     1     -14.478  21.279 -22.500  1.00  0.00    -0.088 C 
HETATM    7  C1  UNL     1     -15.362  20.242 -21.943  1.00  0.00     0.043 C 
HETATM    8  C3  UNL     1     -14.978  22.687 -22.589  1.00  0.00     0.043 C 
ENDBRANCH   4   5
ENDBRANCH   1   3
BRANCH   1   9
HETATM    9  N1  UNL     1      -9.544  20.340 -23.990  1.00  0.00    -0.362 N 
ATOM     10  H1  UNL     1      -8.861  19.583 -23.997  1.00  0.00     0.162 HD
BRANCH   9  11
HETATM   11  C9  UNL     1      -9.594  21.205 -25.092  1.00  0.00     0.181 C 
HETATM   12  N2  UNL     1     -10.751  21.983 -25.352  1.00  0.00    -0.070 NA
HETATM   13  S1  UNL     1      -8.328  21.352 -26.110  1.00  0.00    -0.044 SA
ENDBRANCH   9  11
ENDBRANCH   1   9
TORSDOF 4
ENDMDL
MODEL 5
REMARK VINA RESULT: -3.897997068      3.538      5.427
REMARK  4 active torsions:
REMARK  status: ('A' for Active; 'I' for Inactive)
REMARK    1  A    between atoms: C4_4  and  C5_5 
REMARK    2  A    between atoms: C6_6  and  C7_7 
REMARK    3  A    between atoms: C7_7  and  N1_9 
REMARK    4  A    between atoms: N1_9  and  C9_11 
ROOT
HETATM    1  C7  UNL     1     -11.292  20.156 -23.081  1.00  0.00     0.102 C 
HETATM    2  C8  UNL     1     -10.849  20.293 -24.519  1.00  0.00     0.036 C 
ENDROOT
BRANCH   1   3
HETATM    3  C6  UNL     1     -10.312  19.297 -22.378  1.00  0.00    -0.002 C 
HETATM    4  C5  UNL     1      -9.492  19.760 -21.466  1.00  0.00    -0.002 C 
BRANCH   4   5
HETATM    5  C4  UNL     1      -9.482  21.178 -21.070  1.00  0.00     0.002 C 
HETATM    6  C2  UNL     1      -9.204  21.518 -19.833  1.00  0.00    -0.088 C 
HETATM    7  C1  UNL     1      -8.891  20.526 -18.790  1.00  0.00     0.043 C 
HETATM    8  C3  UNL     1      -9.207  22.970 -19.474  1.00  0.00     0.043 C 
ENDBRANCH   4   5
ENDBRANCH   1   3
BRANCH   1   9
HETATM    9  N1  UNL     1     -12.633  19.587 -23.013  1.00  0.00    -0.362 N 
ATOM     10  H1  UNL     1     -12.754  18.599 -23.235  1.00  0.00     0.162 HD
BRANCH   9  11
HETATM   11  C9  UNL     1     -13.763  20.335 -22.655  1.00  0.00     0.181 C 
HETATM   12  N2  UNL     1     -14.885  19.711 -22.052  1.00  0.00    -0.070 NA
HETATM   13  S1  UNL     1     -13.831  21.943 -22.917  1.00  0.00    -0.044 SA
ENDBRANCH   9  11
ENDBRANCH   1   9
TORSDOF 4
ENDMDL
