MODEL 1
REMARK VINA RESULT: -4.442608046      0.000      0.000
REMARK  3 active torsions:
REMARK  status: ('A' for Active; 'I' for Inactive)
REMARK    1  A    between atoms: C2_2  and  C3_4 
REMARK    2  A    between atoms: C4_5  and  N2_7 
REMARK    3  A    between atoms: N2_7  and  C6_9 
ROOT
HETATM    1  N2  UNL     1      -9.473  19.308 -21.334  1.00  0.00    -0.389 N 
ATOM      2  H2  UNL     1     -10.029  19.335 -20.479  1.00  0.00     0.159 HD
ENDROOT
BRANCH   1   3
HETATM    3  C4  UNL     1      -8.073  18.966 -21.257  1.00  0.00     0.003 C 
HETATM    4  C3  UNL     1      -7.246  19.752 -20.594  1.00  0.00     0.050 C 
HETATM    5  C5  UNL     1      -7.656  17.724 -21.948  1.00  0.00     0.068 C 
BRANCH   4   6
HETATM    6  C2  UNL     1      -5.833  19.581 -20.406  1.00  0.00     0.038 C 
HETATM    7  C1  UNL     1      -5.338  18.828 -19.421  1.00  0.00     0.039 C 
HETATM    8  N1  UNL     1      -4.905  20.208 -21.263  1.00  0.00    -0.103 NA
ENDBRANCH   4   6
ENDBRANCH   1   3
BRANCH   1   9
HETATM    9  C6  UNL     1     -10.091  19.608 -22.572  1.00  0.00     0.081 C 
HETATM   10  C7  UNL     1      -9.831  21.072 -22.991  1.00  0.00     0.025 C 
HETATM   11  C8  UNL     1     -10.131  21.110 -24.467  1.00  0.00     0.006 C 
HETATM   12  C9  UNL     1     -11.546  20.766 -24.753  1.00  0.00    -0.019 C 
HETATM   13  C10 UNL     1     -12.445  21.942 -24.486  1.00  0.00     0.010 C 
HETATM   14  C11 UNL     1     -12.056  19.553 -24.036  1.00  0.00     0.006 C 
HETATM   15  C12 UNL     1     -11.574  19.445 -22.612  1.00  0.00     0.025 C 
ENDBRANCH   1   9
TORSDOF 3
ENDMDL
MODEL 2
REMARK VINA RESULT: -4.264624057      1.606      1.776
REMARK  3 active torsions:
REMARK  status: ('A' for Active; 'I' for Inactive)
REMARK    1  A    between atoms: C2_2  and  C3_4 
REMARK    2  A    between atoms: C4_5  and  N2_7 
REMARK    3  A    between atoms: N2_7  and  C6_9 
ROOT
HETATM    1  N2  UNL     1      -9.572  19.319 -21.697  1.00  0.00    -0.389 N 
ATOM      2  H2  UNL     1      -9.948  18.916 -20.839  1.00  0.00     0.159 HD
ENDROOT
BRANCH   1   3
HETATM    3  C4  UNL     1      -8.174  19.137 -22.010  1.00  0.00     0.003 C 
HETATM    4  C3  UNL     1      -7.482  20.145 -22.506  1.00  0.00     0.050 C 
HETATM    5  C5  UNL     1      -7.606  17.796 -21.744  1.00  0.00     0.068 C 
BRANCH   4   6
HETATM    6  C2  UNL     1      -6.095  20.158 -22.877  1.00  0.00     0.038 C 
HETATM    7  C1  UNL     1      -5.138  20.504 -22.013  1.00  0.00     0.039 C 
HETATM    8  N1  UNL     1      -5.687  19.805 -24.180  1.00  0.00    -0.103 NA
ENDBRANCH   4   6
ENDBRANCH   1   3
BRANCH   1   9
HETATM    9  C6  UNL     1     -10.431  20.045 -22.557  1.00  0.00     0.081 C 
HETATM   10  C7  UNL     1     -10.767  21.436 -21.973  1.00  0.00     0.025 C 
HETATM   11  C8  UNL     1     -11.275  22.234 -23.146  1.00  0.00     0.006 C 
HETATM   12  C9  UNL     1     -12.504  21.640 -23.727  1.00  0.00    -0.019 C 
HETATM   13  C10 UNL     1     -13.710  21.990 -22.900  1.00  0.00     0.010 C 
HETATM   14  C11 UNL     1     -12.444  20.160 -23.951  1.00  0.00     0.006 C 
HETATM   15  C12 UNL     1     -11.750  19.410 -22.843  1.00  0.00     0.025 C 
ENDBRANCH   1   9
TORSDOF 3
ENDMDL
MODEL 3
REMARK VINA RESULT: -4.223761434      0.963      1.865
REMARK  3 active torsions:
REMARK  status: ('A' for Active; 'I' for Inactive)
REMARK    1  A    between atoms: C2_2  and  C3_4 
REMARK    2  A    between atoms: C4_5  and  N2_7 
REMARK    3  A    between atoms: N2_7  and  C6_9 
ROOT
HETATM    1  N2  UNL     1      -9.217  18.991 -21.575  1.00  0.00    -0.389 N 
ATOM      2  H2  UNL     1      -9.266  18.028 -21.905  1.00  0.00     0.159 HD
ENDROOT
BRANCH   1   3
HETATM    3  C4  UNL     1      -8.133  19.387 -20.707  1.00  0.00     0.003 C 
HETATM    4  C3  UNL     1      -6.893  19.072 -21.030  1.00  0.00     0.050 C 
HETATM    5  C5  UNL     1      -8.504  20.135 -19.485  1.00  0.00     0.068 C 
BRANCH   4   6
HETATM    6  C2  UNL     1      -5.693  19.374 -20.302  1.00  0.00     0.038 C 
HETATM    7  C1  UNL     1      -5.128  18.492 -19.475  1.00  0.00     0.039 C 
HETATM    8  N1  UNL     1      -5.059  20.627 -20.434  1.00  0.00    -0.103 NA
ENDBRANCH   4   6
ENDBRANCH   1   3
BRANCH   1   9
HETATM    9  C6  UNL     1     -10.213  19.914 -21.977  1.00  0.00     0.081 C 
HETATM   10  C7  UNL     1     -11.282  19.237 -22.863  1.00  0.00     0.025 C 
HETATM   11  C8  UNL     1     -12.462  20.172 -22.828  1.00  0.00     0.006 C 
HETATM   12  C9  UNL     1     -12.130  21.502 -23.395  1.00  0.00    -0.019 C 
HETATM   13  C10 UNL     1     -12.143  21.460 -24.898  1.00  0.00     0.010 C 
HETATM   14  C11 UNL     1     -10.842  22.092 -22.906  1.00  0.00     0.006 C 
HETATM   15  C12 UNL     1      -9.731  21.084 -22.766  1.00  0.00     0.025 C 
ENDBRANCH   1   9
TORSDOF 3
ENDMDL
MODEL 4
REMARK VINA RESULT: -4.189541438      1.289      1.954
REMARK  3 active torsions:
REMARK  status: ('A' for Active; 'I' for Inactive)
REMARK    1  A    between atoms: C2_2  and  C3_4 
REMARK    2  A    between atoms: C4_5  and  N2_7 
REMARK    3  A    between atoms: N2_7  and  C6_9 
ROOT
HETATM    1  N2  UNL     1      -9.653  18.751 -22.080  1.00  0.00    -0.389 N 
ATOM      2  H2  UNL     1      -9.860  17.768 -22.251  1.00  0.00     0.159 HD
ENDROOT
BRANCH   1   3
HETATM    3  C4  UNL     1      -8.314  19.136 -21.702  1.00  0.00     0.003 C 
HETATM    4  C3  UNL     1      -7.995  19.211 -20.424  1.00  0.00     0.050 C 
HETATM    5  C5  UNL     1      -7.373  19.428 -22.807  1.00  0.00     0.068 C 
BRANCH   4   6
HETATM    6  C2  UNL     1      -6.727  19.572 -19.856  1.00  0.00     0.038 C 
HETATM    7  C1  UNL     1      -6.483  20.802 -19.398  1.00  0.00     0.039 C 
HETATM    8  N1  UNL     1      -5.680  18.632 -19.757  1.00  0.00    -0.103 NA
ENDBRANCH   4   6
ENDBRANCH   1   3
BRANCH   1   9
HETATM    9  C6  UNL     1     -10.684  19.712 -22.220  1.00  0.00     0.081 C 
HETATM   10  C7  UNL     1     -11.691  19.301 -23.318  1.00  0.00     0.025 C 
HETATM   11  C8  UNL     1     -12.919  20.130 -23.046  1.00  0.00     0.006 C 
HETATM   12  C9  UNL     1     -12.640  21.583 -23.160  1.00  0.00    -0.019 C 
HETATM   13  C10 UNL     1     -12.608  22.009 -24.602  1.00  0.00     0.010 C 
HETATM   14  C11 UNL     1     -11.399  22.044 -22.458  1.00  0.00     0.006 C 
HETATM   15  C12 UNL     1     -10.241  21.088 -22.589  1.00  0.00     0.025 C 
ENDBRANCH   1   9
TORSDOF 3
ENDMDL
MODEL 5
REMARK VINA RESULT: -4.143449111      2.620      4.142
REMARK  3 active torsions:
REMARK  status: ('A' for Active; 'I' for Inactive)
REMARK    1  A    between atoms: C2_2  and  C3_4 
REMARK    2  A    between atoms: C4_5  and  N2_7 
REMARK    3  A    between atoms: N2_7  and  C6_9 
ROOT
HETATM    1  N2  UNL     1     -12.397  19.525 -23.193  1.00  0.00    -0.389 N 
ATOM      2  H2  UNL     1     -12.772  18.639 -23.532  1.00  0.00     0.159 HD
ENDROOT
BRANCH   1   3
HETATM    3  C4  UNL     1     -10.969  19.741 -23.210  1.00  0.00     0.003 C 
HETATM    4  C3  UNL     1     -10.239  19.339 -22.187  1.00  0.00     0.050 C 
HETATM    5  C5  UNL     1     -10.416  20.417 -24.405  1.00  0.00     0.068 C 
BRANCH   4   6
HETATM    6  C2  UNL     1      -8.819  19.463 -22.021  1.00  0.00     0.038 C 
HETATM    7  C1  UNL     1      -8.275  20.456 -21.314  1.00  0.00     0.039 C 
HETATM    8  N1  UNL     1      -7.934  18.531 -22.603  1.00  0.00    -0.103 NA
ENDBRANCH   4   6
ENDBRANCH   1   3
BRANCH   1   9
HETATM    9  C6  UNL     1     -13.287  20.517 -22.717  1.00  0.00     0.081 C 
HETATM   10  C7  UNL     1     -14.687  19.929 -22.433  1.00  0.00     0.025 C 
HETATM   11  C8  UNL     1     -15.356  20.938 -21.536  1.00  0.00     0.006 C 
HETATM   12  C9  UNL     1     -15.508  22.254 -22.204  1.00  0.00    -0.019 C 
HETATM   13  C10 UNL     1     -16.677  22.241 -23.149  1.00  0.00     0.010 C 
HETATM   14  C11 UNL     1     -14.281  22.750 -22.907  1.00  0.00     0.006 C 
HETATM   15  C12 UNL     1     -13.524  21.669 -23.636  1.00  0.00     0.025 C 
ENDBRANCH   1   9
TORSDOF 3
ENDMDL
