MODEL 1
REMARK VINA RESULT: -12.473576776      0.000      0.000
REMARK  8 active torsions:
REMARK  status: ('A' for Active; 'I' for Inactive)
REMARK    1  A    between atoms: O1_2  and  C2_3 
REMARK    2  A    between atoms: C4_5  and  C5_6 
REMARK    3  A    between atoms: C5_6  and  N1_7 
REMARK    4  A    between atoms: C8_10  and  N2_11 
REMARK    5  A    between atoms: C15_19  and  O3_20 
REMARK    6  A    between atoms: C16_22  and  C17_23 
REMARK    7  A    between atoms: C17_23  and  C18_24 
REMARK    8  A    between atoms: C31_43  and  O4_44 
ROOT
HETATM    1  N2  UNL     1      30.956  43.338  16.816  1.00  0.00     0.110 N 
HETATM    2  C9  UNL     1      30.850  44.687  16.222  1.00  0.00     0.281 C 
HETATM    3  C10 UNL     1      31.924  44.905  15.219  1.00  0.00     0.098 C 
HETATM    4  C11 UNL     1      33.306  44.865  15.842  1.00  0.00     0.084 A 
HETATM    5  O2  UNL     1      34.158  45.479  15.055  1.00  0.00    -0.311 OA
HETATM    6  C12 UNL     1      35.423  45.574  15.382  1.00  0.00     0.097 A 
HETATM    7  C13 UNL     1      36.271  46.245  14.489  1.00  0.00     0.006 A 
HETATM    8  C14 UNL     1      35.739  46.794  13.242  1.00  0.00     0.054 C 
HETATM    9  C15 UNL     1      37.596  46.360  14.803  1.00  0.00     0.081 A 
HETATM   10  C16 UNL     1      38.125  45.835  15.978  1.00  0.00    -0.017 A 
HETATM   11  C21 UNL     1      37.293  45.154  16.894  1.00  0.00    -0.038 A 
HETATM   12  C22 UNL     1      37.796  44.559  18.112  1.00  0.00     0.050 C 
HETATM   13  C23 UNL     1      35.944  45.051  16.547  1.00  0.00     0.034 A 
HETATM   14  C24 UNL     1      35.049  44.391  17.401  1.00  0.00     0.068 A 
HETATM   15  N3  UNL     1      35.505  43.944  18.467  1.00  0.00    -0.396 N 
ATOM     16  H31 UNL     1      34.855  43.463  19.089  1.00  0.00     0.156 HD
ATOM     17  H32 UNL     1      36.484  44.003  18.750  1.00  0.00     0.156 HD
HETATM   18  C25 UNL     1      33.724  44.310  17.019  1.00  0.00     0.087 A 
HETATM   19  N4  UNL     1      32.993  43.563  17.997  1.00  0.00    -0.361 N 
ATOM     20  H4  UNL     1      33.523  42.984  18.649  1.00  0.00     0.161 HD
HETATM   21  C26 UNL     1      31.523  43.574  18.125  1.00  0.00     0.396 C 
ENDROOT
BRANCH   1  22
HETATM   22  C8  UNL     1      29.694  42.725  16.771  1.00  0.00     0.228 C 
HETATM   23  C7  UNL     1      29.574  41.476  15.933  1.00  0.00     0.055 C 
HETATM   24  C6  UNL     1      28.111  40.994  16.012  1.00  0.00     0.124 C 
HETATM   25  N1  UNL     1      27.419  41.635  17.045  1.00  0.00    -0.389 N 
HETATM   26  C28 UNL     1      27.297  43.060  16.934  1.00  0.00     0.124 C 
HETATM   27  C27 UNL     1      28.569  43.676  16.367  1.00  0.00     0.055 C 
BRANCH  25  28
HETATM   28  C5  UNL     1      26.903  41.001  18.158  1.00  0.00     0.097 C 
BRANCH  28  29
HETATM   29  C4  UNL     1      27.583  39.863  18.782  1.00  0.00    -0.017 A 
HETATM   30  C3  UNL     1      28.768  39.303  18.444  1.00  0.00     0.052 A 
HETATM   31  C2  UNL     1      29.295  38.208  19.141  1.00  0.00     0.104 A 
HETATM   32  C31 UNL     1      28.602  37.650  20.224  1.00  0.00     0.123 A 
HETATM   33  C30 UNL     1      27.402  38.210  20.571  1.00  0.00     0.071 A 
HETATM   34  C29 UNL     1      26.910  39.279  19.875  1.00  0.00     0.039 A 
HETATM   35 CL1  UNL     1      26.538  37.492  21.938  1.00  0.00    -0.081 Cl
BRANCH  31  36
HETATM   36  O1  UNL     1      30.496  37.617  18.825  1.00  0.00    -0.353 OA
HETATM   37  C1  UNL     1      31.674  38.371  18.791  1.00  0.00     0.210 C 
ENDBRANCH  31  36
BRANCH  32  38
HETATM   38  O4  UNL     1      29.135  36.569  20.906  1.00  0.00    -0.351 OA
HETATM   39  C32 UNL     1      29.927  36.872  22.058  1.00  0.00     0.210 C 
ENDBRANCH  32  38
ENDBRANCH  28  29
ENDBRANCH  25  28
ENDBRANCH   1  22
BRANCH   9  40
HETATM   40  O3  UNL     1      38.409  47.012  13.909  1.00  0.00    -0.359 OA
ATOM     41  H3  UNL     1      39.110  47.548  14.261  1.00  0.00     0.217 HD
ENDBRANCH   9  40
BRANCH  10  42
HETATM   42  C17 UNL     1      39.525  46.025  16.275  1.00  0.00     0.046 C 
BRANCH  42  43
HETATM   43  C18 UNL     1      39.975  47.187  17.064  1.00  0.00    -0.018 C 
HETATM   44  C19 UNL     1      40.569  48.335  16.273  1.00  0.00     0.010 C 
HETATM   45  C20 UNL     1      40.910  46.939  18.216  1.00  0.00     0.010 C 
ENDBRANCH  42  43
ENDBRANCH  10  42
TORSDOF 8
ENDMDL
MODEL 2
REMARK VINA RESULT: -12.069359749      1.108      1.656
REMARK  8 active torsions:
REMARK  status: ('A' for Active; 'I' for Inactive)
REMARK    1  A    between atoms: O1_2  and  C2_3 
REMARK    2  A    between atoms: C4_5  and  C5_6 
REMARK    3  A    between atoms: C5_6  and  N1_7 
REMARK    4  A    between atoms: C8_10  and  N2_11 
REMARK    5  A    between atoms: C15_19  and  O3_20 
REMARK    6  A    between atoms: C16_22  and  C17_23 
REMARK    7  A    between atoms: C17_23  and  C18_24 
REMARK    8  A    between atoms: C31_43  and  O4_44 
ROOT
HETATM    1  N2  UNL     1      31.020  43.325  16.761  1.00  0.00     0.110 N 
HETATM    2  C9  UNL     1      30.905  44.687  16.199  1.00  0.00     0.281 C 
HETATM    3  C10 UNL     1      31.976  44.933  15.199  1.00  0.00     0.098 C 
HETATM    4  C11 UNL     1      33.359  44.885  15.816  1.00  0.00     0.084 A 
HETATM    5  O2  UNL     1      34.206  45.522  15.042  1.00  0.00    -0.311 OA
HETATM    6  C12 UNL     1      35.472  45.615  15.367  1.00  0.00     0.097 A 
HETATM    7  C13 UNL     1      36.314  46.311  14.487  1.00  0.00     0.006 A 
HETATM    8  C14 UNL     1      35.775  46.886  13.255  1.00  0.00     0.054 C 
HETATM    9  C15 UNL     1      37.639  46.425  14.800  1.00  0.00     0.081 A 
HETATM   10  C16 UNL     1      38.174  45.874  15.960  1.00  0.00    -0.017 A 
HETATM   11  C21 UNL     1      37.348  45.168  16.862  1.00  0.00    -0.038 A 
HETATM   12  C22 UNL     1      37.857  44.547  18.065  1.00  0.00     0.050 C 
HETATM   13  C23 UNL     1      35.999  45.067  16.517  1.00  0.00     0.034 A 
HETATM   14  C24 UNL     1      35.110  44.383  17.358  1.00  0.00     0.068 A 
HETATM   15  N3  UNL     1      35.571  43.913  18.412  1.00  0.00    -0.396 N 
ATOM     16  H31 UNL     1      34.925  43.416  19.024  1.00  0.00     0.156 HD
ATOM     17  H32 UNL     1      36.550  43.971  18.693  1.00  0.00     0.156 HD
HETATM   18  C25 UNL     1      33.784  44.305  16.979  1.00  0.00     0.087 A 
HETATM   19  N4  UNL     1      33.059  43.532  17.941  1.00  0.00    -0.361 N 
ATOM     20  H4  UNL     1      33.594  42.940  18.577  1.00  0.00     0.161 HD
HETATM   21  C26 UNL     1      31.590  43.533  18.074  1.00  0.00     0.396 C 
ENDROOT
BRANCH   1  22
HETATM   22  C8  UNL     1      29.760  42.707  16.706  1.00  0.00     0.228 C 
HETATM   23  C7  UNL     1      29.645  41.472  15.846  1.00  0.00     0.055 C 
HETATM   24  C6  UNL     1      28.185  40.982  15.917  1.00  0.00     0.124 C 
HETATM   25  N1  UNL     1      27.490  41.602  16.961  1.00  0.00    -0.389 N 
HETATM   26  C28 UNL     1      27.361  43.028  16.875  1.00  0.00     0.124 C 
HETATM   27  C27 UNL     1      28.631  43.660  16.319  1.00  0.00     0.055 C 
BRANCH  25  28
HETATM   28  C5  UNL     1      26.977  40.947  18.063  1.00  0.00     0.097 C 
BRANCH  28  29
HETATM   29  C4  UNL     1      27.697  39.846  18.710  1.00  0.00    -0.017 A 
HETATM   30  C3  UNL     1      27.207  38.890  19.535  1.00  0.00     0.052 A 
HETATM   31  C2  UNL     1      28.027  37.894  20.081  1.00  0.00     0.104 A 
HETATM   32  C31 UNL     1      29.396  37.855  19.788  1.00  0.00     0.123 A 
HETATM   33  C30 UNL     1      29.899  38.819  18.955  1.00  0.00     0.071 A 
HETATM   34  C29 UNL     1      29.079  39.780  18.435  1.00  0.00     0.039 A 
HETATM   35 CL1  UNL     1      31.631  38.758  18.598  1.00  0.00    -0.081 Cl
BRANCH  31  36
HETATM   36  O1  UNL     1      27.561  36.907  20.920  1.00  0.00    -0.353 OA
HETATM   37  C1  UNL     1      27.106  37.221  22.205  1.00  0.00     0.210 C 
ENDBRANCH  31  36
BRANCH  32  38
HETATM   38  O4  UNL     1      30.195  36.862  20.333  1.00  0.00    -0.351 OA
HETATM   39  C32 UNL     1      30.841  37.175  21.570  1.00  0.00     0.210 C 
ENDBRANCH  32  38
ENDBRANCH  28  29
ENDBRANCH  25  28
ENDBRANCH   1  22
BRANCH   9  40
HETATM   40  O3  UNL     1      38.446  47.101  13.919  1.00  0.00    -0.359 OA
ATOM     41  H3  UNL     1      38.796  47.939  14.196  1.00  0.00     0.217 HD
ENDBRANCH   9  40
BRANCH  10  42
HETATM   42  C17 UNL     1      39.575  46.064  16.257  1.00  0.00     0.046 C 
BRANCH  42  43
HETATM   43  C18 UNL     1      40.023  47.222  17.053  1.00  0.00    -0.018 C 
HETATM   44  C19 UNL     1      40.644  48.362  16.271  1.00  0.00     0.010 C 
HETATM   45  C20 UNL     1      40.936  46.965  18.221  1.00  0.00     0.010 C 
ENDBRANCH  42  43
ENDBRANCH  10  42
TORSDOF 8
ENDMDL
MODEL 3
REMARK VINA RESULT: -11.779109366      1.793      2.743
REMARK  8 active torsions:
REMARK  status: ('A' for Active; 'I' for Inactive)
REMARK    1  A    between atoms: O1_2  and  C2_3 
REMARK    2  A    between atoms: C4_5  and  C5_6 
REMARK    3  A    between atoms: C5_6  and  N1_7 
REMARK    4  A    between atoms: C8_10  and  N2_11 
REMARK    5  A    between atoms: C15_19  and  O3_20 
REMARK    6  A    between atoms: C16_22  and  C17_23 
REMARK    7  A    between atoms: C17_23  and  C18_24 
REMARK    8  A    between atoms: C31_43  and  O4_44 
ROOT
HETATM    1  N2  UNL     1      30.445  42.618  17.101  1.00  0.00     0.110 N 
HETATM    2  C9  UNL     1      31.296  41.488  17.526  1.00  0.00     0.281 C 
HETATM    3  C10 UNL     1      32.281  41.927  18.547  1.00  0.00     0.098 C 
HETATM    4  C11 UNL     1      33.251  42.957  18.003  1.00  0.00     0.084 A 
HETATM    5  O2  UNL     1      34.329  42.984  18.751  1.00  0.00    -0.311 OA
HETATM    6  C12 UNL     1      35.315  43.801  18.478  1.00  0.00     0.097 A 
HETATM    7  C13 UNL     1      36.432  43.770  19.326  1.00  0.00     0.006 A 
HETATM    8  C14 UNL     1      36.459  42.862  20.472  1.00  0.00     0.054 C 
HETATM    9  C15 UNL     1      37.476  44.611  19.066  1.00  0.00     0.081 A 
HETATM   10  C16 UNL     1      37.465  45.492  17.990  1.00  0.00    -0.017 A 
HETATM   11  C21 UNL     1      36.353  45.543  17.121  1.00  0.00    -0.038 A 
HETATM   12  C22 UNL     1      36.273  46.463  16.007  1.00  0.00     0.050 C 
HETATM   13  C23 UNL     1      35.299  44.674  17.411  1.00  0.00     0.034 A 
HETATM   14  C24 UNL     1      34.157  44.660  16.598  1.00  0.00     0.068 A 
HETATM   15  N3  UNL     1      34.149  45.422  15.616  1.00  0.00    -0.396 N 
ATOM     16  H31 UNL     1      33.318  45.413  15.024  1.00  0.00     0.156 HD
ATOM     17  H32 UNL     1      34.902  46.068  15.376  1.00  0.00     0.156 HD
HETATM   18  C25 UNL     1      33.138  43.786  16.921  1.00  0.00     0.087 A 
HETATM   19  N4  UNL     1      32.053  43.960  16.003  1.00  0.00    -0.361 N 
ATOM     20  H4  UNL     1      32.030  44.818  15.452  1.00  0.00     0.161 HD
HETATM   21  C26 UNL     1      30.967  42.983  15.803  1.00  0.00     0.396 C 
ENDROOT
BRANCH   1  22
HETATM   22  C8  UNL     1      29.101  42.217  17.156  1.00  0.00     0.228 C 
HETATM   23  C7  UNL     1      28.620  41.298  16.060  1.00  0.00     0.055 C 
HETATM   24  C6  UNL     1      27.125  41.011  16.308  1.00  0.00     0.124 C 
HETATM   25  N1  UNL     1      26.738  41.403  17.594  1.00  0.00    -0.389 N 
HETATM   26  C28 UNL     1      26.864  42.800  17.894  1.00  0.00     0.124 C 
HETATM   27  C27 UNL     1      28.121  43.383  17.261  1.00  0.00     0.055 C 
BRANCH  25  28
HETATM   28  C5  UNL     1      26.299  40.541  18.581  1.00  0.00     0.097 C 
BRANCH  28  29
HETATM   29  C4  UNL     1      27.170  39.506  19.144  1.00  0.00    -0.017 A 
HETATM   30  C3  UNL     1      28.377  39.087  18.695  1.00  0.00     0.052 A 
HETATM   31  C2  UNL     1      29.098  38.078  19.346  1.00  0.00     0.104 A 
HETATM   32  C31 UNL     1      28.586  37.461  20.496  1.00  0.00     0.123 A 
HETATM   33  C30 UNL     1      27.365  37.879  20.954  1.00  0.00     0.071 A 
HETATM   34  C29 UNL     1      26.681  38.866  20.302  1.00  0.00     0.039 A 
HETATM   35 CL1  UNL     1      26.731  37.088  22.404  1.00  0.00    -0.081 Cl
BRANCH  31  36
HETATM   36  O1  UNL     1      30.327  37.631  18.919  1.00  0.00    -0.353 OA
HETATM   37  C1  UNL     1      31.489  38.354  19.210  1.00  0.00     0.210 C 
ENDBRANCH  31  36
BRANCH  32  38
HETATM   38  O4  UNL     1      29.311  36.466  21.131  1.00  0.00    -0.351 OA
HETATM   39  C32 UNL     1      30.085  36.868  22.264  1.00  0.00     0.210 C 
ENDBRANCH  32  38
ENDBRANCH  28  29
ENDBRANCH  25  28
ENDBRANCH   1  22
BRANCH   9  40
HETATM   40  O3  UNL     1      38.554  44.571  19.916  1.00  0.00    -0.359 OA
ATOM     41  H3  UNL     1      38.840  45.389  20.304  1.00  0.00     0.217 HD
ENDBRANCH   9  40
BRANCH  10  42
HETATM   42  C17 UNL     1      38.617  46.327  17.741  1.00  0.00     0.046 C 
BRANCH  42  43
HETATM   43  C18 UNL     1      39.774  45.806  16.989  1.00  0.00    -0.018 C 
HETATM   44  C19 UNL     1      41.074  45.703  17.761  1.00  0.00     0.010 C 
HETATM   45  C20 UNL     1      40.113  46.457  15.676  1.00  0.00     0.010 C 
ENDBRANCH  42  43
ENDBRANCH  10  42
TORSDOF 8
ENDMDL
MODEL 4
REMARK VINA RESULT: -11.719361082      1.246      1.719
REMARK  8 active torsions:
REMARK  status: ('A' for Active; 'I' for Inactive)
REMARK    1  A    between atoms: O1_2  and  C2_3 
REMARK    2  A    between atoms: C4_5  and  C5_6 
REMARK    3  A    between atoms: C5_6  and  N1_7 
REMARK    4  A    between atoms: C8_10  and  N2_11 
REMARK    5  A    between atoms: C15_19  and  O3_20 
REMARK    6  A    between atoms: C16_22  and  C17_23 
REMARK    7  A    between atoms: C17_23  and  C18_24 
REMARK    8  A    between atoms: C31_43  and  O4_44 
ROOT
HETATM    1  N2  UNL     1      31.766  43.328  17.418  1.00  0.00     0.110 N 
HETATM    2  C9  UNL     1      31.937  44.678  16.843  1.00  0.00     0.281 C 
HETATM    3  C10 UNL     1      33.221  44.774  16.102  1.00  0.00     0.098 C 
HETATM    4  C11 UNL     1      34.421  44.585  17.008  1.00  0.00     0.084 A 
HETATM    5  O2  UNL     1      35.486  45.100  16.439  1.00  0.00    -0.311 OA
HETATM    6  C12 UNL     1      36.651  45.057  17.034  1.00  0.00     0.097 A 
HETATM    7  C13 UNL     1      37.741  45.629  16.361  1.00  0.00     0.006 A 
HETATM    8  C14 UNL     1      37.556  46.228  15.040  1.00  0.00     0.054 C 
HETATM    9  C15 UNL     1      38.970  45.599  16.957  1.00  0.00     0.081 A 
HETATM   10  C16 UNL     1      39.170  45.022  18.207  1.00  0.00    -0.017 A 
HETATM   11  C21 UNL     1      38.090  44.440  18.906  1.00  0.00    -0.038 A 
HETATM   12  C22 UNL     1      38.249  43.797  20.192  1.00  0.00     0.050 C 
HETATM   13  C23 UNL     1      36.847  44.483  18.273  1.00  0.00     0.034 A 
HETATM   14  C24 UNL     1      35.722  43.928  18.898  1.00  0.00     0.068 A 
HETATM   15  N3  UNL     1      35.884  43.437  20.029  1.00  0.00    -0.396 N 
ATOM     16  H31 UNL     1      35.065  43.033  20.484  1.00  0.00     0.156 HD
ATOM     17  H32 UNL     1      36.778  43.390  20.518  1.00  0.00     0.156 HD
HETATM   18  C25 UNL     1      34.511  43.992  18.237  1.00  0.00     0.087 A 
HETATM   19  N4  UNL     1      33.508  43.332  19.017  1.00  0.00    -0.361 N 
ATOM     20  H4  UNL     1      33.818  42.701  19.756  1.00  0.00     0.161 HD
HETATM   21  C26 UNL     1      32.056  43.505  18.823  1.00  0.00     0.396 C 
ENDROOT
BRANCH   1  22
HETATM   22  C8  UNL     1      30.485  42.856  17.087  1.00  0.00     0.228 C 
HETATM   23  C7  UNL     1      30.416  41.670  16.158  1.00  0.00     0.055 C 
HETATM   24  C6  UNL     1      28.927  41.344  15.919  1.00  0.00     0.124 C 
HETATM   25  N1  UNL     1      28.108  42.005  16.840  1.00  0.00    -0.389 N 
HETATM   26  C28 UNL     1      28.147  43.438  16.806  1.00  0.00     0.124 C 
HETATM   27  C27 UNL     1      29.560  43.941  16.540  1.00  0.00     0.055 C 
BRANCH  25  28
HETATM   28  C5  UNL     1      27.322  41.376  17.786  1.00  0.00     0.097 C 
BRANCH  28  29
HETATM   29  C4  UNL     1      27.766  40.160  18.473  1.00  0.00    -0.017 A 
HETATM   30  C3  UNL     1      28.902  39.450  18.276  1.00  0.00     0.052 A 
HETATM   31  C2  UNL     1      29.192  38.297  19.017  1.00  0.00     0.104 A 
HETATM   32  C31 UNL     1      28.303  37.835  19.996  1.00  0.00     0.123 A 
HETATM   33  C30 UNL     1      27.150  38.547  20.200  1.00  0.00     0.071 A 
HETATM   34  C29 UNL     1      26.891  39.669  19.464  1.00  0.00     0.039 A 
HETATM   35 CL1  UNL     1      26.037  37.948  21.437  1.00  0.00    -0.081 Cl
BRANCH  31  36
HETATM   36  O1  UNL     1      30.337  37.555  18.844  1.00  0.00    -0.353 OA
HETATM   37  C1  UNL     1      31.594  38.113  19.103  1.00  0.00     0.210 C 
ENDBRANCH  31  36
BRANCH  32  38
HETATM   38  O4  UNL     1      28.602  36.695  20.723  1.00  0.00    -0.351 OA
HETATM   39  C32 UNL     1      29.418  36.877  21.885  1.00  0.00     0.210 C 
ENDBRANCH  32  38
ENDBRANCH  28  29
ENDBRANCH  25  28
ENDBRANCH   1  22
BRANCH   9  40
HETATM   40  O3  UNL     1      40.023  46.155  16.274  1.00  0.00    -0.359 OA
ATOM     41  H3  UNL     1      40.888  46.075  16.658  1.00  0.00     0.217 HD
ENDBRANCH   9  40
BRANCH  10  42
HETATM   42  C17 UNL     1      40.485  45.059  18.805  1.00  0.00     0.046 C 
BRANCH  42  43
HETATM   43  C18 UNL     1      40.912  46.220  19.608  1.00  0.00    -0.018 C 
HETATM   44  C19 UNL     1      42.028  47.059  19.016  1.00  0.00     0.010 C 
HETATM   45  C20 UNL     1      41.278  45.986  21.048  1.00  0.00     0.010 C 
ENDBRANCH  42  43
ENDBRANCH  10  42
TORSDOF 8
ENDMDL
MODEL 5
REMARK VINA RESULT: -11.688663041      2.530      3.927
REMARK  8 active torsions:
REMARK  status: ('A' for Active; 'I' for Inactive)
REMARK    1  A    between atoms: O1_2  and  C2_3 
REMARK    2  A    between atoms: C4_5  and  C5_6 
REMARK    3  A    between atoms: C5_6  and  N1_7 
REMARK    4  A    between atoms: C8_10  and  N2_11 
REMARK    5  A    between atoms: C15_19  and  O3_20 
REMARK    6  A    between atoms: C16_22  and  C17_23 
REMARK    7  A    between atoms: C17_23  and  C18_24 
REMARK    8  A    between atoms: C31_43  and  O4_44 
ROOT
HETATM    1  N2  UNL     1      33.503  43.697  17.877  1.00  0.00     0.110 N 
HETATM    2  C9  UNL     1      33.809  45.050  17.368  1.00  0.00     0.281 C 
HETATM    3  C10 UNL     1      35.216  45.127  16.896  1.00  0.00     0.098 C 
HETATM    4  C11 UNL     1      36.210  44.902  18.018  1.00  0.00     0.084 A 
HETATM    5  O2  UNL     1      37.375  45.401  17.678  1.00  0.00    -0.311 OA
HETATM    6  C12 UNL     1      38.399  45.327  18.491  1.00  0.00     0.097 A 
HETATM    7  C13 UNL     1      39.610  45.883  18.054  1.00  0.00     0.006 A 
HETATM    8  C14 UNL     1      39.701  46.501  16.732  1.00  0.00     0.054 C 
HETATM    9  C15 UNL     1      40.697  45.820  18.881  1.00  0.00     0.081 A 
HETATM   10  C16 UNL     1      40.636  45.225  20.136  1.00  0.00    -0.017 A 
HETATM   11  C21 UNL     1      39.428  44.657  20.600  1.00  0.00    -0.038 A 
HETATM   12  C22 UNL     1      39.318  43.997  21.882  1.00  0.00     0.050 C 
HETATM   13  C23 UNL     1      38.335  44.735  19.734  1.00  0.00     0.034 A 
HETATM   14  C24 UNL     1      37.099  44.197  20.117  1.00  0.00     0.068 A 
HETATM   15  N3  UNL     1      37.025  43.689  21.250  1.00  0.00    -0.396 N 
ATOM     16  H31 UNL     1      36.126  43.297  21.528  1.00  0.00     0.156 HD
ATOM     17  H32 UNL     1      37.804  43.617  21.905  1.00  0.00     0.156 HD
HETATM   18  C25 UNL     1      36.044  44.293  19.231  1.00  0.00     0.087 A 
HETATM   19  N4  UNL     1      34.894  43.646  19.788  1.00  0.00    -0.361 N 
ATOM     20  H4  UNL     1      35.041  43.000  20.563  1.00  0.00     0.161 HD
HETATM   21  C26 UNL     1      33.513  43.851  19.314  1.00  0.00     0.396 C 
ENDROOT
BRANCH   1  22
HETATM   22  C8  UNL     1      32.304  43.256  17.293  1.00  0.00     0.228 C 
HETATM   23  C7  UNL     1      32.174  43.421  15.799  1.00  0.00     0.055 C 
HETATM   24  C6  UNL     1      30.784  42.896  15.386  1.00  0.00     0.124 C 
HETATM   25  N1  UNL     1      30.193  42.157  16.415  1.00  0.00    -0.389 N 
HETATM   26  C28 UNL     1      29.934  42.866  17.635  1.00  0.00     0.124 C 
HETATM   27  C27 UNL     1      31.056  43.848  17.944  1.00  0.00     0.055 C 
BRANCH  25  28
HETATM   28  C5  UNL     1      29.895  40.809  16.346  1.00  0.00     0.097 C 
BRANCH  28  29
HETATM   29  C4  UNL     1      29.232  40.108  17.449  1.00  0.00    -0.017 A 
HETATM   30  C3  UNL     1      27.923  40.132  17.794  1.00  0.00     0.052 A 
HETATM   31  C2  UNL     1      27.432  39.402  18.885  1.00  0.00     0.104 A 
HETATM   32  C31 UNL     1      28.292  38.615  19.662  1.00  0.00     0.123 A 
HETATM   33  C30 UNL     1      29.618  38.588  19.320  1.00  0.00     0.071 A 
HETATM   34  C29 UNL     1      30.071  39.308  18.251  1.00  0.00     0.039 A 
HETATM   35 CL1  UNL     1      30.690  37.593  20.315  1.00  0.00    -0.081 Cl
BRANCH  31  36
HETATM   36  O1  UNL     1      26.109  39.402  19.261  1.00  0.00    -0.353 OA
HETATM   37  C1  UNL     1      25.111  39.021  18.357  1.00  0.00     0.210 C 
ENDBRANCH  31  36
BRANCH  32  38
HETATM   38  O4  UNL     1      27.793  37.897  20.737  1.00  0.00    -0.351 OA
HETATM   39  C32 UNL     1      27.323  36.576  20.454  1.00  0.00     0.210 C 
ENDBRANCH  32  38
ENDBRANCH  28  29
ENDBRANCH  25  28
ENDBRANCH   1  22
BRANCH   9  40
HETATM   40  O3  UNL     1      41.874  46.362  18.428  1.00  0.00    -0.359 OA
ATOM     41  H3  UNL     1      42.309  45.927  17.704  1.00  0.00     0.217 HD
ENDBRANCH   9  40
BRANCH  10  42
HETATM   42  C17 UNL     1      41.807  45.227  20.982  1.00  0.00     0.046 C 
BRANCH  42  43
HETATM   43  C18 UNL     1      42.193  46.440  21.727  1.00  0.00    -0.018 C 
HETATM   44  C19 UNL     1      43.683  46.664  21.900  1.00  0.00     0.010 C 
HETATM   45  C20 UNL     1      41.572  46.668  23.078  1.00  0.00     0.010 C 
ENDBRANCH  42  43
ENDBRANCH  10  42
TORSDOF 8
ENDMDL
