MODEL 1
REMARK VINA RESULT: -10.524571187      0.000      0.000
REMARK  11 active torsions:
REMARK  status: ('A' for Active; 'I' for Inactive)
REMARK    1  A    between atoms: C14_15  and  C15_16 
REMARK    2  A    between atoms: C15_16  and  C16_18 
REMARK    3  A    between atoms: N1_19  and  N2_21 
REMARK    4  A    between atoms: C17_23  and  C18_24 
REMARK    5  A    between atoms: C20_26  and  O2_27 
REMARK    6  A    between atoms: N3_29  and  C21_30 
REMARK    7  A    between atoms: C21_30  and  C22_31 
REMARK    8  A    between atoms: C22_31  and  C23_32 
REMARK    9  A    between atoms: C23_32  and  O3_33 
REMARK   10  A    between atoms: C23_32  and  C24_35 
REMARK   11  A    between atoms: C30_41  and  O4_42 
ROOT
HETATM    1  N2  UNL     1      36.342  42.938  21.407  1.00  0.00    -0.311 N 
ATOM      2  H2  UNL     1      36.482  43.946  21.477  1.00  0.00     0.186 HD
HETATM    3  C17 UNL     1      35.686  42.506  20.398  1.00  0.00     0.123 C 
ENDROOT
BRANCH   1   4
HETATM    4  N1  UNL     1      36.874  42.157  22.403  1.00  0.00    -0.309 N 
HETATM    5  C16 UNL     1      37.583  42.512  23.394  1.00  0.00     0.157 C 
ATOM      6  H1  UNL     1      36.672  41.159  22.339  1.00  0.00     0.186 HD
BRANCH   5   7
HETATM    7  C15 UNL     1      38.012  43.849  23.721  1.00  0.00     0.170 C 
HETATM    8  O1  UNL     1      37.185  44.661  24.207  1.00  0.00    -0.291 OA
BRANCH   7   9
HETATM    9  C14 UNL     1      39.425  44.313  23.501  1.00  0.00     0.066 C 
HETATM   10  C7  UNL     1      39.429  45.590  22.743  1.00  0.00    -0.001 C 
HETATM   11  C6  UNL     1      40.352  46.557  23.388  1.00  0.00     0.010 C 
HETATM   12  C8  UNL     1      39.656  45.410  21.263  1.00  0.00     0.026 C 
HETATM   13  C5  UNL     1      41.813  46.379  23.037  1.00  0.00    -0.012 C 
HETATM   14  C4  UNL     1      42.472  45.322  23.826  1.00  0.00     0.013 C 
HETATM   15  C10 UNL     1      41.971  46.341  21.566  1.00  0.00     0.025 C 
HETATM   16  C2  UNL     1      42.514  43.956  23.374  1.00  0.00    -0.044 C 
HETATM   17  C1  UNL     1      43.906  43.649  22.783  1.00  0.00     0.015 C 
HETATM   18  C3  UNL     1      42.446  43.015  24.596  1.00  0.00     0.015 C 
HETATM   19  C12 UNL     1      41.532  43.421  22.403  1.00  0.00    -0.005 C 
HETATM   20  C11 UNL     1      41.639  44.004  21.012  1.00  0.00     0.026 C 
HETATM   21  C13 UNL     1      40.157  43.194  22.882  1.00  0.00     0.018 C 
HETATM   22  C9  UNL     1      41.081  45.359  20.859  1.00  0.00     0.019 C 
HETATM   23 BR1  UNL     1      41.160  45.810  18.957  1.00  0.00    -0.086 Br
ENDBRANCH   7   9
ENDBRANCH   5   7
ENDBRANCH   1   4
BRANCH   3  24
HETATM   24  C18 UNL     1      35.182  43.442  19.420  1.00  0.00     0.036 A 
HETATM   25  C19 UNL     1      33.889  43.701  19.078  1.00  0.00     0.073 A 
HETATM   26  C20 UNL     1      33.894  44.679  18.093  1.00  0.00     0.144 A 
HETATM   27  N3  UNL     1      35.143  45.018  17.831  1.00  0.00    -0.308 N 
HETATM   28  C30 UNL     1      35.952  44.265  18.640  1.00  0.00     0.156 A 
BRANCH  26  29
HETATM   29  O2  UNL     1      32.739  45.185  17.507  1.00  0.00    -0.346 OA
ATOM     30  H2  UNL     1      32.519  46.109  17.493  1.00  0.00     0.219 HD
ENDBRANCH  26  29
BRANCH  27  31
HETATM   31  C21 UNL     1      35.699  45.975  16.924  1.00  0.00     0.136 C 
BRANCH  31  32
HETATM   32  C22 UNL     1      35.641  45.614  15.480  1.00  0.00     0.057 C 
BRANCH  32  33
HETATM   33  C23 UNL     1      36.140  46.684  14.585  1.00  0.00     0.152 C 
BRANCH  33  34
HETATM   34  O3  UNL     1      36.020  46.298  13.246  1.00  0.00    -0.391 OA
ATOM     35  H3  UNL     1      36.598  46.816  12.698  1.00  0.00     0.210 HD
ENDBRANCH  33  34
BRANCH  33  36
HETATM   36  C24 UNL     1      37.580  46.960  14.829  1.00  0.00    -0.030 A 
HETATM   37  C25 UNL     1      37.963  48.234  15.187  1.00  0.00     0.010 A 
HETATM   38  C26 UNL     1      39.305  48.517  15.422  1.00  0.00     0.001 A 
HETATM   39  C27 UNL     1      40.274  47.548  15.306  1.00  0.00     0.000 A 
HETATM   40  C28 UNL     1      39.891  46.277  14.949  1.00  0.00     0.001 A 
HETATM   41  C29 UNL     1      38.542  46.000  14.715  1.00  0.00     0.010 A 
ENDBRANCH  33  36
ENDBRANCH  32  33
ENDBRANCH  31  32
ENDBRANCH  27  31
BRANCH  28  42
HETATM   42  O4  UNL     1      37.332  44.310  18.682  1.00  0.00    -0.345 OA
ATOM     43  H4  UNL     1      37.836  44.520  19.458  1.00  0.00     0.219 HD
ENDBRANCH  28  42
ENDBRANCH   3  24
TORSDOF 11
ENDMDL
MODEL 2
REMARK VINA RESULT: -10.437220493      1.530      2.463
REMARK  11 active torsions:
REMARK  status: ('A' for Active; 'I' for Inactive)
REMARK    1  A    between atoms: C14_15  and  C15_16 
REMARK    2  A    between atoms: C15_16  and  C16_18 
REMARK    3  A    between atoms: N1_19  and  N2_21 
REMARK    4  A    between atoms: C17_23  and  C18_24 
REMARK    5  A    between atoms: C20_26  and  O2_27 
REMARK    6  A    between atoms: N3_29  and  C21_30 
REMARK    7  A    between atoms: C21_30  and  C22_31 
REMARK    8  A    between atoms: C22_31  and  C23_32 
REMARK    9  A    between atoms: C23_32  and  O3_33 
REMARK   10  A    between atoms: C23_32  and  C24_35 
REMARK   11  A    between atoms: C30_41  and  O4_42 
ROOT
HETATM    1  N2  UNL     1      36.075  42.685  20.742  1.00  0.00    -0.311 N 
ATOM      2  H2  UNL     1      36.672  43.503  20.621  1.00  0.00     0.186 HD
HETATM    3  C17 UNL     1      35.032  42.606  20.006  1.00  0.00     0.123 C 
ENDROOT
BRANCH   1   4
HETATM    4  N1  UNL     1      36.457  41.759  21.682  1.00  0.00    -0.309 N 
HETATM    5  C16 UNL     1      37.142  41.936  22.735  1.00  0.00     0.157 C 
ATOM      6  H1  UNL     1      36.149  40.802  21.510  1.00  0.00     0.186 HD
BRANCH   5   7
HETATM    7  C15 UNL     1      37.700  43.177  23.210  1.00  0.00     0.170 C 
HETATM    8  O1  UNL     1      37.023  43.901  23.984  1.00  0.00    -0.291 OA
BRANCH   7   9
HETATM    9  C14 UNL     1      39.072  43.644  22.813  1.00  0.00     0.066 C 
HETATM   10  C7  UNL     1      39.999  43.541  23.970  1.00  0.00    -0.001 C 
HETATM   11  C6  UNL     1      41.267  42.899  23.544  1.00  0.00     0.010 C 
HETATM   12  C8  UNL     1      40.181  44.840  24.712  1.00  0.00     0.026 C 
HETATM   13  C5  UNL     1      42.258  43.823  22.871  1.00  0.00    -0.012 C 
HETATM   14  C4  UNL     1      41.965  44.043  21.443  1.00  0.00     0.013 C 
HETATM   15  C10 UNL     1      42.485  45.014  23.720  1.00  0.00     0.025 C 
HETATM   16  C2  UNL     1      41.124  45.124  21.001  1.00  0.00    -0.044 C 
HETATM   17  C1  UNL     1      42.000  46.271  20.455  1.00  0.00     0.015 C 
HETATM   18  C3  UNL     1      40.333  44.674  19.754  1.00  0.00     0.015 C 
HETATM   19  C12 UNL     1      40.131  45.760  21.896  1.00  0.00    -0.005 C 
HETATM   20  C11 UNL     1      40.727  46.543  23.045  1.00  0.00     0.026 C 
HETATM   21  C13 UNL     1      38.920  44.987  22.227  1.00  0.00     0.018 C 
HETATM   22  C9  UNL     1      41.235  45.724  24.159  1.00  0.00     0.019 C 
HETATM   23 BR1  UNL     1      41.769  46.951  25.586  1.00  0.00    -0.086 Br
ENDBRANCH   7   9
ENDBRANCH   5   7
ENDBRANCH   1   4
BRANCH   3  24
HETATM   24  C18 UNL     1      34.749  43.656  19.055  1.00  0.00     0.036 A 
HETATM   25  C19 UNL     1      33.549  44.027  18.528  1.00  0.00     0.073 A 
HETATM   26  C20 UNL     1      33.771  45.085  17.658  1.00  0.00     0.144 A 
HETATM   27  N3  UNL     1      35.061  45.365  17.644  1.00  0.00    -0.308 N 
HETATM   28  C30 UNL     1      35.681  44.494  18.498  1.00  0.00     0.156 A 
BRANCH  26  29
HETATM   29  O2  UNL     1      32.760  45.714  16.940  1.00  0.00    -0.346 OA
ATOM     30  H2  UNL     1      32.922  46.342  16.246  1.00  0.00     0.219 HD
ENDBRANCH  26  29
BRANCH  27  31
HETATM   31  C21 UNL     1      35.810  46.362  16.940  1.00  0.00     0.136 C 
BRANCH  31  32
HETATM   32  C22 UNL     1      36.041  46.101  15.492  1.00  0.00     0.057 C 
BRANCH  32  33
HETATM   33  C23 UNL     1      37.364  45.500  15.205  1.00  0.00     0.152 C 
BRANCH  33  34
HETATM   34  O3  UNL     1      37.552  44.345  15.969  1.00  0.00    -0.391 OA
ATOM     35  H3  UNL     1      38.477  44.137  16.035  1.00  0.00     0.210 HD
ENDBRANCH  33  34
BRANCH  33  36
HETATM   36  C24 UNL     1      38.465  46.436  15.553  1.00  0.00    -0.030 A 
HETATM   37  C25 UNL     1      38.822  47.412  14.648  1.00  0.00     0.010 A 
HETATM   38  C26 UNL     1      39.850  48.300  14.952  1.00  0.00     0.001 A 
HETATM   39  C27 UNL     1      40.530  48.230  16.145  1.00  0.00     0.000 A 
HETATM   40  C28 UNL     1      40.173  47.256  17.047  1.00  0.00     0.001 A 
HETATM   41  C29 UNL     1      39.141  46.368  16.736  1.00  0.00     0.010 A 
ENDBRANCH  33  36
ENDBRANCH  32  33
ENDBRANCH  31  32
ENDBRANCH  27  31
BRANCH  28  42
HETATM   42  O4  UNL     1      37.034  44.447  18.775  1.00  0.00    -0.345 OA
ATOM     43  H4  UNL     1      37.517  45.144  19.201  1.00  0.00     0.219 HD
ENDBRANCH  28  42
ENDBRANCH   3  24
TORSDOF 11
ENDMDL
MODEL 3
REMARK VINA RESULT: -10.405345132      2.266      4.535
REMARK  11 active torsions:
REMARK  status: ('A' for Active; 'I' for Inactive)
REMARK    1  A    between atoms: C14_15  and  C15_16 
REMARK    2  A    between atoms: C15_16  and  C16_18 
REMARK    3  A    between atoms: N1_19  and  N2_21 
REMARK    4  A    between atoms: C17_23  and  C18_24 
REMARK    5  A    between atoms: C20_26  and  O2_27 
REMARK    6  A    between atoms: N3_29  and  C21_30 
REMARK    7  A    between atoms: C21_30  and  C22_31 
REMARK    8  A    between atoms: C22_31  and  C23_32 
REMARK    9  A    between atoms: C23_32  and  O3_33 
REMARK   10  A    between atoms: C23_32  and  C24_35 
REMARK   11  A    between atoms: C30_41  and  O4_42 
ROOT
HETATM    1  N2  UNL     1      36.387  43.017  21.825  1.00  0.00    -0.311 N 
ATOM      2  H2  UNL     1      35.721  43.772  21.988  1.00  0.00     0.186 HD
HETATM    3  C17 UNL     1      36.774  42.826  20.621  1.00  0.00     0.123 C 
ENDROOT
BRANCH   1   4
HETATM    4  N1  UNL     1      36.794  42.289  22.916  1.00  0.00    -0.309 N 
HETATM    5  C16 UNL     1      37.475  42.673  23.914  1.00  0.00     0.157 C 
ATOM      6  H1  UNL     1      36.510  41.309  22.924  1.00  0.00     0.186 HD
BRANCH   5   7
HETATM    7  C15 UNL     1      38.001  43.994  24.151  1.00  0.00     0.170 C 
HETATM    8  O1  UNL     1      37.267  44.862  24.689  1.00  0.00    -0.291 OA
BRANCH   7   9
HETATM    9  C14 UNL     1      39.406  44.376  23.778  1.00  0.00     0.066 C 
HETATM   10  C7  UNL     1      39.393  45.598  22.933  1.00  0.00    -0.001 C 
HETATM   11  C6  UNL     1      40.407  46.563  23.425  1.00  0.00     0.010 C 
HETATM   12  C8  UNL     1      39.479  45.308  21.456  1.00  0.00     0.026 C 
HETATM   13  C5  UNL     1      41.823  46.295  22.963  1.00  0.00    -0.012 C 
HETATM   14  C4  UNL     1      42.507  45.265  23.765  1.00  0.00     0.013 C 
HETATM   15  C10 UNL     1      41.847  46.151  21.490  1.00  0.00     0.025 C 
HETATM   16  C2  UNL     1      42.454  43.871  23.410  1.00  0.00    -0.044 C 
HETATM   17  C1  UNL     1      43.775  43.461  22.725  1.00  0.00     0.015 C 
HETATM   18  C3  UNL     1      42.459  43.019  24.698  1.00  0.00     0.015 C 
HETATM   19  C12 UNL     1      41.369  43.317  22.568  1.00  0.00    -0.005 C 
HETATM   20  C11 UNL     1      41.374  43.798  21.135  1.00  0.00     0.026 C 
HETATM   21  C13 UNL     1      40.034  43.186  23.180  1.00  0.00     0.018 C 
HETATM   22  C9  UNL     1      40.859  45.164  20.934  1.00  0.00     0.019 C 
HETATM   23 BR1  UNL     1      40.785  45.481  19.006  1.00  0.00    -0.086 Br
ENDBRANCH   7   9
ENDBRANCH   5   7
ENDBRANCH   1   4
BRANCH   3  24
HETATM   24  C18 UNL     1      36.264  43.670  19.565  1.00  0.00     0.036 A 
HETATM   25  C19 UNL     1      36.953  44.486  18.719  1.00  0.00     0.073 A 
HETATM   26  C20 UNL     1      36.038  45.097  17.873  1.00  0.00     0.144 A 
HETATM   27  N3  UNL     1      34.824  44.677  18.179  1.00  0.00    -0.308 N 
HETATM   28  C30 UNL     1      34.942  43.797  19.220  1.00  0.00     0.156 A 
BRANCH  26  29
HETATM   29  O2  UNL     1      36.396  46.001  16.879  1.00  0.00    -0.346 OA
ATOM     30  H2  UNL     1      35.789  46.618  16.487  1.00  0.00     0.219 HD
ENDBRANCH  26  29
BRANCH  27  31
HETATM   31  C21 UNL     1      33.544  44.978  17.614  1.00  0.00     0.136 C 
BRANCH  31  32
HETATM   32  C22 UNL     1      33.114  44.116  16.477  1.00  0.00     0.057 C 
BRANCH  32  33
HETATM   33  C23 UNL     1      31.922  44.631  15.765  1.00  0.00     0.152 C 
BRANCH  33  34
HETATM   34  O3  UNL     1      31.705  45.975  16.084  1.00  0.00    -0.391 OA
ATOM     35  H3  UNL     1      30.911  46.291  15.668  1.00  0.00     0.210 HD
ENDBRANCH  33  34
BRANCH  33  36
HETATM   36  C24 UNL     1      30.697  43.887  16.160  1.00  0.00    -0.030 A 
HETATM   37  C25 UNL     1      29.466  44.465  15.941  1.00  0.00     0.010 A 
HETATM   38  C26 UNL     1      28.305  43.788  16.302  1.00  0.00     0.001 A 
HETATM   39  C27 UNL     1      28.352  42.541  16.880  1.00  0.00     0.000 A 
HETATM   40  C28 UNL     1      29.581  41.965  17.098  1.00  0.00     0.001 A 
HETATM   41  C29 UNL     1      30.742  42.650  16.733  1.00  0.00     0.010 A 
ENDBRANCH  33  36
ENDBRANCH  32  33
ENDBRANCH  31  32
ENDBRANCH  27  31
BRANCH  28  42
HETATM   42  O4  UNL     1      33.908  43.128  19.844  1.00  0.00    -0.345 OA
ATOM     43  H4  UNL     1      33.230  43.550  20.357  1.00  0.00     0.219 HD
ENDBRANCH  28  42
ENDBRANCH   3  24
TORSDOF 11
ENDMDL
MODEL 4
REMARK VINA RESULT: -10.221220050      2.091      3.413
REMARK  11 active torsions:
REMARK  status: ('A' for Active; 'I' for Inactive)
REMARK    1  A    between atoms: C14_15  and  C15_16 
REMARK    2  A    between atoms: C15_16  and  C16_18 
REMARK    3  A    between atoms: N1_19  and  N2_21 
REMARK    4  A    between atoms: C17_23  and  C18_24 
REMARK    5  A    between atoms: C20_26  and  O2_27 
REMARK    6  A    between atoms: N3_29  and  C21_30 
REMARK    7  A    between atoms: C21_30  and  C22_31 
REMARK    8  A    between atoms: C22_31  and  C23_32 
REMARK    9  A    between atoms: C23_32  and  O3_33 
REMARK   10  A    between atoms: C23_32  and  C24_35 
REMARK   11  A    between atoms: C30_41  and  O4_42 
ROOT
HETATM    1  N2  UNL     1      35.749  43.512  18.783  1.00  0.00    -0.311 N 
ATOM      2  H2  UNL     1      36.659  43.909  18.547  1.00  0.00     0.186 HD
HETATM    3  C17 UNL     1      34.803  43.667  17.936  1.00  0.00     0.123 C 
ENDROOT
BRANCH   1   4
HETATM    4  N1  UNL     1      35.643  42.853  19.983  1.00  0.00    -0.309 N 
HETATM    5  C16 UNL     1      36.358  42.982  21.023  1.00  0.00     0.157 C 
ATOM      6  H1  UNL     1      34.887  42.171  20.047  1.00  0.00     0.186 HD
BRANCH   5   7
HETATM    7  C15 UNL     1      37.482  43.866  21.201  1.00  0.00     0.170 C 
HETATM    8  O1  UNL     1      38.088  44.305  20.189  1.00  0.00    -0.291 OA
BRANCH   7   9
HETATM    9  C14 UNL     1      37.962  44.289  22.560  1.00  0.00     0.066 C 
HETATM   10  C7  UNL     1      39.187  45.121  22.432  1.00  0.00    -0.001 C 
HETATM   11  C6  UNL     1      39.066  46.331  23.283  1.00  0.00     0.010 C 
HETATM   12  C8  UNL     1      40.464  44.346  22.635  1.00  0.00     0.026 C 
HETATM   13  C5  UNL     1      39.398  46.122  24.744  1.00  0.00    -0.012 C 
HETATM   14  C4  UNL     1      38.279  45.548  25.514  1.00  0.00     0.013 C 
HETATM   15  C10 UNL     1      40.723  45.475  24.866  1.00  0.00     0.025 C 
HETATM   16  C2  UNL     1      38.116  44.125  25.664  1.00  0.00    -0.044 C 
HETATM   17  C1  UNL     1      38.607  43.694  27.062  1.00  0.00     0.015 C 
HETATM   18  C3  UNL     1      36.610  43.790  25.712  1.00  0.00     0.015 C 
HETATM   19  C12 UNL     1      38.710  43.163  24.709  1.00  0.00    -0.005 C 
HETATM   20  C11 UNL     1      40.221  43.106  24.727  1.00  0.00     0.026 C 
HETATM   21  C13 UNL     1      38.097  43.066  23.372  1.00  0.00     0.018 C 
HETATM   22  C9  UNL     1      40.896  44.226  24.048  1.00  0.00     0.019 C 
HETATM   23 BR1  UNL     1      42.811  43.831  24.037  1.00  0.00    -0.086 Br
ENDBRANCH   7   9
ENDBRANCH   5   7
ENDBRANCH   1   4
BRANCH   3  24
HETATM   24  C18 UNL     1      35.056  44.383  16.708  1.00  0.00     0.036 A 
HETATM   25  C19 UNL     1      34.191  45.128  15.963  1.00  0.00     0.073 A 
HETATM   26  C20 UNL     1      34.885  45.624  14.869  1.00  0.00     0.144 A 
HETATM   27  N3  UNL     1      36.136  45.206  14.928  1.00  0.00    -0.308 N 
HETATM   28  C30 UNL     1      36.261  44.438  16.055  1.00  0.00     0.156 A 
BRANCH  26  29
HETATM   29  O2  UNL     1      34.307  46.428  13.893  1.00  0.00    -0.346 OA
ATOM     30  H2  UNL     1      33.740  46.095  13.207  1.00  0.00     0.219 HD
ENDBRANCH  26  29
BRANCH  27  31
HETATM   31  C21 UNL     1      37.259  45.438  14.071  1.00  0.00     0.136 C 
BRANCH  31  32
HETATM   32  C22 UNL     1      37.786  46.831  14.051  1.00  0.00     0.057 C 
BRANCH  32  33
HETATM   33  C23 UNL     1      37.593  47.552  15.331  1.00  0.00     0.152 C 
BRANCH  33  34
HETATM   34  O3  UNL     1      37.331  48.906  15.095  1.00  0.00    -0.391 OA
ATOM     35  H3  UNL     1      37.765  49.446  15.746  1.00  0.00     0.210 HD
ENDBRANCH  33  34
BRANCH  33  36
HETATM   36  C24 UNL     1      38.815  47.486  16.174  1.00  0.00    -0.030 A 
HETATM   37  C25 UNL     1      38.862  46.581  17.211  1.00  0.00     0.010 A 
HETATM   38  C26 UNL     1      39.996  46.500  18.014  1.00  0.00     0.001 A 
HETATM   39  C27 UNL     1      41.086  47.310  17.799  1.00  0.00     0.000 A 
HETATM   40  C28 UNL     1      41.038  48.213  16.764  1.00  0.00     0.001 A 
HETATM   41  C29 UNL     1      39.898  48.289  15.963  1.00  0.00     0.010 A 
ENDBRANCH  33  36
ENDBRANCH  32  33
ENDBRANCH  31  32
ENDBRANCH  27  31
BRANCH  28  42
HETATM   42  O4  UNL     1      37.411  43.808  16.490  1.00  0.00    -0.345 OA
ATOM     43  H4  UNL     1      37.865  44.022  17.296  1.00  0.00     0.219 HD
ENDBRANCH  28  42
ENDBRANCH   3  24
TORSDOF 11
ENDMDL
MODEL 5
REMARK VINA RESULT: -10.170088792      2.847      5.436
REMARK  11 active torsions:
REMARK  status: ('A' for Active; 'I' for Inactive)
REMARK    1  A    between atoms: C14_15  and  C15_16 
REMARK    2  A    between atoms: C15_16  and  C16_18 
REMARK    3  A    between atoms: N1_19  and  N2_21 
REMARK    4  A    between atoms: C17_23  and  C18_24 
REMARK    5  A    between atoms: C20_26  and  O2_27 
REMARK    6  A    between atoms: N3_29  and  C21_30 
REMARK    7  A    between atoms: C21_30  and  C22_31 
REMARK    8  A    between atoms: C22_31  and  C23_32 
REMARK    9  A    between atoms: C23_32  and  O3_33 
REMARK   10  A    between atoms: C23_32  and  C24_35 
REMARK   11  A    between atoms: C30_41  and  O4_42 
ROOT
HETATM    1  N2  UNL     1      40.614  46.869  17.138  1.00  0.00    -0.311 N 
ATOM      2  H2  UNL     1      40.292  45.914  16.976  1.00  0.00     0.186 HD
HETATM    3  C17 UNL     1      40.080  47.795  16.436  1.00  0.00     0.123 C 
ENDROOT
BRANCH   1   4
HETATM    4  N1  UNL     1      41.585  47.054  18.091  1.00  0.00    -0.309 N 
HETATM    5  C16 UNL     1      41.763  46.417  19.174  1.00  0.00     0.157 C 
ATOM      6  H1  UNL     1      42.253  47.802  17.902  1.00  0.00     0.186 HD
BRANCH   5   7
HETATM    7  C15 UNL     1      40.971  45.325  19.680  1.00  0.00     0.170 C 
HETATM    8  O1  UNL     1      40.190  44.717  18.903  1.00  0.00    -0.291 OA
BRANCH   7   9
HETATM    9  C14 UNL     1      41.042  44.879  21.114  1.00  0.00     0.066 C 
HETATM   10  C7  UNL     1      39.682  44.868  21.712  1.00  0.00    -0.001 C 
HETATM   11  C6  UNL     1      39.467  43.600  22.451  1.00  0.00     0.010 C 
HETATM   12  C8  UNL     1      39.364  46.110  22.505  1.00  0.00     0.026 C 
HETATM   13  C5  UNL     1      40.048  43.567  23.848  1.00  0.00    -0.012 C 
HETATM   14  C4  UNL     1      41.489  43.258  23.867  1.00  0.00     0.013 C 
HETATM   15  C10 UNL     1      39.586  44.751  24.608  1.00  0.00     0.025 C 
HETATM   16  C2  UNL     1      42.486  44.295  23.808  1.00  0.00    -0.044 C 
HETATM   17  C1  UNL     1      43.058  44.542  25.219  1.00  0.00     0.015 C 
HETATM   18  C3  UNL     1      43.712  43.776  23.027  1.00  0.00     0.015 C 
HETATM   19  C12 UNL     1      42.192  45.633  23.247  1.00  0.00    -0.005 C 
HETATM   20  C11 UNL     1      41.219  46.459  24.058  1.00  0.00     0.026 C 
HETATM   21  C13 UNL     1      42.034  45.738  21.785  1.00  0.00     0.018 C 
HETATM   22  C9  UNL     1      39.804  46.069  23.920  1.00  0.00     0.019 C 
HETATM   23 BR1  UNL     1      38.739  47.386  24.897  1.00  0.00    -0.086 Br
ENDBRANCH   7   9
ENDBRANCH   5   7
ENDBRANCH   1   4
BRANCH   3  24
HETATM   24  C18 UNL     1      39.064  47.458  15.466  1.00  0.00     0.036 A 
HETATM   25  C19 UNL     1      38.789  48.064  14.277  1.00  0.00     0.073 A 
HETATM   26  C20 UNL     1      37.728  47.390  13.688  1.00  0.00     0.144 A 
HETATM   27  N3  UNL     1      37.356  46.400  14.478  1.00  0.00    -0.308 N 
HETATM   28  C30 UNL     1      38.168  46.426  15.580  1.00  0.00     0.156 A 
BRANCH  26  29
HETATM   29  O2  UNL     1      37.181  47.744  12.459  1.00  0.00    -0.346 OA
ATOM     30  H2  UNL     1      36.253  47.687  12.262  1.00  0.00     0.219 HD
ENDBRANCH  26  29
BRANCH  27  31
HETATM   31  C21 UNL     1      36.338  45.404  14.340  1.00  0.00     0.136 C 
BRANCH  31  32
HETATM   32  C22 UNL     1      35.026  45.722  14.970  1.00  0.00     0.057 C 
BRANCH  32  33
HETATM   33  C23 UNL     1      34.806  45.024  16.258  1.00  0.00     0.152 C 
BRANCH  33  34
HETATM   34  O3  UNL     1      35.575  43.857  16.319  1.00  0.00    -0.391 OA
ATOM     35  H3  UNL     1      35.085  43.119  15.975  1.00  0.00     0.210 HD
ENDBRANCH  33  34
BRANCH  33  36
HETATM   36  C24 UNL     1      33.385  44.617  16.413  1.00  0.00    -0.030 A 
HETATM   37  C25 UNL     1      33.029  43.835  17.490  1.00  0.00     0.010 A 
HETATM   38  C26 UNL     1      31.704  43.442  17.657  1.00  0.00     0.001 A 
HETATM   39  C27 UNL     1      30.727  43.816  16.764  1.00  0.00     0.000 A 
HETATM   40  C28 UNL     1      31.084  44.597  15.690  1.00  0.00     0.001 A 
HETATM   41  C29 UNL     1      32.414  44.988  15.529  1.00  0.00     0.010 A 
ENDBRANCH  33  36
ENDBRANCH  32  33
ENDBRANCH  31  32
ENDBRANCH  27  31
BRANCH  28  42
HETATM   42  O4  UNL     1      38.114  45.559  16.654  1.00  0.00    -0.345 OA
ATOM     43  H4  UNL     1      37.351  45.437  17.205  1.00  0.00     0.219 HD
ENDBRANCH  28  42
ENDBRANCH   3  24
TORSDOF 11
ENDMDL
