MODEL 1
REMARK VINA RESULT: -7.752751080      0.000      0.000
REMARK  6 active torsions:
REMARK  status: ('A' for Active; 'I' for Inactive)
REMARK       I    between atoms: C3_3  and  N1_5 
REMARK    1  A    between atoms: N1_5  and  C4_6 
REMARK    2  A    between atoms: C4_6  and  C5_10 
REMARK    3  A    between atoms: C5_10  and  O2_11 
REMARK    4  A    between atoms: C6_14  and  C7_15 
REMARK    5  A    between atoms: C7_15  and  C8_16 
REMARK    6  A    between atoms: C8_16  and  O4_17 
ROOT
HETATM    1  C1  UNL     1      47.596  46.376  13.176  1.00  0.00     0.024 C 
HETATM    2  C2  UNL     1      46.568  46.937  12.892  1.00  0.00    -0.001 C 
HETATM    3  C3  UNL     1      45.307  47.645  12.570  1.00  0.00     0.372 C 
HETATM    4  O1  UNL     1      44.314  46.898  12.649  1.00  0.00    -0.241 OA
HETATM    5  N1  UNL     1      45.364  49.012  12.228  1.00  0.00    -0.339 NA
ENDROOT
BRANCH   5   6
HETATM    6  C4  UNL     1      45.414  50.275  11.912  1.00  0.00     0.236 C 
HETATM    7  N2  UNL     1      45.850  51.129  12.875  1.00  0.00    -0.372 N 
ATOM      8  H22 UNL     1      46.082  50.635  13.737  1.00  0.00     0.158 HD
ATOM      9  H21 UNL     1      45.890  52.118  12.628  1.00  0.00     0.158 HD
BRANCH   6  10
HETATM   10  C5  UNL     1      45.071  51.005  10.638  1.00  0.00     0.370 C 
HETATM   11  O3  UNL     1      46.141  51.828  10.326  1.00  0.00    -0.327 OA
HETATM   12  C6  UNL     1      46.069  52.453   9.128  1.00  0.00     0.153 C 
HETATM   13  C9  UNL     1      44.725  52.841   8.637  1.00  0.00     0.222 C 
HETATM   14  O5  UNL     1      43.800  53.212   9.587  1.00  0.00    -0.269 OA
HETATM   15  S1  UNL     1      43.644  52.042  10.815  1.00  0.00     0.335 S 
HETATM   16  O6  UNL     1      43.573  52.787  12.090  1.00  0.00    -0.192 OA
HETATM   17  O7  UNL     1      42.427  51.193  10.586  1.00  0.00    -0.192 OA
BRANCH  10  18
HETATM   18  O2  UNL     1      44.786  50.088   9.653  1.00  0.00    -0.345 OA
ATOM     19  H2  UNL     1      45.190  50.366   8.841  1.00  0.00     0.214 HD
ENDBRANCH  10  18
BRANCH  12  20
HETATM   20  C7  UNL     1      46.980  53.671   9.139  1.00  0.00     0.060 C 
BRANCH  20  21
HETATM   21  C8  UNL     1      48.425  53.244   9.372  1.00  0.00     0.166 C 
BRANCH  21  22
HETATM   22  O4  UNL     1      49.137  53.127   8.182  1.00  0.00    -0.401 OA
ATOM     23  H4  UNL     1      50.032  53.434   8.268  1.00  0.00     0.209 HD
ENDBRANCH  21  22
ENDBRANCH  20  21
ENDBRANCH  12  20
ENDBRANCH   6  10
ENDBRANCH   5   6
TORSDOF 6
ENDMDL
MODEL 2
REMARK VINA RESULT: -7.727910134      1.072      1.150
REMARK  6 active torsions:
REMARK  status: ('A' for Active; 'I' for Inactive)
REMARK       I    between atoms: C3_3  and  N1_5 
REMARK    1  A    between atoms: N1_5  and  C4_6 
REMARK    2  A    between atoms: C4_6  and  C5_10 
REMARK    3  A    between atoms: C5_10  and  O2_11 
REMARK    4  A    between atoms: C6_14  and  C7_15 
REMARK    5  A    between atoms: C7_15  and  C8_16 
REMARK    6  A    between atoms: C8_16  and  O4_17 
ROOT
HETATM    1  C1  UNL     1      45.696  45.585  14.060  1.00  0.00     0.024 C 
HETATM    2  C2  UNL     1      44.925  46.345  13.531  1.00  0.00    -0.001 C 
HETATM    3  C3  UNL     1      43.976  47.298  12.909  1.00  0.00     0.372 C 
HETATM    4  O1  UNL     1      42.867  46.778  12.683  1.00  0.00    -0.241 OA
HETATM    5  N1  UNL     1      44.407  48.616  12.653  1.00  0.00    -0.339 NA
ENDROOT
BRANCH   5   6
HETATM    6  C4  UNL     1      44.803  49.834  12.416  1.00  0.00     0.236 C 
HETATM    7  N2  UNL     1      45.144  50.586  13.494  1.00  0.00    -0.372 N 
ATOM      8  H22 UNL     1      45.035  50.066  14.364  1.00  0.00     0.158 HD
ATOM      9  H21 UNL     1      45.455  51.540  13.309  1.00  0.00     0.158 HD
BRANCH   6  10
HETATM   10  C5  UNL     1      44.965  50.605  11.129  1.00  0.00     0.370 C 
HETATM   11  O3  UNL     1      46.268  51.073  11.083  1.00  0.00    -0.327 OA
HETATM   12  C6  UNL     1      46.636  51.666   9.923  1.00  0.00     0.153 C 
HETATM   13  C9  UNL     1      45.597  52.417   9.178  1.00  0.00     0.222 C 
HETATM   14  O5  UNL     1      44.639  53.062   9.927  1.00  0.00    -0.269 OA
HETATM   15  S1  UNL     1      43.895  52.016  11.046  1.00  0.00     0.335 S 
HETATM   16  O6  UNL     1      43.772  52.777  12.307  1.00  0.00    -0.192 OA
HETATM   17  O7  UNL     1      42.561  51.553  10.532  1.00  0.00    -0.192 OA
BRANCH  10  18
HETATM   18  O2  UNL     1      44.642  49.789  10.069  1.00  0.00    -0.345 OA
ATOM     19  H2  UNL     1      43.699  49.788   9.952  1.00  0.00     0.214 HD
ENDBRANCH  10  18
BRANCH  12  20
HETATM   20  C7  UNL     1      47.835  52.566  10.175  1.00  0.00     0.060 C 
BRANCH  20  21
HETATM   21  C8  UNL     1      48.001  53.553   9.024  1.00  0.00     0.166 C 
BRANCH  21  22
HETATM   22  O4  UNL     1      49.071  53.224   8.198  1.00  0.00    -0.401 OA
ATOM     23  H4  UNL     1      49.852  53.723   8.407  1.00  0.00     0.209 HD
ENDBRANCH  21  22
ENDBRANCH  20  21
ENDBRANCH  12  20
ENDBRANCH   6  10
ENDBRANCH   5   6
TORSDOF 6
ENDMDL
MODEL 3
REMARK VINA RESULT: -7.379886106      0.829      1.247
REMARK  6 active torsions:
REMARK  status: ('A' for Active; 'I' for Inactive)
REMARK       I    between atoms: C3_3  and  N1_5 
REMARK    1  A    between atoms: N1_5  and  C4_6 
REMARK    2  A    between atoms: C4_6  and  C5_10 
REMARK    3  A    between atoms: C5_10  and  O2_11 
REMARK    4  A    between atoms: C6_14  and  C7_15 
REMARK    5  A    between atoms: C7_15  and  C8_16 
REMARK    6  A    between atoms: C8_16  and  O4_17 
ROOT
HETATM    1  C1  UNL     1      43.224  46.336  12.894  1.00  0.00     0.024 C 
HETATM    2  C2  UNL     1      44.263  46.927  12.742  1.00  0.00    -0.001 C 
HETATM    3  C3  UNL     1      45.533  47.657  12.523  1.00  0.00     0.372 C 
HETATM    4  O1  UNL     1      46.529  46.920  12.654  1.00  0.00    -0.241 OA
HETATM    5  N1  UNL     1      45.482  49.030  12.209  1.00  0.00    -0.339 NA
ENDROOT
BRANCH   5   6
HETATM    6  C4  UNL     1      45.436  50.300  11.917  1.00  0.00     0.236 C 
HETATM    7  N2  UNL     1      45.762  51.167  12.911  1.00  0.00    -0.372 N 
ATOM      8  H22 UNL     1      46.003  50.677  13.772  1.00  0.00     0.158 HD
ATOM      9  H21 UNL     1      45.726  52.161  12.683  1.00  0.00     0.158 HD
BRANCH   6  10
HETATM   10  C5  UNL     1      45.078  51.025  10.644  1.00  0.00     0.370 C 
HETATM   11  O3  UNL     1      46.139  51.857  10.324  1.00  0.00    -0.327 OA
HETATM   12  C6  UNL     1      46.054  52.479   9.126  1.00  0.00     0.153 C 
HETATM   13  C9  UNL     1      44.704  52.854   8.643  1.00  0.00     0.222 C 
HETATM   14  O5  UNL     1      43.780  53.217   9.597  1.00  0.00    -0.269 OA
HETATM   15  S1  UNL     1      43.643  52.049  10.828  1.00  0.00     0.335 S 
HETATM   16  O6  UNL     1      43.572  52.795  12.102  1.00  0.00    -0.192 OA
HETATM   17  O7  UNL     1      42.432  51.188  10.608  1.00  0.00    -0.192 OA
BRANCH  10  18
HETATM   18  O2  UNL     1      44.795  50.103   9.663  1.00  0.00    -0.345 OA
ATOM     19  H2  UNL     1      43.855  50.051   9.545  1.00  0.00     0.214 HD
ENDBRANCH  10  18
BRANCH  12  20
HETATM   20  C7  UNL     1      46.953  53.706   9.129  1.00  0.00     0.060 C 
BRANCH  20  21
HETATM   21  C8  UNL     1      48.403  53.293   9.365  1.00  0.00     0.166 C 
BRANCH  21  22
HETATM   22  O4  UNL     1      49.111  53.158   8.174  1.00  0.00    -0.401 OA
ATOM     23  H4  UNL     1      48.785  52.441   7.643  1.00  0.00     0.209 HD
ENDBRANCH  21  22
ENDBRANCH  20  21
ENDBRANCH  12  20
ENDBRANCH   6  10
ENDBRANCH   5   6
TORSDOF 6
ENDMDL
MODEL 4
REMARK VINA RESULT: -7.208295963      2.651      6.152
REMARK  6 active torsions:
REMARK  status: ('A' for Active; 'I' for Inactive)
REMARK       I    between atoms: C3_3  and  N1_5 
REMARK    1  A    between atoms: N1_5  and  C4_6 
REMARK    2  A    between atoms: C4_6  and  C5_10 
REMARK    3  A    between atoms: C5_10  and  O2_11 
REMARK    4  A    between atoms: C6_14  and  C7_15 
REMARK    5  A    between atoms: C7_15  and  C8_16 
REMARK    6  A    between atoms: C8_16  and  O4_17 
ROOT
HETATM    1  C1  UNL     1      40.674  52.118   5.839  1.00  0.00     0.024 C 
HETATM    2  C2  UNL     1      41.789  52.457   6.143  1.00  0.00    -0.001 C 
HETATM    3  C3  UNL     1      43.150  52.880   6.549  1.00  0.00     0.372 C 
HETATM    4  O1  UNL     1      43.490  53.951   6.011  1.00  0.00    -0.241 OA
HETATM    5  N1  UNL     1      43.873  52.071   7.450  1.00  0.00    -0.339 NA
ENDROOT
BRANCH   5   6
HETATM    6  C4  UNL     1      44.542  51.325   8.282  1.00  0.00     0.236 C 
HETATM    7  N2  UNL     1      45.114  50.203   7.773  1.00  0.00    -0.372 N 
ATOM      8  H22 UNL     1      44.928  50.107   6.775  1.00  0.00     0.158 HD
ATOM      9  H21 UNL     1      45.638  49.619   8.424  1.00  0.00     0.158 HD
BRANCH   6  10
HETATM   10  C5  UNL     1      44.817  51.467   9.759  1.00  0.00     0.370 C 
HETATM   11  O3  UNL     1      44.890  50.191  10.295  1.00  0.00    -0.327 OA
HETATM   12  C6  UNL     1      45.279  50.122  11.589  1.00  0.00     0.153 C 
HETATM   13  C9  UNL     1      44.879  51.233  12.485  1.00  0.00     0.222 C 
HETATM   14  O5  UNL     1      43.663  51.828  12.233  1.00  0.00    -0.269 OA
HETATM   15  S1  UNL     1      43.519  52.322  10.610  1.00  0.00     0.335 S 
HETATM   16  O6  UNL     1      42.151  51.956  10.185  1.00  0.00    -0.192 OA
HETATM   17  O7  UNL     1      43.777  53.796  10.481  1.00  0.00    -0.192 OA
BRANCH  10  18
HETATM   18  O2  UNL     1      45.969  52.198   9.936  1.00  0.00    -0.345 OA
ATOM     19  H2  UNL     1      46.370  51.953  10.761  1.00  0.00     0.214 HD
ENDBRANCH  10  18
BRANCH  12  20
HETATM   20  C7  UNL     1      44.823  48.798  12.183  1.00  0.00     0.060 C 
BRANCH  20  21
HETATM   21  C8  UNL     1      44.603  48.945  13.685  1.00  0.00     0.166 C 
BRANCH  21  22
HETATM   22  O4  UNL     1      43.772  47.953  14.194  1.00  0.00    -0.401 OA
ATOM     23  H4  UNL     1      43.175  48.288  14.854  1.00  0.00     0.209 HD
ENDBRANCH  21  22
ENDBRANCH  20  21
ENDBRANCH  12  20
ENDBRANCH   6  10
ENDBRANCH   5   6
TORSDOF 6
ENDMDL
MODEL 5
REMARK VINA RESULT: -7.125091705      2.853      3.937
REMARK  6 active torsions:
REMARK  status: ('A' for Active; 'I' for Inactive)
REMARK       I    between atoms: C3_3  and  N1_5 
REMARK    1  A    between atoms: N1_5  and  C4_6 
REMARK    2  A    between atoms: C4_6  and  C5_10 
REMARK    3  A    between atoms: C5_10  and  O2_11 
REMARK    4  A    between atoms: C6_14  and  C7_15 
REMARK    5  A    between atoms: C7_15  and  C8_16 
REMARK    6  A    between atoms: C8_16  and  O4_17 
ROOT
HETATM    1  C1  UNL     1      46.565  46.542  15.577  1.00  0.00     0.024 C 
HETATM    2  C2  UNL     1      45.636  47.279  15.790  1.00  0.00    -0.001 C 
HETATM    3  C3  UNL     1      44.515  48.210  16.058  1.00  0.00     0.372 C 
HETATM    4  O1  UNL     1      43.881  47.901  17.085  1.00  0.00    -0.241 OA
HETATM    5  N1  UNL     1      44.297  49.285  15.171  1.00  0.00    -0.339 NA
ENDROOT
BRANCH   5   6
HETATM    6  C4  UNL     1      44.095  50.279  14.353  1.00  0.00     0.236 C 
HETATM    7  N2  UNL     1      43.270  51.267  14.784  1.00  0.00    -0.372 N 
ATOM      8  H22 UNL     1      42.916  51.078  15.722  1.00  0.00     0.158 HD
ATOM      9  H21 UNL     1      43.112  52.046  14.144  1.00  0.00     0.158 HD
BRANCH   6  10
HETATM   10  C5  UNL     1      44.619  50.558  12.966  1.00  0.00     0.370 C 
HETATM   11  O3  UNL     1      43.686  51.354  12.320  1.00  0.00    -0.327 OA
HETATM   12  C6  UNL     1      44.060  51.827  11.108  1.00  0.00     0.153 C 
HETATM   13  C9  UNL     1      44.939  50.968  10.279  1.00  0.00     0.222 C 
HETATM   14  O5  UNL     1      44.758  49.607  10.384  1.00  0.00    -0.269 OA
HETATM   15  S1  UNL     1      44.808  49.082  12.003  1.00  0.00     0.335 S 
HETATM   16  O6  UNL     1      43.716  48.098  12.154  1.00  0.00    -0.192 OA
HETATM   17  O7  UNL     1      46.151  48.491  12.326  1.00  0.00    -0.192 OA
BRANCH  10  18
HETATM   18  O2  UNL     1      45.861  51.143  13.060  1.00  0.00    -0.345 OA
ATOM     19  H2  UNL     1      45.757  52.075  13.205  1.00  0.00     0.214 HD
ENDBRANCH  10  18
BRANCH  12  20
HETATM   20  C7  UNL     1      42.822  52.210  10.312  1.00  0.00     0.060 C 
BRANCH  20  21
HETATM   21  C8  UNL     1      43.184  52.413   8.845  1.00  0.00     0.166 C 
BRANCH  21  22
HETATM   22  O4  UNL     1      42.102  52.185   8.000  1.00  0.00    -0.401 OA
ATOM     23  H4  UNL     1      42.174  51.356   7.542  1.00  0.00     0.209 HD
ENDBRANCH  21  22
ENDBRANCH  20  21
ENDBRANCH  12  20
ENDBRANCH   6  10
ENDBRANCH   5   6
TORSDOF 6
ENDMDL
