MODEL 1
REMARK VINA RESULT: -7.262001705      0.000      0.000
REMARK  7 active torsions:
REMARK  status: ('A' for Active; 'I' for Inactive)
REMARK    1  A    between atoms: C2_3  and  O1_4 
REMARK    2  A    between atoms: C2_3  and  C3_6 
REMARK    3  A    between atoms: C2_3  and  C11_21 
REMARK       I    between atoms: C3_6  and  N2_8 
REMARK    4  A    between atoms: N3_11  and  C6_12 
REMARK    5  A    between atoms: C11_21  and  O3_22 
REMARK    6  A    between atoms: C11_21  and  C12_24 
REMARK    7  A    between atoms: C12_24  and  O4_25 
ROOT
HETATM    1  N1  UNL     1      43.097  47.093  12.695  1.00  0.00    -0.193 NA
HETATM    2  C1  UNL     1      43.872  47.792  13.189  1.00  0.00     0.111 C 
HETATM    3  C2  UNL     1      44.871  48.701  13.801  1.00  0.00     0.256 C 
ENDROOT
BRANCH   3   4
HETATM    4  O1  UNL     1      46.110  48.466  13.269  1.00  0.00    -0.366 OA
ATOM      5  H1  UNL     1      46.725  48.244  13.958  1.00  0.00     0.212 HD
ENDBRANCH   3   4
BRANCH   3   6
HETATM    6  C3  UNL     1      44.351  50.074  13.600  1.00  0.00     0.272 C 
HETATM    7  O2  UNL     1      43.710  50.541  14.604  1.00  0.00    -0.269 OA
HETATM    8  N2  UNL     1      44.523  50.832  12.429  1.00  0.00    -0.345 N 
HETATM    9  C4  UNL     1      43.953  52.171  12.380  1.00  0.00     0.146 C 
HETATM   10  C10 UNL     1      45.234  50.354  11.275  1.00  0.00     0.146 C 
HETATM   11  C5  UNL     1      43.067  52.230  11.153  1.00  0.00     0.145 C 
HETATM   12  N3  UNL     1      43.885  51.891  10.005  1.00  0.00    -0.350 N 
HETATM   13  C9  UNL     1      45.246  51.406  10.163  1.00  0.00     0.145 C 
BRANCH  12  14
HETATM   14  C6  UNL     1      43.323  52.046   8.694  1.00  0.00     0.173 C 
HETATM   15  N4  UNL     1      43.959  51.799   7.605  1.00  0.00    -0.361 N 
HETATM   16  C7  UNL     1      43.120  52.053   6.460  1.00  0.00     0.142 C 
ATOM     17  H4  UNL     1      44.923  51.469   7.557  1.00  0.00     0.162 HD
HETATM   18  C8  UNL     1      42.004  52.891   7.035  1.00  0.00     0.142 C 
HETATM   19  N5  UNL     1      42.013  52.491   8.421  1.00  0.00    -0.361 N 
ATOM     20  H5  UNL     1      41.229  52.524   9.073  1.00  0.00     0.162 HD
ENDBRANCH  12  14
ENDBRANCH   3   6
BRANCH   3  21
HETATM   21  C11 UNL     1      44.916  48.334  15.269  1.00  0.00     0.200 C 
BRANCH  21  22
HETATM   22  O3  UNL     1      43.607  48.037  15.660  1.00  0.00    -0.389 OA
ATOM     23  H3  UNL     1      43.594  47.125  15.926  1.00  0.00     0.210 HD
ENDBRANCH  21  22
BRANCH  21  24
HETATM   24  C12 UNL     1      45.770  47.122  15.525  1.00  0.00     0.200 C 
BRANCH  24  25
HETATM   25  O4  UNL     1      46.948  47.554  16.116  1.00  0.00    -0.398 OA
ATOM     26  H4  UNL     1      47.327  48.218  15.554  1.00  0.00     0.209 HD
ENDBRANCH  24  25
ENDBRANCH  21  24
ENDBRANCH   3  21
TORSDOF 7
ENDMDL
MODEL 2
REMARK VINA RESULT: -7.133126142      1.215      1.559
REMARK  7 active torsions:
REMARK  status: ('A' for Active; 'I' for Inactive)
REMARK    1  A    between atoms: C2_3  and  O1_4 
REMARK    2  A    between atoms: C2_3  and  C3_6 
REMARK    3  A    between atoms: C2_3  and  C11_21 
REMARK       I    between atoms: C3_6  and  N2_8 
REMARK    4  A    between atoms: N3_11  and  C6_12 
REMARK    5  A    between atoms: C11_21  and  O3_22 
REMARK    6  A    between atoms: C11_21  and  C12_24 
REMARK    7  A    between atoms: C12_24  and  O4_25 
ROOT
HETATM    1  N1  UNL     1      42.855  46.546  12.895  1.00  0.00    -0.193 NA
HETATM    2  C1  UNL     1      43.835  47.158  12.902  1.00  0.00     0.111 C 
HETATM    3  C2  UNL     1      45.084  47.958  12.890  1.00  0.00     0.256 C 
ENDROOT
BRANCH   3   4
HETATM    4  O1  UNL     1      45.778  47.731  11.733  1.00  0.00    -0.366 OA
ATOM      5  H1  UNL     1      45.176  47.637  11.004  1.00  0.00     0.212 HD
ENDBRANCH   3   4
BRANCH   3   6
HETATM    6  C3  UNL     1      44.672  49.364  13.111  1.00  0.00     0.272 C 
HETATM    7  O2  UNL     1      44.289  49.613  14.307  1.00  0.00    -0.269 OA
HETATM    8  N2  UNL     1      44.683  50.366  12.125  1.00  0.00    -0.345 N 
HETATM    9  C4  UNL     1      44.249  51.705  12.494  1.00  0.00     0.146 C 
HETATM   10  C10 UNL     1      45.103  50.137  10.770  1.00  0.00     0.146 C 
HETATM   11  C5  UNL     1      43.149  52.095  11.529  1.00  0.00     0.145 C 
HETATM   12  N3  UNL     1      43.688  51.995  10.187  1.00  0.00    -0.350 N 
HETATM   13  C9  UNL     1      44.999  51.419   9.940  1.00  0.00     0.145 C 
BRANCH  12  14
HETATM   14  C6  UNL     1      42.897  52.480   9.093  1.00  0.00     0.173 C 
HETATM   15  N4  UNL     1      41.966  53.358   9.213  1.00  0.00    -0.361 N 
HETATM   16  C7  UNL     1      41.362  53.633   7.932  1.00  0.00     0.142 C 
ATOM     17  H4  UNL     1      41.693  53.800  10.090  1.00  0.00     0.162 HD
HETATM   18  C8  UNL     1      41.809  52.465   7.087  1.00  0.00     0.142 C 
HETATM   19  N5  UNL     1      43.024  52.063   7.752  1.00  0.00    -0.361 N 
ATOM     20  H5  UNL     1      43.817  51.575   7.335  1.00  0.00     0.162 HD
ENDBRANCH  12  14
ENDBRANCH   3   6
BRANCH   3  21
HETATM   21  C11 UNL     1      45.915  47.436  14.043  1.00  0.00     0.200 C 
BRANCH  21  22
HETATM   22  O3  UNL     1      45.027  46.951  15.007  1.00  0.00    -0.389 OA
ATOM     23  H3  UNL     1      45.510  46.878  15.822  1.00  0.00     0.210 HD
ENDBRANCH  21  22
BRANCH  21  24
HETATM   24  C12 UNL     1      46.818  46.307  13.625  1.00  0.00     0.200 C 
BRANCH  24  25
HETATM   25  O4  UNL     1      47.961  46.864  13.070  1.00  0.00    -0.398 OA
ATOM     26  H4  UNL     1      47.738  47.735  12.764  1.00  0.00     0.209 HD
ENDBRANCH  24  25
ENDBRANCH  21  24
ENDBRANCH   3  21
TORSDOF 7
ENDMDL
MODEL 3
REMARK VINA RESULT: -6.818004327      3.025      7.377
REMARK  7 active torsions:
REMARK  status: ('A' for Active; 'I' for Inactive)
REMARK    1  A    between atoms: C2_3  and  O1_4 
REMARK    2  A    between atoms: C2_3  and  C3_6 
REMARK    3  A    between atoms: C2_3  and  C11_21 
REMARK       I    between atoms: C3_6  and  N2_8 
REMARK    4  A    between atoms: N3_11  and  C6_12 
REMARK    5  A    between atoms: C11_21  and  O3_22 
REMARK    6  A    between atoms: C11_21  and  C12_24 
REMARK    7  A    between atoms: C12_24  and  O4_25 
ROOT
HETATM    1  N1  UNL     1      43.468  52.932  12.308  1.00  0.00    -0.193 NA
HETATM    2  C1  UNL     1      44.096  51.962  12.298  1.00  0.00     0.111 C 
HETATM    3  C2  UNL     1      44.912  50.724  12.307  1.00  0.00     0.256 C 
ENDROOT
BRANCH   3   4
HETATM    4  O1  UNL     1      46.242  51.037  12.237  1.00  0.00    -0.366 OA
ATOM      5  H1  UNL     1      46.376  51.769  11.648  1.00  0.00     0.212 HD
ENDBRANCH   3   4
BRANCH   3   6
HETATM    6  C3  UNL     1      44.505  49.976  13.519  1.00  0.00     0.272 C 
HETATM    7  O2  UNL     1      43.824  50.665  14.355  1.00  0.00    -0.269 OA
HETATM    8  N2  UNL     1      44.817  48.628  13.770  1.00  0.00    -0.345 N 
HETATM    9  C4  UNL     1      44.345  48.027  15.009  1.00  0.00     0.146 C 
HETATM   10  C10 UNL     1      45.578  47.811  12.866  1.00  0.00     0.146 C 
HETATM   11  C5  UNL     1      45.557  47.452  15.711  1.00  0.00     0.145 C 
HETATM   12  N3  UNL     1      46.188  46.516  14.801  1.00  0.00    -0.350 N 
HETATM   13  C9  UNL     1      45.753  46.395  13.420  1.00  0.00     0.145 C 
BRANCH  12  14
HETATM   14  C6  UNL     1      47.262  45.702  15.292  1.00  0.00     0.173 C 
HETATM   15  N4  UNL     1      48.020  44.983  14.543  1.00  0.00    -0.361 N 
HETATM   16  C7  UNL     1      49.001  44.284  15.337  1.00  0.00     0.142 C 
ATOM     17  H4  UNL     1      47.939  44.915  13.529  1.00  0.00     0.162 HD
HETATM   18  C8  UNL     1      48.440  44.384  16.735  1.00  0.00     0.142 C 
HETATM   19  N5  UNL     1      47.628  45.573  16.648  1.00  0.00    -0.361 N 
ATOM     20  H5  UNL     1      47.370  46.195  17.414  1.00  0.00     0.162 HD
ENDBRANCH  12  14
ENDBRANCH   3   6
BRANCH   3  21
HETATM   21  C11 UNL     1      44.540  49.978  11.044  1.00  0.00     0.200 C 
BRANCH  21  22
HETATM   22  O3  UNL     1      43.214  50.303  10.747  1.00  0.00    -0.389 OA
ATOM     23  H3  UNL     1      42.676  49.573  11.029  1.00  0.00     0.210 HD
ENDBRANCH  21  22
BRANCH  21  24
HETATM   24  C12 UNL     1      45.396  50.382   9.874  1.00  0.00     0.200 C 
BRANCH  24  25
HETATM   25  O4  UNL     1      45.058  49.567   8.803  1.00  0.00    -0.398 OA
ATOM     26  H4  UNL     1      45.799  49.000   8.626  1.00  0.00     0.209 HD
ENDBRANCH  24  25
ENDBRANCH  21  24
ENDBRANCH   3  21
TORSDOF 7
ENDMDL
MODEL 4
REMARK VINA RESULT: -6.672102699      1.456      1.726
REMARK  7 active torsions:
REMARK  status: ('A' for Active; 'I' for Inactive)
REMARK    1  A    between atoms: C2_3  and  O1_4 
REMARK    2  A    between atoms: C2_3  and  C3_6 
REMARK    3  A    between atoms: C2_3  and  C11_21 
REMARK       I    between atoms: C3_6  and  N2_8 
REMARK    4  A    between atoms: N3_11  and  C6_12 
REMARK    5  A    between atoms: C11_21  and  O3_22 
REMARK    6  A    between atoms: C11_21  and  C12_24 
REMARK    7  A    between atoms: C12_24  and  O4_25 
ROOT
HETATM    1  N1  UNL     1      43.895  48.027  16.665  1.00  0.00    -0.193 NA
HETATM    2  C1  UNL     1      44.079  48.172  15.534  1.00  0.00     0.111 C 
HETATM    3  C2  UNL     1      44.290  48.369  14.080  1.00  0.00     0.256 C 
ENDROOT
BRANCH   3   4
HETATM    4  O1  UNL     1      43.376  47.643  13.368  1.00  0.00    -0.366 OA
ATOM      5  H1  UNL     1      42.757  48.224  12.941  1.00  0.00     0.212 HD
ENDBRANCH   3   4
BRANCH   3   6
HETATM    6  C3  UNL     1      44.244  49.833  13.855  1.00  0.00     0.272 C 
HETATM    7  O2  UNL     1      43.905  50.509  14.887  1.00  0.00    -0.269 OA
HETATM    8  N2  UNL     1      44.538  50.465  12.634  1.00  0.00    -0.345 N 
HETATM    9  C4  UNL     1      44.450  51.917  12.566  1.00  0.00     0.146 C 
HETATM   10  C10 UNL     1      44.923  49.752  11.447  1.00  0.00     0.146 C 
HETATM   11  C5  UNL     1      43.513  52.250  11.424  1.00  0.00     0.145 C 
HETATM   12  N3  UNL     1      44.046  51.632  10.226  1.00  0.00    -0.350 N 
HETATM   13  C9  UNL     1      45.173  50.717  10.285  1.00  0.00     0.145 C 
BRANCH  12  14
HETATM   14  C6  UNL     1      43.436  51.943   8.965  1.00  0.00     0.173 C 
HETATM   15  N4  UNL     1      44.054  51.911   7.839  1.00  0.00    -0.361 N 
HETATM   16  C7  UNL     1      43.165  52.275   6.763  1.00  0.00     0.142 C 
ATOM     17  H4  UNL     1      45.037  51.663   7.723  1.00  0.00     0.162 HD
HETATM   18  C8  UNL     1      42.012  52.933   7.481  1.00  0.00     0.142 C 
HETATM   19  N5  UNL     1      42.090  52.329   8.789  1.00  0.00    -0.361 N 
ATOM     20  H5  UNL     1      41.326  52.205   9.452  1.00  0.00     0.162 HD
ENDBRANCH  12  14
ENDBRANCH   3   6
BRANCH   3  21
HETATM   21  C11 UNL     1      45.665  47.807  13.785  1.00  0.00     0.200 C 
BRANCH  21  22
HETATM   22  O3  UNL     1      46.302  47.609  15.013  1.00  0.00    -0.389 OA
ATOM     23  H3  UNL     1      46.151  48.388  15.537  1.00  0.00     0.210 HD
ENDBRANCH  21  22
BRANCH  21  24
HETATM   24  C12 UNL     1      45.595  46.482  13.074  1.00  0.00     0.200 C 
BRANCH  24  25
HETATM   25  O4  UNL     1      45.476  45.492  14.038  1.00  0.00    -0.398 OA
ATOM     26  H4  UNL     1      45.731  45.869  14.872  1.00  0.00     0.209 HD
ENDBRANCH  24  25
ENDBRANCH  21  24
ENDBRANCH   3  21
TORSDOF 7
ENDMDL
MODEL 5
REMARK VINA RESULT: -6.617432186      1.232      1.549
REMARK  7 active torsions:
REMARK  status: ('A' for Active; 'I' for Inactive)
REMARK    1  A    between atoms: C2_3  and  O1_4 
REMARK    2  A    between atoms: C2_3  and  C3_6 
REMARK    3  A    between atoms: C2_3  and  C11_21 
REMARK       I    between atoms: C3_6  and  N2_8 
REMARK    4  A    between atoms: N3_11  and  C6_12 
REMARK    5  A    between atoms: C11_21  and  O3_22 
REMARK    6  A    between atoms: C11_21  and  C12_24 
REMARK    7  A    between atoms: C12_24  and  O4_25 
ROOT
HETATM    1  N1  UNL     1      42.777  46.276  12.547  1.00  0.00    -0.193 NA
HETATM    2  C1  UNL     1      43.761  46.751  12.923  1.00  0.00     0.111 C 
HETATM    3  C2  UNL     1      45.024  47.376  13.384  1.00  0.00     0.256 C 
ENDROOT
BRANCH   3   4
HETATM    4  O1  UNL     1      46.029  47.121  12.492  1.00  0.00    -0.366 OA
ATOM      5  H1  UNL     1      46.848  47.483  12.809  1.00  0.00     0.212 HD
ENDBRANCH   3   4
BRANCH   3   6
HETATM    6  C3  UNL     1      44.717  48.810  13.593  1.00  0.00     0.272 C 
HETATM    7  O2  UNL     1      44.257  49.081  14.756  1.00  0.00    -0.269 OA
HETATM    8  N2  UNL     1      44.901  49.817  12.629  1.00  0.00    -0.345 N 
HETATM    9  C4  UNL     1      44.553  51.186  12.983  1.00  0.00     0.146 C 
HETATM   10  C10 UNL     1      45.414  49.565  11.311  1.00  0.00     0.146 C 
HETATM   11  C5  UNL     1      43.579  51.679  11.934  1.00  0.00     0.145 C 
HETATM   12  N3  UNL     1      44.221  51.545  10.641  1.00  0.00    -0.350 N 
HETATM   13  C9  UNL     1      45.493  50.859  10.497  1.00  0.00     0.145 C 
BRANCH  12  14
HETATM   14  C6  UNL     1      43.572  52.109   9.493  1.00  0.00     0.173 C 
HETATM   15  N4  UNL     1      42.299  52.239   9.377  1.00  0.00    -0.361 N 
HETATM   16  C7  UNL     1      41.964  52.838   8.109  1.00  0.00     0.142 C 
ATOM     17  H4  UNL     1      41.619  51.958  10.084  1.00  0.00     0.162 HD
HETATM   18  C8  UNL     1      43.230  52.667   7.306  1.00  0.00     0.142 C 
HETATM   19  N5  UNL     1      44.232  52.588   8.341  1.00  0.00    -0.361 N 
ATOM     20  H5  UNL     1      45.219  52.829   8.258  1.00  0.00     0.162 HD
ENDBRANCH  12  14
ENDBRANCH   3   6
BRANCH   3  21
HETATM   21  C11 UNL     1      45.370  46.687  14.687  1.00  0.00     0.200 C 
BRANCH  21  22
HETATM   22  O3  UNL     1      45.217  45.313  14.482  1.00  0.00    -0.389 OA
ATOM     23  H3  UNL     1      45.725  45.085  13.713  1.00  0.00     0.210 HD
ENDBRANCH  21  22
BRANCH  21  24
HETATM   24  C12 UNL     1      46.794  46.944  15.103  1.00  0.00     0.200 C 
BRANCH  24  25
HETATM   25  O4  UNL     1      46.765  47.745  16.235  1.00  0.00    -0.398 OA
ATOM     26  H4  UNL     1      46.612  48.639  15.952  1.00  0.00     0.209 HD
ENDBRANCH  24  25
ENDBRANCH  21  24
ENDBRANCH   3  21
TORSDOF 7
ENDMDL
