MODEL 1
REMARK VINA RESULT: -10.225992438      0.000      0.000
REMARK  8 active torsions:
REMARK  status: ('A' for Active; 'I' for Inactive)
REMARK    1  A    between atoms: C2_2  and  C18_30 
REMARK    2  A    between atoms: C3_3  and  C4_5 
REMARK       I    between atoms: C4_5  and  N1_7 
REMARK    3  A    between atoms: N1_7  and  C5_9 
REMARK    4  A    between atoms: N2_12  and  C8_13 
REMARK    5  A    between atoms: C8_13  and  C9_14 
REMARK    6  A    between atoms: C9_14  and  N3_15 
REMARK       I    between atoms: N3_15  and  C10_17 
REMARK    7  A    between atoms: C10_17  and  C11_19 
REMARK    8  A    between atoms: C12_21  and  O4_22 
ROOT
HETATM    1  C5  UNL     1      16.092 -30.154  -3.392  1.00  0.00     0.091 C 
HETATM    2  C6  UNL     1      16.186 -30.569  -4.842  1.00  0.00     0.045 C 
HETATM    3  C7  UNL     1      14.911 -31.273  -5.240  1.00  0.00     0.124 C 
HETATM    4  N2  UNL     1      13.835 -30.879  -4.408  1.00  0.00    -0.392 N 
HETATM    5  C16 UNL     1      13.897 -31.196  -3.037  1.00  0.00     0.060 C 
HETATM    6  C17 UNL     1      15.358 -31.199  -2.590  1.00  0.00     0.069 C 
ENDROOT
BRANCH   1   7
HETATM    7  N1  UNL     1      17.458 -29.971  -2.880  1.00  0.00    -0.350 N 
HETATM    8  C4  UNL     1      18.016 -28.698  -2.833  1.00  0.00     0.281 C 
HETATM    9  O1  UNL     1      17.236 -27.750  -3.248  1.00  0.00    -0.265 OA
ATOM     10  H1  UNL     1      17.995 -30.776  -2.560  1.00  0.00     0.163 HD
BRANCH   8  11
HETATM   11  C3  UNL     1      19.312 -28.346  -2.383  1.00  0.00     0.190 C 
HETATM   12  C2  UNL     1      19.739 -27.596  -1.433  1.00  0.00    -0.007 C 
HETATM   13  C1  UNL     1      21.236 -27.290  -1.333  1.00  0.00     0.052 C 
HETATM   14  F1  UNL     1      20.349 -28.811  -3.232  1.00  0.00    -0.200 F 
BRANCH  12  15
HETATM   15  C18 UNL     1      18.999 -27.072  -0.305  1.00  0.00    -0.025 A 
HETATM   16  C19 UNL     1      19.230 -27.523   0.998  1.00  0.00     0.014 A 
HETATM   17  C20 UNL     1      18.532 -27.033   2.073  1.00  0.00     0.026 A 
HETATM   18  C21 UNL     1      17.564 -26.058   1.870  1.00  0.00     0.055 A 
HETATM   19 CL1  UNL     1      16.637 -25.389   3.191  1.00  0.00    -0.083 Cl
HETATM   20  C22 UNL     1      17.334 -25.610   0.580  1.00  0.00     0.056 A 
HETATM   21 CL2  UNL     1      16.108 -24.376   0.321  1.00  0.00    -0.083 Cl
HETATM   22  C23 UNL     1      18.038 -26.107  -0.492  1.00  0.00     0.037 A 
ENDBRANCH  12  15
ENDBRANCH   8  11
ENDBRANCH   1   7
BRANCH   4  23
HETATM   23  C8  UNL     1      13.038 -29.791  -4.832  1.00  0.00     0.141 C 
BRANCH  23  24
HETATM   24  C9  UNL     1      13.151 -28.544  -4.022  1.00  0.00     0.142 C 
BRANCH  24  25
HETATM   25  N3  UNL     1      12.033 -27.684  -4.273  1.00  0.00    -0.357 N 
HETATM   26  C10 UNL     1      11.962 -26.341  -3.830  1.00  0.00     0.257 C 
HETATM   27  O2  UNL     1      12.888 -25.825  -3.179  1.00  0.00    -0.270 OA
ATOM     28  H3  UNL     1      11.245 -28.060  -4.799  1.00  0.00     0.162 HD
BRANCH  26  29
HETATM   29  C11 UNL     1      10.771 -25.507  -4.132  1.00  0.00     0.278 C 
HETATM   30  O3  UNL     1      10.380 -25.698  -5.455  1.00  0.00    -0.335 OA
HETATM   31  C12 UNL     1       9.491 -24.718  -5.808  1.00  0.00     0.276 C 
HETATM   32  C13 UNL     1      10.236 -23.375  -5.738  1.00  0.00     0.053 C 
HETATM   33  C14 UNL     1       9.281 -22.255  -5.486  1.00  0.00     0.032 C 
HETATM   34  C15 UNL     1      11.136 -23.169  -6.914  1.00  0.00     0.032 C 
HETATM   35  S1  UNL     1      11.216 -23.720  -4.216  1.00  0.00    -0.114 SA
BRANCH  31  36
HETATM   36  O4  UNL     1       9.082 -24.934  -7.099  1.00  0.00    -0.370 OA
ATOM     37  H4  UNL     1       8.264 -24.473  -7.244  1.00  0.00     0.212 HD
ENDBRANCH  31  36
ENDBRANCH  26  29
ENDBRANCH  24  25
ENDBRANCH  23  24
ENDBRANCH   4  23
TORSDOF 8
ENDMDL
MODEL 2
REMARK VINA RESULT: -10.216149256      0.534      1.212
REMARK  8 active torsions:
REMARK  status: ('A' for Active; 'I' for Inactive)
REMARK    1  A    between atoms: C2_2  and  C18_30 
REMARK    2  A    between atoms: C3_3  and  C4_5 
REMARK       I    between atoms: C4_5  and  N1_7 
REMARK    3  A    between atoms: N1_7  and  C5_9 
REMARK    4  A    between atoms: N2_12  and  C8_13 
REMARK    5  A    between atoms: C8_13  and  C9_14 
REMARK    6  A    between atoms: C9_14  and  N3_15 
REMARK       I    between atoms: N3_15  and  C10_17 
REMARK    7  A    between atoms: C10_17  and  C11_19 
REMARK    8  A    between atoms: C12_21  and  O4_22 
ROOT
HETATM    1  C5  UNL     1      16.122 -30.162  -3.415  1.00  0.00     0.091 C 
HETATM    2  C6  UNL     1      16.192 -30.587  -4.864  1.00  0.00     0.045 C 
HETATM    3  C7  UNL     1      14.908 -31.289  -5.236  1.00  0.00     0.124 C 
HETATM    4  N2  UNL     1      13.847 -30.886  -4.390  1.00  0.00    -0.392 N 
HETATM    5  C16 UNL     1      13.930 -31.193  -3.018  1.00  0.00     0.060 C 
HETATM    6  C17 UNL     1      15.399 -31.198  -2.594  1.00  0.00     0.069 C 
ENDROOT
BRANCH   1   7
HETATM    7  N1  UNL     1      17.497 -29.979  -2.926  1.00  0.00    -0.350 N 
HETATM    8  C4  UNL     1      18.031 -28.700  -2.818  1.00  0.00     0.281 C 
HETATM    9  O1  UNL     1      17.222 -27.746  -3.158  1.00  0.00    -0.265 OA
ATOM     10  H1  UNL     1      18.058 -30.791  -2.667  1.00  0.00     0.163 HD
BRANCH   8  11
HETATM   11  C3  UNL     1      19.331 -28.347  -2.380  1.00  0.00     0.190 C 
HETATM   12  C2  UNL     1      19.765 -27.565  -1.459  1.00  0.00    -0.007 C 
HETATM   13  C1  UNL     1      21.266 -27.275  -1.368  1.00  0.00     0.052 C 
HETATM   14  F1  UNL     1      20.363 -28.860  -3.206  1.00  0.00    -0.200 F 
BRANCH  12  15
HETATM   15  C18 UNL     1      19.030 -26.987  -0.355  1.00  0.00    -0.025 A 
HETATM   16  C19 UNL     1      18.268 -25.825  -0.508  1.00  0.00     0.014 A 
HETATM   17  C20 UNL     1      17.570 -25.269   0.534  1.00  0.00     0.026 A 
HETATM   18  C21 UNL     1      17.615 -25.873   1.784  1.00  0.00     0.055 A 
HETATM   19 CL1  UNL     1      16.752 -25.221   3.156  1.00  0.00    -0.083 Cl
HETATM   20  C22 UNL     1      18.370 -27.024   1.937  1.00  0.00     0.056 A 
HETATM   21 CL2  UNL     1      18.429 -27.789   3.520  1.00  0.00    -0.083 Cl
HETATM   22  C23 UNL     1      19.067 -27.575   0.888  1.00  0.00     0.037 A 
ENDBRANCH  12  15
ENDBRANCH   8  11
ENDBRANCH   1   7
BRANCH   4  23
HETATM   23  C8  UNL     1      13.047 -29.798  -4.809  1.00  0.00     0.141 C 
BRANCH  23  24
HETATM   24  C9  UNL     1      13.154 -28.556  -3.991  1.00  0.00     0.142 C 
BRANCH  24  25
HETATM   25  N3  UNL     1      12.036 -27.696  -4.242  1.00  0.00    -0.357 N 
HETATM   26  C10 UNL     1      11.964 -26.353  -3.800  1.00  0.00     0.257 C 
HETATM   27  O2  UNL     1      12.890 -25.837  -3.149  1.00  0.00    -0.270 OA
ATOM     28  H3  UNL     1      11.248 -28.072  -4.769  1.00  0.00     0.162 HD
BRANCH  26  29
HETATM   29  C11 UNL     1      10.773 -25.519  -4.103  1.00  0.00     0.278 C 
HETATM   30  O3  UNL     1      10.379 -25.715  -5.425  1.00  0.00    -0.335 OA
HETATM   31  C12 UNL     1       9.491 -24.736  -5.780  1.00  0.00     0.276 C 
HETATM   32  C13 UNL     1      10.237 -23.393  -5.718  1.00  0.00     0.053 C 
HETATM   33  C14 UNL     1       9.283 -22.272  -5.468  1.00  0.00     0.032 C 
HETATM   34  C15 UNL     1      11.135 -23.193  -6.896  1.00  0.00     0.032 C 
HETATM   35  S1  UNL     1      11.220 -23.733  -4.196  1.00  0.00    -0.114 SA
BRANCH  31  36
HETATM   36  O4  UNL     1       9.079 -24.957  -7.069  1.00  0.00    -0.370 OA
ATOM     37  H4  UNL     1       8.313 -24.423  -7.243  1.00  0.00     0.212 HD
ENDBRANCH  31  36
ENDBRANCH  26  29
ENDBRANCH  24  25
ENDBRANCH  23  24
ENDBRANCH   4  23
TORSDOF 8
ENDMDL
MODEL 3
REMARK VINA RESULT: -9.564899857      2.858      3.646
REMARK  8 active torsions:
REMARK  status: ('A' for Active; 'I' for Inactive)
REMARK    1  A    between atoms: C2_2  and  C18_30 
REMARK    2  A    between atoms: C3_3  and  C4_5 
REMARK       I    between atoms: C4_5  and  N1_7 
REMARK    3  A    between atoms: N1_7  and  C5_9 
REMARK    4  A    between atoms: N2_12  and  C8_13 
REMARK    5  A    between atoms: C8_13  and  C9_14 
REMARK    6  A    between atoms: C9_14  and  N3_15 
REMARK       I    between atoms: N3_15  and  C10_17 
REMARK    7  A    between atoms: C10_17  and  C11_19 
REMARK    8  A    between atoms: C12_21  and  O4_22 
ROOT
HETATM    1  C5  UNL     1      16.413 -29.584  -2.700  1.00  0.00     0.091 C 
HETATM    2  C6  UNL     1      16.658 -29.592  -4.192  1.00  0.00     0.045 C 
HETATM    3  C7  UNL     1      15.895 -30.738  -4.811  1.00  0.00     0.124 C 
HETATM    4  N2  UNL     1      14.794 -31.109  -4.004  1.00  0.00    -0.392 N 
HETATM    5  C16 UNL     1      15.048 -31.624  -2.718  1.00  0.00     0.060 C 
HETATM    6  C17 UNL     1      16.327 -30.992  -2.170  1.00  0.00     0.069 C 
ENDROOT
BRANCH   1   7
HETATM    7  N1  UNL     1      17.519 -28.855  -2.060  1.00  0.00    -0.350 N 
HETATM    8  C4  UNL     1      17.392 -27.496  -1.796  1.00  0.00     0.281 C 
HETATM    9  O1  UNL     1      16.253 -26.981  -2.140  1.00  0.00    -0.265 OA
ATOM     10  H1  UNL     1      18.377 -29.346  -1.811  1.00  0.00     0.163 HD
BRANCH   8  11
HETATM   11  C3  UNL     1      18.355 -26.644  -1.201  1.00  0.00     0.190 C 
HETATM   12  C2  UNL     1      19.595 -26.792  -0.905  1.00  0.00    -0.007 C 
HETATM   13  C1  UNL     1      20.307 -25.706  -0.093  1.00  0.00     0.052 C 
HETATM   14  F1  UNL     1      17.809 -25.427  -0.717  1.00  0.00    -0.200 F 
BRANCH  12  15
HETATM   15  C18 UNL     1      20.507 -27.822  -1.355  1.00  0.00    -0.025 A 
HETATM   16  C19 UNL     1      20.339 -28.465  -2.584  1.00  0.00     0.014 A 
HETATM   17  C20 UNL     1      21.197 -29.443  -3.018  1.00  0.00     0.026 A 
HETATM   18  C21 UNL     1      22.271 -29.813  -2.217  1.00  0.00     0.055 A 
HETATM   19 CL1  UNL     1      23.403 -31.050  -2.704  1.00  0.00    -0.083 Cl
HETATM   20  C22 UNL     1      22.438 -29.175  -0.999  1.00  0.00     0.056 A 
HETATM   21 CL2  UNL     1      23.796 -29.642   0.017  1.00  0.00    -0.083 Cl
HETATM   22  C23 UNL     1      21.573 -28.196  -0.571  1.00  0.00     0.037 A 
ENDBRANCH  12  15
ENDBRANCH   8  11
ENDBRANCH   1   7
BRANCH   4  23
HETATM   23  C8  UNL     1      13.546 -30.500  -4.271  1.00  0.00     0.141 C 
BRANCH  23  24
HETATM   24  C9  UNL     1      13.486 -29.638  -5.487  1.00  0.00     0.142 C 
BRANCH  24  25
HETATM   25  N3  UNL     1      12.391 -28.718  -5.391  1.00  0.00    -0.357 N 
HETATM   26  C10 UNL     1      12.380 -27.600  -4.523  1.00  0.00     0.257 C 
HETATM   27  O2  UNL     1      13.342 -27.354  -3.775  1.00  0.00    -0.270 OA
ATOM     28  H3  UNL     1      11.575 -28.878  -5.981  1.00  0.00     0.162 HD
BRANCH  26  29
HETATM   29  C11 UNL     1      11.210 -26.686  -4.482  1.00  0.00     0.278 C 
HETATM   30  O3  UNL     1      11.159 -25.927  -5.649  1.00  0.00    -0.335 OA
HETATM   31  C12 UNL     1      10.279 -24.893  -5.476  1.00  0.00     0.276 C 
HETATM   32  C13 UNL     1      10.841 -23.991  -4.365  1.00  0.00     0.053 C 
HETATM   33  C14 UNL     1       9.740 -23.247  -3.683  1.00  0.00     0.032 C 
HETATM   34  C15 UNL     1      11.962 -23.132  -4.852  1.00  0.00     0.032 C 
HETATM   35  S1  UNL     1      11.472 -25.328  -3.264  1.00  0.00    -0.114 SA
BRANCH  31  36
HETATM   36  O4  UNL     1      10.204 -24.173  -6.640  1.00  0.00    -0.370 OA
ATOM     37  H4  UNL     1       9.662 -24.645  -7.260  1.00  0.00     0.212 HD
ENDBRANCH  31  36
ENDBRANCH  26  29
ENDBRANCH  24  25
ENDBRANCH  23  24
ENDBRANCH   4  23
TORSDOF 8
ENDMDL
MODEL 4
REMARK VINA RESULT: -9.314020085      3.559      4.519
REMARK  8 active torsions:
REMARK  status: ('A' for Active; 'I' for Inactive)
REMARK    1  A    between atoms: C2_2  and  C18_30 
REMARK    2  A    between atoms: C3_3  and  C4_5 
REMARK       I    between atoms: C4_5  and  N1_7 
REMARK    3  A    between atoms: N1_7  and  C5_9 
REMARK    4  A    between atoms: N2_12  and  C8_13 
REMARK    5  A    between atoms: C8_13  and  C9_14 
REMARK    6  A    between atoms: C9_14  and  N3_15 
REMARK       I    between atoms: N3_15  and  C10_17 
REMARK    7  A    between atoms: C10_17  and  C11_19 
REMARK    8  A    between atoms: C12_21  and  O4_22 
ROOT
HETATM    1  C5  UNL     1      17.453 -29.285  -2.220  1.00  0.00     0.091 C 
HETATM    2  C6  UNL     1      17.699 -28.840  -3.644  1.00  0.00     0.045 C 
HETATM    3  C7  UNL     1      16.640 -29.437  -4.539  1.00  0.00     0.124 C 
HETATM    4  N2  UNL     1      15.470 -29.744  -3.805  1.00  0.00    -0.392 N 
HETATM    5  C16 UNL     1      15.549 -30.725  -2.797  1.00  0.00     0.060 C 
HETATM    6  C17 UNL     1      16.952 -30.706  -2.190  1.00  0.00     0.069 C 
ENDROOT
BRANCH   1   7
HETATM    7  N1  UNL     1      18.717 -29.164  -1.479  1.00  0.00    -0.350 N 
HETATM    8  C4  UNL     1      19.138 -27.920  -1.025  1.00  0.00     0.281 C 
HETATM    9  O1  UNL     1      18.330 -26.943  -1.296  1.00  0.00    -0.265 OA
ATOM     10  H1  UNL     1      19.284 -29.993  -1.299  1.00  0.00     0.163 HD
BRANCH   8  11
HETATM   11  C3  UNL     1      20.325 -27.623  -0.310  1.00  0.00     0.190 C 
HETATM   12  C2  UNL     1      21.507 -28.121  -0.327  1.00  0.00    -0.007 C 
HETATM   13  C1  UNL     1      22.527 -27.669   0.723  1.00  0.00     0.052 C 
HETATM   14  F1  UNL     1      20.137 -26.671   0.724  1.00  0.00    -0.200 F 
BRANCH  12  15
HETATM   15  C18 UNL     1      22.097 -28.994  -1.319  1.00  0.00    -0.025 A 
HETATM   16  C19 UNL     1      21.311 -29.775  -2.170  1.00  0.00     0.014 A 
HETATM   17  C20 UNL     1      21.862 -30.607  -3.112  1.00  0.00     0.026 A 
HETATM   18  C21 UNL     1      23.244 -30.682  -3.231  1.00  0.00     0.055 A 
HETATM   19 CL1  UNL     1      24.015 -31.720  -4.406  1.00  0.00    -0.083 Cl
HETATM   20  C22 UNL     1      24.024 -29.909  -2.388  1.00  0.00     0.056 A 
HETATM   21 CL2  UNL     1      25.774 -30.003  -2.536  1.00  0.00    -0.083 Cl
HETATM   22  C23 UNL     1      23.464 -29.077  -1.446  1.00  0.00     0.037 A 
ENDBRANCH  12  15
ENDBRANCH   8  11
ENDBRANCH   1   7
BRANCH   4  23
HETATM   23  C8  UNL     1      14.459 -28.758  -3.734  1.00  0.00     0.141 C 
BRANCH  23  24
HETATM   24  C9  UNL     1      13.067 -29.230  -3.992  1.00  0.00     0.142 C 
BRANCH  24  25
HETATM   25  N3  UNL     1      12.175 -28.114  -4.101  1.00  0.00    -0.357 N 
HETATM   26  C10 UNL     1      11.824 -27.508  -5.331  1.00  0.00     0.257 C 
HETATM   27  O2  UNL     1      12.287 -27.920  -6.409  1.00  0.00    -0.270 OA
ATOM     28  H3  UNL     1      11.771 -27.735  -3.244  1.00  0.00     0.162 HD
BRANCH  26  29
HETATM   29  C11 UNL     1      10.888 -26.355  -5.367  1.00  0.00     0.278 C 
HETATM   30  O3  UNL     1      11.412 -25.342  -6.167  1.00  0.00    -0.335 OA
HETATM   31  C12 UNL     1      10.706 -24.190  -5.955  1.00  0.00     0.276 C 
HETATM   32  C13 UNL     1      10.927 -23.779  -4.490  1.00  0.00     0.053 C 
HETATM   33  C14 UNL     1       9.778 -22.964  -3.993  1.00  0.00     0.032 C 
HETATM   34  C15 UNL     1      12.268 -23.155  -4.276  1.00  0.00     0.032 C 
HETATM   35  S1  UNL     1      10.865 -25.467  -3.753  1.00  0.00    -0.114 SA
BRANCH  31  36
HETATM   36  O4  UNL     1      11.203 -23.207  -6.772  1.00  0.00    -0.370 OA
ATOM     37  H4  UNL     1      11.015 -22.361  -6.385  1.00  0.00     0.212 HD
ENDBRANCH  31  36
ENDBRANCH  26  29
ENDBRANCH  24  25
ENDBRANCH  23  24
ENDBRANCH   4  23
TORSDOF 8
ENDMDL
MODEL 5
REMARK VINA RESULT: -9.247035117      1.183      1.769
REMARK  8 active torsions:
REMARK  status: ('A' for Active; 'I' for Inactive)
REMARK    1  A    between atoms: C2_2  and  C18_30 
REMARK    2  A    between atoms: C3_3  and  C4_5 
REMARK       I    between atoms: C4_5  and  N1_7 
REMARK    3  A    between atoms: N1_7  and  C5_9 
REMARK    4  A    between atoms: N2_12  and  C8_13 
REMARK    5  A    between atoms: C8_13  and  C9_14 
REMARK    6  A    between atoms: C9_14  and  N3_15 
REMARK       I    between atoms: N3_15  and  C10_17 
REMARK    7  A    between atoms: C10_17  and  C11_19 
REMARK    8  A    between atoms: C12_21  and  O4_22 
ROOT
HETATM    1  C5  UNL     1      16.154 -30.289  -3.477  1.00  0.00     0.091 C 
HETATM    2  C6  UNL     1      16.302 -30.994  -4.806  1.00  0.00     0.045 C 
HETATM    3  C7  UNL     1      15.013 -31.708  -5.133  1.00  0.00     0.124 C 
HETATM    4  N2  UNL     1      13.918 -31.108  -4.467  1.00  0.00    -0.392 N 
HETATM    5  C16 UNL     1      13.890 -31.142  -3.059  1.00  0.00     0.060 C 
HETATM    6  C17 UNL     1      15.324 -31.116  -2.530  1.00  0.00     0.069 C 
ENDROOT
BRANCH   1   7
HETATM    7  N1  UNL     1      17.500 -30.065  -2.927  1.00  0.00    -0.350 N 
HETATM    8  C4  UNL     1      18.043 -28.785  -2.926  1.00  0.00     0.281 C 
HETATM    9  O1  UNL     1      17.270 -27.868  -3.417  1.00  0.00    -0.265 OA
ATOM     10  H1  UNL     1      18.033 -30.847  -2.548  1.00  0.00     0.163 HD
BRANCH   8  11
HETATM   11  C3  UNL     1      19.320 -28.395  -2.450  1.00  0.00     0.190 C 
HETATM   12  C2  UNL     1      19.705 -27.588  -1.530  1.00  0.00    -0.007 C 
HETATM   13  C1  UNL     1      21.195 -27.263  -1.393  1.00  0.00     0.052 C 
HETATM   14  F1  UNL     1      20.391 -28.901  -3.230  1.00  0.00    -0.200 F 
BRANCH  12  15
HETATM   15  C18 UNL     1      18.919 -27.005  -0.463  1.00  0.00    -0.025 A 
HETATM   16  C19 UNL     1      17.981 -25.999  -0.708  1.00  0.00     0.014 A 
HETATM   17  C20 UNL     1      17.233 -25.439   0.297  1.00  0.00     0.026 A 
HETATM   18  C21 UNL     1      17.408 -25.881   1.603  1.00  0.00     0.055 A 
HETATM   19 CL1  UNL     1      16.492 -25.215   2.933  1.00  0.00    -0.083 Cl
HETATM   20  C22 UNL     1      18.338 -26.878   1.847  1.00  0.00     0.056 A 
HETATM   21 CL2  UNL     1      18.561 -27.437   3.499  1.00  0.00    -0.083 Cl
HETATM   22  C23 UNL     1      19.083 -27.432   0.833  1.00  0.00     0.037 A 
ENDBRANCH  12  15
ENDBRANCH   8  11
ENDBRANCH   1   7
BRANCH   4  23
HETATM   23  C8  UNL     1      13.205 -30.095  -5.149  1.00  0.00     0.141 C 
BRANCH  23  24
HETATM   24  C9  UNL     1      12.479 -29.115  -4.290  1.00  0.00     0.142 C 
BRANCH  24  25
HETATM   25  N3  UNL     1      12.108 -27.962  -5.054  1.00  0.00    -0.357 N 
HETATM   26  C10 UNL     1      12.098 -26.646  -4.533  1.00  0.00     0.257 C 
HETATM   27  O2  UNL     1      12.414 -26.416  -3.352  1.00  0.00    -0.270 OA
ATOM     28  H3  UNL     1      11.836 -28.096  -6.028  1.00  0.00     0.162 HD
BRANCH  26  29
HETATM   29  C11 UNL     1      11.706 -25.496  -5.388  1.00  0.00     0.278 C 
HETATM   30  O3  UNL     1      12.098 -24.302  -4.786  1.00  0.00    -0.335 OA
HETATM   31  C12 UNL     1      11.477 -23.256  -5.414  1.00  0.00     0.276 C 
HETATM   32  C13 UNL     1       9.965 -23.413  -5.182  1.00  0.00     0.053 C 
HETATM   33  C14 UNL     1       9.193 -22.754  -6.277  1.00  0.00     0.032 C 
HETATM   34  C15 UNL     1       9.562 -23.001  -3.804  1.00  0.00     0.032 C 
HETATM   35  S1  UNL     1       9.880 -25.246  -5.368  1.00  0.00    -0.114 SA
BRANCH  31  36
HETATM   36  O4  UNL     1      11.895 -22.083  -4.842  1.00  0.00    -0.370 OA
ATOM     37  H4  UNL     1      11.539 -22.023  -3.964  1.00  0.00     0.212 HD
ENDBRANCH  31  36
ENDBRANCH  26  29
ENDBRANCH  24  25
ENDBRANCH  23  24
ENDBRANCH   4  23
TORSDOF 8
ENDMDL
