MODEL 1
REMARK VINA RESULT: -8.118660044      0.000      0.000
REMARK  11 active torsions:
REMARK  status: ('A' for Active; 'I' for Inactive)
REMARK    1  A    between atoms: C2_2  and  C4_4 
REMARK    2  A    between atoms: C4_4  and  C5_5 
REMARK    3  A    between atoms: C5_5  and  N1_6 
REMARK    4  A    between atoms: C5_5  and  C10_14 
REMARK       I    between atoms: N1_6  and  C6_8 
REMARK    5  A    between atoms: C6_8  and  O2_10 
REMARK    6  A    between atoms: O2_10  and  C7_11 
REMARK    7  A    between atoms: C10_14  and  O3_15 
REMARK    8  A    between atoms: C10_14  and  C11_17 
REMARK    9  A    between atoms: C13_20  and  O5_22 
REMARK   10  A    between atoms: N2_25  and  S1_26 
REMARK   11  A    between atoms: S1_26  and  C16_29 
ROOT
HETATM    1  C11 UNL     1      15.417 -28.691  -3.007  1.00  0.00     0.241 C 
HETATM    2  O4  UNL     1      14.401 -28.305  -3.900  1.00  0.00    -0.364 OA
HETATM    3  C12 UNL     1      13.353 -29.181  -3.774  1.00  0.00     0.208 C 
HETATM    4  C13 UNL     1      13.793 -30.497  -4.327  1.00  0.00     0.088 C 
HETATM    5  C14 UNL     1      13.183 -30.615  -5.732  1.00  0.00     0.049 C 
HETATM    6  C15 UNL     1      15.272 -30.626  -4.473  1.00  0.00     0.150 C 
HETATM    7  N2  UNL     1      16.073 -29.815  -3.633  1.00  0.00    -0.173 NA
ENDROOT
BRANCH   1   8
HETATM    8  C10 UNL     1      16.332 -27.544  -2.891  1.00  0.00     0.185 C 
BRANCH   8   9
HETATM    9  C5  UNL     1      15.974 -26.394  -2.019  1.00  0.00     0.119 C 
BRANCH   9  10
HETATM   10  C4  UNL     1      16.957 -25.398  -1.622  1.00  0.00     0.032 C 
BRANCH  10  11
HETATM   11  C2  UNL     1      17.203 -25.032  -0.222  1.00  0.00    -0.021 C 
HETATM   12  C1  UNL     1      17.368 -26.190   0.732  1.00  0.00     0.009 C 
HETATM   13  C3  UNL     1      15.946 -24.300   0.336  1.00  0.00     0.009 C 
ENDBRANCH  10  11
ENDBRANCH   9  10
BRANCH   9  14
HETATM   14  N1  UNL     1      14.981 -25.633  -2.854  1.00  0.00    -0.330 N 
HETATM   15  C6  UNL     1      13.642 -25.486  -2.463  1.00  0.00     0.361 C 
HETATM   16  O1  UNL     1      13.258 -26.000  -1.392  1.00  0.00    -0.238 OA
ATOM     17  H1  UNL     1      15.291 -25.212  -3.730  1.00  0.00     0.165 HD
BRANCH  15  18
HETATM   18  O2  UNL     1      12.732 -24.788  -3.228  1.00  0.00    -0.299 OA
BRANCH  18  19
HETATM   19  C7  UNL     1      11.360 -25.040  -3.274  1.00  0.00     0.125 C 
HETATM   20  C8  UNL     1      11.062 -26.105  -4.318  1.00  0.00     0.040 C 
HETATM   21  C9  UNL     1      10.549 -23.808  -3.618  1.00  0.00     0.040 C 
ENDBRANCH  18  19
ENDBRANCH  15  18
ENDBRANCH   9  14
ENDBRANCH   8   9
BRANCH   8  22
HETATM   22  O3  UNL     1      16.420 -27.029  -4.232  1.00  0.00    -0.390 OA
ATOM     23  H3  UNL     1      16.148 -27.733  -4.810  1.00  0.00     0.210 HD
ENDBRANCH   8  22
ENDBRANCH   1   8
BRANCH   7  24
HETATM   24  S1  UNL     1      17.052 -30.773  -2.647  1.00  0.00     0.246 S 
HETATM   25  O6  UNL     1      16.540 -30.961  -1.250  1.00  0.00    -0.206 OA
HETATM   26  O7  UNL     1      17.274 -32.167  -3.196  1.00  0.00    -0.206 OA
BRANCH  24  27
HETATM   27  C16 UNL     1      18.642 -30.016  -2.513  1.00  0.00     0.078 A 
HETATM   28  C17 UNL     1      18.761 -28.772  -1.903  1.00  0.00     0.051 A 
HETATM   29  C18 UNL     1      19.996 -28.196  -1.821  1.00  0.00     0.075 A 
HETATM   30 CL1  UNL     1      20.215 -26.621  -1.064  1.00  0.00    -0.081 Cl
HETATM   31  C19 UNL     1      21.082 -28.866  -2.347  1.00  0.00     0.159 A 
HETATM   32  F1  UNL     1      22.322 -28.297  -2.268  1.00  0.00    -0.203 F 
HETATM   33  C20 UNL     1      20.986 -30.091  -2.951  1.00  0.00     0.075 A 
HETATM   34 CL2  UNL     1      22.394 -30.921  -3.610  1.00  0.00    -0.081 Cl
HETATM   35  C21 UNL     1      19.735 -30.661  -3.026  1.00  0.00     0.051 A 
ENDBRANCH  24  27
ENDBRANCH   7  24
BRANCH   4  36
HETATM   36  O5  UNL     1      13.204 -31.511  -3.563  1.00  0.00    -0.387 OA
ATOM     37  H5  UNL     1      13.407 -32.345  -3.969  1.00  0.00     0.210 HD
ENDBRANCH   4  36
TORSDOF 11
ENDMDL
MODEL 2
REMARK VINA RESULT: -7.414185457      7.541     11.131
REMARK  11 active torsions:
REMARK  status: ('A' for Active; 'I' for Inactive)
REMARK    1  A    between atoms: C2_2  and  C4_4 
REMARK    2  A    between atoms: C4_4  and  C5_5 
REMARK    3  A    between atoms: C5_5  and  N1_6 
REMARK    4  A    between atoms: C5_5  and  C10_14 
REMARK       I    between atoms: N1_6  and  C6_8 
REMARK    5  A    between atoms: C6_8  and  O2_10 
REMARK    6  A    between atoms: O2_10  and  C7_11 
REMARK    7  A    between atoms: C10_14  and  O3_15 
REMARK    8  A    between atoms: C10_14  and  C11_17 
REMARK    9  A    between atoms: C13_20  and  O5_22 
REMARK   10  A    between atoms: N2_25  and  S1_26 
REMARK   11  A    between atoms: S1_26  and  C16_29 
ROOT
HETATM    1  C11 UNL     1      25.428 -29.912  -0.089  1.00  0.00     0.241 C 
HETATM    2  O4  UNL     1      25.975 -28.879  -0.872  1.00  0.00    -0.364 OA
HETATM    3  C12 UNL     1      27.129 -29.338  -1.456  1.00  0.00     0.208 C 
HETATM    4  C13 UNL     1      28.148 -29.506  -0.377  1.00  0.00     0.088 C 
HETATM    5  C14 UNL     1      29.082 -28.290  -0.455  1.00  0.00     0.049 C 
HETATM    6  C15 UNL     1      27.571 -29.536   0.998  1.00  0.00     0.150 C 
HETATM    7  N2  UNL     1      26.219 -29.940   1.119  1.00  0.00    -0.173 NA
ENDROOT
BRANCH   1   8
HETATM    8  C10 UNL     1      24.038 -29.529   0.198  1.00  0.00     0.185 C 
BRANCH   8   9
HETATM    9  C5  UNL     1      23.061 -29.381  -0.914  1.00  0.00     0.119 C 
BRANCH   9  10
HETATM   10  C4  UNL     1      22.698 -28.078  -1.447  1.00  0.00     0.032 C 
BRANCH  10  11
HETATM   11  C2  UNL     1      21.306 -27.629  -1.580  1.00  0.00    -0.021 C 
HETATM   12  C1  UNL     1      20.362 -28.114  -0.507  1.00  0.00     0.009 C 
HETATM   13  C3  UNL     1      20.701 -28.245  -2.876  1.00  0.00     0.009 C 
ENDBRANCH  10  11
ENDBRANCH   9  10
BRANCH   9  14
HETATM   14  N1  UNL     1      23.745 -30.079  -2.058  1.00  0.00    -0.330 N 
HETATM   15  C6  UNL     1      23.143 -31.145  -2.742  1.00  0.00     0.361 C 
HETATM   16  O1  UNL     1      22.006 -31.530  -2.396  1.00  0.00    -0.238 OA
ATOM     17  H1  UNL     1      24.673 -29.768  -2.344  1.00  0.00     0.165 HD
BRANCH  15  18
HETATM   18  O2  UNL     1      23.769 -31.784  -3.792  1.00  0.00    -0.299 OA
BRANCH  18  19
HETATM   19  C7  UNL     1      24.392 -31.145  -4.864  1.00  0.00     0.125 C 
HETATM   20  C8  UNL     1      24.047 -31.856  -6.164  1.00  0.00     0.040 C 
HETATM   21  C9  UNL     1      25.901 -31.118  -4.733  1.00  0.00     0.040 C 
ENDBRANCH  18  19
ENDBRANCH  15  18
ENDBRANCH   9  14
ENDBRANCH   8   9
BRANCH   8  22
HETATM   22  O3  UNL     1      24.152 -28.234   0.818  1.00  0.00    -0.390 OA
ATOM     23  H3  UNL     1      23.507 -28.211   1.515  1.00  0.00     0.210 HD
ENDBRANCH   8  22
ENDBRANCH   1   8
BRANCH   7  24
HETATM   24  S1  UNL     1      26.100 -31.324   2.077  1.00  0.00     0.246 S 
HETATM   25  O6  UNL     1      25.191 -32.386   1.533  1.00  0.00    -0.206 OA
HETATM   26  O7  UNL     1      27.432 -32.003   2.317  1.00  0.00    -0.206 OA
BRANCH  24  27
HETATM   27  C16 UNL     1      25.465 -30.868   3.661  1.00  0.00     0.078 A 
HETATM   28  C17 UNL     1      26.321 -30.819   4.756  1.00  0.00     0.051 A 
HETATM   29  C18 UNL     1      25.809 -30.478   5.975  1.00  0.00     0.075 A 
HETATM   30 CL1  UNL     1      26.838 -30.400   7.402  1.00  0.00    -0.081 Cl
HETATM   31  C19 UNL     1      24.462 -30.195   6.079  1.00  0.00     0.159 A 
HETATM   32  F1  UNL     1      23.942 -29.852   7.295  1.00  0.00    -0.203 F 
HETATM   33  C20 UNL     1      23.603 -30.238   5.013  1.00  0.00     0.075 A 
HETATM   34 CL2  UNL     1      21.888 -29.869   5.180  1.00  0.00    -0.081 Cl
HETATM   35  C21 UNL     1      24.132 -30.582   3.790  1.00  0.00     0.051 A 
ENDBRANCH  24  27
ENDBRANCH   7  24
BRANCH   4  36
HETATM   36  O5  UNL     1      28.936 -30.621  -0.690  1.00  0.00    -0.387 OA
ATOM     37  H5  UNL     1      29.800 -30.486  -0.321  1.00  0.00     0.210 HD
ENDBRANCH   4  36
TORSDOF 11
ENDMDL
MODEL 3
REMARK VINA RESULT: -7.234250371      4.760      7.757
REMARK  11 active torsions:
REMARK  status: ('A' for Active; 'I' for Inactive)
REMARK    1  A    between atoms: C2_2  and  C4_4 
REMARK    2  A    between atoms: C4_4  and  C5_5 
REMARK    3  A    between atoms: C5_5  and  N1_6 
REMARK    4  A    between atoms: C5_5  and  C10_14 
REMARK       I    between atoms: N1_6  and  C6_8 
REMARK    5  A    between atoms: C6_8  and  O2_10 
REMARK    6  A    between atoms: O2_10  and  C7_11 
REMARK    7  A    between atoms: C10_14  and  O3_15 
REMARK    8  A    between atoms: C10_14  and  C11_17 
REMARK    9  A    between atoms: C13_20  and  O5_22 
REMARK   10  A    between atoms: N2_25  and  S1_26 
REMARK   11  A    between atoms: S1_26  and  C16_29 
ROOT
HETATM    1  C11 UNL     1      18.796 -25.094   1.543  1.00  0.00     0.241 C 
HETATM    2  O4  UNL     1      19.679 -24.257   0.838  1.00  0.00    -0.364 OA
HETATM    3  C12 UNL     1      20.774 -24.013   1.626  1.00  0.00     0.208 C 
HETATM    4  C13 UNL     1      20.333 -23.144   2.759  1.00  0.00     0.088 C 
HETATM    5  C14 UNL     1      20.775 -21.713   2.419  1.00  0.00     0.049 C 
HETATM    6  C15 UNL     1      18.855 -23.117   2.958  1.00  0.00     0.150 C 
HETATM    7  N2  UNL     1      18.123 -24.235   2.489  1.00  0.00    -0.173 NA
ENDROOT
BRANCH   1   8
HETATM    8  C10 UNL     1      17.850 -25.635   0.555  1.00  0.00     0.185 C 
BRANCH   8   9
HETATM    9  C5  UNL     1      18.352 -26.185  -0.732  1.00  0.00     0.119 C 
BRANCH   9  10
HETATM   10  C4  UNL     1      19.448 -27.139  -0.782  1.00  0.00     0.032 C 
BRANCH  10  11
HETATM   11  C2  UNL     1      20.030 -27.621  -2.041  1.00  0.00    -0.021 C 
HETATM   12  C1  UNL     1      19.673 -29.038  -2.421  1.00  0.00     0.009 C 
HETATM   13  C3  UNL     1      21.579 -27.684  -1.888  1.00  0.00     0.009 C 
ENDBRANCH  10  11
ENDBRANCH   9  10
BRANCH   9  14
HETATM   14  N1  UNL     1      17.166 -26.946  -1.259  1.00  0.00    -0.330 N 
HETATM   15  C6  UNL     1      16.254 -26.369  -2.156  1.00  0.00     0.361 C 
HETATM   16  O1  UNL     1      16.428 -25.191  -2.530  1.00  0.00    -0.238 OA
ATOM     17  H1  UNL     1      17.020 -27.909  -0.955  1.00  0.00     0.165 HD
BRANCH  15  18
HETATM   18  O2  UNL     1      15.168 -27.067  -2.640  1.00  0.00    -0.299 OA
BRANCH  18  19
HETATM   19  C7  UNL     1      15.230 -28.301  -3.290  1.00  0.00     0.125 C 
HETATM   20  C8  UNL     1      16.275 -28.255  -4.394  1.00  0.00     0.040 C 
HETATM   21  C9  UNL     1      13.909 -28.701  -3.913  1.00  0.00     0.040 C 
ENDBRANCH  18  19
ENDBRANCH  15  18
ENDBRANCH   9  14
ENDBRANCH   8   9
BRANCH   8  22
HETATM   22  O3  UNL     1      17.013 -24.511   0.221  1.00  0.00    -0.390 OA
ATOM     23  H3  UNL     1      17.446 -23.740   0.566  1.00  0.00     0.210 HD
ENDBRANCH   8  22
ENDBRANCH   1   8
BRANCH   7  24
HETATM   24  S1  UNL     1      17.315 -24.988   3.765  1.00  0.00     0.246 S 
HETATM   25  O6  UNL     1      17.220 -24.169   5.017  1.00  0.00    -0.206 OA
HETATM   26  O7  UNL     1      15.895 -25.386   3.423  1.00  0.00    -0.206 OA
BRANCH  24  27
HETATM   27  C16 UNL     1      18.175 -26.472   4.187  1.00  0.00     0.078 A 
HETATM   28  C17 UNL     1      17.662 -27.701   3.786  1.00  0.00     0.051 A 
HETATM   29  C18 UNL     1      18.333 -28.838   4.133  1.00  0.00     0.075 A 
HETATM   30 CL1  UNL     1      17.737 -30.425   3.659  1.00  0.00    -0.081 Cl
HETATM   31  C19 UNL     1      19.495 -28.729   4.871  1.00  0.00     0.159 A 
HETATM   32  F1  UNL     1      20.173 -29.862   5.222  1.00  0.00    -0.203 F 
HETATM   33  C20 UNL     1      20.016 -27.529   5.275  1.00  0.00     0.075 A 
HETATM   34 CL2  UNL     1      21.503 -27.425   6.215  1.00  0.00    -0.081 Cl
HETATM   35  C21 UNL     1      19.330 -26.390   4.918  1.00  0.00     0.051 A 
ENDBRANCH  24  27
ENDBRANCH   7  24
BRANCH   4  36
HETATM   36  O5  UNL     1      21.056 -23.513   3.900  1.00  0.00    -0.387 OA
ATOM     37  H5  UNL     1      20.487 -23.419   4.655  1.00  0.00     0.210 HD
ENDBRANCH   4  36
TORSDOF 11
ENDMDL
MODEL 4
REMARK VINA RESULT: -7.201664135      4.751      7.688
REMARK  11 active torsions:
REMARK  status: ('A' for Active; 'I' for Inactive)
REMARK    1  A    between atoms: C2_2  and  C4_4 
REMARK    2  A    between atoms: C4_4  and  C5_5 
REMARK    3  A    between atoms: C5_5  and  N1_6 
REMARK    4  A    between atoms: C5_5  and  C10_14 
REMARK       I    between atoms: N1_6  and  C6_8 
REMARK    5  A    between atoms: C6_8  and  O2_10 
REMARK    6  A    between atoms: O2_10  and  C7_11 
REMARK    7  A    between atoms: C10_14  and  O3_15 
REMARK    8  A    between atoms: C10_14  and  C11_17 
REMARK    9  A    between atoms: C13_20  and  O5_22 
REMARK   10  A    between atoms: N2_25  and  S1_26 
REMARK   11  A    between atoms: S1_26  and  C16_29 
ROOT
HETATM    1  C11 UNL     1      18.763 -25.122   1.549  1.00  0.00     0.241 C 
HETATM    2  O4  UNL     1      19.650 -24.300   0.830  1.00  0.00    -0.364 OA
HETATM    3  C12 UNL     1      20.748 -24.052   1.614  1.00  0.00     0.208 C 
HETATM    4  C13 UNL     1      20.316 -23.165   2.735  1.00  0.00     0.088 C 
HETATM    5  C14 UNL     1      20.766 -21.742   2.375  1.00  0.00     0.049 C 
HETATM    6  C15 UNL     1      18.838 -23.125   2.937  1.00  0.00     0.150 C 
HETATM    7  N2  UNL     1      18.098 -24.245   2.485  1.00  0.00    -0.173 NA
ENDROOT
BRANCH   1   8
HETATM    8  C10 UNL     1      17.811 -25.669   0.571  1.00  0.00     0.185 C 
BRANCH   8   9
HETATM    9  C5  UNL     1      18.305 -26.216  -0.722  1.00  0.00     0.119 C 
BRANCH   9  10
HETATM   10  C4  UNL     1      19.379 -27.194  -0.781  1.00  0.00     0.032 C 
BRANCH  10  11
HETATM   11  C2  UNL     1      19.966 -27.660  -2.043  1.00  0.00    -0.021 C 
HETATM   12  C1  UNL     1      19.645 -29.086  -2.420  1.00  0.00     0.009 C 
HETATM   13  C3  UNL     1      21.516 -27.681  -1.900  1.00  0.00     0.009 C 
ENDBRANCH  10  11
ENDBRANCH   9  10
BRANCH   9  14
HETATM   14  N1  UNL     1      17.104 -26.941  -1.262  1.00  0.00    -0.330 N 
HETATM   15  C6  UNL     1      16.232 -26.347  -2.186  1.00  0.00     0.361 C 
HETATM   16  O1  UNL     1      16.455 -25.181  -2.574  1.00  0.00    -0.238 OA
ATOM     17  H1  UNL     1      16.918 -27.894  -0.947  1.00  0.00     0.165 HD
BRANCH  15  18
HETATM   18  O2  UNL     1      15.131 -27.013  -2.683  1.00  0.00    -0.299 OA
BRANCH  18  19
HETATM   19  C7  UNL     1      15.157 -28.274  -3.281  1.00  0.00     0.125 C 
HETATM   20  C8  UNL     1      16.187 -28.297  -4.400  1.00  0.00     0.040 C 
HETATM   21  C9  UNL     1      13.819 -28.671  -3.869  1.00  0.00     0.040 C 
ENDBRANCH  18  19
ENDBRANCH  15  18
ENDBRANCH   9  14
ENDBRANCH   8   9
BRANCH   8  22
HETATM   22  O3  UNL     1      16.962 -24.553   0.245  1.00  0.00    -0.390 OA
ATOM     23  H3  UNL     1      16.920 -24.011   1.024  1.00  0.00     0.210 HD
ENDBRANCH   8  22
ENDBRANCH   1   8
BRANCH   7  24
HETATM   24  S1  UNL     1      17.288 -24.975   3.772  1.00  0.00     0.246 S 
HETATM   25  O6  UNL     1      17.183 -24.130   5.007  1.00  0.00    -0.206 OA
HETATM   26  O7  UNL     1      15.870 -25.387   3.432  1.00  0.00    -0.206 OA
BRANCH  24  27
HETATM   27  C16 UNL     1      18.152 -26.446   4.229  1.00  0.00     0.078 A 
HETATM   28  C17 UNL     1      19.310 -26.353   4.994  1.00  0.00     0.051 A 
HETATM   29  C18 UNL     1      19.973 -27.499   5.325  1.00  0.00     0.075 A 
HETATM   30 CL1  UNL     1      21.445 -27.451   6.290  1.00  0.00    -0.081 Cl
HETATM   31  C19 UNL     1      19.472 -28.710   4.890  1.00  0.00     0.159 A 
HETATM   32  F1  UNL     1      20.129 -29.862   5.219  1.00  0.00    -0.203 F 
HETATM   33  C20 UNL     1      18.335 -28.823   4.137  1.00  0.00     0.075 A 
HETATM   34 CL2  UNL     1      17.722 -30.385   3.598  1.00  0.00    -0.081 Cl
HETATM   35  C21 UNL     1      17.676 -27.659   3.810  1.00  0.00     0.051 A 
ENDBRANCH  24  27
ENDBRANCH   7  24
BRANCH   4  36
HETATM   36  O5  UNL     1      21.038 -23.523   3.880  1.00  0.00    -0.387 OA
ATOM     37  H5  UNL     1      21.397 -22.731   4.263  1.00  0.00     0.210 HD
ENDBRANCH   4  36
TORSDOF 11
ENDMDL
MODEL 5
REMARK VINA RESULT: -7.177026123      5.215      9.480
REMARK  11 active torsions:
REMARK  status: ('A' for Active; 'I' for Inactive)
REMARK    1  A    between atoms: C2_2  and  C4_4 
REMARK    2  A    between atoms: C4_4  and  C5_5 
REMARK    3  A    between atoms: C5_5  and  N1_6 
REMARK    4  A    between atoms: C5_5  and  C10_14 
REMARK       I    between atoms: N1_6  and  C6_8 
REMARK    5  A    between atoms: C6_8  and  O2_10 
REMARK    6  A    between atoms: O2_10  and  C7_11 
REMARK    7  A    between atoms: C10_14  and  O3_15 
REMARK    8  A    between atoms: C10_14  and  C11_17 
REMARK    9  A    between atoms: C13_20  and  O5_22 
REMARK   10  A    between atoms: N2_25  and  S1_26 
REMARK   11  A    between atoms: S1_26  and  C16_29 
ROOT
HETATM    1  C11 UNL     1      21.560 -27.236   0.409  1.00  0.00     0.241 C 
HETATM    2  O4  UNL     1      22.906 -27.444   0.760  1.00  0.00    -0.364 OA
HETATM    3  C12 UNL     1      22.974 -27.694   2.106  1.00  0.00     0.208 C 
HETATM    4  C13 UNL     1      22.642 -26.425   2.821  1.00  0.00     0.088 C 
HETATM    5  C14 UNL     1      23.973 -25.816   3.287  1.00  0.00     0.049 C 
HETATM    6  C15 UNL     1      21.965 -25.409   1.963  1.00  0.00     0.150 C 
HETATM    7  N2  UNL     1      21.254 -25.891   0.837  1.00  0.00    -0.173 NA
ENDROOT
BRANCH   1   8
HETATM    8  C10 UNL     1      21.484 -27.355  -1.055  1.00  0.00     0.185 C 
BRANCH   8   9
HETATM    9  C5  UNL     1      20.930 -28.590  -1.673  1.00  0.00     0.119 C 
BRANCH   9  10
HETATM   10  C4  UNL     1      19.787 -28.552  -2.570  1.00  0.00     0.032 C 
BRANCH  10  11
HETATM   11  C2  UNL     1      18.472 -29.097  -2.210  1.00  0.00    -0.021 C 
HETATM   12  C1  UNL     1      18.089 -30.382  -2.903  1.00  0.00     0.009 C 
HETATM   13  C3  UNL     1      17.369 -28.106  -2.686  1.00  0.00     0.009 C 
ENDBRANCH  10  11
ENDBRANCH   9  10
BRANCH   9  14
HETATM   14  N1  UNL     1      22.067 -29.076  -2.529  1.00  0.00    -0.330 N 
HETATM   15  C6  UNL     1      22.260 -30.438  -2.803  1.00  0.00     0.361 C 
HETATM   16  O1  UNL     1      21.467 -31.276  -2.323  1.00  0.00    -0.238 OA
ATOM     17  H1  UNL     1      22.717 -28.395  -2.923  1.00  0.00     0.165 HD
BRANCH  15  18
HETATM   18  O2  UNL     1      23.300 -30.884  -3.590  1.00  0.00    -0.299 OA
BRANCH  18  19
HETATM   19  C7  UNL     1      24.639 -30.524  -3.431  1.00  0.00     0.125 C 
HETATM   20  C8  UNL     1      25.457 -31.031  -4.608  1.00  0.00     0.040 C 
HETATM   21  C9  UNL     1      25.250 -31.084  -2.163  1.00  0.00     0.040 C 
ENDBRANCH  18  19
ENDBRANCH  15  18
ENDBRANCH   9  14
ENDBRANCH   8   9
BRANCH   8  22
HETATM   22  O3  UNL     1      22.854 -27.261  -1.486  1.00  0.00    -0.390 OA
ATOM     23  H3  UNL     1      22.834 -27.161  -2.430  1.00  0.00     0.210 HD
ENDBRANCH   8  22
ENDBRANCH   1   8
BRANCH   7  24
HETATM   24  S1  UNL     1      19.622 -25.478   0.949  1.00  0.00     0.246 S 
HETATM   25  O6  UNL     1      19.348 -24.004   0.953  1.00  0.00    -0.206 OA
HETATM   26  O7  UNL     1      18.780 -26.052  -0.172  1.00  0.00    -0.206 OA
BRANCH  24  27
HETATM   27  C16 UNL     1      18.973 -26.125   2.459  1.00  0.00     0.078 A 
HETATM   28  C17 UNL     1      18.804 -27.498   2.602  1.00  0.00     0.051 A 
HETATM   29  C18 UNL     1      18.288 -27.978   3.771  1.00  0.00     0.075 A 
HETATM   30 CL1  UNL     1      18.048 -29.705   4.016  1.00  0.00    -0.081 Cl
HETATM   31  C19 UNL     1      17.951 -27.086   4.769  1.00  0.00     0.159 A 
HETATM   32  F1  UNL     1      17.435 -27.559   5.943  1.00  0.00    -0.203 F 
HETATM   33  C20 UNL     1      18.109 -25.731   4.648  1.00  0.00     0.075 A 
HETATM   34 CL2  UNL     1      17.669 -24.619   5.943  1.00  0.00    -0.081 Cl
HETATM   35  C21 UNL     1      18.631 -25.260   3.464  1.00  0.00     0.051 A 
ENDBRANCH  24  27
ENDBRANCH   7  24
BRANCH   4  36
HETATM   36  O5  UNL     1      21.936 -26.750   3.985  1.00  0.00    -0.387 OA
ATOM     37  H5  UNL     1      22.485 -27.314   4.517  1.00  0.00     0.210 HD
ENDBRANCH   4  36
TORSDOF 11
ENDMDL
