MODEL 1
REMARK VINA RESULT: -8.812497941      0.000      0.000
REMARK  11 active torsions:
REMARK  status: ('A' for Active; 'I' for Inactive)
REMARK    1  A    between atoms: C4_5  and  N2_6 
REMARK    2  A    between atoms: N2_6  and  C6_8 
REMARK    3  A    between atoms: C9_12  and  C10_13 
REMARK       I    between atoms: C10_13  and  N3_15 
REMARK    4  A    between atoms: N3_15  and  C11_17 
REMARK    5  A    between atoms: C11_17  and  C12_18 
REMARK    6  A    between atoms: C12_18  and  C13_20 
REMARK    7  A    between atoms: C13_20  and  O3_21 
REMARK    8  A    between atoms: C13_20  and  O4_23 
REMARK    9  A    between atoms: C15_26  and  O5_27 
REMARK   10  A    between atoms: O5_27  and  C16_28 
REMARK   11  A    between atoms: C16_28  and  C17_29 
ROOT
HETATM    1  C6  UNL     1      20.888 -27.801  -0.556  1.00  0.00     0.065 A 
HETATM    2  C7  UNL     1      22.165 -28.141  -0.186  1.00  0.00     0.057 A 
HETATM    3  C8  UNL     1      22.936 -29.083  -0.873  1.00  0.00     0.052 A 
HETATM    4 CL1  UNL     1      24.563 -29.437  -0.296  1.00  0.00    -0.083 Cl
HETATM    5  C9  UNL     1      22.382 -29.673  -1.948  1.00  0.00     0.056 A 
HETATM    6  C14 UNL     1      21.088 -29.336  -2.333  1.00  0.00     0.057 A 
HETATM    7  C15 UNL     1      20.300 -28.414  -1.680  1.00  0.00     0.096 A 
ENDROOT
BRANCH   5   8
HETATM    8  C10 UNL     1      23.134 -30.675  -2.728  1.00  0.00     0.253 C 
HETATM    9  O1  UNL     1      22.727 -31.854  -2.663  1.00  0.00    -0.268 OA
HETATM   10  N3  UNL     1      24.241 -30.251  -3.491  1.00  0.00    -0.350 N 
ATOM     11  H3  UNL     1      24.510 -29.267  -3.466  1.00  0.00     0.163 HD
BRANCH  10  12
HETATM   12  C11 UNL     1      24.996 -31.154  -4.297  1.00  0.00     0.206 C 
BRANCH  12  13
HETATM   13  C12 UNL     1      26.409 -30.741  -4.419  1.00  0.00     0.198 C 
HETATM   14  O2  UNL     1      26.965 -30.719  -5.479  1.00  0.00    -0.291 OA
BRANCH  13  15
HETATM   15  C13 UNL     1      27.153 -30.341  -3.171  1.00  0.00     0.327 C 
BRANCH  15  16
HETATM   16  O3  UNL     1      27.071 -28.979  -3.047  1.00  0.00    -0.365 OA
ATOM     17  H3  UNL     1      26.752 -28.781  -2.174  1.00  0.00     0.213 HD
ENDBRANCH  15  16
BRANCH  15  18
HETATM   18  O4  UNL     1      26.738 -31.054  -2.069  1.00  0.00    -0.365 OA
ATOM     19  H4  UNL     1      27.452 -31.529  -1.660  1.00  0.00     0.213 HD
ENDBRANCH  15  18
ENDBRANCH  13  15
ENDBRANCH  12  13
ENDBRANCH  10  12
ENDBRANCH   5   8
BRANCH   7  20
HETATM   20  O5  UNL     1      19.089 -28.112  -2.058  1.00  0.00    -0.348 OA
BRANCH  20  21
HETATM   21  C16 UNL     1      17.835 -27.768  -2.033  1.00  0.00     0.186 C 
BRANCH  21  22
HETATM   22  C17 UNL     1      16.862 -28.816  -2.527  1.00  0.00     0.082 C 
HETATM   23  C18 UNL     1      17.362 -30.190  -2.608  1.00  0.00     0.013 C 
HETATM   24  C19 UNL     1      16.780 -31.016  -3.723  1.00  0.00     0.009 C 
HETATM   25  C20 UNL     1      15.354 -30.657  -4.042  1.00  0.00    -0.042 C 
HETATM   26  C21 UNL     1      14.400 -31.158  -2.967  1.00  0.00     0.015 C 
HETATM   27  C22 UNL     1      14.989 -31.389  -5.320  1.00  0.00     0.015 C 
HETATM   28  C23 UNL     1      15.154 -29.191  -4.294  1.00  0.00     0.088 C 
HETATM   29  C24 UNL     1      16.333 -28.350  -3.871  1.00  0.00     0.250 C 
HETATM   30  F1  UNL     1      15.884 -27.047  -3.749  1.00  0.00    -0.206 F 
HETATM   31  F2  UNL     1      17.328 -28.426  -4.800  1.00  0.00    -0.206 F 
ENDBRANCH  21  22
ENDBRANCH  20  21
ENDBRANCH   7  20
BRANCH   1  32
HETATM   32  N2  UNL     1      20.241 -26.830   0.236  1.00  0.00    -0.378 N 
HETATM   33  C5  UNL     1      20.328 -25.443  -0.142  1.00  0.00     0.150 C 
BRANCH  32  34
HETATM   34  C4  UNL     1      19.479 -27.188   1.404  1.00  0.00     0.087 C 
HETATM   35  C3  UNL     1      18.145 -26.419   1.427  1.00  0.00     0.055 C 
HETATM   36  C2  UNL     1      17.659 -26.493   2.866  1.00  0.00     0.274 C 
HETATM   37  N1  UNL     1      18.417 -25.493   3.590  1.00  0.00     0.084 N 
HETATM   38  C1  UNL     1      18.010 -25.329   4.951  1.00  0.00     0.309 C 
HETATM   39  C26 UNL     1      19.819 -25.668   3.399  1.00  0.00     0.274 C 
HETATM   40  C25 UNL     1      20.235 -26.903   2.686  1.00  0.00     0.055 C 
ENDBRANCH  32  34
ENDBRANCH   1  32
TORSDOF 11
ENDMDL
MODEL 2
REMARK VINA RESULT: -8.794463831      3.986      7.732
REMARK  11 active torsions:
REMARK  status: ('A' for Active; 'I' for Inactive)
REMARK    1  A    between atoms: C4_5  and  N2_6 
REMARK    2  A    between atoms: N2_6  and  C6_8 
REMARK    3  A    between atoms: C9_12  and  C10_13 
REMARK       I    between atoms: C10_13  and  N3_15 
REMARK    4  A    between atoms: N3_15  and  C11_17 
REMARK    5  A    between atoms: C11_17  and  C12_18 
REMARK    6  A    between atoms: C12_18  and  C13_20 
REMARK    7  A    between atoms: C13_20  and  O3_21 
REMARK    8  A    between atoms: C13_20  and  O4_23 
REMARK    9  A    between atoms: C15_26  and  O5_27 
REMARK   10  A    between atoms: O5_27  and  C16_28 
REMARK   11  A    between atoms: C16_28  and  C17_29 
ROOT
HETATM    1  C6  UNL     1      17.890 -26.718  -0.713  1.00  0.00     0.065 A 
HETATM    2  C7  UNL     1      16.655 -26.327  -1.165  1.00  0.00     0.057 A 
HETATM    3  C8  UNL     1      16.007 -26.934  -2.244  1.00  0.00     0.052 A 
HETATM    4 CL1  UNL     1      14.423 -26.337  -2.732  1.00  0.00    -0.083 Cl
HETATM    5  C9  UNL     1      16.642 -27.951  -2.856  1.00  0.00     0.056 A 
HETATM    6  C14 UNL     1      17.894 -28.356  -2.407  1.00  0.00     0.057 A 
HETATM    7  C15 UNL     1      18.562 -27.781  -1.348  1.00  0.00     0.096 A 
ENDROOT
BRANCH   5   8
HETATM    8  C10 UNL     1      16.020 -28.645  -4.001  1.00  0.00     0.253 C 
HETATM    9  O1  UNL     1      16.181 -28.123  -5.125  1.00  0.00    -0.268 OA
HETATM   10  N3  UNL     1      15.303 -29.836  -3.766  1.00  0.00    -0.350 N 
ATOM     11  H3  UNL     1      15.209 -30.175  -2.809  1.00  0.00     0.163 HD
BRANCH  10  12
HETATM   12  C11 UNL     1      14.705 -30.581  -4.825  1.00  0.00     0.206 C 
BRANCH  12  13
HETATM   13  C12 UNL     1      13.231 -30.483  -4.810  1.00  0.00     0.198 C 
HETATM   14  O2  UNL     1      12.546 -31.405  -4.476  1.00  0.00    -0.291 OA
BRANCH  13  15
HETATM   15  C13 UNL     1      12.592 -29.183  -5.227  1.00  0.00     0.327 C 
BRANCH  15  16
HETATM   16  O3  UNL     1      12.260 -28.490  -4.092  1.00  0.00    -0.365 OA
ATOM     17  H3  UNL     1      11.436 -28.044  -4.249  1.00  0.00     0.213 HD
ENDBRANCH  15  16
BRANCH  15  18
HETATM   18  O4  UNL     1      13.367 -28.490  -6.130  1.00  0.00    -0.365 OA
ATOM     19  H4  UNL     1      14.283 -28.479  -5.880  1.00  0.00     0.213 HD
ENDBRANCH  15  18
ENDBRANCH  13  15
ENDBRANCH  12  13
ENDBRANCH  10  12
ENDBRANCH   5   8
BRANCH   7  20
HETATM   20  O5  UNL     1      19.736 -28.177  -0.942  1.00  0.00    -0.348 OA
BRANCH  20  21
HETATM   21  C16 UNL     1      21.022 -28.261  -0.772  1.00  0.00     0.186 C 
BRANCH  21  22
HETATM   22  C17 UNL     1      21.768 -29.056  -1.821  1.00  0.00     0.082 C 
HETATM   23  C18 UNL     1      21.218 -30.370  -2.163  1.00  0.00     0.013 C 
HETATM   24  C19 UNL     1      22.238 -31.410  -2.539  1.00  0.00     0.009 C 
HETATM   25  C20 UNL     1      23.441 -30.834  -3.235  1.00  0.00    -0.042 C 
HETATM   26  C21 UNL     1      23.113 -30.420  -4.663  1.00  0.00     0.015 C 
HETATM   27  C22 UNL     1      24.470 -31.945  -3.333  1.00  0.00     0.015 C 
HETATM   28  C23 UNL     1      24.076 -29.702  -2.481  1.00  0.00     0.088 C 
HETATM   29  C24 UNL     1      23.211 -29.174  -1.364  1.00  0.00     0.250 C 
HETATM   30  F1  UNL     1      23.683 -27.913  -1.041  1.00  0.00    -0.206 F 
HETATM   31  F2  UNL     1      23.277 -29.999  -0.281  1.00  0.00    -0.206 F 
ENDBRANCH  21  22
ENDBRANCH  20  21
ENDBRANCH   7  20
BRANCH   1  32
HETATM   32  N2  UNL     1      18.410 -26.009   0.391  1.00  0.00    -0.378 N 
HETATM   33  C5  UNL     1      19.418 -25.005   0.170  1.00  0.00     0.150 C 
BRANCH  32  34
HETATM   34  C4  UNL     1      17.947 -26.249   1.733  1.00  0.00     0.087 C 
HETATM   35  C3  UNL     1      18.102 -24.976   2.586  1.00  0.00     0.055 C 
HETATM   36  C2  UNL     1      18.046 -25.447   4.030  1.00  0.00     0.274 C 
HETATM   37  N1  UNL     1      19.361 -25.979   4.322  1.00  0.00     0.084 N 
HETATM   38  C1  UNL     1      19.542 -26.366   5.686  1.00  0.00     0.309 C 
HETATM   39  C26 UNL     1      19.746 -26.963   3.363  1.00  0.00     0.274 C 
HETATM   40  C25 UNL     1      18.698 -27.384   2.399  1.00  0.00     0.055 C 
ENDBRANCH  32  34
ENDBRANCH   1  32
TORSDOF 11
ENDMDL
MODEL 3
REMARK VINA RESULT: -8.739982882      0.868      1.416
REMARK  11 active torsions:
REMARK  status: ('A' for Active; 'I' for Inactive)
REMARK    1  A    between atoms: C4_5  and  N2_6 
REMARK    2  A    between atoms: N2_6  and  C6_8 
REMARK    3  A    between atoms: C9_12  and  C10_13 
REMARK       I    between atoms: C10_13  and  N3_15 
REMARK    4  A    between atoms: N3_15  and  C11_17 
REMARK    5  A    between atoms: C11_17  and  C12_18 
REMARK    6  A    between atoms: C12_18  and  C13_20 
REMARK    7  A    between atoms: C13_20  and  O3_21 
REMARK    8  A    between atoms: C13_20  and  O4_23 
REMARK    9  A    between atoms: C15_26  and  O5_27 
REMARK   10  A    between atoms: O5_27  and  C16_28 
REMARK   11  A    between atoms: C16_28  and  C17_29 
ROOT
HETATM    1  C6  UNL     1      20.837 -27.697  -0.400  1.00  0.00     0.065 A 
HETATM    2  C7  UNL     1      22.068 -28.056   0.088  1.00  0.00     0.057 A 
HETATM    3  C8  UNL     1      22.886 -29.011  -0.522  1.00  0.00     0.052 A 
HETATM    4 CL1  UNL     1      24.445 -29.389   0.206  1.00  0.00    -0.083 Cl
HETATM    5  C9  UNL     1      22.425 -29.596  -1.643  1.00  0.00     0.056 A 
HETATM    6  C14 UNL     1      21.179 -29.240  -2.148  1.00  0.00     0.057 A 
HETATM    7  C15 UNL     1      20.347 -28.304  -1.573  1.00  0.00     0.096 A 
ENDROOT
BRANCH   5   8
HETATM    8  C10 UNL     1      23.232 -30.612  -2.348  1.00  0.00     0.253 C 
HETATM    9  O1  UNL     1      22.682 -31.713  -2.559  1.00  0.00    -0.268 OA
HETATM   10  N3  UNL     1      24.546 -30.284  -2.740  1.00  0.00    -0.350 N 
ATOM     11  H3  UNL     1      24.916 -29.363  -2.505  1.00  0.00     0.163 HD
BRANCH  10  12
HETATM   12  C11 UNL     1      25.374 -31.200  -3.454  1.00  0.00     0.206 C 
BRANCH  12  13
HETATM   13  C12 UNL     1      25.479 -30.854  -4.886  1.00  0.00     0.198 C 
HETATM   14  O2  UNL     1      26.348 -30.139  -5.295  1.00  0.00    -0.291 OA
BRANCH  13  15
HETATM   15  C13 UNL     1      24.462 -31.422  -5.842  1.00  0.00     0.327 C 
BRANCH  15  16
HETATM   16  O3  UNL     1      24.694 -32.768  -5.957  1.00  0.00    -0.365 OA
ATOM     17  H3  UNL     1      25.263 -33.030  -5.242  1.00  0.00     0.213 HD
ENDBRANCH  15  16
BRANCH  15  18
HETATM   18  O4  UNL     1      23.175 -31.079  -5.493  1.00  0.00    -0.365 OA
ATOM     19  H4  UNL     1      22.908 -30.252  -5.877  1.00  0.00     0.213 HD
ENDBRANCH  15  18
ENDBRANCH  13  15
ENDBRANCH  12  13
ENDBRANCH  10  12
ENDBRANCH   5   8
BRANCH   7  20
HETATM   20  O5  UNL     1      19.182 -27.985  -2.064  1.00  0.00    -0.348 OA
BRANCH  20  21
HETATM   21  C16 UNL     1      17.928 -27.654  -2.157  1.00  0.00     0.186 C 
BRANCH  21  22
HETATM   22  C17 UNL     1      16.989 -28.764  -2.572  1.00  0.00     0.082 C 
HETATM   23  C18 UNL     1      17.590 -30.081  -2.798  1.00  0.00     0.013 C 
HETATM   24  C19 UNL     1      16.930 -30.907  -3.869  1.00  0.00     0.009 C 
HETATM   25  C20 UNL     1      15.448 -30.669  -3.970  1.00  0.00    -0.042 C 
HETATM   26  C21 UNL     1      14.701 -31.304  -2.806  1.00  0.00     0.015 C 
HETATM   27  C22 UNL     1      14.972 -31.375  -5.226  1.00  0.00     0.015 C 
HETATM   28  C23 UNL     1      15.089 -29.219  -4.110  1.00  0.00     0.088 C 
HETATM   29  C24 UNL     1      16.239 -28.291  -3.804  1.00  0.00     0.250 C 
HETATM   30  F1  UNL     1      15.701 -27.042  -3.548  1.00  0.00    -0.206 F 
HETATM   31  F2  UNL     1      17.097 -28.233  -4.862  1.00  0.00    -0.206 F 
ENDBRANCH  21  22
ENDBRANCH  20  21
ENDBRANCH   7  20
BRANCH   1  32
HETATM   32  N2  UNL     1      20.134 -26.713   0.326  1.00  0.00    -0.378 N 
HETATM   33  C5  UNL     1      20.311 -25.326  -0.015  1.00  0.00     0.150 C 
BRANCH  32  34
HETATM   34  C4  UNL     1      19.228 -27.059   1.391  1.00  0.00     0.087 C 
HETATM   35  C3  UNL     1      17.985 -26.151   1.349  1.00  0.00     0.055 C 
HETATM   36  C2  UNL     1      17.355 -26.262   2.728  1.00  0.00     0.274 C 
HETATM   37  N1  UNL     1      18.137 -25.400   3.590  1.00  0.00     0.084 N 
HETATM   38  C1  UNL     1      17.618 -25.279   4.916  1.00  0.00     0.309 C 
HETATM   39  C26 UNL     1      19.525 -25.716   3.515  1.00  0.00     0.274 C 
HETATM   40  C25 UNL     1      19.880 -26.941   2.754  1.00  0.00     0.055 C 
ENDBRANCH  32  34
ENDBRANCH   1  32
TORSDOF 11
ENDMDL
MODEL 4
REMARK VINA RESULT: -8.632399531      3.918      8.983
REMARK  11 active torsions:
REMARK  status: ('A' for Active; 'I' for Inactive)
REMARK    1  A    between atoms: C4_5  and  N2_6 
REMARK    2  A    between atoms: N2_6  and  C6_8 
REMARK    3  A    between atoms: C9_12  and  C10_13 
REMARK       I    between atoms: C10_13  and  N3_15 
REMARK    4  A    between atoms: N3_15  and  C11_17 
REMARK    5  A    between atoms: C11_17  and  C12_18 
REMARK    6  A    between atoms: C12_18  and  C13_20 
REMARK    7  A    between atoms: C13_20  and  O3_21 
REMARK    8  A    between atoms: C13_20  and  O4_23 
REMARK    9  A    between atoms: C15_26  and  O5_27 
REMARK   10  A    between atoms: O5_27  and  C16_28 
REMARK   11  A    between atoms: C16_28  and  C17_29 
ROOT
HETATM    1  C6  UNL     1      17.286 -27.754  -2.203  1.00  0.00     0.065 A 
HETATM    2  C7  UNL     1      16.471 -26.733  -1.784  1.00  0.00     0.057 A 
HETATM    3  C8  UNL     1      16.815 -25.851  -0.756  1.00  0.00     0.052 A 
HETATM    4 CL1  UNL     1      15.679 -24.582  -0.305  1.00  0.00    -0.083 Cl
HETATM    5  C9  UNL     1      18.009 -26.029  -0.161  1.00  0.00     0.056 A 
HETATM    6  C14 UNL     1      18.844 -27.060  -0.578  1.00  0.00     0.057 A 
HETATM    7  C15 UNL     1      18.537 -27.948  -1.586  1.00  0.00     0.096 A 
ENDROOT
BRANCH   5   8
HETATM    8  C10 UNL     1      18.445 -25.136   0.931  1.00  0.00     0.253 C 
HETATM    9  O1  UNL     1      19.369 -24.339   0.664  1.00  0.00    -0.268 OA
HETATM   10  N3  UNL     1      17.801 -25.228   2.182  1.00  0.00    -0.350 N 
ATOM     11  H3  UNL     1      17.069 -25.926   2.310  1.00  0.00     0.163 HD
BRANCH  10  12
HETATM   12  C11 UNL     1      18.143 -24.376   3.274  1.00  0.00     0.206 C 
BRANCH  12  13
HETATM   13  C12 UNL     1      17.660 -24.907   4.564  1.00  0.00     0.198 C 
HETATM   14  O2  UNL     1      18.352 -24.902   5.541  1.00  0.00    -0.291 OA
BRANCH  13  15
HETATM   15  C13 UNL     1      16.261 -25.463   4.637  1.00  0.00     0.327 C 
BRANCH  15  16
HETATM   16  O3  UNL     1      15.490 -24.789   3.725  1.00  0.00    -0.365 OA
ATOM     17  H3  UNL     1      14.831 -25.390   3.397  1.00  0.00     0.213 HD
ENDBRANCH  15  16
BRANCH  15  18
HETATM   18  O4  UNL     1      16.242 -26.834   4.518  1.00  0.00    -0.365 OA
ATOM     19  H4  UNL     1      16.073 -27.114   3.626  1.00  0.00     0.213 HD
ENDBRANCH  15  18
ENDBRANCH  13  15
ENDBRANCH  12  13
ENDBRANCH  10  12
ENDBRANCH   5   8
BRANCH   7  20
HETATM   20  O5  UNL     1      19.335 -28.908  -1.962  1.00  0.00    -0.348 OA
BRANCH  20  21
HETATM   21  C16 UNL     1      20.306 -29.557  -2.532  1.00  0.00     0.186 C 
BRANCH  21  22
HETATM   22  C17 UNL     1      21.607 -29.595  -1.761  1.00  0.00     0.082 C 
HETATM   23  C18 UNL     1      22.348 -28.336  -1.662  1.00  0.00     0.013 C 
HETATM   24  C19 UNL     1      23.846 -28.479  -1.624  1.00  0.00     0.009 C 
HETATM   25  C20 UNL     1      24.302 -29.739  -0.939  1.00  0.00    -0.042 C 
HETATM   26  C21 UNL     1      24.119 -29.650   0.569  1.00  0.00     0.015 C 
HETATM   27  C22 UNL     1      25.794 -29.862  -1.188  1.00  0.00     0.015 C 
HETATM   28  C23 UNL     1      23.654 -30.978  -1.486  1.00  0.00     0.088 C 
HETATM   29  C24 UNL     1      22.468 -30.686  -2.371  1.00  0.00     0.250 C 
HETATM   30  F1  UNL     1      21.723 -31.850  -2.454  1.00  0.00    -0.206 F 
HETATM   31  F2  UNL     1      22.883 -30.296  -3.609  1.00  0.00    -0.206 F 
ENDBRANCH  21  22
ENDBRANCH  20  21
ENDBRANCH   7  20
BRANCH   1  32
HETATM   32  N2  UNL     1      16.798 -28.556  -3.257  1.00  0.00    -0.378 N 
HETATM   33  C5  UNL     1      17.016 -28.138  -4.617  1.00  0.00     0.150 C 
BRANCH  32  34
HETATM   34  C4  UNL     1      16.104 -29.793  -3.010  1.00  0.00     0.087 C 
HETATM   35  C3  UNL     1      17.022 -30.781  -2.265  1.00  0.00     0.055 C 
HETATM   36  C2  UNL     1      16.397 -32.151  -2.474  1.00  0.00     0.274 C 
HETATM   37  N1  UNL     1      16.789 -32.564  -3.806  1.00  0.00     0.084 N 
HETATM   38  C1  UNL     1      16.392 -33.895  -4.142  1.00  0.00     0.309 C 
HETATM   39  C26 UNL     1      16.451 -31.574  -4.775  1.00  0.00     0.274 C 
HETATM   40  C25 UNL     1      15.622 -30.440  -4.294  1.00  0.00     0.055 C 
ENDBRANCH  32  34
ENDBRANCH   1  32
TORSDOF 11
ENDMDL
MODEL 5
REMARK VINA RESULT: -8.585766108      3.801      8.194
REMARK  11 active torsions:
REMARK  status: ('A' for Active; 'I' for Inactive)
REMARK    1  A    between atoms: C4_5  and  N2_6 
REMARK    2  A    between atoms: N2_6  and  C6_8 
REMARK    3  A    between atoms: C9_12  and  C10_13 
REMARK       I    between atoms: C10_13  and  N3_15 
REMARK    4  A    between atoms: N3_15  and  C11_17 
REMARK    5  A    between atoms: C11_17  and  C12_18 
REMARK    6  A    between atoms: C12_18  and  C13_20 
REMARK    7  A    between atoms: C13_20  and  O3_21 
REMARK    8  A    between atoms: C13_20  and  O4_23 
REMARK    9  A    between atoms: C15_26  and  O5_27 
REMARK   10  A    between atoms: O5_27  and  C16_28 
REMARK   11  A    between atoms: C16_28  and  C17_29 
ROOT
HETATM    1  C6  UNL     1      19.305 -28.449  -2.162  1.00  0.00     0.065 A 
HETATM    2  C7  UNL     1      18.051 -27.894  -2.221  1.00  0.00     0.057 A 
HETATM    3  C8  UNL     1      16.929 -28.584  -2.689  1.00  0.00     0.052 A 
HETATM    4 CL1  UNL     1      15.372 -27.759  -2.719  1.00  0.00    -0.083 Cl
HETATM    5  C9  UNL     1      17.108 -29.854  -3.096  1.00  0.00     0.056 A 
HETATM    6  C14 UNL     1      18.374 -30.427  -3.041  1.00  0.00     0.057 A 
HETATM    7  C15 UNL     1      19.501 -29.778  -2.587  1.00  0.00     0.096 A 
ENDROOT
BRANCH   5   8
HETATM    8  C10 UNL     1      15.971 -30.649  -3.600  1.00  0.00     0.253 C 
HETATM    9  O1  UNL     1      15.467 -31.470  -2.804  1.00  0.00    -0.268 OA
HETATM   10  N3  UNL     1      15.524 -30.435  -4.920  1.00  0.00    -0.350 N 
ATOM     11  H3  UNL     1      16.013 -29.755  -5.503  1.00  0.00     0.163 HD
BRANCH  10  12
HETATM   12  C11 UNL     1      14.410 -31.139  -5.467  1.00  0.00     0.206 C 
BRANCH  12  13
HETATM   13  C12 UNL     1      13.126 -30.654  -4.924  1.00  0.00     0.198 C 
HETATM   14  O2  UNL     1      12.438 -31.345  -4.229  1.00  0.00    -0.291 OA
BRANCH  13  15
HETATM   15  C13 UNL     1      12.684 -29.253  -5.260  1.00  0.00     0.327 C 
BRANCH  15  16
HETATM   16  O3  UNL     1      12.337 -28.625  -4.092  1.00  0.00    -0.365 OA
ATOM     17  H3  UNL     1      13.084 -28.663  -3.505  1.00  0.00     0.213 HD
ENDBRANCH  15  16
BRANCH  15  18
HETATM   18  O4  UNL     1      13.613 -28.586  -6.028  1.00  0.00    -0.365 OA
ATOM     19  H4  UNL     1      13.457 -28.701  -6.958  1.00  0.00     0.213 HD
ENDBRANCH  15  18
ENDBRANCH  13  15
ENDBRANCH  12  13
ENDBRANCH  10  12
ENDBRANCH   5   8
BRANCH   7  20
HETATM   20  O5  UNL     1      20.679 -30.334  -2.544  1.00  0.00    -0.348 OA
BRANCH  20  21
HETATM   21  C16 UNL     1      21.734 -31.023  -2.864  1.00  0.00     0.186 C 
BRANCH  21  22
HETATM   22  C17 UNL     1      22.888 -30.941  -1.889  1.00  0.00     0.082 C 
HETATM   23  C18 UNL     1      22.915 -29.775  -1.002  1.00  0.00     0.013 C 
HETATM   24  C19 UNL     1      24.290 -29.284  -0.638  1.00  0.00     0.009 C 
HETATM   25  C20 UNL     1      25.309 -30.389  -0.550  1.00  0.00    -0.042 C 
HETATM   26  C21 UNL     1      25.110 -31.231   0.703  1.00  0.00     0.015 C 
HETATM   27  C22 UNL     1      26.668 -29.728  -0.416  1.00  0.00     0.015 C 
HETATM   28  C23 UNL     1      25.351 -31.254  -1.776  1.00  0.00     0.088 C 
HETATM   29  C24 UNL     1      24.172 -31.043  -2.692  1.00  0.00     0.250 C 
HETATM   30  F1  UNL     1      24.095 -32.148  -3.522  1.00  0.00    -0.206 F 
HETATM   31  F2  UNL     1      24.338 -29.906  -3.427  1.00  0.00    -0.206 F 
ENDBRANCH  21  22
ENDBRANCH  20  21
ENDBRANCH   7  20
BRANCH   1  32
HETATM   32  N2  UNL     1      20.334 -27.625  -1.661  1.00  0.00    -0.378 N 
HETATM   33  C5  UNL     1      21.376 -27.181  -2.550  1.00  0.00     0.150 C 
BRANCH  32  34
HETATM   34  C4  UNL     1      20.363 -27.199  -0.286  1.00  0.00     0.087 C 
HETATM   35  C3  UNL     1      19.232 -27.879   0.507  1.00  0.00     0.055 C 
HETATM   36  C2  UNL     1      19.053 -27.038   1.761  1.00  0.00     0.274 C 
HETATM   37  N1  UNL     1      18.276 -25.886   1.355  1.00  0.00     0.084 N 
HETATM   38  C1  UNL     1      17.900 -25.029   2.436  1.00  0.00     0.309 C 
HETATM   39  C26 UNL     1      18.874 -25.223   0.243  1.00  0.00     0.274 C 
HETATM   40  C25 UNL     1      20.225 -25.696  -0.153  1.00  0.00     0.055 C 
ENDBRANCH  32  34
ENDBRANCH   1  32
TORSDOF 11
ENDMDL
