MODEL 1
REMARK VINA RESULT: -8.814833224      0.000      0.000
REMARK  8 active torsions:
REMARK  status: ('A' for Active; 'I' for Inactive)
REMARK    1  A    between atoms: C4_4  and  C5_5 
REMARK    2  A    between atoms: C5_5  and  C6_6 
REMARK    3  A    between atoms: C6_6  and  N1_7 
REMARK    4  A    between atoms: C9_10  and  O1_11 
REMARK    5  A    between atoms: C9_10  and  C10_13 
REMARK    6  A    between atoms: C10_13  and  N2_14 
REMARK    7  A    between atoms: N2_14  and  S1_16 
REMARK    8  A    between atoms: S1_16  and  C11_19 
ROOT
HETATM    1  C1  UNL     1      13.872 -25.048  -1.659  1.00  0.00     0.046 C 
HETATM    2  C2  UNL     1      14.091 -26.366  -2.276  1.00  0.00    -0.058 C 
HETATM    3  C3  UNL     1      15.358 -26.822  -2.410  1.00  0.00     0.028 C 
HETATM    4  C4  UNL     1      16.385 -25.935  -1.919  1.00  0.00     0.004 C 
HETATM    5  N3  UNL     1      15.720 -28.045  -3.029  1.00  0.00    -0.375 N 
HETATM    6  C15 UNL     1      17.127 -28.276  -3.050  1.00  0.00     0.123 C 
HETATM    7  C16 UNL     1      17.419 -29.488  -2.194  1.00  0.00     0.020 C 
HETATM    8  C17 UNL     1      16.746 -30.661  -2.755  1.00  0.00     0.009 C 
HETATM    9  C18 UNL     1      15.282 -30.460  -3.078  1.00  0.00     0.019 C 
HETATM   10  C19 UNL     1      14.913 -31.671  -3.874  1.00  0.00     0.087 C 
HETATM   11  S2  UNL     1      13.639 -31.445  -5.109  1.00  0.00    -0.116 SA
HETATM   12  C20 UNL     1      13.115 -29.743  -5.110  1.00  0.00     0.046 C 
HETATM   13  N4  UNL     1      12.429 -29.286  -6.063  1.00  0.00    -0.397 N 
ATOM     14  H41 UNL     1      12.129 -28.311  -6.064  1.00  0.00     0.156 HD
ATOM     15  H42 UNL     1      12.126 -29.819  -6.878  1.00  0.00     0.156 HD
HETATM   16  C21 UNL     1      13.561 -28.958  -3.910  1.00  0.00     0.065 C 
HETATM   17  C22 UNL     1      13.035 -27.569  -4.135  1.00  0.00     0.018 C 
HETATM   18  C23 UNL     1      12.836 -27.044  -2.700  1.00  0.00     0.037 C 
HETATM   19  C24 UNL     1      14.983 -29.132  -3.683  1.00  0.00     0.099 C 
ENDROOT
BRANCH   4  20
HETATM   20  C5  UNL     1      17.122 -26.198  -0.675  1.00  0.00     0.059 C 
BRANCH  20  21
HETATM   21  C6  UNL     1      17.233 -24.832   0.045  1.00  0.00     0.276 C 
BRANCH  21  22
HETATM   22  N1  UNL     1      18.065 -24.880   1.202  1.00  0.00     0.091 N 
HETATM   23  C7  UNL     1      17.924 -23.746   2.080  1.00  0.00     0.275 C 
HETATM   24  C8  UNL     1      17.650 -24.307   3.484  1.00  0.00     0.071 C 
HETATM   25  C9  UNL     1      16.819 -25.521   3.106  1.00  0.00     0.102 C 
HETATM   26  C14 UNL     1      17.634 -26.063   1.954  1.00  0.00     0.311 C 
BRANCH  25  27
HETATM   27  O1  UNL     1      15.576 -25.039   2.720  1.00  0.00    -0.386 OA
ATOM     28  H1  UNL     1      15.489 -25.235   1.795  1.00  0.00     0.210 HD
ENDBRANCH  25  27
BRANCH  25  29
HETATM   29  C10 UNL     1      16.722 -26.511   4.235  1.00  0.00     0.171 C 
BRANCH  29  30
HETATM   30  N2  UNL     1      15.438 -26.527   4.862  1.00  0.00    -0.316 N 
ATOM     31  H2  UNL     1      14.558 -26.782   4.414  1.00  0.00     0.172 HD
BRANCH  30  32
HETATM   32  S1  UNL     1      15.629 -26.040   6.507  1.00  0.00     0.230 S 
HETATM   33  O2  UNL     1      14.550 -26.644   7.341  1.00  0.00    -0.206 OA
HETATM   34  O3  UNL     1      16.996 -26.487   6.988  1.00  0.00    -0.206 OA
BRANCH  32  35
HETATM   35  C11 UNL     1      15.609 -24.254   6.626  1.00  0.00     0.129 A 
HETATM   36  C12 UNL     1      14.533 -23.520   5.831  1.00  0.00     0.023 A 
HETATM   37  C13 UNL     1      14.437 -23.637   7.328  1.00  0.00     0.023 A 
ENDBRANCH  32  35
ENDBRANCH  30  32
ENDBRANCH  29  30
ENDBRANCH  25  29
ENDBRANCH  21  22
ENDBRANCH  20  21
ENDBRANCH   4  20
TORSDOF 8
ENDMDL
MODEL 2
REMARK VINA RESULT: -8.671048102      5.401      7.536
REMARK  8 active torsions:
REMARK  status: ('A' for Active; 'I' for Inactive)
REMARK    1  A    between atoms: C4_4  and  C5_5 
REMARK    2  A    between atoms: C5_5  and  C6_6 
REMARK    3  A    between atoms: C6_6  and  N1_7 
REMARK    4  A    between atoms: C9_10  and  O1_11 
REMARK    5  A    between atoms: C9_10  and  C10_13 
REMARK    6  A    between atoms: C10_13  and  N2_14 
REMARK    7  A    between atoms: N2_14  and  S1_16 
REMARK    8  A    between atoms: S1_16  and  C11_19 
ROOT
HETATM    1  C1  UNL     1      15.043 -24.966  -0.971  1.00  0.00     0.046 C 
HETATM    2  C2  UNL     1      14.688 -26.145  -1.779  1.00  0.00    -0.058 C 
HETATM    3  C3  UNL     1      15.679 -26.934  -2.253  1.00  0.00     0.028 C 
HETATM    4  C4  UNL     1      17.017 -26.517  -1.905  1.00  0.00     0.004 C 
HETATM    5  N3  UNL     1      15.489 -28.068  -3.083  1.00  0.00    -0.375 N 
HETATM    6  C15 UNL     1      16.706 -28.712  -3.453  1.00  0.00     0.123 C 
HETATM    7  C16 UNL     1      16.713 -30.095  -2.841  1.00  0.00     0.020 C 
HETATM    8  C17 UNL     1      15.593 -30.875  -3.372  1.00  0.00     0.009 C 
HETATM    9  C18 UNL     1      14.253 -30.175  -3.325  1.00  0.00     0.019 C 
HETATM   10  C19 UNL     1      13.359 -31.038  -4.158  1.00  0.00     0.087 C 
HETATM   11  S2  UNL     1      12.043 -30.200  -5.032  1.00  0.00    -0.116 SA
HETATM   12  C20 UNL     1      12.139 -28.452  -4.705  1.00  0.00     0.046 C 
HETATM   13  N4  UNL     1      11.493 -27.633  -5.414  1.00  0.00    -0.397 N 
ATOM     14  H41 UNL     1      11.548 -26.632  -5.227  1.00  0.00     0.156 HD
ATOM     15  H42 UNL     1      10.889 -27.882  -6.197  1.00  0.00     0.156 HD
HETATM   16  C21 UNL     1      13.028 -28.087  -3.552  1.00  0.00     0.065 C 
HETATM   17  C22 UNL     1      12.976 -26.587  -3.479  1.00  0.00     0.018 C 
HETATM   18  C23 UNL     1      13.223 -26.310  -1.985  1.00  0.00     0.037 C 
HETATM   19  C24 UNL     1      14.323 -28.730  -3.679  1.00  0.00     0.099 C 
ENDROOT
BRANCH   4  20
HETATM   20  C5  UNL     1      17.825 -27.226  -0.904  1.00  0.00     0.059 C 
BRANCH  20  21
HETATM   21  C6  UNL     1      19.262 -27.273  -1.480  1.00  0.00     0.276 C 
BRANCH  21  22
HETATM   22  N1  UNL     1      19.791 -28.595  -1.547  1.00  0.00     0.091 N 
HETATM   23  C7  UNL     1      20.463 -28.902  -2.783  1.00  0.00     0.275 C 
HETATM   24  C8  UNL     1      21.852 -29.441  -2.409  1.00  0.00     0.071 C 
HETATM   25  C9  UNL     1      22.128 -28.583  -1.187  1.00  0.00     0.102 C 
HETATM   26  C14 UNL     1      20.795 -28.677  -0.480  1.00  0.00     0.311 C 
BRANCH  25  27
HETATM   27  O1  UNL     1      22.410 -27.309  -1.658  1.00  0.00    -0.386 OA
ATOM     28  H1  UNL     1      22.085 -26.703  -1.003  1.00  0.00     0.210 HD
ENDBRANCH  25  27
BRANCH  25  29
HETATM   29  C10 UNL     1      23.244 -29.141  -0.346  1.00  0.00     0.171 C 
BRANCH  29  30
HETATM   30  N2  UNL     1      23.852 -30.303  -0.915  1.00  0.00    -0.316 N 
ATOM     31  H2  UNL     1      23.387 -31.194  -1.090  1.00  0.00     0.172 HD
BRANCH  30  32
HETATM   32  S1  UNL     1      25.505 -29.942  -1.255  1.00  0.00     0.230 S 
HETATM   33  O2  UNL     1      25.703 -28.464  -1.284  1.00  0.00    -0.206 OA
HETATM   34  O3  UNL     1      26.370 -30.582  -0.187  1.00  0.00    -0.206 OA
BRANCH  32  35
HETATM   35  C11 UNL     1      25.989 -30.684  -2.811  1.00  0.00     0.129 A 
HETATM   36  C12 UNL     1      25.168 -30.309  -4.041  1.00  0.00     0.023 A 
HETATM   37  C13 UNL     1      26.557 -29.765  -3.849  1.00  0.00     0.023 A 
ENDBRANCH  32  35
ENDBRANCH  30  32
ENDBRANCH  29  30
ENDBRANCH  25  29
ENDBRANCH  21  22
ENDBRANCH  20  21
ENDBRANCH   4  20
TORSDOF 8
ENDMDL
MODEL 3
REMARK VINA RESULT: -8.583823613      1.909      2.497
REMARK  8 active torsions:
REMARK  status: ('A' for Active; 'I' for Inactive)
REMARK    1  A    between atoms: C4_4  and  C5_5 
REMARK    2  A    between atoms: C5_5  and  C6_6 
REMARK    3  A    between atoms: C6_6  and  N1_7 
REMARK    4  A    between atoms: C9_10  and  O1_11 
REMARK    5  A    between atoms: C9_10  and  C10_13 
REMARK    6  A    between atoms: C10_13  and  N2_14 
REMARK    7  A    between atoms: N2_14  and  S1_16 
REMARK    8  A    between atoms: S1_16  and  C11_19 
ROOT
HETATM    1  C1  UNL     1      15.555 -25.271  -1.089  1.00  0.00     0.046 C 
HETATM    2  C2  UNL     1      15.076 -26.430  -1.860  1.00  0.00    -0.058 C 
HETATM    3  C3  UNL     1      15.978 -27.332  -2.311  1.00  0.00     0.028 C 
HETATM    4  C4  UNL     1      17.353 -27.045  -1.979  1.00  0.00     0.004 C 
HETATM    5  N3  UNL     1      15.667 -28.465  -3.106  1.00  0.00    -0.375 N 
HETATM    6  C15 UNL     1      16.809 -29.242  -3.458  1.00  0.00     0.123 C 
HETATM    7  C16 UNL     1      16.677 -30.599  -2.804  1.00  0.00     0.020 C 
HETATM    8  C17 UNL     1      15.480 -31.275  -3.309  1.00  0.00     0.009 C 
HETATM    9  C18 UNL     1      14.219 -30.439  -3.280  1.00  0.00     0.019 C 
HETATM   10  C19 UNL     1      13.237 -31.230  -4.084  1.00  0.00     0.087 C 
HETATM   11  S2  UNL     1      12.010 -30.288  -4.982  1.00  0.00    -0.116 SA
HETATM   12  C20 UNL     1      12.288 -28.550  -4.708  1.00  0.00     0.046 C 
HETATM   13  N4  UNL     1      11.726 -27.691  -5.440  1.00  0.00    -0.397 N 
ATOM     14  H41 UNL     1      11.885 -26.695  -5.285  1.00  0.00     0.156 HD
ATOM     15  H42 UNL     1      11.096 -27.899  -6.214  1.00  0.00     0.156 HD
HETATM   16  C21 UNL     1      13.215 -28.244  -3.569  1.00  0.00     0.065 C 
HETATM   17  C22 UNL     1      13.319 -26.745  -3.542  1.00  0.00     0.018 C 
HETATM   18  C23 UNL     1      13.601 -26.449  -2.057  1.00  0.00     0.037 C 
HETATM   19  C24 UNL     1      14.436 -29.021  -3.679  1.00  0.00     0.099 C 
ENDROOT
BRANCH   4  20
HETATM   20  C5  UNL     1      18.089 -27.803  -0.958  1.00  0.00     0.059 C 
BRANCH  20  21
HETATM   21  C6  UNL     1      19.177 -26.840  -0.422  1.00  0.00     0.276 C 
BRANCH  21  22
HETATM   22  N1  UNL     1      19.203 -26.769   1.002  1.00  0.00     0.091 N 
HETATM   23  C7  UNL     1      20.407 -26.191   1.543  1.00  0.00     0.275 C 
HETATM   24  C8  UNL     1      19.968 -25.067   2.494  1.00  0.00     0.071 C 
HETATM   25  C9  UNL     1      18.747 -24.569   1.740  1.00  0.00     0.102 C 
HETATM   26  C14 UNL     1      18.094 -25.883   1.377  1.00  0.00     0.311 C 
BRANCH  25  27
HETATM   27  O1  UNL     1      19.225 -23.871   0.640  1.00  0.00    -0.386 OA
ATOM     28  H1  UNL     1      19.829 -24.454   0.196  1.00  0.00     0.210 HD
ENDBRANCH  25  27
BRANCH  25  29
HETATM   29  C10 UNL     1      17.854 -23.725   2.608  1.00  0.00     0.171 C 
BRANCH  29  30
HETATM   30  N2  UNL     1      17.769 -24.194   3.955  1.00  0.00    -0.316 N 
ATOM     31  H2  UNL     1      18.545 -24.259   4.614  1.00  0.00     0.172 HD
BRANCH  30  32
HETATM   32  S1  UNL     1      16.131 -24.634   4.277  1.00  0.00     0.230 S 
HETATM   33  O2  UNL     1      15.467 -23.560   5.072  1.00  0.00    -0.206 OA
HETATM   34  O3  UNL     1      15.419 -24.847   2.955  1.00  0.00    -0.206 OA
BRANCH  32  35
HETATM   35  C11 UNL     1      16.073 -26.200   5.141  1.00  0.00     0.129 A 
HETATM   36  C12 UNL     1      17.094 -27.257   4.727  1.00  0.00     0.023 A 
HETATM   37  C13 UNL     1      17.234 -26.523   6.033  1.00  0.00     0.023 A 
ENDBRANCH  32  35
ENDBRANCH  30  32
ENDBRANCH  29  30
ENDBRANCH  25  29
ENDBRANCH  21  22
ENDBRANCH  20  21
ENDBRANCH   4  20
TORSDOF 8
ENDMDL
MODEL 4
REMARK VINA RESULT: -8.490505496      1.679      2.218
REMARK  8 active torsions:
REMARK  status: ('A' for Active; 'I' for Inactive)
REMARK    1  A    between atoms: C4_4  and  C5_5 
REMARK    2  A    between atoms: C5_5  and  C6_6 
REMARK    3  A    between atoms: C6_6  and  N1_7 
REMARK    4  A    between atoms: C9_10  and  O1_11 
REMARK    5  A    between atoms: C9_10  and  C10_13 
REMARK    6  A    between atoms: C10_13  and  N2_14 
REMARK    7  A    between atoms: N2_14  and  S1_16 
REMARK    8  A    between atoms: S1_16  and  C11_19 
ROOT
HETATM    1  C1  UNL     1      14.897 -24.836  -0.919  1.00  0.00     0.046 C 
HETATM    2  C2  UNL     1      14.622 -26.030  -1.735  1.00  0.00    -0.058 C 
HETATM    3  C3  UNL     1      15.663 -26.749  -2.213  1.00  0.00     0.028 C 
HETATM    4  C4  UNL     1      16.970 -26.246  -1.861  1.00  0.00     0.004 C 
HETATM    5  N3  UNL     1      15.550 -27.887  -3.051  1.00  0.00    -0.375 N 
HETATM    6  C15 UNL     1      16.807 -28.446  -3.424  1.00  0.00     0.123 C 
HETATM    7  C16 UNL     1      16.906 -29.829  -2.821  1.00  0.00     0.020 C 
HETATM    8  C17 UNL     1      15.841 -30.679  -3.358  1.00  0.00     0.009 C 
HETATM    9  C18 UNL     1      14.457 -30.070  -3.308  1.00  0.00     0.019 C 
HETATM   10  C19 UNL     1      13.624 -30.986  -4.147  1.00  0.00     0.087 C 
HETATM   11  S2  UNL     1      12.255 -30.232  -5.017  1.00  0.00    -0.116 SA
HETATM   12  C20 UNL     1      12.234 -28.484  -4.678  1.00  0.00     0.046 C 
HETATM   13  N4  UNL     1      11.535 -27.705  -5.382  1.00  0.00    -0.397 N 
ATOM     14  H41 UNL     1      11.523 -26.704  -5.188  1.00  0.00     0.156 HD
ATOM     15  H42 UNL     1      10.949 -27.988  -6.167  1.00  0.00     0.156 HD
HETATM   16  C21 UNL     1      13.096 -28.068  -3.522  1.00  0.00     0.065 C 
HETATM   17  C22 UNL     1      12.944 -26.575  -3.440  1.00  0.00     0.018 C 
HETATM   18  C23 UNL     1      13.171 -26.292  -1.943  1.00  0.00     0.037 C 
HETATM   19  C24 UNL     1      14.431 -28.622  -3.652  1.00  0.00     0.099 C 
ENDROOT
BRANCH   4  20
HETATM   20  C5  UNL     1      17.824 -26.905  -0.865  1.00  0.00     0.059 C 
BRANCH  20  21
HETATM   21  C6  UNL     1      18.790 -25.811  -0.348  1.00  0.00     0.276 C 
BRANCH  21  22
HETATM   22  N1  UNL     1      19.028 -25.898   1.055  1.00  0.00     0.091 N 
HETATM   23  C7  UNL     1      19.705 -24.754   1.612  1.00  0.00     0.275 C 
HETATM   24  C8  UNL     1      18.857 -24.274   2.799  1.00  0.00     0.071 C 
HETATM   25  C9  UNL     1      17.473 -24.579   2.253  1.00  0.00     0.102 C 
HETATM   26  C14 UNL     1      17.703 -25.960   1.681  1.00  0.00     0.311 C 
BRANCH  25  27
HETATM   27  O1  UNL     1      17.215 -23.620   1.283  1.00  0.00    -0.386 OA
ATOM     28  H1  UNL     1      16.944 -24.092   0.505  1.00  0.00     0.210 HD
ENDBRANCH  25  27
BRANCH  25  29
HETATM   29  C10 UNL     1      16.429 -24.592   3.336  1.00  0.00     0.171 C 
BRANCH  29  30
HETATM   30  N2  UNL     1      16.097 -25.908   3.784  1.00  0.00    -0.316 N 
ATOM     31  H2  UNL     1      15.642 -26.631   3.226  1.00  0.00     0.172 HD
BRANCH  30  32
HETATM   32  S1  UNL     1      16.596 -26.065   5.429  1.00  0.00     0.230 S 
HETATM   33  O2  UNL     1      17.191 -24.781   5.901  1.00  0.00    -0.206 OA
HETATM   34  O3  UNL     1      15.390 -26.442   6.266  1.00  0.00    -0.206 OA
BRANCH  32  35
HETATM   35  C11 UNL     1      17.765 -27.412   5.591  1.00  0.00     0.129 A 
HETATM   36  C12 UNL     1      17.903 -28.355   4.398  1.00  0.00     0.023 A 
HETATM   37  C13 UNL     1      18.982 -27.357   4.719  1.00  0.00     0.023 A 
ENDBRANCH  32  35
ENDBRANCH  30  32
ENDBRANCH  29  30
ENDBRANCH  25  29
ENDBRANCH  21  22
ENDBRANCH  20  21
ENDBRANCH   4  20
TORSDOF 8
ENDMDL
MODEL 5
REMARK VINA RESULT: -8.414423915      1.671      2.070
REMARK  8 active torsions:
REMARK  status: ('A' for Active; 'I' for Inactive)
REMARK    1  A    between atoms: C4_4  and  C5_5 
REMARK    2  A    between atoms: C5_5  and  C6_6 
REMARK    3  A    between atoms: C6_6  and  N1_7 
REMARK    4  A    between atoms: C9_10  and  O1_11 
REMARK    5  A    between atoms: C9_10  and  C10_13 
REMARK    6  A    between atoms: C10_13  and  N2_14 
REMARK    7  A    between atoms: N2_14  and  S1_16 
REMARK    8  A    between atoms: S1_16  and  C11_19 
ROOT
HETATM    1  C1  UNL     1      15.399 -25.173  -1.042  1.00  0.00     0.046 C 
HETATM    2  C2  UNL     1      14.949 -26.327  -1.838  1.00  0.00    -0.058 C 
HETATM    3  C3  UNL     1      15.874 -27.186  -2.324  1.00  0.00     0.028 C 
HETATM    4  C4  UNL     1      17.243 -26.862  -2.001  1.00  0.00     0.004 C 
HETATM    5  N3  UNL     1      15.591 -28.306  -3.146  1.00  0.00    -0.375 N 
HETATM    6  C15 UNL     1      16.754 -29.035  -3.533  1.00  0.00     0.123 C 
HETATM    7  C16 UNL     1      16.674 -30.413  -2.914  1.00  0.00     0.020 C 
HETATM    8  C17 UNL     1      15.494 -31.115  -3.423  1.00  0.00     0.009 C 
HETATM    9  C18 UNL     1      14.207 -30.323  -3.357  1.00  0.00     0.019 C 
HETATM   10  C19 UNL     1      13.241 -31.124  -4.171  1.00  0.00     0.087 C 
HETATM   11  S2  UNL     1      11.973 -30.199  -5.028  1.00  0.00    -0.116 SA
HETATM   12  C20 UNL     1      12.196 -28.461  -4.711  1.00  0.00     0.046 C 
HETATM   13  N4  UNL     1      11.598 -27.601  -5.412  1.00  0.00    -0.397 N 
ATOM     14  H41 UNL     1      11.725 -26.606  -5.231  1.00  0.00     0.156 HD
ATOM     15  H42 UNL     1      10.965 -27.810  -6.184  1.00  0.00     0.156 HD
HETATM   16  C21 UNL     1      13.128 -28.155  -3.574  1.00  0.00     0.065 C 
HETATM   17  C22 UNL     1      13.182 -26.654  -3.508  1.00  0.00     0.018 C 
HETATM   18  C23 UNL     1      13.473 -26.390  -2.019  1.00  0.00     0.037 C 
HETATM   19  C24 UNL     1      14.372 -28.887  -3.719  1.00  0.00     0.099 C 
ENDROOT
BRANCH   4  20
HETATM   20  C5  UNL     1      18.017 -27.622  -1.010  1.00  0.00     0.059 C 
BRANCH  20  21
HETATM   21  C6  UNL     1      19.092 -26.644  -0.474  1.00  0.00     0.276 C 
BRANCH  21  22
HETATM   22  N1  UNL     1      19.269 -26.732   0.937  1.00  0.00     0.091 N 
HETATM   23  C7  UNL     1      20.477 -26.113   1.422  1.00  0.00     0.275 C 
HETATM   24  C8  UNL     1      20.059 -25.148   2.542  1.00  0.00     0.071 C 
HETATM   25  C9  UNL     1      18.728 -24.680   1.981  1.00  0.00     0.102 C 
HETATM   26  C14 UNL     1      18.143 -25.998   1.527  1.00  0.00     0.311 C 
BRANCH  25  27
HETATM   27  O1  UNL     1      19.026 -23.822   0.931  1.00  0.00    -0.386 OA
ATOM     28  H1  UNL     1      18.205 -23.423   0.671  1.00  0.00     0.210 HD
ENDBRANCH  25  27
BRANCH  25  29
HETATM   29  C10 UNL     1      17.873 -24.023   3.030  1.00  0.00     0.171 C 
BRANCH  29  30
HETATM   30  N2  UNL     1      17.743 -24.803   4.221  1.00  0.00    -0.316 N 
ATOM     31  H2  UNL     1      18.511 -25.130   4.806  1.00  0.00     0.172 HD
BRANCH  30  32
HETATM   32  S1  UNL     1      16.065 -25.098   4.498  1.00  0.00     0.230 S 
HETATM   33  O2  UNL     1      15.274 -24.671   3.307  1.00  0.00    -0.206 OA
HETATM   34  O3  UNL     1      15.872 -26.577   4.772  1.00  0.00    -0.206 OA
BRANCH  32  35
HETATM   35  C11 UNL     1      15.524 -24.235   5.970  1.00  0.00     0.129 A 
HETATM   36  C12 UNL     1      15.457 -22.712   5.894  1.00  0.00     0.023 A 
HETATM   37  C13 UNL     1      14.200 -23.538   5.896  1.00  0.00     0.023 A 
ENDBRANCH  32  35
ENDBRANCH  30  32
ENDBRANCH  29  30
ENDBRANCH  25  29
ENDBRANCH  21  22
ENDBRANCH  20  21
ENDBRANCH   4  20
TORSDOF 8
ENDMDL
