MODEL 1
REMARK VINA RESULT: -7.410407114      0.000      0.000
REMARK  10 active torsions:
REMARK  status: ('A' for Active; 'I' for Inactive)
REMARK    1  A    between atoms: C2_2  and  C4_4 
REMARK    2  A    between atoms: C4_4  and  C5_6 
REMARK    3  A    between atoms: C5_6  and  C6_7 
REMARK    4  A    between atoms: C8_10  and  C9_11 
REMARK    5  A    between atoms: C9_11  and  N1_12 
REMARK    6  A    between atoms: N1_12  and  C10_14 
REMARK    7  A    between atoms: C10_14  and  C11_15 
REMARK    8  A    between atoms: C11_15  and  O3_16 
REMARK    9  A    between atoms: C17_22  and  O4_23 
REMARK   10  A    between atoms: C25_33  and  O6_34 
ROOT
HETATM    1  C6  UNL     1      16.621 -27.155  -2.332  1.00  0.00     0.075 C 
HETATM    2  C7  UNL     1      17.494 -28.241  -1.926  1.00  0.00     0.142 C 
HETATM    3  O2  UNL     1      17.396 -29.424  -1.770  1.00  0.00    -0.297 OA
HETATM    4  C8  UNL     1      18.783 -27.465  -1.696  1.00  0.00     0.103 C 
HETATM    5  C13 UNL     1      18.279 -26.345  -0.883  1.00  0.00    -0.053 C 
HETATM    6  C14 UNL     1      18.691 -26.236   0.538  1.00  0.00    -0.041 C 
HETATM    7  C15 UNL     1      18.448 -27.343   1.476  1.00  0.00     0.040 C 
HETATM    8  C16 UNL     1      17.999 -26.992   2.868  1.00  0.00     0.044 C 
HETATM    9  C17 UNL     1      18.423 -25.696   3.422  1.00  0.00     0.078 C 
HETATM   10  C18 UNL     1      19.338 -25.810   4.653  1.00  0.00     0.086 C 
HETATM   11  C19 UNL     1      18.624 -26.631   5.707  1.00  0.00     0.021 C 
HETATM   12  C20 UNL     1      19.393 -24.406   5.212  1.00  0.00     0.133 C 
HETATM   13  O5  UNL     1      19.768 -24.333   6.374  1.00  0.00    -0.297 OA
HETATM   14  C21 UNL     1      19.030 -23.211   4.433  1.00  0.00     0.080 C 
HETATM   15  C22 UNL     1      19.199 -23.351   2.956  1.00  0.00     0.023 C 
HETATM   16  C23 UNL     1      19.113 -24.786   2.462  1.00  0.00     0.023 C 
HETATM   17  C24 UNL     1      20.564 -25.227   2.372  1.00  0.00     0.022 C 
HETATM   18  C25 UNL     1      18.442 -24.847   1.076  1.00  0.00     0.092 C 
HETATM   19  C26 UNL     1      17.109 -24.296   1.004  1.00  0.00     0.043 C 
HETATM   20  C27 UNL     1      15.881 -25.078   0.797  1.00  0.00     0.004 C 
HETATM   21  C28 UNL     1      15.846 -26.193  -0.156  1.00  0.00     0.014 C 
HETATM   22  C29 UNL     1      16.843 -26.122  -1.261  1.00  0.00    -0.009 C 
HETATM   23  C30 UNL     1      16.595 -24.770  -1.946  1.00  0.00     0.021 C 
ENDROOT
BRANCH   4  24
HETATM   24  C9  UNL     1      19.903 -28.290  -1.314  1.00  0.00     0.130 C 
BRANCH  24  25
HETATM   25  N1  UNL     1      20.447 -29.056  -2.421  1.00  0.00    -0.418 N 
ATOM     26  H1  UNL     1      19.945 -29.179  -3.300  1.00  0.00     0.153 HD
BRANCH  25  27
HETATM   27  C10 UNL     1      21.734 -29.625  -2.189  1.00  0.00     0.140 C 
BRANCH  27  28
HETATM   28  C11 UNL     1      21.837 -31.021  -2.816  1.00  0.00     0.186 C 
BRANCH  28  29
HETATM   29  O3  UNL     1      23.168 -31.376  -2.852  1.00  0.00    -0.394 OA
HETATM   30  C12 UNL     1      23.704 -31.416  -4.114  1.00  0.00     0.201 C 
ENDBRANCH  28  29
ENDBRANCH  27  28
ENDBRANCH  25  27
ENDBRANCH  24  25
ENDBRANCH   4  24
BRANCH   1  31
HETATM   31  C5  UNL     1      15.233 -27.465  -2.699  1.00  0.00     0.096 C 
BRANCH  31  32
HETATM   32  C4  UNL     1      15.081 -28.371  -3.854  1.00  0.00     0.155 C 
HETATM   33  O1  UNL     1      15.735 -28.234  -4.897  1.00  0.00    -0.293 OA
BRANCH  32  34
HETATM   34  C2  UNL     1      14.143 -29.467  -3.791  1.00  0.00    -0.025 C 
HETATM   35  C1  UNL     1      14.468 -30.681  -3.386  1.00  0.00     0.022 C 
HETATM   36  C3  UNL     1      12.722 -29.218  -4.208  1.00  0.00     0.051 C 
ENDBRANCH  32  34
ENDBRANCH  31  32
ENDBRANCH   1  31
BRANCH  18  37
HETATM   37  O6  UNL     1      19.312 -23.960   0.370  1.00  0.00    -0.384 OA
ATOM     38  H6  UNL     1      18.941 -23.088   0.441  1.00  0.00     0.211 HD
ENDBRANCH  18  37
BRANCH   9  39
HETATM   39  O4  UNL     1      17.276 -25.087   3.997  1.00  0.00    -0.388 OA
ATOM     40  H4  UNL     1      16.585 -25.115   3.346  1.00  0.00     0.210 HD
ENDBRANCH   9  39
TORSDOF 10
ENDMDL
MODEL 2
REMARK VINA RESULT: -7.334215933      1.144      1.237
REMARK  10 active torsions:
REMARK  status: ('A' for Active; 'I' for Inactive)
REMARK    1  A    between atoms: C2_2  and  C4_4 
REMARK    2  A    between atoms: C4_4  and  C5_6 
REMARK    3  A    between atoms: C5_6  and  C6_7 
REMARK    4  A    between atoms: C8_10  and  C9_11 
REMARK    5  A    between atoms: C9_11  and  N1_12 
REMARK    6  A    between atoms: N1_12  and  C10_14 
REMARK    7  A    between atoms: C10_14  and  C11_15 
REMARK    8  A    between atoms: C11_15  and  O3_16 
REMARK    9  A    between atoms: C17_22  and  O4_23 
REMARK   10  A    between atoms: C25_33  and  O6_34 
ROOT
HETATM    1  C6  UNL     1      17.448 -27.031  -1.722  1.00  0.00     0.075 C 
HETATM    2  C7  UNL     1      18.574 -27.887  -1.395  1.00  0.00     0.142 C 
HETATM    3  O2  UNL     1      18.769 -29.064  -1.285  1.00  0.00    -0.297 OA
HETATM    4  C8  UNL     1      19.650 -26.832  -1.184  1.00  0.00     0.103 C 
HETATM    5  C13 UNL     1      18.932 -25.892  -0.306  1.00  0.00    -0.053 C 
HETATM    6  C14 UNL     1      19.374 -25.731   1.101  1.00  0.00    -0.041 C 
HETATM    7  C15 UNL     1      19.447 -26.892   2.001  1.00  0.00     0.040 C 
HETATM    8  C16 UNL     1      18.995 -26.702   3.422  1.00  0.00     0.044 C 
HETATM    9  C17 UNL     1      19.123 -25.360   4.013  1.00  0.00     0.078 C 
HETATM   10  C18 UNL     1      20.097 -25.288   5.202  1.00  0.00     0.086 C 
HETATM   11  C19 UNL     1      19.651 -26.289   6.247  1.00  0.00     0.021 C 
HETATM   12  C20 UNL     1      19.842 -23.930   5.815  1.00  0.00     0.133 C 
HETATM   13  O5  UNL     1      20.244 -23.805   6.964  1.00  0.00    -0.297 OA
HETATM   14  C21 UNL     1      19.167 -22.834   5.102  1.00  0.00     0.080 C 
HETATM   15  C22 UNL     1      19.294 -22.884   3.615  1.00  0.00     0.023 C 
HETATM   16  C23 UNL     1      19.529 -24.282   3.066  1.00  0.00     0.023 C 
HETATM   17  C24 UNL     1      21.037 -24.357   2.900  1.00  0.00     0.022 C 
HETATM   18  C25 UNL     1      18.827 -24.459   1.705  1.00  0.00     0.092 C 
HETATM   19  C26 UNL     1      17.399 -24.242   1.709  1.00  0.00     0.043 C 
HETATM   20  C27 UNL     1      16.385 -25.291   1.517  1.00  0.00     0.004 C 
HETATM   21  C28 UNL     1      16.571 -26.351   0.521  1.00  0.00     0.014 C 
HETATM   22  C29 UNL     1      17.468 -26.008  -0.618  1.00  0.00    -0.009 C 
HETATM   23  C30 UNL     1      16.871 -24.735  -1.237  1.00  0.00     0.021 C 
ENDROOT
BRANCH   4  24
HETATM   24  C9  UNL     1      20.952 -27.375  -0.881  1.00  0.00     0.130 C 
BRANCH  24  25
HETATM   25  N1  UNL     1      21.548 -28.078  -2.002  1.00  0.00    -0.418 N 
ATOM     26  H1  UNL     1      21.536 -27.705  -2.951  1.00  0.00     0.153 HD
BRANCH  25  27
HETATM   27  C10 UNL     1      22.153 -29.328  -1.680  1.00  0.00     0.140 C 
BRANCH  27  28
HETATM   28  C11 UNL     1      21.750 -30.409  -2.691  1.00  0.00     0.186 C 
BRANCH  28  29
HETATM   29  O3  UNL     1      22.683 -31.420  -2.630  1.00  0.00    -0.394 OA
HETATM   30  C12 UNL     1      23.546 -31.452  -3.696  1.00  0.00     0.201 C 
ENDBRANCH  28  29
ENDBRANCH  27  28
ENDBRANCH  25  27
ENDBRANCH  24  25
ENDBRANCH   4  24
BRANCH   1  31
HETATM   31  C5  UNL     1      16.158 -27.654  -2.046  1.00  0.00     0.096 C 
BRANCH  31  32
HETATM   32  C4  UNL     1      16.045 -28.172  -3.424  1.00  0.00     0.155 C 
HETATM   33  O1  UNL     1      16.099 -27.434  -4.417  1.00  0.00    -0.293 OA
BRANCH  32  34
HETATM   34  C2  UNL     1      15.866 -29.586  -3.650  1.00  0.00    -0.025 C 
HETATM   35  C1  UNL     1      15.720 -30.120  -4.848  1.00  0.00     0.022 C 
HETATM   36  C3  UNL     1      15.844 -30.504  -2.461  1.00  0.00     0.051 C 
ENDBRANCH  32  34
ENDBRANCH  31  32
ENDBRANCH   1  31
BRANCH  18  37
HETATM   37  O6  UNL     1      19.425 -23.368   1.003  1.00  0.00    -0.384 OA
ATOM     38  H6  UNL     1      19.172 -23.450   0.091  1.00  0.00     0.211 HD
ENDBRANCH  18  37
BRANCH   9  39
HETATM   39  O4  UNL     1      17.893 -25.062   4.657  1.00  0.00    -0.388 OA
ATOM     40  H4  UNL     1      17.195 -25.308   4.061  1.00  0.00     0.210 HD
ENDBRANCH   9  39
TORSDOF 10
ENDMDL
MODEL 3
REMARK VINA RESULT: -7.125475531      3.190      5.839
REMARK  10 active torsions:
REMARK  status: ('A' for Active; 'I' for Inactive)
REMARK    1  A    between atoms: C2_2  and  C4_4 
REMARK    2  A    between atoms: C4_4  and  C5_6 
REMARK    3  A    between atoms: C5_6  and  C6_7 
REMARK    4  A    between atoms: C8_10  and  C9_11 
REMARK    5  A    between atoms: C9_11  and  N1_12 
REMARK    6  A    between atoms: N1_12  and  C10_14 
REMARK    7  A    between atoms: C10_14  and  C11_15 
REMARK    8  A    between atoms: C11_15  and  O3_16 
REMARK    9  A    between atoms: C17_22  and  O4_23 
REMARK   10  A    between atoms: C25_33  and  O6_34 
ROOT
HETATM    1  C6  UNL     1      16.859 -26.069   0.009  1.00  0.00     0.075 C 
HETATM    2  C7  UNL     1      16.348 -25.052   0.910  1.00  0.00     0.142 C 
HETATM    3  O2  UNL     1      15.852 -23.967   0.806  1.00  0.00    -0.297 OA
HETATM    4  C8  UNL     1      16.601 -25.737   2.245  1.00  0.00     0.103 C 
HETATM    5  C13 UNL     1      17.995 -26.177   2.059  1.00  0.00    -0.053 C 
HETATM    6  C14 UNL     1      19.066 -25.560   2.879  1.00  0.00    -0.041 C 
HETATM    7  C15 UNL     1      19.271 -24.103   2.872  1.00  0.00     0.040 C 
HETATM    8  C16 UNL     1      20.686 -23.597   2.874  1.00  0.00     0.044 C 
HETATM    9  C17 UNL     1      21.717 -24.437   3.505  1.00  0.00     0.078 C 
HETATM   10  C18 UNL     1      22.379 -23.798   4.738  1.00  0.00     0.086 C 
HETATM   11  C19 UNL     1      22.960 -22.460   4.330  1.00  0.00     0.021 C 
HETATM   12  C20 UNL     1      23.573 -24.680   5.024  1.00  0.00     0.133 C 
HETATM   13  O5  UNL     1      24.430 -24.166   5.730  1.00  0.00    -0.297 OA
HETATM   14  C21 UNL     1      23.709 -26.050   4.504  1.00  0.00     0.080 C 
HETATM   15  C22 UNL     1      22.418 -26.743   4.221  1.00  0.00     0.023 C 
HETATM   16  C23 UNL     1      21.266 -25.796   3.922  1.00  0.00     0.023 C 
HETATM   17  C24 UNL     1      20.557 -25.656   5.258  1.00  0.00     0.022 C 
HETATM   18  C25 UNL     1      20.319 -26.403   2.869  1.00  0.00     0.092 C 
HETATM   19  C26 UNL     1      20.929 -26.737   1.602  1.00  0.00     0.043 C 
HETATM   20  C27 UNL     1      20.673 -26.041   0.332  1.00  0.00     0.004 C 
HETATM   21  C28 UNL     1      19.319 -25.614  -0.038  1.00  0.00     0.014 C 
HETATM   22  C29 UNL     1      18.211 -26.388   0.588  1.00  0.00    -0.009 C 
HETATM   23  C30 UNL     1      18.476 -27.854   0.213  1.00  0.00     0.021 C 
ENDROOT
BRANCH   4  24
HETATM   24  C9  UNL     1      16.146 -24.983   3.387  1.00  0.00     0.130 C 
BRANCH  24  25
HETATM   25  N1  UNL     1      15.494 -25.807   4.388  1.00  0.00    -0.418 N 
ATOM     26  H1  UNL     1      14.797 -26.512   4.148  1.00  0.00     0.153 HD
BRANCH  25  27
HETATM   27  C10 UNL     1      15.897 -25.558   5.733  1.00  0.00     0.140 C 
BRANCH  27  28
HETATM   28  C11 UNL     1      16.999 -26.535   6.164  1.00  0.00     0.186 C 
BRANCH  28  29
HETATM   29  O3  UNL     1      17.598 -26.030   7.297  1.00  0.00    -0.394 OA
HETATM   30  C12 UNL     1      17.648 -24.660   7.341  1.00  0.00     0.201 C 
ENDBRANCH  28  29
ENDBRANCH  27  28
ENDBRANCH  25  27
ENDBRANCH  24  25
ENDBRANCH   4  24
BRANCH   1  31
HETATM   31  C5  UNL     1      16.780 -25.834  -1.439  1.00  0.00     0.096 C 
BRANCH  31  32
HETATM   32  C4  UNL     1      15.562 -26.357  -2.089  1.00  0.00     0.155 C 
HETATM   33  O1  UNL     1      14.453 -25.825  -1.949  1.00  0.00    -0.293 OA
BRANCH  32  34
HETATM   34  C2  UNL     1      15.642 -27.530  -2.927  1.00  0.00    -0.025 C 
HETATM   35  C1  UNL     1      14.588 -28.102  -3.480  1.00  0.00     0.022 C 
HETATM   36  C3  UNL     1      16.991 -28.136  -3.186  1.00  0.00     0.051 C 
ENDBRANCH  32  34
ENDBRANCH  31  32
ENDBRANCH   1  31
BRANCH  18  37
HETATM   37  O6  UNL     1      20.007 -27.630   3.531  1.00  0.00    -0.384 OA
ATOM     38  H6  UNL     1      20.606 -27.714   4.263  1.00  0.00     0.211 HD
ENDBRANCH  18  37
BRANCH   9  39
HETATM   39  O4  UNL     1      22.819 -24.498   2.611  1.00  0.00    -0.388 OA
ATOM     40  H4  UNL     1      23.534 -24.922   3.072  1.00  0.00     0.210 HD
ENDBRANCH   9  39
TORSDOF 10
ENDMDL
MODEL 4
REMARK VINA RESULT: -7.070939660      1.240      1.483
REMARK  10 active torsions:
REMARK  status: ('A' for Active; 'I' for Inactive)
REMARK    1  A    between atoms: C2_2  and  C4_4 
REMARK    2  A    between atoms: C4_4  and  C5_6 
REMARK    3  A    between atoms: C5_6  and  C6_7 
REMARK    4  A    between atoms: C8_10  and  C9_11 
REMARK    5  A    between atoms: C9_11  and  N1_12 
REMARK    6  A    between atoms: N1_12  and  C10_14 
REMARK    7  A    between atoms: C10_14  and  C11_15 
REMARK    8  A    between atoms: C11_15  and  O3_16 
REMARK    9  A    between atoms: C17_22  and  O4_23 
REMARK   10  A    between atoms: C25_33  and  O6_34 
ROOT
HETATM    1  C6  UNL     1      17.560 -27.069  -1.620  1.00  0.00     0.075 C 
HETATM    2  C7  UNL     1      18.719 -27.888  -1.317  1.00  0.00     0.142 C 
HETATM    3  O2  UNL     1      18.953 -29.058  -1.203  1.00  0.00    -0.297 OA
HETATM    4  C8  UNL     1      19.767 -26.800  -1.139  1.00  0.00     0.103 C 
HETATM    5  C13 UNL     1      19.043 -25.875  -0.250  1.00  0.00    -0.053 C 
HETATM    6  C14 UNL     1      19.515 -25.691   1.145  1.00  0.00    -0.041 C 
HETATM    7  C15 UNL     1      19.646 -26.843   2.051  1.00  0.00     0.040 C 
HETATM    8  C16 UNL     1      19.223 -26.657   3.482  1.00  0.00     0.044 C 
HETATM    9  C17 UNL     1      19.325 -25.307   4.060  1.00  0.00     0.078 C 
HETATM   10  C18 UNL     1      20.326 -25.197   5.224  1.00  0.00     0.086 C 
HETATM   11  C19 UNL     1      19.937 -26.203   6.286  1.00  0.00     0.021 C 
HETATM   12  C20 UNL     1      20.045 -23.843   5.835  1.00  0.00     0.133 C 
HETATM   13  O5  UNL     1      20.471 -23.698   6.972  1.00  0.00    -0.297 OA
HETATM   14  C21 UNL     1      19.320 -22.773   5.131  1.00  0.00     0.080 C 
HETATM   15  C22 UNL     1      19.411 -22.829   3.642  1.00  0.00     0.023 C 
HETATM   16  C23 UNL     1      19.675 -24.224   3.096  1.00  0.00     0.023 C 
HETATM   17  C24 UNL     1      21.180 -24.255   2.893  1.00  0.00     0.022 C 
HETATM   18  C25 UNL     1      18.945 -24.432   1.755  1.00  0.00     0.092 C 
HETATM   19  C26 UNL     1      17.512 -24.258   1.792  1.00  0.00     0.043 C 
HETATM   20  C27 UNL     1      16.525 -25.338   1.633  1.00  0.00     0.004 C 
HETATM   21  C28 UNL     1      16.719 -26.400   0.639  1.00  0.00     0.014 C 
HETATM   22  C29 UNL     1      17.576 -26.038  -0.524  1.00  0.00    -0.009 C 
HETATM   23  C30 UNL     1      16.926 -24.788  -1.136  1.00  0.00     0.021 C 
ENDROOT
BRANCH   4  24
HETATM   24  C9  UNL     1      21.092 -27.301  -0.865  1.00  0.00     0.130 C 
BRANCH  24  25
HETATM   25  N1  UNL     1      21.632 -28.100  -1.950  1.00  0.00    -0.418 N 
ATOM     26  H1  UNL     1      21.456 -27.881  -2.931  1.00  0.00     0.153 HD
BRANCH  25  27
HETATM   27  C10 UNL     1      22.427 -29.212  -1.545  1.00  0.00     0.140 C 
BRANCH  27  28
HETATM   28  C11 UNL     1      22.029 -30.479  -2.314  1.00  0.00     0.186 C 
BRANCH  28  29
HETATM   29  O3  UNL     1      23.159 -31.247  -2.485  1.00  0.00    -0.394 OA
HETATM   30  C12 UNL     1      23.565 -31.365  -3.790  1.00  0.00     0.201 C 
ENDBRANCH  28  29
ENDBRANCH  27  28
ENDBRANCH  25  27
ENDBRANCH  24  25
ENDBRANCH   4  24
BRANCH   1  31
HETATM   31  C5  UNL     1      16.282 -27.733  -1.908  1.00  0.00     0.096 C 
BRANCH  31  32
HETATM   32  C4  UNL     1      15.522 -27.159  -3.037  1.00  0.00     0.155 C 
HETATM   33  O1  UNL     1      16.067 -26.793  -4.087  1.00  0.00    -0.293 OA
BRANCH  32  34
HETATM   34  C2  UNL     1      14.090 -27.010  -2.938  1.00  0.00    -0.025 C 
HETATM   35  C1  UNL     1      13.231 -27.811  -3.541  1.00  0.00     0.022 C 
HETATM   36  C3  UNL     1      13.542 -25.886  -2.106  1.00  0.00     0.051 C 
ENDBRANCH  32  34
ENDBRANCH  31  32
ENDBRANCH   1  31
BRANCH  18  37
HETATM   37  O6  UNL     1      19.492 -23.329   1.031  1.00  0.00    -0.384 OA
ATOM     38  H6  UNL     1      20.192 -23.670   0.486  1.00  0.00     0.211 HD
ENDBRANCH  18  37
BRANCH   9  39
HETATM   39  O4  UNL     1      18.103 -25.041   4.732  1.00  0.00    -0.388 OA
ATOM     40  H4  UNL     1      18.124 -25.516   5.555  1.00  0.00     0.210 HD
ENDBRANCH   9  39
TORSDOF 10
ENDMDL
MODEL 5
REMARK VINA RESULT: -6.653113652      6.571     10.053
REMARK  10 active torsions:
REMARK  status: ('A' for Active; 'I' for Inactive)
REMARK    1  A    between atoms: C2_2  and  C4_4 
REMARK    2  A    between atoms: C4_4  and  C5_6 
REMARK    3  A    between atoms: C5_6  and  C6_7 
REMARK    4  A    between atoms: C8_10  and  C9_11 
REMARK    5  A    between atoms: C9_11  and  N1_12 
REMARK    6  A    between atoms: N1_12  and  C10_14 
REMARK    7  A    between atoms: C10_14  and  C11_15 
REMARK    8  A    between atoms: C11_15  and  O3_16 
REMARK    9  A    between atoms: C17_22  and  O4_23 
REMARK   10  A    between atoms: C25_33  and  O6_34 
ROOT
HETATM    1  C6  UNL     1      24.368 -29.355  -0.349  1.00  0.00     0.075 C 
HETATM    2  C7  UNL     1      25.157 -30.015  -1.373  1.00  0.00     0.142 C 
HETATM    3  O2  UNL     1      24.953 -30.789  -2.265  1.00  0.00    -0.297 OA
HETATM    4  C8  UNL     1      26.530 -29.444  -1.052  1.00  0.00     0.103 C 
HETATM    5  C13 UNL     1      26.570 -29.649   0.406  1.00  0.00    -0.053 C 
HETATM    6  C14 UNL     1      27.529 -30.627   0.975  1.00  0.00    -0.041 C 
HETATM    7  C15 UNL     1      27.520 -32.031   0.535  1.00  0.00     0.040 C 
HETATM    8  C16 UNL     1      27.727 -33.091   1.580  1.00  0.00     0.044 C 
HETATM    9  C17 UNL     1      28.528 -32.743   2.765  1.00  0.00     0.078 C 
HETATM   10  C18 UNL     1      29.832 -33.548   2.899  1.00  0.00     0.086 C 
HETATM   11  C19 UNL     1      29.487 -35.023   2.905  1.00  0.00     0.021 C 
HETATM   12  C20 UNL     1      30.318 -33.248   4.299  1.00  0.00     0.133 C 
HETATM   13  O5  UNL     1      31.134 -34.046   4.739  1.00  0.00    -0.297 OA
HETATM   14  C21 UNL     1      29.857 -32.091   5.084  1.00  0.00     0.080 C 
HETATM   15  C22 UNL     1      29.395 -30.927   4.271  1.00  0.00     0.023 C 
HETATM   16  C23 UNL     1      28.903 -31.305   2.883  1.00  0.00     0.023 C 
HETATM   17  C24 UNL     1      30.110 -31.069   1.993  1.00  0.00     0.022 C 
HETATM   18  C25 UNL     1      27.731 -30.400   2.455  1.00  0.00     0.092 C 
HETATM   19  C26 UNL     1      26.581 -30.415   3.329  1.00  0.00     0.043 C 
HETATM   20  C27 UNL     1      25.270 -30.991   2.992  1.00  0.00     0.004 C 
HETATM   21  C28 UNL     1      24.688 -30.817   1.656  1.00  0.00     0.014 C 
HETATM   22  C29 UNL     1      25.155 -29.617   0.907  1.00  0.00    -0.009 C 
HETATM   23  C30 UNL     1      24.859 -28.422   1.826  1.00  0.00     0.021 C 
ENDROOT
BRANCH   4  24
HETATM   24  C9  UNL     1      27.571 -29.881  -1.951  1.00  0.00     0.130 C 
BRANCH  24  25
HETATM   25  N1  UNL     1      27.436 -29.329  -3.286  1.00  0.00    -0.418 N 
ATOM     26  H1  UNL     1      27.231 -28.344  -3.453  1.00  0.00     0.153 HD
BRANCH  25  27
HETATM   27  C10 UNL     1      27.613 -30.263  -4.348  1.00  0.00     0.140 C 
BRANCH  27  28
HETATM   28  C11 UNL     1      26.435 -30.206  -5.330  1.00  0.00     0.186 C 
BRANCH  28  29
HETATM   29  O3  UNL     1      25.860 -31.457  -5.379  1.00  0.00    -0.394 OA
HETATM   30  C12 UNL     1      24.534 -31.451  -5.730  1.00  0.00     0.201 C 
ENDBRANCH  28  29
ENDBRANCH  27  28
ENDBRANCH  25  27
ENDBRANCH  24  25
ENDBRANCH   4  24
BRANCH   1  31
HETATM   31  C5  UNL     1      22.921 -29.598  -0.306  1.00  0.00     0.096 C 
BRANCH  31  32
HETATM   32  C4  UNL     1      22.106 -28.655  -1.097  1.00  0.00     0.155 C 
HETATM   33  O1  UNL     1      22.076 -27.440  -0.857  1.00  0.00    -0.293 OA
BRANCH  32  34
HETATM   34  C2  UNL     1      21.308 -29.140  -2.198  1.00  0.00    -0.025 C 
HETATM   35  C1  UNL     1      21.510 -30.305  -2.785  1.00  0.00     0.022 C 
HETATM   36  C3  UNL     1      20.188 -28.278  -2.706  1.00  0.00     0.051 C 
ENDBRANCH  32  34
ENDBRANCH  31  32
ENDBRANCH   1  31
BRANCH  18  37
HETATM   37  O6  UNL     1      28.366 -29.129   2.603  1.00  0.00    -0.384 OA
ATOM     38  H6  UNL     1      28.473 -28.976   3.535  1.00  0.00     0.211 HD
ENDBRANCH  18  37
BRANCH   9  39
HETATM   39  O4  UNL     1      27.815 -33.199   3.906  1.00  0.00    -0.388 OA
ATOM     40  H4  UNL     1      26.906 -32.945   3.792  1.00  0.00     0.210 HD
ENDBRANCH   9  39
TORSDOF 10
ENDMDL
