MODEL 1
REMARK VINA RESULT: -10.065430714      0.000      0.000
REMARK  10 active torsions:
REMARK  status: ('A' for Active; 'I' for Inactive)
REMARK    1  A    between atoms: C2_2  and  C3_3 
REMARK    2  A    between atoms: C4_6  and  N2_7 
REMARK    3  A    between atoms: N2_7  and  C5_9 
REMARK    4  A    between atoms: C5_9  and  C6_10 
REMARK    5  A    between atoms: C6_10  and  C7_11 
REMARK    6  A    between atoms: C13_19  and  N4_20 
REMARK    7  A    between atoms: C18_27  and  S1_28 
REMARK    8  A    between atoms: S1_28  and  N5_31 
REMARK    9  A    between atoms: N5_31  and  C19_33 
REMARK   10  A    between atoms: C24_38  and  N6_39 
ROOT
HETATM    1  C3  UNL     1      14.767 -25.789  -2.442  1.00  0.00     0.053 A 
HETATM    2  N1  UNL     1      13.593 -25.111  -2.320  1.00  0.00    -0.194 N 
ATOM      3  H1  UNL     1      13.629 -24.187  -1.888  1.00  0.00     0.184 HD
HETATM    4  C4  UNL     1      12.405 -25.551  -2.718  1.00  0.00     0.683 A 
HETATM    5  N3  UNL     1      12.390 -26.760  -3.278  1.00  0.00    -0.174 N 
ATOM      6  H3  UNL     1      11.497 -27.136  -3.598  1.00  0.00     0.186 HD
HETATM    7  C13 UNL     1      13.528 -27.530  -3.447  1.00  0.00     0.153 A 
HETATM    8  C18 UNL     1      14.730 -27.076  -3.048  1.00  0.00     0.147 A 
ENDROOT
BRANCH   8   9
HETATM    9  S1  UNL     1      16.222 -27.860  -3.218  1.00  0.00     0.264 S 
HETATM   10  O3  UNL     1      16.192 -29.121  -4.055  1.00  0.00    -0.200 OA
HETATM   11  O4  UNL     1      17.127 -26.958  -4.094  1.00  0.00    -0.200 OA
BRANCH   9  12
HETATM   12  N5  UNL     1      17.109 -28.128  -1.825  1.00  0.00    -0.308 N 
ATOM     13  H5  UNL     1      16.603 -28.461  -1.004  1.00  0.00     0.172 HD
BRANCH  12  14
HETATM   14  C19 UNL     1      18.475 -27.936  -1.696  1.00  0.00     0.123 C 
HETATM   15  C20 UNL     1      19.273 -29.042  -2.419  1.00  0.00     0.028 C 
HETATM   16  C21 UNL     1      20.629 -28.448  -2.717  1.00  0.00     0.002 C 
HETATM   17  C22 UNL     1      21.317 -28.401  -1.337  1.00  0.00     0.002 C 
HETATM   18  C23 UNL     1      20.544 -27.491  -0.453  1.00  0.00     0.035 C 
HETATM   19  C24 UNL     1      19.070 -27.864  -0.311  1.00  0.00     0.206 C 
BRANCH  19  20
HETATM   20  N6  UNL     1      18.509 -26.734   0.452  1.00  0.00    -0.073 N 
ATOM     21  H63 UNL     1      18.914 -25.845   0.159  1.00  0.00     0.274 HD
ATOM     22  H62 UNL     1      17.538 -26.554   0.196  1.00  0.00     0.274 HD
ATOM     23  H61 UNL     1      18.611 -26.881   1.456  1.00  0.00     0.274 HD
ENDBRANCH  19  20
ENDBRANCH  12  14
ENDBRANCH   9  12
ENDBRANCH   8   9
BRANCH   1  24
HETATM   24  C2  UNL     1      16.007 -25.270  -1.886  1.00  0.00     0.055 C 
HETATM   25  C1  UNL     1      16.031 -24.691  -0.528  1.00  0.00     0.011 C 
ENDBRANCH   1  24
BRANCH   7  26
HETATM   26  N4  UNL     1      13.250 -28.832  -3.947  1.00  0.00    -0.277 N 
HETATM   27  C14 UNL     1      13.364 -30.010  -3.111  1.00  0.00     0.138 C 
HETATM   28  C15 UNL     1      13.448 -31.281  -3.852  1.00  0.00     0.047 C 
HETATM   29  C16 UNL     1      12.724 -31.390  -5.144  1.00  0.00     0.182 C 
HETATM   30  O1  UNL     1      12.825 -30.205  -5.926  1.00  0.00    -0.304 OA
HETATM   31  C17 UNL     1      12.738 -28.972  -5.247  1.00  0.00     0.368 C 
HETATM   32  O2  UNL     1      12.179 -28.040  -5.889  1.00  0.00    -0.238 OA
ENDBRANCH   7  26
BRANCH   4  33
HETATM   33  N2  UNL     1      11.334 -24.856  -2.571  1.00  0.00    -0.205 N 
ATOM     34  H2  UNL     1      10.934 -24.902  -1.634  1.00  0.00     0.183 HD
BRANCH  33  35
HETATM   35  C5  UNL     1      10.617 -24.049  -3.454  1.00  0.00     0.079 C 
BRANCH  35  36
HETATM   36  C6  UNL     1      11.394 -23.199  -4.422  1.00  0.00     0.049 C 
BRANCH  36  37
HETATM   37  C7  UNL     1      10.501 -22.781  -5.582  1.00  0.00    -0.010 C 
HETATM   38  C8  UNL     1      11.136 -23.208  -6.871  1.00  0.00     0.005 C 
HETATM   39  C9  UNL     1      10.503 -22.459  -8.044  1.00  0.00     0.000 C 
HETATM   40  C10 UNL     1       9.094 -22.083  -7.671  1.00  0.00     0.000 C 
HETATM   41  C11 UNL     1       8.466 -23.187  -6.832  1.00  0.00     0.000 C 
HETATM   42  C12 UNL     1       9.075 -23.165  -5.429  1.00  0.00     0.005 C 
ENDBRANCH  36  37
ENDBRANCH  35  36
ENDBRANCH  33  35
ENDBRANCH   4  33
TORSDOF 10
ENDMDL
MODEL 2
REMARK VINA RESULT: -9.957951532      2.158      3.062
REMARK  10 active torsions:
REMARK  status: ('A' for Active; 'I' for Inactive)
REMARK    1  A    between atoms: C2_2  and  C3_3 
REMARK    2  A    between atoms: C4_6  and  N2_7 
REMARK    3  A    between atoms: N2_7  and  C5_9 
REMARK    4  A    between atoms: C5_9  and  C6_10 
REMARK    5  A    between atoms: C6_10  and  C7_11 
REMARK    6  A    between atoms: C13_19  and  N4_20 
REMARK    7  A    between atoms: C18_27  and  S1_28 
REMARK    8  A    between atoms: S1_28  and  N5_31 
REMARK    9  A    between atoms: N5_31  and  C19_33 
REMARK   10  A    between atoms: C24_38  and  N6_39 
ROOT
HETATM    1  C3  UNL     1      14.644 -25.758  -2.693  1.00  0.00     0.053 A 
HETATM    2  N1  UNL     1      13.524 -25.005  -2.519  1.00  0.00    -0.194 N 
ATOM      3  H1  UNL     1      13.643 -24.075  -2.115  1.00  0.00     0.184 HD
HETATM    4  C4  UNL     1      12.289 -25.378  -2.832  1.00  0.00     0.683 A 
HETATM    5  N3  UNL     1      12.164 -26.597  -3.357  1.00  0.00    -0.174 N 
ATOM      6  H3  UNL     1      11.232 -26.923  -3.612  1.00  0.00     0.186 HD
HETATM    7  C13 UNL     1      13.240 -27.441  -3.573  1.00  0.00     0.153 A 
HETATM    8  C18 UNL     1      14.491 -27.054  -3.260  1.00  0.00     0.147 A 
ENDROOT
BRANCH   8   9
HETATM    9  S1  UNL     1      15.918 -27.935  -3.500  1.00  0.00     0.264 S 
HETATM   10  O3  UNL     1      17.147 -27.098  -3.785  1.00  0.00    -0.200 OA
HETATM   11  O4  UNL     1      16.312 -28.566  -2.140  1.00  0.00    -0.200 OA
BRANCH   9  12
HETATM   12  N5  UNL     1      15.853 -29.223  -4.564  1.00  0.00    -0.308 N 
ATOM     13  H5  UNL     1      15.774 -29.007  -5.558  1.00  0.00     0.172 HD
BRANCH  12  14
HETATM   14  C19 UNL     1      15.897 -30.561  -4.206  1.00  0.00     0.123 C 
HETATM   15  C20 UNL     1      16.989 -30.827  -3.147  1.00  0.00     0.028 C 
HETATM   16  C21 UNL     1      16.573 -32.091  -2.432  1.00  0.00     0.002 C 
HETATM   17  C22 UNL     1      16.848 -33.201  -3.467  1.00  0.00     0.002 C 
HETATM   18  C23 UNL     1      15.977 -32.974  -4.648  1.00  0.00     0.035 C 
HETATM   19  C24 UNL     1      16.134 -31.593  -5.281  1.00  0.00     0.206 C 
BRANCH  19  20
HETATM   20  N6  UNL     1      15.063 -31.563  -6.294  1.00  0.00    -0.073 N 
ATOM     21  H63 UNL     1      14.214 -32.017  -5.956  1.00  0.00     0.274 HD
ATOM     22  H62 UNL     1      14.695 -30.621  -6.422  1.00  0.00     0.274 HD
ATOM     23  H61 UNL     1      15.379 -31.966  -7.176  1.00  0.00     0.274 HD
ENDBRANCH  19  20
ENDBRANCH  12  14
ENDBRANCH   9  12
ENDBRANCH   8   9
BRANCH   1  24
HETATM   24  C2  UNL     1      15.946 -25.305  -2.227  1.00  0.00     0.055 C 
HETATM   25  C1  UNL     1      16.212 -25.158  -0.783  1.00  0.00     0.011 C 
ENDBRANCH   1  24
BRANCH   7  26
HETATM   26  N4  UNL     1      12.852 -28.734  -4.021  1.00  0.00    -0.277 N 
HETATM   27  C14 UNL     1      12.751 -29.857  -3.110  1.00  0.00     0.138 C 
HETATM   28  C15 UNL     1      12.745 -31.177  -3.764  1.00  0.00     0.047 C 
HETATM   29  C16 UNL     1      12.128 -31.292  -5.110  1.00  0.00     0.182 C 
HETATM   30  O1  UNL     1      12.438 -30.183  -5.946  1.00  0.00    -0.304 OA
HETATM   31  C17 UNL     1      12.442 -28.904  -5.352  1.00  0.00     0.368 C 
HETATM   32  O2  UNL     1      12.056 -27.961  -6.097  1.00  0.00    -0.238 OA
ENDBRANCH   7  26
BRANCH   4  33
HETATM   33  N2  UNL     1      11.274 -24.614  -2.640  1.00  0.00    -0.205 N 
ATOM     34  H2  UNL     1      10.940 -24.602  -1.675  1.00  0.00     0.183 HD
BRANCH  33  35
HETATM   35  C5  UNL     1      10.543 -23.797  -3.503  1.00  0.00     0.079 C 
BRANCH  35  36
HETATM   36  C6  UNL     1      11.305 -22.962  -4.495  1.00  0.00     0.049 C 
BRANCH  36  37
HETATM   37  C7  UNL     1      10.417 -22.631  -5.688  1.00  0.00    -0.010 C 
HETATM   38  C8  UNL     1      11.054 -23.161  -6.937  1.00  0.00     0.005 C 
HETATM   39  C9  UNL     1      10.429 -22.502  -8.167  1.00  0.00     0.000 C 
HETATM   40  C10 UNL     1       9.020 -22.092  -7.829  1.00  0.00     0.000 C 
HETATM   41  C11 UNL     1       8.385 -23.125  -6.910  1.00  0.00     0.000 C 
HETATM   42  C12 UNL     1       8.989 -22.997  -5.510  1.00  0.00     0.005 C 
ENDBRANCH  36  37
ENDBRANCH  35  36
ENDBRANCH  33  35
ENDBRANCH   4  33
TORSDOF 10
ENDMDL
MODEL 3
REMARK VINA RESULT: -9.003655839      1.962      8.938
REMARK  10 active torsions:
REMARK  status: ('A' for Active; 'I' for Inactive)
REMARK    1  A    between atoms: C2_2  and  C3_3 
REMARK    2  A    between atoms: C4_6  and  N2_7 
REMARK    3  A    between atoms: N2_7  and  C5_9 
REMARK    4  A    between atoms: C5_9  and  C6_10 
REMARK    5  A    between atoms: C6_10  and  C7_11 
REMARK    6  A    between atoms: C13_19  and  N4_20 
REMARK    7  A    between atoms: C18_27  and  S1_28 
REMARK    8  A    between atoms: S1_28  and  N5_31 
REMARK    9  A    between atoms: N5_31  and  C19_33 
REMARK   10  A    between atoms: C24_38  and  N6_39 
ROOT
HETATM    1  C3  UNL     1      16.111 -26.385  -2.279  1.00  0.00     0.053 A 
HETATM    2  N1  UNL     1      17.356 -26.931  -2.231  1.00  0.00    -0.194 N 
ATOM      3  H1  UNL     1      18.103 -26.359  -1.836  1.00  0.00     0.184 HD
HETATM    4  C4  UNL     1      17.680 -28.146  -2.656  1.00  0.00     0.683 A 
HETATM    5  N3  UNL     1      16.685 -28.869  -3.169  1.00  0.00    -0.174 N 
ATOM      6  H3  UNL     1      16.891 -29.809  -3.507  1.00  0.00     0.186 HD
HETATM    7  C13 UNL     1      15.384 -28.405  -3.263  1.00  0.00     0.153 A 
HETATM    8  C18 UNL     1      15.060 -27.175  -2.825  1.00  0.00     0.147 A 
ENDROOT
BRANCH   8   9
HETATM    9  S1  UNL     1      13.519 -26.469  -2.820  1.00  0.00     0.264 S 
HETATM   10  O3  UNL     1      12.423 -27.319  -3.426  1.00  0.00    -0.200 OA
HETATM   11  O4  UNL     1      13.043 -26.395  -1.347  1.00  0.00    -0.200 OA
BRANCH   9  12
HETATM   12  N5  UNL     1      13.396 -24.899  -3.387  1.00  0.00    -0.308 N 
ATOM     13  H5  UNL     1      14.187 -24.277  -3.219  1.00  0.00     0.172 HD
BRANCH  12  14
HETATM   14  C19 UNL     1      12.307 -24.376  -4.065  1.00  0.00     0.123 C 
HETATM   15  C20 UNL     1      12.644 -23.015  -4.710  1.00  0.00     0.028 C 
HETATM   16  C21 UNL     1      11.664 -22.841  -5.847  1.00  0.00     0.002 C 
HETATM   17  C22 UNL     1      10.329 -22.541  -5.134  1.00  0.00     0.002 C 
HETATM   18  C23 UNL     1       9.955 -23.721  -4.313  1.00  0.00     0.035 C 
HETATM   19  C24 UNL     1      11.023 -24.144  -3.307  1.00  0.00     0.206 C 
BRANCH  19  20
HETATM   20  N6  UNL     1      10.490 -25.407  -2.762  1.00  0.00    -0.073 N 
ATOM     21  H63 UNL     1      11.237 -26.013  -2.422  1.00  0.00     0.274 HD
ATOM     22  H62 UNL     1       9.999 -25.257  -1.881  1.00  0.00     0.274 HD
ATOM     23  H61 UNL     1       9.901 -25.883  -3.444  1.00  0.00     0.274 HD
ENDBRANCH  19  20
ENDBRANCH  12  14
ENDBRANCH   9  12
ENDBRANCH   8   9
BRANCH   1  24
HETATM   24  C2  UNL     1      15.868 -25.006  -1.882  1.00  0.00     0.055 C 
HETATM   25  C1  UNL     1      16.060 -24.589  -0.479  1.00  0.00     0.011 C 
ENDBRANCH   1  24
BRANCH   7  26
HETATM   26  N4  UNL     1      14.524 -29.298  -3.959  1.00  0.00    -0.277 N 
HETATM   27  C14 UNL     1      13.995 -28.980  -5.271  1.00  0.00     0.138 C 
HETATM   28  C15 UNL     1      12.828 -29.784  -5.672  1.00  0.00     0.047 C 
HETATM   29  C16 UNL     1      12.738 -31.185  -5.187  1.00  0.00     0.182 C 
HETATM   30  O1  UNL     1      13.151 -31.318  -3.832  1.00  0.00    -0.304 OA
HETATM   31  C17 UNL     1      14.273 -30.569  -3.419  1.00  0.00     0.368 C 
HETATM   32  O2  UNL     1      15.005 -31.125  -2.554  1.00  0.00    -0.238 OA
ENDBRANCH   7  26
BRANCH   4  33
HETATM   33  N2  UNL     1      18.880 -28.599  -2.580  1.00  0.00    -0.205 N 
ATOM     34  H2  UNL     1      19.168 -29.150  -3.390  1.00  0.00     0.183 HD
BRANCH  33  35
HETATM   35  C5  UNL     1      19.864 -28.479  -1.599  1.00  0.00     0.079 C 
BRANCH  35  36
HETATM   36  C6  UNL     1      21.185 -27.879  -1.996  1.00  0.00     0.049 C 
BRANCH  36  37
HETATM   37  C7  UNL     1      22.284 -28.929  -1.897  1.00  0.00    -0.010 C 
HETATM   38  C8  UNL     1      22.015 -30.019  -2.890  1.00  0.00     0.005 C 
HETATM   39  C9  UNL     1      22.833 -31.262  -2.542  1.00  0.00     0.000 C 
HETATM   40  C10 UNL     1      24.073 -30.832  -1.805  1.00  0.00     0.000 C 
HETATM   41  C11 UNL     1      24.586 -29.516  -2.373  1.00  0.00     0.000 C 
HETATM   42  C12 UNL     1      23.663 -28.379  -1.930  1.00  0.00     0.005 C 
ENDBRANCH  36  37
ENDBRANCH  35  36
ENDBRANCH  33  35
ENDBRANCH   4  33
TORSDOF 10
ENDMDL
MODEL 4
REMARK VINA RESULT: -8.930218383      2.286      8.936
REMARK  10 active torsions:
REMARK  status: ('A' for Active; 'I' for Inactive)
REMARK    1  A    between atoms: C2_2  and  C3_3 
REMARK    2  A    between atoms: C4_6  and  N2_7 
REMARK    3  A    between atoms: N2_7  and  C5_9 
REMARK    4  A    between atoms: C5_9  and  C6_10 
REMARK    5  A    between atoms: C6_10  and  C7_11 
REMARK    6  A    between atoms: C13_19  and  N4_20 
REMARK    7  A    between atoms: C18_27  and  S1_28 
REMARK    8  A    between atoms: S1_28  and  N5_31 
REMARK    9  A    between atoms: N5_31  and  C19_33 
REMARK   10  A    between atoms: C24_38  and  N6_39 
ROOT
HETATM    1  C3  UNL     1      16.136 -27.073  -2.157  1.00  0.00     0.053 A 
HETATM    2  N1  UNL     1      17.325 -27.130  -1.498  1.00  0.00    -0.194 N 
ATOM      3  H1  UNL     1      17.634 -26.285  -1.016  1.00  0.00     0.184 HD
HETATM    4  C4  UNL     1      18.116 -28.194  -1.428  1.00  0.00     0.683 A 
HETATM    5  N3  UNL     1      17.687 -29.282  -2.067  1.00  0.00    -0.174 N 
ATOM      6  H3  UNL     1      18.265 -30.122  -2.038  1.00  0.00     0.186 HD
HETATM    7  C13 UNL     1      16.493 -29.327  -2.767  1.00  0.00     0.153 A 
HETATM    8  C18 UNL     1      15.692 -28.247  -2.828  1.00  0.00     0.147 A 
ENDROOT
BRANCH   8   9
HETATM    9  S1  UNL     1      14.185 -28.140  -3.595  1.00  0.00     0.264 S 
HETATM   10  O3  UNL     1      14.238 -28.076  -5.106  1.00  0.00    -0.200 OA
HETATM   11  O4  UNL     1      13.460 -29.494  -3.392  1.00  0.00    -0.200 OA
BRANCH   9  12
HETATM   12  N5  UNL     1      13.113 -26.993  -3.018  1.00  0.00    -0.308 N 
ATOM     13  H5  UNL     1      12.992 -26.931  -2.007  1.00  0.00     0.172 HD
BRANCH  12  14
HETATM   14  C19 UNL     1      12.377 -26.119  -3.802  1.00  0.00     0.123 C 
HETATM   15  C20 UNL     1      11.891 -24.901  -2.987  1.00  0.00     0.028 C 
HETATM   16  C21 UNL     1      11.649 -23.799  -3.992  1.00  0.00     0.002 C 
HETATM   17  C22 UNL     1      10.360 -24.242  -4.713  1.00  0.00     0.002 C 
HETATM   18  C23 UNL     1      10.626 -25.524  -5.415  1.00  0.00     0.035 C 
HETATM   19  C24 UNL     1      11.147 -26.635  -4.507  1.00  0.00     0.206 C 
BRANCH  19  20
HETATM   20  N6  UNL     1      11.488 -27.712  -5.454  1.00  0.00    -0.073 N 
ATOM     21  H63 UNL     1      11.072 -27.552  -6.371  1.00  0.00     0.274 HD
ATOM     22  H62 UNL     1      12.472 -27.679  -5.721  1.00  0.00     0.274 HD
ATOM     23  H61 UNL     1      11.233 -28.626  -5.079  1.00  0.00     0.274 HD
ENDBRANCH  19  20
ENDBRANCH  12  14
ENDBRANCH   9  12
ENDBRANCH   8   9
BRANCH   1  24
HETATM   24  C2  UNL     1      15.383 -25.833  -2.264  1.00  0.00     0.055 C 
HETATM   25  C1  UNL     1      15.314 -24.902  -1.121  1.00  0.00     0.011 C 
ENDBRANCH   1  24
BRANCH   7  26
HETATM   26  N4  UNL     1      16.306 -30.547  -3.472  1.00  0.00    -0.277 N 
HETATM   27  C14 UNL     1      16.207 -30.585  -4.917  1.00  0.00     0.138 C 
HETATM   28  C15 UNL     1      15.617 -31.822  -5.458  1.00  0.00     0.047 C 
HETATM   29  C16 UNL     1      15.853 -33.092  -4.726  1.00  0.00     0.182 C 
HETATM   30  O1  UNL     1      15.774 -32.929  -3.315  1.00  0.00    -0.304 OA
HETATM   31  C17 UNL     1      16.338 -31.759  -2.764  1.00  0.00     0.368 C 
HETATM   32  O2  UNL     1      16.857 -31.896  -1.621  1.00  0.00    -0.238 OA
ENDBRANCH   7  26
BRANCH   4  33
HETATM   33  N2  UNL     1      19.229 -28.178  -0.786  1.00  0.00    -0.205 N 
ATOM     34  H2  UNL     1      19.165 -28.541   0.166  1.00  0.00     0.183 HD
BRANCH  33  35
HETATM   35  C5  UNL     1      20.509 -27.757  -1.146  1.00  0.00     0.079 C 
BRANCH  35  36
HETATM   36  C6  UNL     1      20.975 -28.042  -2.548  1.00  0.00     0.049 C 
BRANCH  36  37
HETATM   37  C7  UNL     1      22.096 -29.072  -2.525  1.00  0.00    -0.010 C 
HETATM   38  C8  UNL     1      22.699 -29.113  -1.153  1.00  0.00     0.005 C 
HETATM   39  C9  UNL     1      24.062 -29.804  -1.197  1.00  0.00     0.000 C 
HETATM   40  C10 UNL     1      24.074 -30.771  -2.350  1.00  0.00     0.000 C 
HETATM   41  C11 UNL     1      22.705 -31.417  -2.502  1.00  0.00     0.000 C 
HETATM   42  C12 UNL     1      21.725 -30.397  -3.085  1.00  0.00     0.005 C 
ENDBRANCH  36  37
ENDBRANCH  35  36
ENDBRANCH  33  35
ENDBRANCH   4  33
TORSDOF 10
ENDMDL
MODEL 5
REMARK VINA RESULT: -8.906190626      2.039      8.885
REMARK  10 active torsions:
REMARK  status: ('A' for Active; 'I' for Inactive)
REMARK    1  A    between atoms: C2_2  and  C3_3 
REMARK    2  A    between atoms: C4_6  and  N2_7 
REMARK    3  A    between atoms: N2_7  and  C5_9 
REMARK    4  A    between atoms: C5_9  and  C6_10 
REMARK    5  A    between atoms: C6_10  and  C7_11 
REMARK    6  A    between atoms: C13_19  and  N4_20 
REMARK    7  A    between atoms: C18_27  and  S1_28 
REMARK    8  A    between atoms: S1_28  and  N5_31 
REMARK    9  A    between atoms: N5_31  and  C19_33 
REMARK   10  A    between atoms: C24_38  and  N6_39 
ROOT
HETATM    1  C3  UNL     1      15.789 -26.341  -2.407  1.00  0.00     0.053 A 
HETATM    2  N1  UNL     1      17.015 -26.931  -2.375  1.00  0.00    -0.194 N 
ATOM      3  H1  UNL     1      17.783 -26.391  -1.976  1.00  0.00     0.184 HD
HETATM    4  C4  UNL     1      17.294 -28.150  -2.818  1.00  0.00     0.683 A 
HETATM    5  N3  UNL     1      16.271 -28.831  -3.335  1.00  0.00    -0.174 N 
ATOM      6  H3  UNL     1      16.442 -29.772  -3.687  1.00  0.00     0.186 HD
HETATM    7  C13 UNL     1      14.986 -28.321  -3.415  1.00  0.00     0.153 A 
HETATM    8  C18 UNL     1      14.708 -27.086  -2.958  1.00  0.00     0.147 A 
ENDROOT
BRANCH   8   9
HETATM    9  S1  UNL     1      13.193 -26.327  -2.934  1.00  0.00     0.264 S 
HETATM   10  O3  UNL     1      12.028 -27.209  -3.328  1.00  0.00    -0.200 OA
HETATM   11  O4  UNL     1      12.841 -26.033  -1.454  1.00  0.00    -0.200 OA
BRANCH   9  12
HETATM   12  N5  UNL     1      13.068 -24.847  -3.703  1.00  0.00    -0.308 N 
ATOM     13  H5  UNL     1      13.906 -24.266  -3.742  1.00  0.00     0.172 HD
BRANCH  12  14
HETATM   14  C19 UNL     1      11.918 -24.345  -4.293  1.00  0.00     0.123 C 
HETATM   15  C20 UNL     1      11.249 -25.394  -5.207  1.00  0.00     0.028 C 
HETATM   16  C21 UNL     1       9.796 -24.992  -5.304  1.00  0.00     0.002 C 
HETATM   17  C22 UNL     1       9.823 -23.742  -6.208  1.00  0.00     0.002 C 
HETATM   18  C23 UNL     1      10.602 -22.679  -5.524  1.00  0.00     0.035 C 
HETATM   19  C24 UNL     1      12.018 -23.097  -5.134  1.00  0.00     0.206 C 
BRANCH  19  20
HETATM   20  N6  UNL     1      12.500 -21.954  -4.337  1.00  0.00    -0.073 N 
ATOM     21  H63 UNL     1      12.817 -21.189  -4.931  1.00  0.00     0.274 HD
ATOM     22  H62 UNL     1      11.733 -21.477  -3.864  1.00  0.00     0.274 HD
ATOM     23  H61 UNL     1      13.224 -22.244  -3.679  1.00  0.00     0.274 HD
ENDBRANCH  19  20
ENDBRANCH  12  14
ENDBRANCH   9  12
ENDBRANCH   8   9
BRANCH   1  24
HETATM   24  C2  UNL     1      15.597 -24.960  -1.990  1.00  0.00     0.055 C 
HETATM   25  C1  UNL     1      15.908 -24.549  -0.607  1.00  0.00     0.011 C 
ENDBRANCH   1  24
BRANCH   7  26
HETATM   26  N4  UNL     1      14.091 -29.173  -4.118  1.00  0.00    -0.277 N 
HETATM   27  C14 UNL     1      13.568 -28.819  -5.422  1.00  0.00     0.138 C 
HETATM   28  C15 UNL     1      12.370 -29.576  -5.827  1.00  0.00     0.047 C 
HETATM   29  C16 UNL     1      12.234 -30.979  -5.361  1.00  0.00     0.182 C 
HETATM   30  O1  UNL     1      12.650 -31.146  -4.010  1.00  0.00    -0.304 OA
HETATM   31  C17 UNL     1      13.799 -30.442  -3.593  1.00  0.00     0.368 C 
HETATM   32  O2  UNL     1      14.516 -31.035  -2.740  1.00  0.00    -0.238 OA
ENDBRANCH   7  26
BRANCH   4  33
HETATM   33  N2  UNL     1      18.478 -28.646  -2.756  1.00  0.00    -0.205 N 
ATOM     34  H2  UNL     1      18.761 -29.151  -3.597  1.00  0.00     0.183 HD
BRANCH  33  35
HETATM   35  C5  UNL     1      19.449 -28.623  -1.755  1.00  0.00     0.079 C 
BRANCH  35  36
HETATM   36  C6  UNL     1      20.754 -27.939  -2.056  1.00  0.00     0.049 C 
BRANCH  36  37
HETATM   37  C7  UNL     1      21.904 -28.928  -1.917  1.00  0.00    -0.010 C 
HETATM   38  C8  UNL     1      21.740 -30.019  -2.932  1.00  0.00     0.005 C 
HETATM   39  C9  UNL     1      22.610 -31.220  -2.559  1.00  0.00     0.000 C 
HETATM   40  C10 UNL     1      23.790 -30.730  -1.763  1.00  0.00     0.000 C 
HETATM   41  C11 UNL     1      24.254 -29.382  -2.295  1.00  0.00     0.000 C 
HETATM   42  C12 UNL     1      23.251 -28.303  -1.883  1.00  0.00     0.005 C 
ENDBRANCH  36  37
ENDBRANCH  35  36
ENDBRANCH  33  35
ENDBRANCH   4  33
TORSDOF 10
ENDMDL
