MODEL 1
REMARK VINA RESULT: -9.293898839      0.000      0.000
REMARK  10 active torsions:
REMARK  status: ('A' for Active; 'I' for Inactive)
REMARK    1  A    between atoms: N1_6  and  C6_7 
REMARK    2  A    between atoms: C6_7  and  C7_8 
REMARK    3  A    between atoms: C7_8  and  C8_9 
REMARK    4  A    between atoms: C8_9  and  N2_10 
REMARK    5  A    between atoms: C9_11  and  O1_12 
REMARK    6  A    between atoms: C12_16  and  O2_17 
REMARK    7  A    between atoms: C13_19  and  C14_20 
REMARK    8  A    between atoms: N3_21  and  N4_23 
REMARK       I    between atoms: N4_23  and  C15_25 
REMARK       I    between atoms: C15_25  and  N5_27 
REMARK    9  A    between atoms: N6_30  and  C18_31 
REMARK   10  A    between atoms: C18_31  and  C19_32 
ROOT
HETATM    1  N2  UNL     1      16.795 -26.430  -2.025  1.00  0.00    -0.308 N 
HETATM    2  C9  UNL     1      17.265 -27.681  -1.860  1.00  0.00     0.151 A 
HETATM    3  C10 UNL     1      16.575 -28.577  -2.690  1.00  0.00     0.008 A 
HETATM    4  C11 UNL     1      15.670 -27.798  -3.357  1.00  0.00     0.016 A 
HETATM    5  C12 UNL     1      15.815 -26.475  -2.940  1.00  0.00     0.152 A 
HETATM    6  C13 UNL     1      14.741 -28.436  -4.355  1.00  0.00     0.086 C 
HETATM    7  C25 UNL     1      15.334 -29.666  -4.886  1.00  0.00    -0.016 C 
HETATM    8  C26 UNL     1      16.219 -30.406  -4.237  1.00  0.00    -0.025 C 
HETATM    9  C27 UNL     1      16.684 -30.040  -2.897  1.00  0.00     0.070 C 
ENDROOT
BRANCH   6  10
HETATM   10  C14 UNL     1      13.427 -28.593  -3.723  1.00  0.00     0.093 C 
HETATM   11  N3  UNL     1      12.560 -27.734  -3.477  1.00  0.00    -0.311 N 
ATOM     12  H3  UNL     1      11.723 -28.103  -3.027  1.00  0.00     0.185 HD
BRANCH  11  13
HETATM   13  N4  UNL     1      12.525 -26.398  -3.701  1.00  0.00    -0.252 N 
HETATM   14  C15 UNL     1      11.333 -25.708  -4.130  1.00  0.00     0.338 C 
HETATM   15  O3  UNL     1      10.305 -26.407  -4.291  1.00  0.00    -0.245 OA
HETATM   16  N5  UNL     1      11.327 -24.300  -4.356  1.00  0.00    -0.305 N 
HETATM   17  C16 UNL     1      12.417 -23.359  -4.214  1.00  0.00     0.159 C 
HETATM   18  C24 UNL     1      10.181 -23.529  -4.786  1.00  0.00     0.401 C 
HETATM   19  C17 UNL     1      11.939 -22.142  -4.995  1.00  0.00     0.294 C 
HETATM   20  N6  UNL     1      10.783 -22.627  -5.761  1.00  0.00     0.107 N 
ATOM     21  H4  UNL     1      13.378 -25.857  -3.559  1.00  0.00     0.191 HD
BRANCH  20  22
HETATM   22  C18 UNL     1      11.310 -23.331  -6.896  1.00  0.00     0.279 C 
BRANCH  22  23
HETATM   23  C19 UNL     1      11.289 -22.470  -8.140  1.00  0.00     0.014 C 
HETATM   24  C20 UNL     1      10.029 -22.683  -8.944  1.00  0.00     0.006 C 
HETATM   25  C21 UNL     1      10.400 -22.038 -10.274  1.00  0.00     0.000 C 
HETATM   26  C22 UNL     1      11.894 -22.218 -10.419  1.00  0.00     0.000 C 
HETATM   27  C23 UNL     1      12.369 -22.861  -9.118  1.00  0.00     0.006 C 
ENDBRANCH  22  23
ENDBRANCH  20  22
ENDBRANCH  11  13
ENDBRANCH   6  10
BRANCH   5  28
HETATM   28  O2  UNL     1      15.026 -25.455  -3.448  1.00  0.00    -0.345 OA
ATOM     29  H2  UNL     1      14.134 -25.480  -3.775  1.00  0.00     0.219 HD
ENDBRANCH   5  28
BRANCH   2  30
HETATM   30  O1  UNL     1      18.277 -28.039  -1.004  1.00  0.00    -0.345 OA
ATOM     31  H1  UNL     1      18.546 -28.931  -0.818  1.00  0.00     0.219 HD
ENDBRANCH   2  30
BRANCH   1  32
HETATM   32  C8  UNL     1      17.257 -25.221  -1.333  1.00  0.00     0.135 C 
BRANCH  32  33
HETATM   33  C7  UNL     1      16.526 -25.140  -0.030  1.00  0.00     0.050 C 
BRANCH  33  34
HETATM   34  C6  UNL     1      17.354 -24.725   1.132  1.00  0.00     0.274 C 
BRANCH  34  35
HETATM   35  N1  UNL     1      17.309 -25.717   2.163  1.00  0.00     0.092 N 
HETATM   36  C2  UNL     1      17.276 -25.138   3.470  1.00  0.00     0.219 C 
HETATM   37  C1  UNL     1      16.075 -25.527   4.292  1.00  0.00     0.043 C 
HETATM   38  C3  UNL     1      18.495 -25.684   4.206  1.00  0.00     0.037 C 
HETATM   39  C4  UNL     1      18.686 -27.032   3.494  1.00  0.00     0.032 C 
HETATM   40  C5  UNL     1      18.411 -26.626   2.070  1.00  0.00     0.273 C 
ENDBRANCH  34  35
ENDBRANCH  33  34
ENDBRANCH  32  33
ENDBRANCH   1  32
TORSDOF 10
ENDMDL
MODEL 2
REMARK VINA RESULT: -9.287631353      2.490      9.632
REMARK  10 active torsions:
REMARK  status: ('A' for Active; 'I' for Inactive)
REMARK    1  A    between atoms: N1_6  and  C6_7 
REMARK    2  A    between atoms: C6_7  and  C7_8 
REMARK    3  A    between atoms: C7_8  and  C8_9 
REMARK    4  A    between atoms: C8_9  and  N2_10 
REMARK    5  A    between atoms: C9_11  and  O1_12 
REMARK    6  A    between atoms: C12_16  and  O2_17 
REMARK    7  A    between atoms: C13_19  and  C14_20 
REMARK    8  A    between atoms: N3_21  and  N4_23 
REMARK       I    between atoms: N4_23  and  C15_25 
REMARK       I    between atoms: C15_25  and  N5_27 
REMARK    9  A    between atoms: N6_30  and  C18_31 
REMARK   10  A    between atoms: C18_31  and  C19_32 
ROOT
HETATM    1  N2  UNL     1      15.000 -27.025  -3.185  1.00  0.00    -0.308 N 
HETATM    2  C9  UNL     1      14.654 -28.100  -3.916  1.00  0.00     0.151 A 
HETATM    3  C10 UNL     1      15.480 -29.190  -3.607  1.00  0.00     0.008 A 
HETATM    4  C11 UNL     1      16.336 -28.711  -2.653  1.00  0.00     0.016 A 
HETATM    5  C12 UNL     1      16.030 -27.374  -2.399  1.00  0.00     0.152 A 
HETATM    6  C13 UNL     1      17.383 -29.625  -2.074  1.00  0.00     0.086 C 
HETATM    7  C25 UNL     1      16.953 -31.022  -2.182  1.00  0.00    -0.016 C 
HETATM    8  C26 UNL     1      16.114 -31.472  -3.101  1.00  0.00    -0.025 C 
HETATM    9  C27 UNL     1      15.537 -30.582  -4.111  1.00  0.00     0.070 C 
ENDROOT
BRANCH   6  10
HETATM   10  C14 UNL     1      18.667 -29.311  -2.709  1.00  0.00     0.093 C 
HETATM   11  N3  UNL     1      19.466 -28.388  -2.462  1.00  0.00    -0.311 N 
ATOM     12  H3  UNL     1      20.298 -28.389  -3.052  1.00  0.00     0.185 HD
BRANCH  11  13
HETATM   13  N4  UNL     1      19.433 -27.385  -1.552  1.00  0.00    -0.252 N 
HETATM   14  C15 UNL     1      20.464 -27.193  -0.561  1.00  0.00     0.338 C 
HETATM   15  O3  UNL     1      21.415 -28.009  -0.574  1.00  0.00    -0.245 OA
HETATM   16  N5  UNL     1      20.401 -26.127   0.383  1.00  0.00    -0.305 N 
HETATM   17  C16 UNL     1      19.382 -25.109   0.528  1.00  0.00     0.159 C 
HETATM   18  C24 UNL     1      21.386 -25.861   1.408  1.00  0.00     0.401 C 
HETATM   19  C17 UNL     1      19.629 -24.558   1.927  1.00  0.00     0.294 C 
HETATM   20  N6  UNL     1      20.541 -25.526   2.549  1.00  0.00     0.107 N 
ATOM     21  H4  UNL     1      18.645 -26.738  -1.569  1.00  0.00     0.191 HD
BRANCH  20  22
HETATM   22  C18 UNL     1      19.735 -26.638   2.969  1.00  0.00     0.279 C 
BRANCH  22  23
HETATM   23  C19 UNL     1      18.684 -26.211   3.971  1.00  0.00     0.014 C 
HETATM   24  C20 UNL     1      18.855 -26.919   5.293  1.00  0.00     0.006 C 
HETATM   25  C21 UNL     1      17.519 -26.635   5.969  1.00  0.00     0.000 C 
HETATM   26  C22 UNL     1      16.505 -26.526   4.853  1.00  0.00     0.000 C 
HETATM   27  C23 UNL     1      17.298 -26.635   3.553  1.00  0.00     0.006 C 
ENDBRANCH  22  23
ENDBRANCH  20  22
ENDBRANCH  11  13
ENDBRANCH   6  10
BRANCH   5  28
HETATM   28  O2  UNL     1      16.737 -26.622  -1.473  1.00  0.00    -0.345 OA
ATOM     29  H2  UNL     1      16.532 -26.424  -0.567  1.00  0.00     0.219 HD
ENDBRANCH   5  28
BRANCH   2  30
HETATM   30  O1  UNL     1      13.638 -28.135  -4.839  1.00  0.00    -0.345 OA
ATOM     31  H1  UNL     1      12.721 -28.287  -4.638  1.00  0.00     0.219 HD
ENDBRANCH   2  30
BRANCH   1  32
HETATM   32  C8  UNL     1      14.375 -25.697  -3.226  1.00  0.00     0.135 C 
BRANCH  32  33
HETATM   33  C7  UNL     1      13.424 -25.612  -2.074  1.00  0.00     0.050 C 
BRANCH  33  34
HETATM   34  C6  UNL     1      11.989 -25.510  -2.449  1.00  0.00     0.274 C 
BRANCH  34  35
HETATM   35  N1  UNL     1      11.853 -25.098  -3.813  1.00  0.00     0.092 N 
HETATM   36  C2  UNL     1      11.433 -23.736  -3.927  1.00  0.00     0.219 C 
HETATM   37  C1  UNL     1      12.381 -22.855  -4.699  1.00  0.00     0.043 C 
HETATM   38  C3  UNL     1      10.130 -23.760  -4.718  1.00  0.00     0.037 C 
HETATM   39  C4  UNL     1      10.320 -25.031  -5.557  1.00  0.00     0.032 C 
HETATM   40  C5  UNL     1      10.946 -25.940  -4.532  1.00  0.00     0.273 C 
ENDBRANCH  34  35
ENDBRANCH  33  34
ENDBRANCH  32  33
ENDBRANCH   1  32
TORSDOF 10
ENDMDL
MODEL 3
REMARK VINA RESULT: -9.114310178      2.732     10.579
REMARK  10 active torsions:
REMARK  status: ('A' for Active; 'I' for Inactive)
REMARK    1  A    between atoms: N1_6  and  C6_7 
REMARK    2  A    between atoms: C6_7  and  C7_8 
REMARK    3  A    between atoms: C7_8  and  C8_9 
REMARK    4  A    between atoms: C8_9  and  N2_10 
REMARK    5  A    between atoms: C9_11  and  O1_12 
REMARK    6  A    between atoms: C12_16  and  O2_17 
REMARK    7  A    between atoms: C13_19  and  C14_20 
REMARK    8  A    between atoms: N3_21  and  N4_23 
REMARK       I    between atoms: N4_23  and  C15_25 
REMARK       I    between atoms: C15_25  and  N5_27 
REMARK    9  A    between atoms: N6_30  and  C18_31 
REMARK   10  A    between atoms: C18_31  and  C19_32 
ROOT
HETATM    1  N2  UNL     1      15.131 -26.877  -3.073  1.00  0.00    -0.308 N 
HETATM    2  C9  UNL     1      14.882 -27.936  -3.865  1.00  0.00     0.151 A 
HETATM    3  C10 UNL     1      15.769 -28.984  -3.577  1.00  0.00     0.008 A 
HETATM    4  C11 UNL     1      16.559 -28.496  -2.572  1.00  0.00     0.016 A 
HETATM    5  C12 UNL     1      16.157 -27.196  -2.269  1.00  0.00     0.152 A 
HETATM    6  C13 UNL     1      17.646 -29.367  -1.999  1.00  0.00     0.086 C 
HETATM    7  C25 UNL     1      17.313 -30.782  -2.186  1.00  0.00    -0.016 C 
HETATM    8  C26 UNL     1      16.537 -31.242  -3.154  1.00  0.00    -0.025 C 
HETATM    9  C27 UNL     1      15.935 -30.344  -4.142  1.00  0.00     0.070 C 
ENDROOT
BRANCH   6  10
HETATM   10  C14 UNL     1      18.926 -28.940  -2.572  1.00  0.00     0.093 C 
HETATM   11  N3  UNL     1      19.731 -28.084  -2.159  1.00  0.00    -0.311 N 
ATOM     12  H3  UNL     1      20.558 -27.973  -2.746  1.00  0.00     0.185 HD
BRANCH  11  13
HETATM   13  N4  UNL     1      19.709 -27.275  -1.073  1.00  0.00    -0.252 N 
HETATM   14  C15 UNL     1      20.880 -27.005  -0.275  1.00  0.00     0.338 C 
HETATM   15  O3  UNL     1      21.945 -27.561  -0.633  1.00  0.00    -0.245 OA
HETATM   16  N5  UNL     1      20.827 -26.148   0.863  1.00  0.00    -0.305 N 
HETATM   17  C16 UNL     1      19.688 -25.436   1.403  1.00  0.00     0.159 C 
HETATM   18  C24 UNL     1      21.947 -25.824   1.718  1.00  0.00     0.401 C 
HETATM   19  C17 UNL     1      20.134 -25.073   2.813  1.00  0.00     0.294 C 
HETATM   20  N6  UNL     1      21.336 -25.884   3.041  1.00  0.00     0.107 N 
ATOM     21  H4  UNL     1      18.827 -26.837  -0.808  1.00  0.00     0.191 HD
BRANCH  20  22
HETATM   22  C18 UNL     1      20.882 -27.207   3.367  1.00  0.00     0.279 C 
BRANCH  22  23
HETATM   23  C19 UNL     1      21.641 -27.776   4.546  1.00  0.00     0.014 C 
HETATM   24  C20 UNL     1      22.958 -28.381   4.121  1.00  0.00     0.006 C 
HETATM   25  C21 UNL     1      23.336 -29.193   5.353  1.00  0.00     0.000 C 
HETATM   26  C22 UNL     1      22.030 -29.623   5.982  1.00  0.00     0.000 C 
HETATM   27  C23 UNL     1      20.929 -28.954   5.163  1.00  0.00     0.006 C 
ENDBRANCH  22  23
ENDBRANCH  20  22
ENDBRANCH  11  13
ENDBRANCH   6  10
BRANCH   5  28
HETATM   28  O2  UNL     1      16.781 -26.446  -1.284  1.00  0.00    -0.345 OA
ATOM     29  H2  UNL     1      17.606 -26.593  -0.838  1.00  0.00     0.219 HD
ENDBRANCH   5  28
BRANCH   2  30
HETATM   30  O1  UNL     1      13.901 -27.994  -4.824  1.00  0.00    -0.345 OA
ATOM     31  H1  UNL     1      12.968 -27.911  -4.658  1.00  0.00     0.219 HD
ENDBRANCH   2  30
BRANCH   1  32
HETATM   32  C8  UNL     1      14.420 -25.593  -3.076  1.00  0.00     0.135 C 
BRANCH  32  33
HETATM   33  C7  UNL     1      13.461 -25.608  -1.927  1.00  0.00     0.050 C 
BRANCH  33  34
HETATM   34  C6  UNL     1      12.030 -25.453  -2.301  1.00  0.00     0.274 C 
BRANCH  34  35
HETATM   35  N1  UNL     1      11.905 -25.114  -3.686  1.00  0.00     0.092 N 
HETATM   36  C2  UNL     1      11.416 -23.784  -3.875  1.00  0.00     0.219 C 
HETATM   37  C1  UNL     1      12.333 -22.891  -4.668  1.00  0.00     0.043 C 
HETATM   38  C3  UNL     1      10.135 -23.917  -4.691  1.00  0.00     0.037 C 
HETATM   39  C4  UNL     1      10.414 -25.214  -5.464  1.00  0.00     0.032 C 
HETATM   40  C5  UNL     1      11.062 -26.037  -4.382  1.00  0.00     0.273 C 
ENDBRANCH  34  35
ENDBRANCH  33  34
ENDBRANCH  32  33
ENDBRANCH   1  32
TORSDOF 10
ENDMDL
MODEL 4
REMARK VINA RESULT: -9.111948320      4.900     11.140
REMARK  10 active torsions:
REMARK  status: ('A' for Active; 'I' for Inactive)
REMARK    1  A    between atoms: N1_6  and  C6_7 
REMARK    2  A    between atoms: C6_7  and  C7_8 
REMARK    3  A    between atoms: C7_8  and  C8_9 
REMARK    4  A    between atoms: C8_9  and  N2_10 
REMARK    5  A    between atoms: C9_11  and  O1_12 
REMARK    6  A    between atoms: C12_16  and  O2_17 
REMARK    7  A    between atoms: C13_19  and  C14_20 
REMARK    8  A    between atoms: N3_21  and  N4_23 
REMARK       I    between atoms: N4_23  and  C15_25 
REMARK       I    between atoms: C15_25  and  N5_27 
REMARK    9  A    between atoms: N6_30  and  C18_31 
REMARK   10  A    between atoms: C18_31  and  C19_32 
ROOT
HETATM    1  N2  UNL     1      15.626 -25.720  -2.037  1.00  0.00    -0.308 N 
HETATM    2  C9  UNL     1      16.363 -26.670  -2.642  1.00  0.00     0.151 A 
HETATM    3  C10 UNL     1      17.486 -26.988  -1.865  1.00  0.00     0.008 A 
HETATM    4  C11 UNL     1      17.381 -26.180  -0.765  1.00  0.00     0.016 A 
HETATM    5  C12 UNL     1      16.229 -25.403  -0.882  1.00  0.00     0.152 A 
HETATM    6  C13 UNL     1      18.435 -26.253   0.307  1.00  0.00     0.086 C 
HETATM    7  C25 UNL     1      19.077 -27.570   0.299  1.00  0.00    -0.016 C 
HETATM    8  C26 UNL     1      19.162 -28.349  -0.768  1.00  0.00    -0.025 C 
HETATM    9  C27 UNL     1      18.605 -27.940  -2.059  1.00  0.00     0.070 C 
ENDROOT
BRANCH   6  10
HETATM   10  C14 UNL     1      19.339 -25.111   0.140  1.00  0.00     0.093 C 
HETATM   11  N3  UNL     1      20.581 -25.067   0.223  1.00  0.00    -0.311 N 
ATOM     12  H3  UNL     1      20.977 -24.141   0.062  1.00  0.00     0.185 HD
BRANCH  11  13
HETATM   13  N4  UNL     1      21.502 -26.024   0.488  1.00  0.00    -0.252 N 
HETATM   14  C15 UNL     1      22.923 -25.780   0.431  1.00  0.00     0.338 C 
HETATM   15  O3  UNL     1      23.282 -24.620   0.119  1.00  0.00    -0.245 OA
HETATM   16  N5  UNL     1      23.869 -26.808   0.716  1.00  0.00    -0.305 N 
HETATM   17  C16 UNL     1      23.620 -28.184   1.089  1.00  0.00     0.159 C 
HETATM   18  C24 UNL     1      25.306 -26.652   0.682  1.00  0.00     0.401 C 
HETATM   19  C17 UNL     1      24.956 -28.868   0.828  1.00  0.00     0.294 C 
HETATM   20  N6  UNL     1      25.722 -27.894   0.040  1.00  0.00     0.107 N 
ATOM     21  H4  UNL     1      21.177 -26.958   0.739  1.00  0.00     0.191 HD
BRANCH  20  22
HETATM   22  C18 UNL     1      25.242 -27.992  -1.310  1.00  0.00     0.279 C 
BRANCH  22  23
HETATM   23  C19 UNL     1      25.565 -29.341  -1.915  1.00  0.00     0.014 C 
HETATM   24  C20 UNL     1      26.597 -29.227  -3.011  1.00  0.00     0.006 C 
HETATM   25  C21 UNL     1      26.471 -30.584  -3.694  1.00  0.00     0.000 C 
HETATM   26  C22 UNL     1      25.028 -31.002  -3.520  1.00  0.00     0.000 C 
HETATM   27  C23 UNL     1      24.383 -29.933  -2.642  1.00  0.00     0.006 C 
ENDBRANCH  22  23
ENDBRANCH  20  22
ENDBRANCH  11  13
ENDBRANCH   6  10
BRANCH   5  28
HETATM   28  O2  UNL     1      15.863 -24.484   0.090  1.00  0.00    -0.345 OA
ATOM     29  H2  UNL     1      15.205 -23.800   0.063  1.00  0.00     0.219 HD
ENDBRANCH   5  28
BRANCH   2  30
HETATM   30  O1  UNL     1      16.066 -27.251  -3.850  1.00  0.00    -0.345 OA
ATOM     31  H1  UNL     1      15.808 -28.158  -3.972  1.00  0.00     0.219 HD
ENDBRANCH   2  30
BRANCH   1  32
HETATM   32  C8  UNL     1      14.381 -25.123  -2.537  1.00  0.00     0.135 C 
BRANCH  32  33
HETATM   33  C7  UNL     1      13.252 -25.998  -2.092  1.00  0.00     0.050 C 
BRANCH  33  34
HETATM   34  C6  UNL     1      11.893 -25.457  -2.359  1.00  0.00     0.274 C 
BRANCH  34  35
HETATM   35  N1  UNL     1      11.759 -25.089  -3.736  1.00  0.00     0.092 N 
HETATM   36  C2  UNL     1      11.320 -23.738  -3.895  1.00  0.00     0.219 C 
HETATM   37  C1  UNL     1      12.258 -22.867  -4.688  1.00  0.00     0.043 C 
HETATM   38  C3  UNL     1      10.022 -23.806  -4.691  1.00  0.00     0.037 C 
HETATM   39  C4  UNL     1      10.237 -25.100  -5.490  1.00  0.00     0.032 C 
HETATM   40  C5  UNL     1      10.870 -25.967  -4.433  1.00  0.00     0.273 C 
ENDBRANCH  34  35
ENDBRANCH  33  34
ENDBRANCH  32  33
ENDBRANCH   1  32
TORSDOF 10
ENDMDL
MODEL 5
REMARK VINA RESULT: -9.082486203      2.428      9.932
REMARK  10 active torsions:
REMARK  status: ('A' for Active; 'I' for Inactive)
REMARK    1  A    between atoms: N1_6  and  C6_7 
REMARK    2  A    between atoms: C6_7  and  C7_8 
REMARK    3  A    between atoms: C7_8  and  C8_9 
REMARK    4  A    between atoms: C8_9  and  N2_10 
REMARK    5  A    between atoms: C9_11  and  O1_12 
REMARK    6  A    between atoms: C12_16  and  O2_17 
REMARK    7  A    between atoms: C13_19  and  C14_20 
REMARK    8  A    between atoms: N3_21  and  N4_23 
REMARK       I    between atoms: N4_23  and  C15_25 
REMARK       I    between atoms: C15_25  and  N5_27 
REMARK    9  A    between atoms: N6_30  and  C18_31 
REMARK   10  A    between atoms: C18_31  and  C19_32 
ROOT
HETATM    1  N2  UNL     1      14.869 -26.969  -3.145  1.00  0.00    -0.308 N 
HETATM    2  C9  UNL     1      14.714 -28.020  -3.971  1.00  0.00     0.151 A 
HETATM    3  C10 UNL     1      15.648 -29.023  -3.670  1.00  0.00     0.008 A 
HETATM    4  C11 UNL     1      16.367 -28.517  -2.622  1.00  0.00     0.016 A 
HETATM    5  C12 UNL     1      15.878 -27.250  -2.305  1.00  0.00     0.152 A 
HETATM    6  C13 UNL     1      17.477 -29.340  -2.024  1.00  0.00     0.086 C 
HETATM    7  C25 UNL     1      17.235 -30.766  -2.258  1.00  0.00    -0.016 C 
HETATM    8  C26 UNL     1      16.527 -31.243  -3.268  1.00  0.00    -0.025 C 
HETATM    9  C27 UNL     1      15.915 -30.356  -4.260  1.00  0.00     0.070 C 
ENDROOT
BRANCH   6  10
HETATM   10  C14 UNL     1      18.753 -28.826  -2.532  1.00  0.00     0.093 C 
HETATM   11  N3  UNL     1      19.409 -27.833  -2.163  1.00  0.00    -0.311 N 
ATOM     12  H3  UNL     1      20.274 -27.689  -2.684  1.00  0.00     0.185 HD
BRANCH  11  13
HETATM   13  N4  UNL     1      19.183 -26.911  -1.197  1.00  0.00    -0.252 N 
HETATM   14  C15 UNL     1      20.030 -26.771  -0.037  1.00  0.00     0.338 C 
HETATM   15  O3  UNL     1      21.006 -27.553   0.045  1.00  0.00    -0.245 OA
HETATM   16  N5  UNL     1      19.768 -25.790   0.964  1.00  0.00    -0.305 N 
HETATM   17  C16 UNL     1      18.694 -24.820   1.017  1.00  0.00     0.159 C 
HETATM   18  C24 UNL     1      20.560 -25.580   2.155  1.00  0.00     0.401 C 
HETATM   19  C17 UNL     1      18.685 -24.382   2.476  1.00  0.00     0.294 C 
HETATM   20  N6  UNL     1      19.527 -25.369   3.163  1.00  0.00     0.107 N 
ATOM     21  H4  UNL     1      18.381 -26.290  -1.293  1.00  0.00     0.191 HD
BRANCH  20  22
HETATM   22  C18 UNL     1      18.714 -26.537   3.357  1.00  0.00     0.279 C 
BRANCH  22  23
HETATM   23  C19 UNL     1      19.557 -27.745   3.705  1.00  0.00     0.014 C 
HETATM   24  C20 UNL     1      18.704 -28.911   4.144  1.00  0.00     0.006 C 
HETATM   25  C21 UNL     1      19.740 -29.827   4.783  1.00  0.00     0.000 C 
HETATM   26  C22 UNL     1      20.808 -28.915   5.345  1.00  0.00     0.000 C 
HETATM   27  C23 UNL     1      20.421 -27.502   4.917  1.00  0.00     0.006 C 
ENDBRANCH  22  23
ENDBRANCH  20  22
ENDBRANCH  11  13
ENDBRANCH   6  10
BRANCH   5  28
HETATM   28  O2  UNL     1      16.416 -26.491  -1.278  1.00  0.00    -0.345 OA
ATOM     29  H2  UNL     1      17.066 -25.799  -1.308  1.00  0.00     0.219 HD
ENDBRANCH   5  28
BRANCH   2  30
HETATM   30  O1  UNL     1      13.778 -28.108  -4.971  1.00  0.00    -0.345 OA
ATOM     31  H1  UNL     1      13.707 -28.823  -5.593  1.00  0.00     0.219 HD
ENDBRANCH   2  30
BRANCH   1  32
HETATM   32  C8  UNL     1      14.086 -25.727  -3.147  1.00  0.00     0.135 C 
BRANCH  32  33
HETATM   33  C7  UNL     1      13.000 -25.879  -2.130  1.00  0.00     0.050 C 
BRANCH  33  34
HETATM   34  C6  UNL     1      11.724 -25.194  -2.465  1.00  0.00     0.274 C 
BRANCH  34  35
HETATM   35  N1  UNL     1      11.644 -24.938  -3.871  1.00  0.00     0.092 N 
HETATM   36  C2  UNL     1      11.147 -23.627  -4.154  1.00  0.00     0.219 C 
HETATM   37  C1  UNL     1      12.081 -22.770  -4.967  1.00  0.00     0.043 C 
HETATM   38  C3  UNL     1       9.897 -23.825  -5.005  1.00  0.00     0.037 C 
HETATM   39  C4  UNL     1      10.217 -25.161  -5.690  1.00  0.00     0.032 C 
HETATM   40  C5  UNL     1      10.836 -25.911  -4.540  1.00  0.00     0.273 C 
ENDBRANCH  34  35
ENDBRANCH  33  34
ENDBRANCH  32  33
ENDBRANCH   1  32
TORSDOF 10
ENDMDL
