MODEL 1
REMARK VINA RESULT: -9.460740189      0.000      0.000
REMARK  11 active torsions:
REMARK  status: ('A' for Active; 'I' for Inactive)
REMARK    1  A    between atoms: C2_2  and  O1_4 
REMARK    2  A    between atoms: C2_2  and  C4_6 
REMARK    3  A    between atoms: C4_6  and  C5_7 
REMARK    4  A    between atoms: C5_7  and  N1_8 
REMARK    5  A    between atoms: C5_7  and  C13_26 
REMARK    6  A    between atoms: N1_8  and  S1_10 
REMARK    7  A    between atoms: S1_10  and  C6_13 
REMARK    8  A    between atoms: C7_19  and  O4_20 
REMARK    9  A    between atoms: O4_20  and  C8_21 
REMARK   10  A    between atoms: C13_26  and  O5_27 
REMARK   11  A    between atoms: C13_26  and  N5_29 
ROOT
HETATM    1  C5  UNL     1      12.681 -26.526  -3.792  1.00  0.00     0.073 C 
ENDROOT
BRANCH   1   2
HETATM    2  C4  UNL     1      11.359 -25.881  -3.736  1.00  0.00     0.099 C 
BRANCH   2   3
HETATM    3  C2  UNL     1      11.170 -24.530  -4.348  1.00  0.00     0.056 C 
HETATM    4  C1  UNL     1      10.208 -23.692  -3.590  1.00  0.00     0.045 C 
HETATM    5  C3  UNL     1      10.547 -24.787  -5.734  1.00  0.00     0.045 C 
BRANCH   3   6
HETATM    6  O1  UNL     1      12.371 -23.883  -4.625  1.00  0.00    -0.390 OA
ATOM      7  H1  UNL     1      13.135 -24.434  -4.500  1.00  0.00     0.210 HD
ENDBRANCH   3   6
ENDBRANCH   2   3
ENDBRANCH   1   2
BRANCH   1   8
HETATM    8  N1  UNL     1      13.610 -26.381  -2.764  1.00  0.00    -0.279 N 
ATOM      9  H1  UNL     1      13.373 -26.813  -1.871  1.00  0.00     0.179 HD
BRANCH   8  10
HETATM   10  S1  UNL     1      15.037 -25.592  -2.838  1.00  0.00     0.284 S 
HETATM   11  O2  UNL     1      14.891 -24.160  -3.381  1.00  0.00    -0.199 OA
HETATM   12  O3  UNL     1      16.121 -26.195  -3.676  1.00  0.00    -0.199 OA
BRANCH  10  13
HETATM   13  C6  UNL     1      15.771 -25.314  -1.247  1.00  0.00     0.214 A 
HETATM   14  N2  UNL     1      15.531 -24.302  -0.413  1.00  0.00    -0.269 N 
HETATM   15  N3  UNL     1      16.275 -24.410   0.674  1.00  0.00    -0.019 NA
ATOM     16  H2  UNL     1      14.865 -23.548  -0.589  1.00  0.00     0.185 HD
HETATM   17  N4  UNL     1      17.006 -25.511   0.539  1.00  0.00    -0.261 N 
HETATM   18  C7  UNL     1      16.727 -26.094  -0.623  1.00  0.00     0.198 A 
ATOM     19  H4  UNL     1      17.681 -25.856   1.222  1.00  0.00     0.186 HD
BRANCH  18  20
HETATM   20  O4  UNL     1      17.227 -27.251  -1.206  1.00  0.00    -0.327 OA
BRANCH  20  21
HETATM   21  C8  UNL     1      18.591 -27.317  -1.497  1.00  0.00     0.130 C 
HETATM   22  C9  UNL     1      18.949 -28.386  -2.491  1.00  0.00     0.032 C 
HETATM   23  C10 UNL     1      20.447 -28.505  -2.326  1.00  0.00     0.002 C 
HETATM   24  C11 UNL     1      20.782 -27.899  -0.964  1.00  0.00     0.002 C 
HETATM   25  C12 UNL     1      19.416 -27.731  -0.286  1.00  0.00     0.032 C 
ENDBRANCH  20  21
ENDBRANCH  18  20
ENDBRANCH  10  13
ENDBRANCH   8  10
ENDBRANCH   1   8
BRANCH   1  26
HETATM   26  C13 UNL     1      12.647 -27.832  -4.451  1.00  0.00     0.162 C 
BRANCH  26  27
HETATM   27  O5  UNL     1      11.700 -27.888  -5.350  1.00  0.00    -0.345 OA
ATOM     28  H5  UNL     1      10.957 -28.393  -5.040  1.00  0.00     0.219 HD
ENDBRANCH  26  27
BRANCH  26  29
HETATM   29  N5  UNL     1      13.364 -29.020  -4.359  1.00  0.00    -0.360 N 
HETATM   30  C14 UNL     1      12.954 -30.335  -3.989  1.00  0.00     0.125 C 
HETATM   31  C15 UNL     1      13.920 -31.122  -3.135  1.00  0.00     0.029 C 
HETATM   32  C16 UNL     1      15.348 -31.055  -3.517  1.00  0.00    -0.037 C 
HETATM   33  C17 UNL     1      16.198 -31.583  -2.410  1.00  0.00     0.010 C 
HETATM   34  C21 UNL     1      15.650 -31.813  -4.798  1.00  0.00     0.010 C 
HETATM   35  C22 UNL     1      15.678 -29.562  -3.681  1.00  0.00     0.029 C 
HETATM   36  C18 UNL     1      17.549 -32.062  -2.884  1.00  0.00     0.001 C 
HETATM   37  C19 UNL     1      17.483 -33.146  -3.908  1.00  0.00     0.000 C 
HETATM   38  C20 UNL     1      16.053 -33.230  -4.436  1.00  0.00     0.001 C 
HETATM   39  C23 UNL     1      14.822 -28.999  -4.760  1.00  0.00     0.125 C 
ENDBRANCH  26  29
ENDBRANCH   1  26
TORSDOF 11
ENDMDL
MODEL 2
REMARK VINA RESULT: -9.195154481      2.059      6.548
REMARK  11 active torsions:
REMARK  status: ('A' for Active; 'I' for Inactive)
REMARK    1  A    between atoms: C2_2  and  O1_4 
REMARK    2  A    between atoms: C2_2  and  C4_6 
REMARK    3  A    between atoms: C4_6  and  C5_7 
REMARK    4  A    between atoms: C5_7  and  N1_8 
REMARK    5  A    between atoms: C5_7  and  C13_26 
REMARK    6  A    between atoms: N1_8  and  S1_10 
REMARK    7  A    between atoms: S1_10  and  C6_13 
REMARK    8  A    between atoms: C7_19  and  O4_20 
REMARK    9  A    between atoms: O4_20  and  C8_21 
REMARK   10  A    between atoms: C13_26  and  O5_27 
REMARK   11  A    between atoms: C13_26  and  N5_29 
ROOT
HETATM    1  C5  UNL     1      13.364 -27.312  -3.182  1.00  0.00     0.073 C 
ENDROOT
BRANCH   1   2
HETATM    2  C4  UNL     1      12.796 -28.576  -3.677  1.00  0.00     0.099 C 
BRANCH   2   3
HETATM    3  C2  UNL     1      13.056 -29.002  -5.086  1.00  0.00     0.056 C 
HETATM    4  C1  UNL     1      11.999 -28.546  -6.023  1.00  0.00     0.045 C 
HETATM    5  C3  UNL     1      13.009 -30.542  -5.069  1.00  0.00     0.045 C 
BRANCH   3   6
HETATM    6  O1  UNL     1      14.345 -28.702  -5.518  1.00  0.00    -0.390 OA
ATOM      7  H1  UNL     1      14.982 -28.665  -4.813  1.00  0.00     0.210 HD
ENDBRANCH   3   6
ENDBRANCH   2   3
ENDBRANCH   1   2
BRANCH   1   8
HETATM    8  N1  UNL     1      14.608 -26.852  -3.609  1.00  0.00    -0.279 N 
ATOM      9  H1  UNL     1      14.881 -27.091  -4.563  1.00  0.00     0.179 HD
BRANCH   8  10
HETATM   10  S1  UNL     1      15.677 -25.971  -2.744  1.00  0.00     0.284 S 
HETATM   11  O2  UNL     1      15.040 -25.329  -1.501  1.00  0.00    -0.199 OA
HETATM   12  O3  UNL     1      16.361 -24.835  -3.438  1.00  0.00    -0.199 OA
BRANCH  10  13
HETATM   13  C6  UNL     1      16.980 -26.944  -2.036  1.00  0.00     0.214 A 
HETATM   14  N2  UNL     1      17.934 -26.530  -1.201  1.00  0.00    -0.269 N 
HETATM   15  N3  UNL     1      18.747 -27.526  -0.896  1.00  0.00    -0.019 NA
ATOM     16  H2  UNL     1      18.023 -25.577  -0.847  1.00  0.00     0.185 HD
HETATM   17  N4  UNL     1      18.311 -28.600  -1.544  1.00  0.00    -0.261 N 
HETATM   18  C7  UNL     1      17.230 -28.287  -2.253  1.00  0.00     0.198 A 
ATOM     19  H4  UNL     1      18.739 -29.525  -1.504  1.00  0.00     0.186 HD
BRANCH  18  20
HETATM   20  O4  UNL     1      16.429 -29.059  -3.082  1.00  0.00    -0.327 OA
BRANCH  20  21
HETATM   21  C8  UNL     1      16.746 -30.408  -3.251  1.00  0.00     0.130 C 
HETATM   22  C9  UNL     1      16.145 -31.024  -4.484  1.00  0.00     0.032 C 
HETATM   23  C10 UNL     1      16.297 -32.506  -4.223  1.00  0.00     0.002 C 
HETATM   24  C11 UNL     1      16.498 -32.662  -2.716  1.00  0.00     0.002 C 
HETATM   25  C12 UNL     1      16.154 -31.278  -2.150  1.00  0.00     0.032 C 
ENDBRANCH  20  21
ENDBRANCH  18  20
ENDBRANCH  10  13
ENDBRANCH   8  10
ENDBRANCH   1   8
BRANCH   1  26
HETATM   26  C13 UNL     1      12.347 -26.289  -2.940  1.00  0.00     0.162 C 
BRANCH  26  27
HETATM   27  O5  UNL     1      12.293 -25.960  -1.677  1.00  0.00    -0.345 OA
ATOM     28  H5  UNL     1      11.444 -25.600  -1.448  1.00  0.00     0.219 HD
ENDBRANCH  26  27
BRANCH  26  29
HETATM   29  N5  UNL     1      11.428 -25.587  -3.712  1.00  0.00    -0.360 N 
HETATM   30  C14 UNL     1      10.266 -26.023  -4.414  1.00  0.00     0.125 C 
HETATM   31  C15 UNL     1      10.025 -25.397  -5.767  1.00  0.00     0.029 C 
HETATM   32  C16 UNL     1      10.239 -23.936  -5.867  1.00  0.00    -0.037 C 
HETATM   33  C17 UNL     1      10.300 -23.526  -7.301  1.00  0.00     0.010 C 
HETATM   34  C21 UNL     1       9.163 -23.134  -5.154  1.00  0.00     0.010 C 
HETATM   35  C22 UNL     1      11.619 -23.660  -5.249  1.00  0.00     0.029 C 
HETATM   36  C18 UNL     1       9.963 -22.069  -7.511  1.00  0.00     0.001 C 
HETATM   37  C19 UNL     1       8.605 -21.685  -7.028  1.00  0.00     0.000 C 
HETATM   38  C20 UNL     1       8.065 -22.809  -6.148  1.00  0.00     0.001 C 
HETATM   39  C23 UNL     1      11.598 -24.088  -3.825  1.00  0.00     0.125 C 
ENDBRANCH  26  29
ENDBRANCH   1  26
TORSDOF 11
ENDMDL
MODEL 3
REMARK VINA RESULT: -9.008886268      2.440      7.470
REMARK  11 active torsions:
REMARK  status: ('A' for Active; 'I' for Inactive)
REMARK    1  A    between atoms: C2_2  and  O1_4 
REMARK    2  A    between atoms: C2_2  and  C4_6 
REMARK    3  A    between atoms: C4_6  and  C5_7 
REMARK    4  A    between atoms: C5_7  and  N1_8 
REMARK    5  A    between atoms: C5_7  and  C13_26 
REMARK    6  A    between atoms: N1_8  and  S1_10 
REMARK    7  A    between atoms: S1_10  and  C6_13 
REMARK    8  A    between atoms: C7_19  and  O4_20 
REMARK    9  A    between atoms: O4_20  and  C8_21 
REMARK   10  A    between atoms: C13_26  and  O5_27 
REMARK   11  A    between atoms: C13_26  and  N5_29 
ROOT
HETATM    1  C5  UNL     1      14.283 -25.660  -2.756  1.00  0.00     0.073 C 
ENDROOT
BRANCH   1   2
HETATM    2  C4  UNL     1      14.888 -25.614  -1.416  1.00  0.00     0.099 C 
BRANCH   2   3
HETATM    3  C2  UNL     1      16.343 -25.301  -1.273  1.00  0.00     0.056 C 
HETATM    4  C1  UNL     1      17.164 -26.510  -1.018  1.00  0.00     0.045 C 
HETATM    5  C3  UNL     1      16.453 -24.410  -0.020  1.00  0.00     0.045 C 
BRANCH   3   6
HETATM    6  O1  UNL     1      16.834 -24.506  -2.305  1.00  0.00    -0.390 OA
ATOM      7  H1  UNL     1      16.264 -24.477  -3.065  1.00  0.00     0.210 HD
ENDBRANCH   3   6
ENDBRANCH   2   3
ENDBRANCH   1   2
BRANCH   1   8
HETATM    8  N1  UNL     1      14.853 -26.398  -3.792  1.00  0.00    -0.279 N 
ATOM      9  H1  UNL     1      15.173 -25.871  -4.605  1.00  0.00     0.179 HD
BRANCH   8  10
HETATM   10  S1  UNL     1      15.063 -28.016  -3.842  1.00  0.00     0.284 S 
HETATM   11  O2  UNL     1      14.927 -28.670  -2.456  1.00  0.00    -0.199 OA
HETATM   12  O3  UNL     1      16.368 -28.530  -4.366  1.00  0.00    -0.199 OA
BRANCH  10  13
HETATM   13  C6  UNL     1      13.814 -28.859  -4.778  1.00  0.00     0.214 A 
HETATM   14  N2  UNL     1      13.170 -28.407  -5.855  1.00  0.00    -0.269 N 
HETATM   15  N3  UNL     1      12.291 -29.299  -6.277  1.00  0.00    -0.019 NA
ATOM     16  H2  UNL     1      13.332 -27.499  -6.291  1.00  0.00     0.185 HD
HETATM   17  N4  UNL     1      12.371 -30.344  -5.460  1.00  0.00    -0.261 N 
HETATM   18  C7  UNL     1      13.292 -30.115  -4.529  1.00  0.00     0.198 A 
ATOM     19  H4  UNL     1      11.810 -31.193  -5.536  1.00  0.00     0.186 HD
BRANCH  18  20
HETATM   20  O4  UNL     1      13.731 -30.896  -3.469  1.00  0.00    -0.327 OA
BRANCH  20  21
HETATM   21  C8  UNL     1      14.674 -31.894  -3.721  1.00  0.00     0.130 C 
HETATM   22  C9  UNL     1      15.941 -31.746  -2.924  1.00  0.00     0.032 C 
HETATM   23  C10 UNL     1      16.898 -32.667  -3.648  1.00  0.00     0.002 C 
HETATM   24  C11 UNL     1      16.315 -32.887  -5.043  1.00  0.00     0.002 C 
HETATM   25  C12 UNL     1      15.199 -31.839  -5.149  1.00  0.00     0.032 C 
ENDBRANCH  20  21
ENDBRANCH  18  20
ENDBRANCH  10  13
ENDBRANCH   8  10
ENDBRANCH   1   8
BRANCH   1  26
HETATM   26  C13 UNL     1      12.820 -25.626  -2.719  1.00  0.00     0.162 C 
BRANCH  26  27
HETATM   27  O5  UNL     1      12.354 -26.269  -1.682  1.00  0.00    -0.345 OA
ATOM     28  H5  UNL     1      11.410 -26.366  -1.729  1.00  0.00     0.219 HD
ENDBRANCH  26  27
BRANCH  26  29
HETATM   29  N5  UNL     1      11.810 -25.086  -3.507  1.00  0.00    -0.360 N 
HETATM   30  C14 UNL     1      10.623 -25.670  -4.040  1.00  0.00     0.125 C 
HETATM   31  C15 UNL     1      10.249 -25.263  -5.445  1.00  0.00     0.029 C 
HETATM   32  C16 UNL     1      10.375 -23.826  -5.775  1.00  0.00    -0.037 C 
HETATM   33  C17 UNL     1      10.307 -23.633  -7.253  1.00  0.00     0.010 C 
HETATM   34  C21 UNL     1       9.316 -22.973  -5.100  1.00  0.00     0.010 C 
HETATM   35  C22 UNL     1      11.782 -23.404  -5.319  1.00  0.00     0.029 C 
HETATM   36  C18 UNL     1       9.878 -22.239  -7.644  1.00  0.00     0.001 C 
HETATM   37  C19 UNL     1       8.542 -21.844  -7.112  1.00  0.00     0.000 C 
HETATM   38  C20 UNL     1       8.130 -22.846  -6.037  1.00  0.00     0.001 C 
HETATM   39  C23 UNL     1      11.891 -23.614  -3.850  1.00  0.00     0.125 C 
ENDBRANCH  26  29
ENDBRANCH   1  26
TORSDOF 11
ENDMDL
MODEL 4
REMARK VINA RESULT: -9.002879993      2.329      6.931
REMARK  11 active torsions:
REMARK  status: ('A' for Active; 'I' for Inactive)
REMARK    1  A    between atoms: C2_2  and  O1_4 
REMARK    2  A    between atoms: C2_2  and  C4_6 
REMARK    3  A    between atoms: C4_6  and  C5_7 
REMARK    4  A    between atoms: C5_7  and  N1_8 
REMARK    5  A    between atoms: C5_7  and  C13_26 
REMARK    6  A    between atoms: N1_8  and  S1_10 
REMARK    7  A    between atoms: S1_10  and  C6_13 
REMARK    8  A    between atoms: C7_19  and  O4_20 
REMARK    9  A    between atoms: O4_20  and  C8_21 
REMARK   10  A    between atoms: C13_26  and  O5_27 
REMARK   11  A    between atoms: C13_26  and  N5_29 
ROOT
HETATM    1  C5  UNL     1      17.492 -26.752  -0.987  1.00  0.00     0.073 C 
ENDROOT
BRANCH   1   2
HETATM    2  C4  UNL     1      17.887 -25.420  -0.501  1.00  0.00     0.099 C 
BRANCH   2   3
HETATM    3  C2  UNL     1      17.439 -24.963   0.851  1.00  0.00     0.056 C 
HETATM    4  C1  UNL     1      18.262 -23.847   1.377  1.00  0.00     0.045 C 
HETATM    5  C3  UNL     1      17.661 -26.166   1.788  1.00  0.00     0.045 C 
BRANCH   3   6
HETATM    6  O1  UNL     1      16.070 -24.722   0.919  1.00  0.00    -0.390 OA
ATOM      7  H1  UNL     1      15.556 -25.299   0.366  1.00  0.00     0.210 HD
ENDBRANCH   3   6
ENDBRANCH   2   3
ENDBRANCH   1   2
BRANCH   1   8
HETATM    8  N1  UNL     1      16.200 -27.011  -1.442  1.00  0.00    -0.279 N 
ATOM      9  H1  UNL     1      15.780 -27.891  -1.145  1.00  0.00     0.179 HD
BRANCH   8  10
HETATM   10  S1  UNL     1      15.289 -26.053  -2.400  1.00  0.00     0.284 S 
HETATM   11  O2  UNL     1      16.116 -25.361  -3.497  1.00  0.00    -0.199 OA
HETATM   12  O3  UNL     1      14.534 -24.937  -1.748  1.00  0.00    -0.199 OA
BRANCH  10  13
HETATM   13  C6  UNL     1      14.085 -26.947  -3.347  1.00  0.00     0.214 A 
HETATM   14  N2  UNL     1      12.820 -26.596  -3.582  1.00  0.00    -0.269 N 
HETATM   15  N3  UNL     1      12.212 -27.515  -4.311  1.00  0.00    -0.019 NA
ATOM     16  H2  UNL     1      12.383 -25.737  -3.246  1.00  0.00     0.185 HD
HETATM   17  N4  UNL     1      13.099 -28.475  -4.550  1.00  0.00    -0.261 N 
HETATM   18  C7  UNL     1      14.258 -28.165  -3.979  1.00  0.00     0.198 A 
ATOM     19  H4  UNL     1      12.918 -29.321  -5.090  1.00  0.00     0.186 HD
BRANCH  18  20
HETATM   20  O4  UNL     1      15.469 -28.843  -3.948  1.00  0.00    -0.327 OA
BRANCH  20  21
HETATM   21  C8  UNL     1      15.454 -30.231  -3.799  1.00  0.00     0.130 C 
HETATM   22  C9  UNL     1      16.604 -30.769  -2.992  1.00  0.00     0.032 C 
HETATM   23  C10 UNL     1      16.573 -32.246  -3.314  1.00  0.00     0.002 C 
HETATM   24  C11 UNL     1      15.778 -32.390  -4.610  1.00  0.00     0.002 C 
HETATM   25  C12 UNL     1      15.644 -30.952  -5.127  1.00  0.00     0.032 C 
ENDBRANCH  20  21
ENDBRANCH  18  20
ENDBRANCH  10  13
ENDBRANCH   8  10
ENDBRANCH   1   8
BRANCH   1  26
HETATM   26  C13 UNL     1      18.573 -27.444  -1.688  1.00  0.00     0.162 C 
BRANCH  26  27
HETATM   27  O5  UNL     1      18.207 -27.806  -2.889  1.00  0.00    -0.345 OA
ATOM     28  H5  UNL     1      17.965 -28.724  -2.915  1.00  0.00     0.219 HD
ENDBRANCH  26  27
BRANCH  26  29
HETATM   29  N5  UNL     1      19.882 -27.812  -1.398  1.00  0.00    -0.360 N 
HETATM   30  C14 UNL     1      20.665 -27.637  -0.220  1.00  0.00     0.125 C 
HETATM   31  C15 UNL     1      22.117 -27.275  -0.427  1.00  0.00     0.029 C 
HETATM   32  C16 UNL     1      22.838 -28.013  -1.489  1.00  0.00    -0.037 C 
HETATM   33  C17 UNL     1      24.124 -27.325  -1.805  1.00  0.00     0.010 C 
HETATM   34  C21 UNL     1      23.112 -29.459  -1.117  1.00  0.00     0.010 C 
HETATM   35  C22 UNL     1      21.952 -27.934  -2.743  1.00  0.00     0.029 C 
HETATM   36  C18 UNL     1      25.145 -28.246  -2.429  1.00  0.00     0.001 C 
HETATM   37  C19 UNL     1      25.500 -29.421  -1.581  1.00  0.00     0.000 C 
HETATM   38  C20 UNL     1      24.475 -29.538  -0.457  1.00  0.00     0.001 C 
HETATM   39  C23 UNL     1      20.648 -28.586  -2.448  1.00  0.00     0.125 C 
ENDBRANCH  26  29
ENDBRANCH   1  26
TORSDOF 11
ENDMDL
MODEL 5
REMARK VINA RESULT: -8.875907241      2.212      6.136
REMARK  11 active torsions:
REMARK  status: ('A' for Active; 'I' for Inactive)
REMARK    1  A    between atoms: C2_2  and  O1_4 
REMARK    2  A    between atoms: C2_2  and  C4_6 
REMARK    3  A    between atoms: C4_6  and  C5_7 
REMARK    4  A    between atoms: C5_7  and  N1_8 
REMARK    5  A    between atoms: C5_7  and  C13_26 
REMARK    6  A    between atoms: N1_8  and  S1_10 
REMARK    7  A    between atoms: S1_10  and  C6_13 
REMARK    8  A    between atoms: C7_19  and  O4_20 
REMARK    9  A    between atoms: O4_20  and  C8_21 
REMARK   10  A    between atoms: C13_26  and  O5_27 
REMARK   11  A    between atoms: C13_26  and  N5_29 
ROOT
HETATM    1  C5  UNL     1      13.401 -27.295  -3.170  1.00  0.00     0.073 C 
ENDROOT
BRANCH   1   2
HETATM    2  C4  UNL     1      12.848 -28.554  -3.694  1.00  0.00     0.099 C 
BRANCH   2   3
HETATM    3  C2  UNL     1      13.208 -29.001  -5.074  1.00  0.00     0.056 C 
HETATM    4  C1  UNL     1      12.104 -28.794  -6.045  1.00  0.00     0.045 C 
HETATM    5  C3  UNL     1      13.436 -30.521  -4.971  1.00  0.00     0.045 C 
BRANCH   3   6
HETATM    6  O1  UNL     1      14.430 -28.498  -5.510  1.00  0.00    -0.390 OA
ATOM      7  H1  UNL     1      15.127 -28.590  -4.870  1.00  0.00     0.210 HD
ENDBRANCH   3   6
ENDBRANCH   2   3
ENDBRANCH   1   2
BRANCH   1   8
HETATM    8  N1  UNL     1      14.655 -26.829  -3.558  1.00  0.00    -0.279 N 
ATOM      9  H1  UNL     1      14.680 -26.193  -4.355  1.00  0.00     0.179 HD
BRANCH   8  10
HETATM   10  S1  UNL     1      16.091 -27.193  -2.871  1.00  0.00     0.284 S 
HETATM   11  O2  UNL     1      17.274 -26.981  -3.831  1.00  0.00    -0.199 OA
HETATM   12  O3  UNL     1      16.279 -28.586  -2.356  1.00  0.00    -0.199 OA
BRANCH  10  13
HETATM   13  C6  UNL     1      16.513 -26.129  -1.516  1.00  0.00     0.214 A 
HETATM   14  N2  UNL     1      15.931 -24.976  -1.184  1.00  0.00    -0.269 N 
HETATM   15  N3  UNL     1      16.523 -24.446  -0.128  1.00  0.00    -0.019 NA
ATOM     16  H2  UNL     1      15.140 -24.561  -1.678  1.00  0.00     0.185 HD
HETATM   17  N4  UNL     1      17.501 -25.270   0.227  1.00  0.00    -0.261 N 
HETATM   18  C7  UNL     1      17.529 -26.314  -0.597  1.00  0.00     0.198 A 
ATOM     19  H4  UNL     1      18.136 -25.125   1.012  1.00  0.00     0.186 HD
BRANCH  18  20
HETATM   20  O4  UNL     1      18.359 -27.426  -0.632  1.00  0.00    -0.327 OA
BRANCH  20  21
HETATM   21  C8  UNL     1      19.590 -27.319  -1.282  1.00  0.00     0.130 C 
HETATM   22  C9  UNL     1      19.921 -28.499  -2.154  1.00  0.00     0.032 C 
HETATM   23  C10 UNL     1      21.402 -28.324  -2.402  1.00  0.00     0.002 C 
HETATM   24  C11 UNL     1      21.918 -27.395  -1.304  1.00  0.00     0.002 C 
HETATM   25  C12 UNL     1      20.757 -27.321  -0.304  1.00  0.00     0.032 C 
ENDBRANCH  20  21
ENDBRANCH  18  20
ENDBRANCH  10  13
ENDBRANCH   8  10
ENDBRANCH   1   8
BRANCH   1  26
HETATM   26  C13 UNL     1      12.375 -26.275  -2.946  1.00  0.00     0.162 C 
BRANCH  26  27
HETATM   27  O5  UNL     1      12.315 -25.928  -1.688  1.00  0.00    -0.345 OA
ATOM     28  H5  UNL     1      11.586 -25.341  -1.525  1.00  0.00     0.219 HD
ENDBRANCH  26  27
BRANCH  26  29
HETATM   29  N5  UNL     1      11.454 -25.591  -3.731  1.00  0.00    -0.360 N 
HETATM   30  C14 UNL     1      10.317 -26.051  -4.458  1.00  0.00     0.125 C 
HETATM   31  C15 UNL     1      10.086 -25.421  -5.811  1.00  0.00     0.029 C 
HETATM   32  C16 UNL     1      10.264 -23.954  -5.897  1.00  0.00    -0.037 C 
HETATM   33  C17 UNL     1      10.342 -23.532  -7.326  1.00  0.00     0.010 C 
HETATM   34  C21 UNL     1       9.155 -23.186  -5.199  1.00  0.00     0.010 C 
HETATM   35  C22 UNL     1      11.625 -23.648  -5.250  1.00  0.00     0.029 C 
HETATM   36  C18 UNL     1       9.973 -22.082  -7.532  1.00  0.00     0.001 C 
HETATM   37  C19 UNL     1       8.596 -21.737  -7.073  1.00  0.00     0.000 C 
HETATM   38  C20 UNL     1       8.068 -22.881  -6.212  1.00  0.00     0.001 C 
HETATM   39  C23 UNL     1      11.588 -24.087  -3.829  1.00  0.00     0.125 C 
ENDBRANCH  26  29
ENDBRANCH   1  26
TORSDOF 11
ENDMDL
