MODEL 1
REMARK VINA RESULT: -5.585646009      0.000      0.000
REMARK  5 active torsions:
REMARK  status: ('A' for Active; 'I' for Inactive)
REMARK    1  A    between atoms: N1_1  and  N2_4 
REMARK    2  A    between atoms: N2_4  and  N3_5 
REMARK    3  A    between atoms: N3_5  and  C1_7 
REMARK    4  A    between atoms: C3_11  and  N5_12 
REMARK    5  A    between atoms: N5_12  and  C4_14 
ROOT
HETATM    1  C1  UNL     1      28.101   6.407  40.221  1.00  0.00     0.151 C 
HETATM    2  C2  UNL     1      27.821   7.700  39.548  1.00  0.00     0.167 C 
HETATM    3  N4  UNL     1      28.933   8.301  38.885  1.00  0.00    -0.225 N 
ATOM      4  H4  UNL     1      28.730   9.112  38.300  1.00  0.00     0.177 HD
HETATM    5  C3  UNL     1      30.150   7.933  38.944  1.00  0.00     0.670 C 
HETATM    6  N6  UNL     1      30.470   6.807  39.749  1.00  0.00    -0.225 N 
ATOM      7  H6  UNL     1      31.395   6.386  39.666  1.00  0.00     0.177 HD
HETATM    8  C7  UNL     1      29.530   6.244  40.674  1.00  0.00     0.167 C 
ENDROOT
BRANCH   1   9
HETATM    9  N3  UNL     1      27.244   6.331  41.409  1.00  0.00    -0.245 N 
ATOM     10  H3  UNL     1      27.122   5.443  41.896  1.00  0.00     0.197 HD
BRANCH   9  11
HETATM   11  N2  UNL     1      26.666   7.355  41.821  1.00  0.00    -0.248 NA
BRANCH  11  12
HETATM   12  N1  UNL     1      25.917   8.156  42.390  1.00  0.00    -0.261 N 
ATOM     13  H12 UNL     1      25.233   7.436  42.622  1.00  0.00     0.193 HD
ATOM     14  H11 UNL     1      25.487   8.990  42.790  1.00  0.00     0.193 HD
ENDBRANCH  11  12
ENDBRANCH   9  11
ENDBRANCH   1   9
BRANCH   5  15
HETATM   15  N5  UNL     1      31.210   8.594  38.244  1.00  0.00    -0.222 N 
ATOM     16  H5  UNL     1      32.101   8.108  38.133  1.00  0.00     0.178 HD
BRANCH  15  17
HETATM   17  C4  UNL     1      31.069   9.924  37.688  1.00  0.00     0.099 A 
HETATM   18  C5  UNL     1      32.197  10.611  37.036  1.00  0.00     0.028 A 
HETATM   19  C6  UNL     1      31.737  11.079  38.426  1.00  0.00     0.028 A 
ENDBRANCH  15  17
ENDBRANCH   5  15
TORSDOF 5
ENDMDL
MODEL 2
REMARK VINA RESULT: -5.550087074      1.752      2.223
REMARK  5 active torsions:
REMARK  status: ('A' for Active; 'I' for Inactive)
REMARK    1  A    between atoms: N1_1  and  N2_4 
REMARK    2  A    between atoms: N2_4  and  N3_5 
REMARK    3  A    between atoms: N3_5  and  C1_7 
REMARK    4  A    between atoms: C3_11  and  N5_12 
REMARK    5  A    between atoms: N5_12  and  C4_14 
ROOT
HETATM    1  C1  UNL     1      27.862   5.785  39.739  1.00  0.00     0.151 C 
HETATM    2  C2  UNL     1      27.822   7.042  40.527  1.00  0.00     0.167 C 
HETATM    3  N4  UNL     1      28.571   8.130  39.987  1.00  0.00    -0.225 N 
ATOM      4  H4  UNL     1      28.443   9.038  40.435  1.00  0.00     0.177 HD
HETATM    5  C3  UNL     1      29.382   8.090  39.007  1.00  0.00     0.670 C 
HETATM    6  N6  UNL     1      29.586   6.842  38.359  1.00  0.00    -0.225 N 
ATOM      7  H6  UNL     1      30.081   6.822  37.467  1.00  0.00     0.177 HD
HETATM    8  C7  UNL     1      29.117   5.609  38.921  1.00  0.00     0.167 C 
ENDROOT
BRANCH   1   9
HETATM    9  N3  UNL     1      27.784   4.667  40.685  1.00  0.00    -0.245 N 
ATOM     10  H3  UNL     1      27.067   3.950  40.572  1.00  0.00     0.197 HD
BRANCH   9  11
HETATM   11  N2  UNL     1      28.597   4.595  41.626  1.00  0.00    -0.248 NA
BRANCH  11  12
HETATM   12  N1  UNL     1      29.611   4.473  42.321  1.00  0.00    -0.261 N 
ATOM     13  H12 UNL     1      30.084   5.254  41.866  1.00  0.00     0.193 HD
ATOM     14  H11 UNL     1      30.310   4.173  43.001  1.00  0.00     0.193 HD
ENDBRANCH  11  12
ENDBRANCH   9  11
ENDBRANCH   1   9
BRANCH   5  15
HETATM   15  N5  UNL     1      30.097   9.233  38.525  1.00  0.00    -0.222 N 
ATOM     16  H5  UNL     1      29.938  10.136  38.972  1.00  0.00     0.178 HD
BRANCH  15  17
HETATM   17  C4  UNL     1      31.039   9.158  37.426  1.00  0.00     0.099 A 
HETATM   18  C5  UNL     1      31.685  10.364  36.880  1.00  0.00     0.028 A 
HETATM   19  C6  UNL     1      30.584   9.669  36.063  1.00  0.00     0.028 A 
ENDBRANCH  15  17
ENDBRANCH   5  15
TORSDOF 5
ENDMDL
MODEL 3
REMARK VINA RESULT: -5.495042260      1.947      2.734
REMARK  5 active torsions:
REMARK  status: ('A' for Active; 'I' for Inactive)
REMARK    1  A    between atoms: N1_1  and  N2_4 
REMARK    2  A    between atoms: N2_4  and  N3_5 
REMARK    3  A    between atoms: N3_5  and  C1_7 
REMARK    4  A    between atoms: C3_11  and  N5_12 
REMARK    5  A    between atoms: N5_12  and  C4_14 
ROOT
HETATM    1  C1  UNL     1      28.326   5.475  39.885  1.00  0.00     0.151 C 
HETATM    2  C2  UNL     1      29.103   5.543  38.622  1.00  0.00     0.167 C 
HETATM    3  N4  UNL     1      29.623   6.831  38.290  1.00  0.00    -0.225 N 
ATOM      4  H4  UNL     1      30.275   6.869  37.506  1.00  0.00     0.177 HD
HETATM    5  C3  UNL     1      29.361   7.935  38.866  1.00  0.00     0.670 C 
HETATM    6  N6  UNL     1      28.457   7.919  39.962  1.00  0.00    -0.225 N 
ATOM      7  H6  UNL     1      28.376   8.749  40.549  1.00  0.00     0.177 HD
HETATM    8  C7  UNL     1      27.654   6.770  40.267  1.00  0.00     0.167 C 
ENDROOT
BRANCH   1   9
HETATM    9  N3  UNL     1      27.278   4.464  39.705  1.00  0.00    -0.245 N 
ATOM     10  H3  UNL     1      26.432   4.692  39.184  1.00  0.00     0.197 HD
BRANCH   9  11
HETATM   11  N2  UNL     1      27.426   3.327  40.193  1.00  0.00    -0.248 NA
BRANCH  11  12
HETATM   12  N1  UNL     1      27.818   2.341  40.826  1.00  0.00    -0.261 N 
ATOM     13  H12 UNL     1      28.533   2.874  41.322  1.00  0.00     0.193 HD
ATOM     14  H11 UNL     1      27.951   1.406  41.211  1.00  0.00     0.193 HD
ENDBRANCH  11  12
ENDBRANCH   9  11
ENDBRANCH   1   9
BRANCH   5  15
HETATM   15  N5  UNL     1      29.928   9.188  38.469  1.00  0.00    -0.222 N 
ATOM     16  H5  UNL     1      29.508  10.049  38.820  1.00  0.00     0.178 HD
BRANCH  15  17
HETATM   17  C4  UNL     1      31.074   9.283  37.587  1.00  0.00     0.099 A 
HETATM   18  C5  UNL     1      31.647  10.584  37.205  1.00  0.00     0.028 A 
HETATM   19  C6  UNL     1      30.840   9.787  36.167  1.00  0.00     0.028 A 
ENDBRANCH  15  17
ENDBRANCH   5  15
TORSDOF 5
ENDMDL
MODEL 4
REMARK VINA RESULT: -5.391496483      1.591      2.313
REMARK  5 active torsions:
REMARK  status: ('A' for Active; 'I' for Inactive)
REMARK    1  A    between atoms: N1_1  and  N2_4 
REMARK    2  A    between atoms: N2_4  and  N3_5 
REMARK    3  A    between atoms: N3_5  and  C1_7 
REMARK    4  A    between atoms: C3_11  and  N5_12 
REMARK    5  A    between atoms: N5_12  and  C4_14 
ROOT
HETATM    1  C1  UNL     1      28.257   5.756  39.839  1.00  0.00     0.151 C 
HETATM    2  C2  UNL     1      27.559   7.065  39.856  1.00  0.00     0.167 C 
HETATM    3  N4  UNL     1      28.320   8.174  39.378  1.00  0.00    -0.225 N 
ATOM      4  H4  UNL     1      27.814   9.051  39.250  1.00  0.00     0.177 HD
HETATM    5  C3  UNL     1      29.560   8.186  39.094  1.00  0.00     0.670 C 
HETATM    6  N6  UNL     1      30.296   6.982  39.261  1.00  0.00    -0.225 N 
ATOM      7  H6  UNL     1      31.236   6.918  38.869  1.00  0.00     0.177 HD
HETATM    8  C7  UNL     1      29.757   5.855  39.964  1.00  0.00     0.167 C 
ENDROOT
BRANCH   1   9
HETATM    9  N3  UNL     1      27.764   4.975  40.978  1.00  0.00    -0.245 N 
ATOM     10  H3  UNL     1      27.330   5.447  41.772  1.00  0.00     0.197 HD
BRANCH   9  11
HETATM   11  N2  UNL     1      27.876   3.735  40.973  1.00  0.00    -0.248 NA
BRANCH  11  12
HETATM   12  N1  UNL     1      28.061   2.554  40.660  1.00  0.00    -0.261 N 
ATOM     13  H12 UNL     1      27.736   2.699  39.704  1.00  0.00     0.193 HD
ATOM     14  H11 UNL     1      28.294   1.561  40.654  1.00  0.00     0.193 HD
ENDBRANCH  11  12
ENDBRANCH   9  11
ENDBRANCH   1   9
BRANCH   5  15
HETATM   15  N5  UNL     1      30.251   9.346  38.617  1.00  0.00    -0.222 N 
ATOM     16  H5  UNL     1      30.033  10.252  39.033  1.00  0.00     0.178 HD
BRANCH  15  17
HETATM   17  C4  UNL     1      31.248   9.285  37.567  1.00  0.00     0.099 A 
HETATM   18  C5  UNL     1      31.888  10.501  37.039  1.00  0.00     0.028 A 
HETATM   19  C6  UNL     1      30.848   9.767  36.177  1.00  0.00     0.028 A 
ENDBRANCH  15  17
ENDBRANCH   5  15
TORSDOF 5
ENDMDL
MODEL 5
REMARK VINA RESULT: -5.343728162      6.760      8.285
REMARK  5 active torsions:
REMARK  status: ('A' for Active; 'I' for Inactive)
REMARK    1  A    between atoms: N1_1  and  N2_4 
REMARK    2  A    between atoms: N2_4  and  N3_5 
REMARK    3  A    between atoms: N3_5  and  C1_7 
REMARK    4  A    between atoms: C3_11  and  N5_12 
REMARK    5  A    between atoms: N5_12  and  C4_14 
ROOT
HETATM    1  C1  UNL     1      27.224  -0.220  44.895  1.00  0.00     0.151 C 
HETATM    2  C2  UNL     1      26.969   0.975  44.053  1.00  0.00     0.167 C 
HETATM    3  N4  UNL     1      27.994   1.294  43.113  1.00  0.00    -0.225 N 
ATOM      4  H4  UNL     1      27.777   2.022  42.432  1.00  0.00     0.177 HD
HETATM    5  C3  UNL     1      29.150   0.767  43.031  1.00  0.00     0.670 C 
HETATM    6  N6  UNL     1      29.487  -0.252  43.963  1.00  0.00    -0.225 N 
ATOM      7  H6  UNL     1      30.326  -0.811  43.803  1.00  0.00     0.177 HD
HETATM    8  C7  UNL     1      28.685  -0.516  45.121  1.00  0.00     0.167 C 
ENDROOT
BRANCH   1   9
HETATM    9  N3  UNL     1      26.609   0.021  46.205  1.00  0.00    -0.245 N 
ATOM     10  H3  UNL     1      25.947  -0.652  46.591  1.00  0.00     0.197 HD
BRANCH   9  11
HETATM   11  N2  UNL     1      26.898   1.051  46.844  1.00  0.00    -0.248 NA
BRANCH  11  12
HETATM   12  N1  UNL     1      27.438   1.896  47.565  1.00  0.00    -0.261 N 
ATOM     13  H12 UNL     1      27.960   2.305  46.790  1.00  0.00     0.193 HD
ATOM     14  H11 UNL     1      27.740   2.474  48.349  1.00  0.00     0.193 HD
ENDBRANCH  11  12
ENDBRANCH   9  11
ENDBRANCH   1   9
BRANCH   5  15
HETATM   15  N5  UNL     1      30.124   1.144  42.052  1.00  0.00    -0.222 N 
ATOM     16  H5  UNL     1      30.762   0.432  41.695  1.00  0.00     0.178 HD
BRANCH  15  17
HETATM   17  C4  UNL     1      30.241   2.498  41.549  1.00  0.00     0.099 A 
HETATM   18  C5  UNL     1      31.546   3.174  41.449  1.00  0.00     0.028 A 
HETATM   19  C6  UNL     1      30.562   3.604  42.548  1.00  0.00     0.028 A 
ENDBRANCH  15  17
ENDBRANCH   5  15
TORSDOF 5
ENDMDL
