MODEL 1
REMARK VINA RESULT: -6.089865820      0.000      0.000
REMARK  3 active torsions:
REMARK  status: ('A' for Active; 'I' for Inactive)
REMARK    1  A    between atoms: C3_4  and  C4_5 
REMARK    2  A    between atoms: N2_6  and  N3_8 
REMARK       I    between atoms: N3_8  and  C5_10 
REMARK    3  A    between atoms: C5_10  and  C6_12 
ROOT
HETATM    1  N1  UNL     1      28.957   2.050  44.157  1.00  0.00    -0.192 NA
HETATM    2  C1  UNL     1      29.343   2.683  43.264  1.00  0.00     0.087 C 
HETATM    3  C2  UNL     1      29.839   3.467  42.176  1.00  0.00     0.095 C 
HETATM    4  C3  UNL     1      30.464   4.614  42.381  1.00  0.00     0.029 C 
ENDROOT
BRANCH   4   5
HETATM    5  C4  UNL     1      30.963   5.403  41.282  1.00  0.00     0.108 C 
HETATM    6  N2  UNL     1      30.177   6.120  40.555  1.00  0.00    -0.309 N 
ATOM      7  H2  UNL     1      29.179   6.128  40.766  1.00  0.00     0.186 HD
BRANCH   6   8
HETATM    8  N3  UNL     1      30.648   6.889  39.487  1.00  0.00    -0.265 N 
HETATM    9  C5  UNL     1      29.932   7.979  38.956  1.00  0.00     0.293 C 
HETATM   10  O1  UNL     1      28.824   8.284  39.454  1.00  0.00    -0.264 OA
ATOM     11  H3  UNL     1      31.549   6.650  39.075  1.00  0.00     0.190 HD
BRANCH   9  12
HETATM   12  C6  UNL     1      30.451   8.762  37.840  1.00  0.00     0.144 A 
HETATM   13  C7  UNL     1      31.126   9.984  37.918  1.00  0.00     0.045 A 
HETATM   14  C8  UNL     1      31.416  10.331  36.615  1.00  0.00     0.027 A 
HETATM   15  C9  UNL     1      30.924   9.338  35.796  1.00  0.00     0.143 A 
HETATM   16  O2  UNL     1      30.368   8.446  36.576  1.00  0.00    -0.317 OA
ENDBRANCH   9  12
ENDBRANCH   6   8
ENDBRANCH   4   5
TORSDOF 3
ENDMDL
MODEL 2
REMARK VINA RESULT: -6.064047013      1.837      1.889
REMARK  3 active torsions:
REMARK  status: ('A' for Active; 'I' for Inactive)
REMARK    1  A    between atoms: C3_4  and  C4_5 
REMARK    2  A    between atoms: N2_6  and  N3_8 
REMARK       I    between atoms: N3_8  and  C5_10 
REMARK    3  A    between atoms: C5_10  and  C6_12 
ROOT
HETATM    1  N1  UNL     1      26.272   1.622  42.077  1.00  0.00    -0.192 NA
HETATM    2  C1  UNL     1      26.854   2.308  41.343  1.00  0.00     0.087 C 
HETATM    3  C2  UNL     1      27.592   3.149  40.453  1.00  0.00     0.095 C 
HETATM    4  C3  UNL     1      28.467   4.031  40.904  1.00  0.00     0.029 C 
ENDROOT
BRANCH   4   5
HETATM    5  C4  UNL     1      29.209   4.879  40.003  1.00  0.00     0.108 C 
HETATM    6  N2  UNL     1      28.615   5.675  39.183  1.00  0.00    -0.309 N 
ATOM      7  H2  UNL     1      27.595   5.703  39.174  1.00  0.00     0.186 HD
BRANCH   6   8
HETATM    8  N3  UNL     1      29.322   6.500  38.305  1.00  0.00    -0.265 N 
HETATM    9  C5  UNL     1      29.486   7.883  38.521  1.00  0.00     0.293 C 
HETATM   10  O1  UNL     1      28.982   8.406  39.540  1.00  0.00    -0.264 OA
ATOM     11  H3  UNL     1      29.737   6.084  37.472  1.00  0.00     0.190 HD
BRANCH   9  12
HETATM   12  C6  UNL     1      30.230   8.718  37.585  1.00  0.00     0.144 A 
HETATM   13  C7  UNL     1      31.014   9.833  37.899  1.00  0.00     0.045 A 
HETATM   14  C8  UNL     1      31.512  10.287  36.696  1.00  0.00     0.027 A 
HETATM   15  C9  UNL     1      31.033   9.459  35.704  1.00  0.00     0.143 A 
HETATM   16  O2  UNL     1      30.287   8.558  36.290  1.00  0.00    -0.317 OA
ENDBRANCH   9  12
ENDBRANCH   6   8
ENDBRANCH   4   5
TORSDOF 3
ENDMDL
MODEL 3
REMARK VINA RESULT: -5.972173498      3.620      5.033
REMARK  3 active torsions:
REMARK  status: ('A' for Active; 'I' for Inactive)
REMARK    1  A    between atoms: C3_4  and  C4_5 
REMARK    2  A    between atoms: N2_6  and  N3_8 
REMARK       I    between atoms: N3_8  and  C5_10 
REMARK    3  A    between atoms: C5_10  and  C6_12 
ROOT
HETATM    1  N1  UNL     1      26.631  -0.594  47.143  1.00  0.00    -0.192 NA
HETATM    2  C1  UNL     1      27.314  -0.000  46.414  1.00  0.00     0.087 C 
HETATM    3  C2  UNL     1      28.134   0.738  45.505  1.00  0.00     0.095 C 
HETATM    4  C3  UNL     1      27.891   0.744  44.206  1.00  0.00     0.029 C 
ENDROOT
BRANCH   4   5
HETATM    5  C4  UNL     1      28.721   1.489  43.292  1.00  0.00     0.108 C 
HETATM    6  N2  UNL     1      29.498   2.432  43.702  1.00  0.00    -0.309 N 
ATOM      7  H2  UNL     1      29.524   2.652  44.697  1.00  0.00     0.186 HD
BRANCH   6   8
HETATM    8  N3  UNL     1      30.307   3.161  42.826  1.00  0.00    -0.265 N 
HETATM    9  C5  UNL     1      29.953   4.435  42.341  1.00  0.00     0.293 C 
HETATM   10  O1  UNL     1      28.869   4.947  42.702  1.00  0.00    -0.264 OA
ATOM     11  H3  UNL     1      31.192   2.754  42.526  1.00  0.00     0.190 HD
BRANCH   9  12
HETATM   12  C6  UNL     1      30.819   5.172  41.428  1.00  0.00     0.144 A 
HETATM   13  C7  UNL     1      30.427   6.144  40.503  1.00  0.00     0.045 A 
HETATM   14  C8  UNL     1      31.586   6.549  39.876  1.00  0.00     0.027 A 
HETATM   15  C9  UNL     1      32.631   5.834  40.421  1.00  0.00     0.143 A 
HETATM   16  O2  UNL     1      32.115   5.042  41.326  1.00  0.00    -0.317 OA
ENDBRANCH   9  12
ENDBRANCH   6   8
ENDBRANCH   4   5
TORSDOF 3
ENDMDL
MODEL 4
REMARK VINA RESULT: -5.970769265      3.649      5.353
REMARK  3 active torsions:
REMARK  status: ('A' for Active; 'I' for Inactive)
REMARK    1  A    between atoms: C3_4  and  C4_5 
REMARK    2  A    between atoms: N2_6  and  N3_8 
REMARK       I    between atoms: N3_8  and  C5_10 
REMARK    3  A    between atoms: C5_10  and  C6_12 
ROOT
HETATM    1  N1  UNL     1      25.949  -0.892  46.740  1.00  0.00    -0.192 NA
HETATM    2  C1  UNL     1      26.748  -0.345  46.099  1.00  0.00     0.087 C 
HETATM    3  C2  UNL     1      27.714   0.343  45.300  1.00  0.00     0.095 C 
HETATM    4  C3  UNL     1      27.477   0.638  44.034  1.00  0.00     0.029 C 
ENDROOT
BRANCH   4   5
HETATM    5  C4  UNL     1      28.454   1.331  43.230  1.00  0.00     0.108 C 
HETATM    6  N2  UNL     1      29.220   2.237  43.733  1.00  0.00    -0.309 N 
ATOM      7  H2  UNL     1      29.130   2.466  44.722  1.00  0.00     0.186 HD
BRANCH   6   8
HETATM    8  N3  UNL     1      30.170   2.916  42.965  1.00  0.00    -0.265 N 
HETATM    9  C5  UNL     1      29.965   4.219  42.471  1.00  0.00     0.293 C 
HETATM   10  O1  UNL     1      28.889   4.805  42.724  1.00  0.00    -0.264 OA
ATOM     11  H3  UNL     1      31.051   2.448  42.754  1.00  0.00     0.190 HD
BRANCH   9  12
HETATM   12  C6  UNL     1      30.977   4.901  41.673  1.00  0.00     0.144 A 
HETATM   13  C7  UNL     1      32.350   4.638  41.660  1.00  0.00     0.045 A 
HETATM   14  C8  UNL     1      32.891   5.530  40.758  1.00  0.00     0.027 A 
HETATM   15  C9  UNL     1      31.860   6.295  40.255  1.00  0.00     0.143 A 
HETATM   16  O2  UNL     1      30.763   5.877  40.832  1.00  0.00    -0.317 OA
ENDBRANCH   9  12
ENDBRANCH   6   8
ENDBRANCH   4   5
TORSDOF 3
ENDMDL
MODEL 5
REMARK VINA RESULT: -5.950499047      1.322      1.322
REMARK  3 active torsions:
REMARK  status: ('A' for Active; 'I' for Inactive)
REMARK    1  A    between atoms: C3_4  and  C4_5 
REMARK    2  A    between atoms: N2_6  and  N3_8 
REMARK       I    between atoms: N3_8  and  C5_10 
REMARK    3  A    between atoms: C5_10  and  C6_12 
ROOT
HETATM    1  N1  UNL     1      29.244   1.200  43.050  1.00  0.00    -0.192 NA
HETATM    2  C1  UNL     1      29.322   2.211  42.483  1.00  0.00     0.087 C 
HETATM    3  C2  UNL     1      29.440   3.451  41.782  1.00  0.00     0.095 C 
HETATM    4  C3  UNL     1      30.497   4.231  41.933  1.00  0.00     0.029 C 
ENDROOT
BRANCH   4   5
HETATM    5  C4  UNL     1      30.613   5.481  41.224  1.00  0.00     0.108 C 
HETATM    6  N2  UNL     1      30.152   5.625  40.029  1.00  0.00    -0.309 N 
ATOM      7  H2  UNL     1      29.694   4.832  39.579  1.00  0.00     0.186 HD
BRANCH   6   8
HETATM    8  N3  UNL     1      30.258   6.831  39.332  1.00  0.00    -0.265 N 
HETATM    9  C5  UNL     1      30.813   6.920  38.040  1.00  0.00     0.293 C 
HETATM   10  O1  UNL     1      31.232   5.882  37.482  1.00  0.00    -0.264 OA
ATOM     11  H3  UNL     1      29.919   7.683  39.777  1.00  0.00     0.190 HD
BRANCH   9  12
HETATM   12  C6  UNL     1      30.909   8.195  37.338  1.00  0.00     0.144 A 
HETATM   13  C7  UNL     1      31.018   9.463  37.916  1.00  0.00     0.045 A 
HETATM   14  C8  UNL     1      31.079  10.348  36.860  1.00  0.00     0.027 A 
HETATM   15  C9  UNL     1      31.010   9.617  35.694  1.00  0.00     0.143 A 
HETATM   16  O2  UNL     1      30.911   8.360  36.042  1.00  0.00    -0.317 OA
ENDBRANCH   9  12
ENDBRANCH   6   8
ENDBRANCH   4   5
TORSDOF 3
ENDMDL
