MODEL 1
REMARK VINA RESULT: -5.628650323      0.000      0.000
REMARK  5 active torsions:
REMARK  status: ('A' for Active; 'I' for Inactive)
REMARK    1  A    between atoms: N1_2  and  O1_3 
REMARK    2  A    between atoms: N1_2  and  O2_5 
REMARK    3  A    between atoms: O2_5  and  C2_6 
REMARK       I    between atoms: C2_6  and  N2_8 
REMARK    4  A    between atoms: N2_8  and  C3_10 
REMARK    5  A    between atoms: C3_10  and  C4_11 
ROOT
HETATM    1  C2  UNL     1      26.766   1.413  41.916  1.00  0.00     0.395 C 
HETATM    2  O3  UNL     1      25.751   2.118  42.224  1.00  0.00    -0.235 OA
HETATM    3  N2  UNL     1      27.786   1.956  41.034  1.00  0.00    -0.268 N 
ATOM      4  H2  UNL     1      28.579   1.352  40.815  1.00  0.00     0.180 HD
ENDROOT
BRANCH   3   5
HETATM    5  C3  UNL     1      27.781   3.171  40.484  1.00  0.00    -0.033 C 
BRANCH   5   6
HETATM    6  C4  UNL     1      27.776   4.442  39.909  1.00  0.00     0.273 C 
HETATM    7  C5  UNL     1      29.024   4.920  39.152  1.00  0.00     0.048 C 
HETATM    8  C6  UNL     1      28.904   6.418  39.132  1.00  0.00     0.030 C 
HETATM    9  C7  UNL     1      27.617   6.667  39.894  1.00  0.00     0.234 C 
HETATM   10  N3  UNL     1      27.681   5.578  40.876  1.00  0.00    -0.060 N 
ATOM     11  H32 UNL     1      26.929   5.535  41.563  1.00  0.00     0.278 HD
ATOM     12  H31 UNL     1      28.412   5.641  41.584  1.00  0.00     0.278 HD
ENDBRANCH   5   6
ENDBRANCH   3   5
BRANCH   1  13
HETATM   13  O2  UNL     1      26.845   0.150  42.443  1.00  0.00    -0.153 OA
BRANCH  13  14
HETATM   14  N1  UNL     1      26.880  -0.948  41.624  1.00  0.00    -0.139 N 
HETATM   15  C1  UNL     1      27.411  -2.027  42.073  1.00  0.00     0.186 C 
BRANCH  14  16
HETATM   16  O1  UNL     1      26.375  -0.922  40.355  1.00  0.00    -0.264 OA
ATOM     17  H1  UNL     1      26.955  -0.748  39.623  1.00  0.00     0.247 HD
ENDBRANCH  14  16
ENDBRANCH  13  14
ENDBRANCH   1  13
TORSDOF 5
ENDMDL
MODEL 2
REMARK VINA RESULT: -5.363316718      3.375      3.841
REMARK  5 active torsions:
REMARK  status: ('A' for Active; 'I' for Inactive)
REMARK    1  A    between atoms: N1_2  and  O1_3 
REMARK    2  A    between atoms: N1_2  and  O2_5 
REMARK    3  A    between atoms: O2_5  and  C2_6 
REMARK       I    between atoms: C2_6  and  N2_8 
REMARK    4  A    between atoms: N2_8  and  C3_10 
REMARK    5  A    between atoms: C3_10  and  C4_11 
ROOT
HETATM    1  C2  UNL     1      28.510   1.583  44.808  1.00  0.00     0.395 C 
HETATM    2  O3  UNL     1      27.601   2.459  44.973  1.00  0.00    -0.235 OA
HETATM    3  N2  UNL     1      29.297   1.575  43.585  1.00  0.00    -0.268 N 
ATOM      4  H2  UNL     1      30.013   0.853  43.499  1.00  0.00     0.180 HD
ENDROOT
BRANCH   3   5
HETATM    5  C3  UNL     1      29.169   2.425  42.565  1.00  0.00    -0.033 C 
BRANCH   5   6
HETATM    6  C4  UNL     1      29.036   3.314  41.499  1.00  0.00     0.273 C 
HETATM    7  C5  UNL     1      29.265   4.813  41.748  1.00  0.00     0.048 C 
HETATM    8  C6  UNL     1      28.562   5.498  40.610  1.00  0.00     0.030 C 
HETATM    9  C7  UNL     1      27.975   4.340  39.826  1.00  0.00     0.234 C 
HETATM   10  N3  UNL     1      27.661   3.416  40.922  1.00  0.00    -0.060 N 
ATOM     11  H32 UNL     1      27.204   2.540  40.667  1.00  0.00     0.278 HD
ATOM     12  H31 UNL     1      26.915   3.696  41.558  1.00  0.00     0.278 HD
ENDBRANCH   5   6
ENDBRANCH   3   5
BRANCH   1  13
HETATM   13  O2  UNL     1      28.704   0.672  45.814  1.00  0.00    -0.153 OA
BRANCH  13  14
HETATM   14  N1  UNL     1      27.729   0.447  46.750  1.00  0.00    -0.139 N 
HETATM   15  C1  UNL     1      27.086  -0.664  46.704  1.00  0.00     0.186 C 
BRANCH  14  16
HETATM   16  O1  UNL     1      27.423   1.364  47.714  1.00  0.00    -0.264 OA
ATOM     17  H1  UNL     1      26.513   1.538  47.925  1.00  0.00     0.247 HD
ENDBRANCH  14  16
ENDBRANCH  13  14
ENDBRANCH   1  13
TORSDOF 5
ENDMDL
MODEL 3
REMARK VINA RESULT: -5.339462642      3.000      3.411
REMARK  5 active torsions:
REMARK  status: ('A' for Active; 'I' for Inactive)
REMARK    1  A    between atoms: N1_2  and  O1_3 
REMARK    2  A    between atoms: N1_2  and  O2_5 
REMARK    3  A    between atoms: O2_5  and  C2_6 
REMARK       I    between atoms: C2_6  and  N2_8 
REMARK    4  A    between atoms: N2_8  and  C3_10 
REMARK    5  A    between atoms: C3_10  and  C4_11 
ROOT
HETATM    1  C2  UNL     1      28.274   1.146  43.712  1.00  0.00     0.395 C 
HETATM    2  O3  UNL     1      27.077   1.487  43.443  1.00  0.00    -0.235 OA
HETATM    3  N2  UNL     1      29.385   1.806  43.043  1.00  0.00    -0.268 N 
ATOM      4  H2  UNL     1      30.324   1.497  43.291  1.00  0.00     0.180 HD
ENDROOT
BRANCH   3   5
HETATM    5  C3  UNL     1      29.287   2.778  42.135  1.00  0.00    -0.033 C 
BRANCH   5   6
HETATM    6  C4  UNL     1      29.184   3.795  41.186  1.00  0.00     0.273 C 
HETATM    7  C5  UNL     1      29.583   5.225  41.582  1.00  0.00     0.048 C 
HETATM    8  C6  UNL     1      28.888   6.103  40.580  1.00  0.00     0.030 C 
HETATM    9  C7  UNL     1      28.138   5.107  39.716  1.00  0.00     0.234 C 
HETATM   10  N3  UNL     1      27.795   4.097  40.723  1.00  0.00    -0.060 N 
ATOM     11  H32 UNL     1      27.234   3.305  40.406  1.00  0.00     0.278 HD
ATOM     12  H31 UNL     1      27.122   4.371  41.438  1.00  0.00     0.278 HD
ENDBRANCH   5   6
ENDBRANCH   3   5
BRANCH   1  13
HETATM   13  O2  UNL     1      28.458   0.152  44.638  1.00  0.00    -0.153 OA
BRANCH  13  14
HETATM   14  N1  UNL     1      28.764   0.457  45.938  1.00  0.00    -0.139 N 
HETATM   15  C1  UNL     1      27.798   0.642  46.763  1.00  0.00     0.186 C 
BRANCH  14  16
HETATM   16  O1  UNL     1      30.054   0.574  46.372  1.00  0.00    -0.264 OA
ATOM     17  H1  UNL     1      30.330   1.366  46.816  1.00  0.00     0.247 HD
ENDBRANCH  14  16
ENDBRANCH  13  14
ENDBRANCH   1  13
TORSDOF 5
ENDMDL
MODEL 4
REMARK VINA RESULT: -5.292014119      3.623      5.244
REMARK  5 active torsions:
REMARK  status: ('A' for Active; 'I' for Inactive)
REMARK    1  A    between atoms: N1_2  and  O1_3 
REMARK    2  A    between atoms: N1_2  and  O2_5 
REMARK    3  A    between atoms: O2_5  and  C2_6 
REMARK       I    between atoms: C2_6  and  N2_8 
REMARK    4  A    between atoms: N2_8  and  C3_10 
REMARK    5  A    between atoms: C3_10  and  C4_11 
ROOT
HETATM    1  C2  UNL     1      28.204   6.291  40.339  1.00  0.00     0.395 C 
HETATM    2  O3  UNL     1      27.157   6.813  39.837  1.00  0.00    -0.235 OA
HETATM    3  N2  UNL     1      29.516   6.802  39.973  1.00  0.00    -0.268 N 
ATOM      4  H2  UNL     1      30.325   6.350  40.400  1.00  0.00     0.180 HD
ENDROOT
BRANCH   3   5
HETATM    5  C3  UNL     1      29.759   7.806  39.130  1.00  0.00    -0.033 C 
BRANCH   5   6
HETATM    6  C4  UNL     1      30.013   8.856  38.248  1.00  0.00     0.273 C 
HETATM    7  C5  UNL     1      29.698   8.667  36.757  1.00  0.00     0.048 C 
HETATM    8  C6  UNL     1      30.534   9.703  36.058  1.00  0.00     0.030 C 
HETATM    9  C7  UNL     1      31.267  10.376  37.202  1.00  0.00     0.234 C 
HETATM   10  N3  UNL     1      31.452   9.232  38.102  1.00  0.00    -0.060 N 
ATOM     11  H32 UNL     1      31.972   9.405  38.963  1.00  0.00     0.278 HD
ATOM     12  H31 UNL     1      32.089   8.500  37.788  1.00  0.00     0.278 HD
ENDBRANCH   5   6
ENDBRANCH   3   5
BRANCH   1  13
HETATM   13  O2  UNL     1      28.038   5.251  41.217  1.00  0.00    -0.153 OA
BRANCH  13  14
HETATM   14  N1  UNL     1      27.925   3.964  40.761  1.00  0.00    -0.139 N 
HETATM   15  C1  UNL     1      28.748   3.086  41.207  1.00  0.00     0.186 C 
BRANCH  14  16
HETATM   16  O1  UNL     1      26.974   3.598  39.852  1.00  0.00    -0.264 OA
ATOM     17  H1  UNL     1      27.224   3.440  38.949  1.00  0.00     0.247 HD
ENDBRANCH  14  16
ENDBRANCH  13  14
ENDBRANCH   1  13
TORSDOF 5
ENDMDL
MODEL 5
REMARK VINA RESULT: -5.283091108      3.316      3.759
REMARK  5 active torsions:
REMARK  status: ('A' for Active; 'I' for Inactive)
REMARK    1  A    between atoms: N1_2  and  O1_3 
REMARK    2  A    between atoms: N1_2  and  O2_5 
REMARK    3  A    between atoms: O2_5  and  C2_6 
REMARK       I    between atoms: C2_6  and  N2_8 
REMARK    4  A    between atoms: N2_8  and  C3_10 
REMARK    5  A    between atoms: C3_10  and  C4_11 
ROOT
HETATM    1  C2  UNL     1      28.404   1.457  43.680  1.00  0.00     0.395 C 
HETATM    2  O3  UNL     1      27.491   1.537  42.797  1.00  0.00    -0.235 OA
HETATM    3  N2  UNL     1      29.594   2.287  43.571  1.00  0.00    -0.268 N 
ATOM      4  H2  UNL     1      30.298   2.185  44.302  1.00  0.00     0.180 HD
ENDROOT
BRANCH   3   5
HETATM    5  C3  UNL     1      29.849   3.168  42.602  1.00  0.00    -0.033 C 
BRANCH   5   6
HETATM    6  C4  UNL     1      30.114   4.089  41.590  1.00  0.00     0.273 C 
HETATM    7  C5  UNL     1      31.498   4.754  41.534  1.00  0.00     0.048 C 
HETATM    8  C6  UNL     1      31.287   6.000  40.720  1.00  0.00     0.030 C 
HETATM    9  C7  UNL     1      29.805   5.952  40.402  1.00  0.00     0.234 C 
HETATM   10  N3  UNL     1      29.294   5.338  41.632  1.00  0.00    -0.060 N 
ATOM     11  H32 UNL     1      28.283   5.221  41.702  1.00  0.00     0.278 HD
ATOM     12  H31 UNL     1      29.353   5.897  42.483  1.00  0.00     0.278 HD
ENDBRANCH   5   6
ENDBRANCH   3   5
BRANCH   1  13
HETATM   13  O2  UNL     1      28.215   0.573  44.710  1.00  0.00    -0.153 OA
BRANCH  13  14
HETATM   14  N1  UNL     1      28.605   0.892  45.985  1.00  0.00    -0.139 N 
HETATM   15  C1  UNL     1      27.731   1.392  46.781  1.00  0.00     0.186 C 
BRANCH  14  16
HETATM   16  O1  UNL     1      29.885   0.701  46.421  1.00  0.00    -0.264 OA
ATOM     17  H1  UNL     1      30.574   0.522  45.792  1.00  0.00     0.247 HD
ENDBRANCH  14  16
ENDBRANCH  13  14
ENDBRANCH   1  13
TORSDOF 5
ENDMDL
