MODEL 1
REMARK VINA RESULT: -9.577710331      0.000      0.000
REMARK  3 active torsions:
REMARK  status: ('A' for Active; 'I' for Inactive)
REMARK    1  A    between atoms: C7_10  and  C8_11 
REMARK    2  A    between atoms: C19_26  and  C20_27 
REMARK    3  A    between atoms: C20_27  and  C21_28 
ROOT
HETATM    1  O1  UNL     1       4.628  33.658  74.431  1.00  0.00    -0.266 OA
HETATM    2  C1  UNL     1       5.779  34.162  74.306  1.00  0.00     0.269 A 
HETATM    3  N1  UNL     1       5.916  35.434  74.682  1.00  0.00    -0.319 N 
ATOM      4  H1  UNL     1       5.103  35.933  75.043  1.00  0.00     0.169 HD
HETATM    5  C2  UNL     1       7.089  36.078  74.600  1.00  0.00     0.073 A 
HETATM    6  C3  UNL     1       7.222  37.388  74.978  1.00  0.00     0.004 A 
HETATM    7  C4  UNL     1       6.140  38.154  75.541  1.00  0.00    -0.008 A 
HETATM    8  C5  UNL     1       5.438  37.792  76.668  1.00  0.00     0.016 A 
HETATM    9  C6  UNL     1       4.403  38.586  77.154  1.00  0.00     0.031 A 
HETATM   10  C7  UNL     1       4.035  39.754  76.541  1.00  0.00     0.042 A 
HETATM   11  N2  UNL     1       4.729  40.096  75.441  1.00  0.00    -0.364 N 
ATOM     12  H2  UNL     1       4.480  40.961  74.961  1.00  0.00     0.165 HD
HETATM   13  C14 UNL     1       5.728  39.361  74.944  1.00  0.00     0.100 A 
HETATM   14  C15 UNL     1       8.496  37.962  74.832  1.00  0.00     0.015 A 
HETATM   15  C16 UNL     1       9.577  37.293  74.345  1.00  0.00     0.003 A 
HETATM   16  C17 UNL     1       9.409  35.971  73.974  1.00  0.00     0.032 A 
HETATM   17  C18 UNL     1       8.185  35.374  74.099  1.00  0.00     0.060 A 
HETATM   18  N3  UNL     1       8.022  34.100  73.729  1.00  0.00    -0.353 N 
ATOM     19  H3  UNL     1       8.825  33.588  73.363  1.00  0.00     0.166 HD
HETATM   20  C19 UNL     1       6.844  33.473  73.821  1.00  0.00     0.082 A 
ENDROOT
BRANCH  20  21
HETATM   21  C20 UNL     1       6.738  32.071  73.390  1.00  0.00     0.101 C 
BRANCH  21  22
HETATM   22  C21 UNL     1       8.035  31.440  73.079  1.00  0.00    -0.052 A 
HETATM   23  C22 UNL     1       8.705  31.677  71.891  1.00  0.00     0.007 A 
HETATM   24  C23 UNL     1       9.922  31.083  71.636  1.00  0.00     0.001 A 
HETATM   25  C24 UNL     1      10.487  30.239  72.568  1.00  0.00     0.000 A 
HETATM   26  C25 UNL     1       9.837  30.000  73.738  1.00  0.00     0.001 A 
HETATM   27  C26 UNL     1       8.617  30.598  73.992  1.00  0.00     0.007 A 
ENDBRANCH  21  22
ENDBRANCH  20  21
BRANCH  10  28
HETATM   28  C8  UNL     1       2.952  40.581  77.054  1.00  0.00    -0.009 A 
HETATM   29  C9  UNL     1       3.097  41.977  77.078  1.00  0.00     0.013 A 
HETATM   30  C10 UNL     1       2.116  42.818  77.548  1.00  0.00     0.001 A 
HETATM   31  C11 UNL     1       0.927  42.313  78.024  1.00  0.00     0.000 A 
HETATM   32  C12 UNL     1       0.762  40.946  78.009  1.00  0.00     0.001 A 
HETATM   33  C13 UNL     1       1.761  40.091  77.531  1.00  0.00     0.013 A 
ENDBRANCH  10  28
TORSDOF 3
ENDMDL
MODEL 2
REMARK VINA RESULT: -9.525260307      1.205      1.461
REMARK  3 active torsions:
REMARK  status: ('A' for Active; 'I' for Inactive)
REMARK    1  A    between atoms: C7_10  and  C8_11 
REMARK    2  A    between atoms: C19_26  and  C20_27 
REMARK    3  A    between atoms: C20_27  and  C21_28 
ROOT
HETATM    1  O1  UNL     1       6.519  33.223  75.392  1.00  0.00    -0.266 OA
HETATM    2  C1  UNL     1       7.505  33.850  74.912  1.00  0.00     0.269 A 
HETATM    3  N1  UNL     1       7.434  35.182  74.943  1.00  0.00    -0.319 N 
ATOM      4  H1  UNL     1       6.606  35.623  75.340  1.00  0.00     0.169 HD
HETATM    5  C2  UNL     1       8.419  35.957  74.466  1.00  0.00     0.073 A 
HETATM    6  C3  UNL     1       8.338  37.325  74.491  1.00  0.00     0.004 A 
HETATM    7  C4  UNL     1       7.227  38.032  75.075  1.00  0.00    -0.008 A 
HETATM    8  C5  UNL     1       6.809  37.880  76.377  1.00  0.00     0.016 A 
HETATM    9  C6  UNL     1       5.725  38.601  76.871  1.00  0.00     0.031 A 
HETATM   10  C7  UNL     1       5.027  39.487  76.093  1.00  0.00     0.042 A 
HETATM   11  N2  UNL     1       5.447  39.626  74.823  1.00  0.00    -0.364 N 
ATOM     12  H2  UNL     1       4.949  40.279  74.218  1.00  0.00     0.165 HD
HETATM   13  C14 UNL     1       6.482  38.952  74.313  1.00  0.00     0.100 A 
HETATM   14  C15 UNL     1       9.424  38.032  73.950  1.00  0.00     0.015 A 
HETATM   15  C16 UNL     1      10.526  37.438  73.416  1.00  0.00     0.003 A 
HETATM   16  C17 UNL     1      10.577  36.055  73.408  1.00  0.00     0.032 A 
HETATM   17  C18 UNL     1       9.541  35.328  73.925  1.00  0.00     0.060 A 
HETATM   18  N3  UNL     1       9.587  33.992  73.906  1.00  0.00    -0.353 N 
ATOM     19  H3  UNL     1      10.408  33.534  73.510  1.00  0.00     0.166 HD
HETATM   20  C19 UNL     1       8.596  33.233  74.388  1.00  0.00     0.082 A 
ENDROOT
BRANCH  20  21
HETATM   21  C20 UNL     1       8.714  31.769  74.330  1.00  0.00     0.101 C 
BRANCH  21  22
HETATM   22  C21 UNL     1       9.752  31.289  73.397  1.00  0.00    -0.052 A 
HETATM   23  C22 UNL     1       9.669  31.494  72.031  1.00  0.00     0.007 A 
HETATM   24  C23 UNL     1      10.662  31.045  71.188  1.00  0.00     0.001 A 
HETATM   25  C24 UNL     1      11.754  30.379  71.701  1.00  0.00     0.000 A 
HETATM   26  C25 UNL     1      11.845  30.173  73.041  1.00  0.00     0.001 A 
HETATM   27  C26 UNL     1      10.848  30.625  73.886  1.00  0.00     0.007 A 
ENDBRANCH  21  22
ENDBRANCH  20  21
BRANCH  10  28
HETATM   28  C8  UNL     1       3.895  40.239  76.615  1.00  0.00    -0.009 A 
HETATM   29  C9  UNL     1       3.970  41.638  76.695  1.00  0.00     0.013 A 
HETATM   30  C10 UNL     1       2.940  42.412  77.177  1.00  0.00     0.001 A 
HETATM   31  C11 UNL     1       1.769  41.830  77.609  1.00  0.00     0.000 A 
HETATM   32  C12 UNL     1       1.673  40.458  77.539  1.00  0.00     0.001 A 
HETATM   33  C13 UNL     1       2.722  39.672  77.049  1.00  0.00     0.013 A 
ENDBRANCH  10  28
TORSDOF 3
ENDMDL
MODEL 3
REMARK VINA RESULT: -9.232946599      1.188      1.406
REMARK  3 active torsions:
REMARK  status: ('A' for Active; 'I' for Inactive)
REMARK    1  A    between atoms: C7_10  and  C8_11 
REMARK    2  A    between atoms: C19_26  and  C20_27 
REMARK    3  A    between atoms: C20_27  and  C21_28 
ROOT
HETATM    1  O1  UNL     1       5.042  34.032  73.147  1.00  0.00    -0.266 OA
HETATM    2  C1  UNL     1       6.166  34.447  73.545  1.00  0.00     0.269 A 
HETATM    3  N1  UNL     1       6.151  35.410  74.469  1.00  0.00    -0.319 N 
ATOM      4  H1  UNL     1       5.253  35.761  74.802  1.00  0.00     0.169 HD
HETATM    5  C2  UNL     1       7.280  35.931  74.972  1.00  0.00     0.073 A 
HETATM    6  C3  UNL     1       7.259  36.926  75.913  1.00  0.00     0.004 A 
HETATM    7  C4  UNL     1       6.039  37.448  76.474  1.00  0.00    -0.008 A 
HETATM    8  C5  UNL     1       5.089  36.683  77.111  1.00  0.00     0.016 A 
HETATM    9  C6  UNL     1       3.933  37.260  77.630  1.00  0.00     0.031 A 
HETATM   10  C7  UNL     1       3.686  38.604  77.531  1.00  0.00     0.042 A 
HETATM   11  N2  UNL     1       4.622  39.339  76.906  1.00  0.00    -0.364 N 
ATOM     12  H2  UNL     1       4.468  40.343  76.816  1.00  0.00     0.165 HD
HETATM   13  C14 UNL     1       5.744  38.822  76.395  1.00  0.00     0.100 A 
HETATM   14  C15 UNL     1       8.504  37.404  76.355  1.00  0.00     0.015 A 
HETATM   15  C16 UNL     1       9.699  36.936  75.903  1.00  0.00     0.003 A 
HETATM   16  C17 UNL     1       9.685  35.930  74.954  1.00  0.00     0.032 A 
HETATM   17  C18 UNL     1       8.495  35.436  74.496  1.00  0.00     0.060 A 
HETATM   18  N3  UNL     1       8.483  34.471  73.571  1.00  0.00    -0.353 N 
ATOM     19  H3  UNL     1       9.372  34.111  73.225  1.00  0.00     0.166 HD
HETATM   20  C19 UNL     1       7.346  33.961  73.082  1.00  0.00     0.082 A 
ENDROOT
BRANCH  20  21
HETATM   21  C20 UNL     1       7.410  32.905  72.061  1.00  0.00     0.101 C 
BRANCH  21  22
HETATM   22  C21 UNL     1       8.262  31.760  72.437  1.00  0.00    -0.052 A 
HETATM   23  C22 UNL     1       9.585  31.662  72.041  1.00  0.00     0.007 A 
HETATM   24  C23 UNL     1      10.358  30.586  72.420  1.00  0.00     0.001 A 
HETATM   25  C24 UNL     1       9.816  29.588  73.202  1.00  0.00     0.000 A 
HETATM   26  C25 UNL     1       8.518  29.675  73.596  1.00  0.00     0.001 A 
HETATM   27  C26 UNL     1       7.744  30.755  73.215  1.00  0.00     0.007 A 
ENDBRANCH  21  22
ENDBRANCH  20  21
BRANCH  10  28
HETATM   28  C8  UNL     1       2.475  39.202  78.075  1.00  0.00    -0.009 A 
HETATM   29  C9  UNL     1       2.417  40.590  78.274  1.00  0.00     0.013 A 
HETATM   30  C10 UNL     1       1.307  41.223  78.783  1.00  0.00     0.001 A 
HETATM   31  C11 UNL     1       0.184  40.502  79.125  1.00  0.00     0.000 A 
HETATM   32  C12 UNL     1       0.219  39.138  78.938  1.00  0.00     0.001 A 
HETATM   33  C13 UNL     1       1.349  38.496  78.420  1.00  0.00     0.013 A 
ENDBRANCH  10  28
TORSDOF 3
ENDMDL
MODEL 4
REMARK VINA RESULT: -9.059308948      1.919      2.406
REMARK  3 active torsions:
REMARK  status: ('A' for Active; 'I' for Inactive)
REMARK    1  A    between atoms: C7_10  and  C8_11 
REMARK    2  A    between atoms: C19_26  and  C20_27 
REMARK    3  A    between atoms: C20_27  and  C21_28 
ROOT
HETATM    1  O1  UNL     1       5.863  33.384  76.429  1.00  0.00    -0.266 OA
HETATM    2  C1  UNL     1       6.866  33.863  75.829  1.00  0.00     0.269 A 
HETATM    3  N1  UNL     1       6.888  35.187  75.671  1.00  0.00    -0.319 N 
ATOM      4  H1  UNL     1       6.111  35.741  76.031  1.00  0.00     0.169 HD
HETATM    5  C2  UNL     1       7.901  35.812  75.053  1.00  0.00     0.073 A 
HETATM    6  C3  UNL     1       7.914  37.172  74.884  1.00  0.00     0.004 A 
HETATM    7  C4  UNL     1       6.883  38.035  75.401  1.00  0.00    -0.008 A 
HETATM    8  C5  UNL     1       6.516  38.099  76.725  1.00  0.00     0.016 A 
HETATM    9  C6  UNL     1       5.508  38.961  77.150  1.00  0.00     0.031 A 
HETATM   10  C7  UNL     1       4.837  39.778  76.279  1.00  0.00     0.042 A 
HETATM   11  N2  UNL     1       5.206  39.706  74.988  1.00  0.00    -0.364 N 
ATOM     12  H2  UNL     1       4.727  40.302  74.314  1.00  0.00     0.165 HD
HETATM   13  C14 UNL     1       6.168  38.892  74.542  1.00  0.00     0.100 A 
HETATM   14  C15 UNL     1       9.020  37.714  74.209  1.00  0.00     0.015 A 
HETATM   15  C16 UNL     1      10.053  36.970  73.727  1.00  0.00     0.003 A 
HETATM   16  C17 UNL     1      10.009  35.601  73.915  1.00  0.00     0.032 A 
HETATM   17  C18 UNL     1       8.950  35.032  74.568  1.00  0.00     0.060 A 
HETATM   18  N3  UNL     1       8.904  33.707  74.739  1.00  0.00    -0.353 N 
ATOM     19  H3  UNL     1       9.673  33.138  74.383  1.00  0.00     0.166 HD
HETATM   20  C19 UNL     1       7.887  33.100  75.360  1.00  0.00     0.082 A 
ENDROOT
BRANCH  20  21
HETATM   21  C20 UNL     1       7.901  31.637  75.508  1.00  0.00     0.101 C 
BRANCH  21  22
HETATM   22  C21 UNL     1       8.993  31.132  76.363  1.00  0.00    -0.052 A 
HETATM   23  C22 UNL     1       9.165  31.559  77.669  1.00  0.00     0.007 A 
HETATM   24  C23 UNL     1      10.187  31.058  78.447  1.00  0.00     0.001 A 
HETATM   25  C24 UNL     1      11.055  30.123  77.927  1.00  0.00     0.000 A 
HETATM   26  C25 UNL     1      10.894  29.698  76.646  1.00  0.00     0.001 A 
HETATM   27  C26 UNL     1       9.869  30.200  75.868  1.00  0.00     0.007 A 
ENDBRANCH  21  22
ENDBRANCH  20  21
BRANCH  10  28
HETATM   28  C8  UNL     1       3.785  40.678  76.728  1.00  0.00    -0.009 A 
HETATM   29  C9  UNL     1       4.028  42.059  76.778  1.00  0.00     0.013 A 
HETATM   30  C10 UNL     1       3.081  42.967  77.192  1.00  0.00     0.001 A 
HETATM   31  C11 UNL     1       1.829  42.546  77.581  1.00  0.00     0.000 A 
HETATM   32  C12 UNL     1       1.568  41.194  77.539  1.00  0.00     0.001 A 
HETATM   33  C13 UNL     1       2.533  40.272  77.119  1.00  0.00     0.013 A 
ENDBRANCH  10  28
TORSDOF 3
ENDMDL
MODEL 5
REMARK VINA RESULT: -8.984675999      1.863      2.433
REMARK  3 active torsions:
REMARK  status: ('A' for Active; 'I' for Inactive)
REMARK    1  A    between atoms: C7_10  and  C8_11 
REMARK    2  A    between atoms: C19_26  and  C20_27 
REMARK    3  A    between atoms: C20_27  and  C21_28 
ROOT
HETATM    1  O1  UNL     1       5.755  33.426  76.355  1.00  0.00    -0.266 OA
HETATM    2  C1  UNL     1       6.776  33.899  75.783  1.00  0.00     0.269 A 
HETATM    3  N1  UNL     1       6.819  35.225  75.643  1.00  0.00    -0.319 N 
ATOM      4  H1  UNL     1       6.041  35.784  75.994  1.00  0.00     0.169 HD
HETATM    5  C2  UNL     1       7.852  35.845  75.055  1.00  0.00     0.073 A 
HETATM    6  C3  UNL     1       7.886  37.207  74.904  1.00  0.00     0.004 A 
HETATM    7  C4  UNL     1       6.856  38.076  75.411  1.00  0.00    -0.008 A 
HETATM    8  C5  UNL     1       6.462  38.128  76.728  1.00  0.00     0.016 A 
HETATM    9  C6  UNL     1       5.457  38.997  77.143  1.00  0.00     0.031 A 
HETATM   10  C7  UNL     1       4.815  39.835  76.270  1.00  0.00     0.042 A 
HETATM   11  N2  UNL     1       5.209  39.774  74.986  1.00  0.00    -0.364 N 
ATOM     12  H2  UNL     1       4.752  40.386  74.310  1.00  0.00     0.165 HD
HETATM   13  C14 UNL     1       6.170  38.954  74.549  1.00  0.00     0.100 A 
HETATM   14  C15 UNL     1       9.013  37.743  74.259  1.00  0.00     0.015 A 
HETATM   15  C16 UNL     1      10.045  36.992  73.788  1.00  0.00     0.003 A 
HETATM   16  C17 UNL     1       9.980  35.621  73.957  1.00  0.00     0.032 A 
HETATM   17  C18 UNL     1       8.901  35.057  74.580  1.00  0.00     0.060 A 
HETATM   18  N3  UNL     1       8.834  33.731  74.732  1.00  0.00    -0.353 N 
ATOM     19  H3  UNL     1       9.602  33.157  74.385  1.00  0.00     0.166 HD
HETATM   20  C19 UNL     1       7.796  33.129  75.325  1.00  0.00     0.082 A 
ENDROOT
BRANCH  20  21
HETATM   21  C20 UNL     1       7.789  31.665  75.453  1.00  0.00     0.101 C 
BRANCH  21  22
HETATM   22  C21 UNL     1       8.889  31.130  76.279  1.00  0.00    -0.052 A 
HETATM   23  C22 UNL     1       9.796  30.204  75.791  1.00  0.00     0.007 A 
HETATM   24  C23 UNL     1      10.821  29.735  76.584  1.00  0.00     0.001 A 
HETATM   25  C24 UNL     1      10.952  30.184  77.880  1.00  0.00     0.000 A 
HETATM   26  C25 UNL     1      10.067  31.093  78.368  1.00  0.00     0.001 A 
HETATM   27  C26 UNL     1       9.040  31.564  77.571  1.00  0.00     0.007 A 
ENDBRANCH  21  22
ENDBRANCH  20  21
BRANCH  10  28
HETATM   28  C8  UNL     1       3.765  40.742  76.710  1.00  0.00    -0.009 A 
HETATM   29  C9  UNL     1       2.511  40.227  77.073  1.00  0.00     0.013 A 
HETATM   30  C10 UNL     1       1.474  41.024  77.498  1.00  0.00     0.001 A 
HETATM   31  C11 UNL     1       1.630  42.390  77.586  1.00  0.00     0.000 A 
HETATM   32  C12 UNL     1       2.853  42.917  77.235  1.00  0.00     0.001 A 
HETATM   33  C13 UNL     1       3.907  42.105  76.802  1.00  0.00     0.013 A 
ENDBRANCH  10  28
TORSDOF 3
ENDMDL
