MODEL 1
REMARK VINA RESULT: -10.188090567      0.000      0.000
REMARK  4 active torsions:
REMARK  status: ('A' for Active; 'I' for Inactive)
REMARK    1  A    between atoms: C4_4  and  C5_5 
REMARK    2  A    between atoms: C5_5  and  N1_6 
REMARK    3  A    between atoms: N1_6  and  C6_8 
REMARK    4  A    between atoms: C10_16  and  C11_17 
ROOT
HETATM    1  C6  UNL     1       7.503  34.269  73.541  1.00  0.00     0.114 A 
HETATM    2  N2  UNL     1       6.325  33.748  73.187  1.00  0.00    -0.338 N 
ATOM      3  H2  UNL     1       5.470  34.227  73.471  1.00  0.00     0.168 HD
HETATM    4  C7  UNL     1       6.227  32.608  72.466  1.00  0.00     0.182 A 
HETATM    5  N3  UNL     1       7.351  31.982  72.094  1.00  0.00    -0.352 N 
ATOM      6  H3  UNL     1       7.273  31.123  71.550  1.00  0.00     0.166 HD
HETATM    7  C8  UNL     1       8.573  32.433  72.405  1.00  0.00     0.047 A 
HETATM    8  C9  UNL     1       9.744  31.813  72.038  1.00  0.00     0.042 A 
HETATM    9  C10 UNL     1      10.999  32.290  72.366  1.00  0.00    -0.022 A 
HETATM   10  C22 UNL     1      11.036  33.473  73.113  1.00  0.00     0.013 A 
HETATM   11  C23 UNL     1       9.877  34.116  73.495  1.00  0.00     0.018 A 
HETATM   12  C24 UNL     1       8.653  33.591  73.137  1.00  0.00     0.034 A 
ENDROOT
BRANCH   9  13
HETATM   13  C11 UNL     1      12.220  31.619  71.967  1.00  0.00    -0.010 A 
HETATM   14  C12 UNL     1      12.206  30.447  71.254  1.00  0.00     0.016 A 
HETATM   15  C13 UNL     1      13.368  29.808  70.874  1.00  0.00     0.031 A 
HETATM   16  C14 UNL     1      14.576  30.366  71.222  1.00  0.00     0.042 A 
HETATM   17  C15 UNL     1      15.857  29.797  70.885  1.00  0.00    -0.009 A 
HETATM   18  N4  UNL     1      14.599  31.534  71.933  1.00  0.00    -0.364 N 
HETATM   19  C16 UNL     1      15.952  28.629  70.176  1.00  0.00     0.013 A 
HETATM   20  C20 UNL     1      17.023  30.408  71.266  1.00  0.00     0.013 A 
HETATM   21  C17 UNL     1      17.189  28.073  69.846  1.00  0.00     0.001 A 
HETATM   22  C18 UNL     1      18.342  28.705  70.240  1.00  0.00     0.000 A 
HETATM   23  C19 UNL     1      18.262  29.880  70.955  1.00  0.00     0.001 A 
HETATM   24  C21 UNL     1      13.450  32.138  72.291  1.00  0.00     0.100 A 
ATOM     25  H4  UNL     1      15.493  31.950  72.193  1.00  0.00     0.165 HD
ENDBRANCH   9  13
BRANCH   1  26
HETATM   26  N1  UNL     1       7.625  35.330  74.214  1.00  0.00    -0.371 N 
ATOM     27  H1  UNL     1       8.190  35.273  75.061  1.00  0.00     0.161 HD
BRANCH  26  28
HETATM   28  C5  UNL     1       7.054  36.601  73.908  1.00  0.00     0.160 C 
BRANCH  28  29
HETATM   29  C4  UNL     1       8.083  37.498  73.296  1.00  0.00    -0.041 A 
HETATM   30  C3  UNL     1       7.774  38.413  72.333  1.00  0.00     0.009 A 
HETATM   31  C2  UNL     1       8.765  39.221  71.799  1.00  0.00     0.001 A 
HETATM   32  C1  UNL     1      10.079  39.134  72.213  1.00  0.00     0.000 A 
HETATM   33  C26 UNL     1      10.391  38.218  73.178  1.00  0.00     0.001 A 
HETATM   34  C25 UNL     1       9.399  37.418  73.704  1.00  0.00     0.009 A 
ENDBRANCH  28  29
ENDBRANCH  26  28
ENDBRANCH   1  26
TORSDOF 4
ENDMDL
MODEL 2
REMARK VINA RESULT: -10.097255461      6.938     14.058
REMARK  4 active torsions:
REMARK  status: ('A' for Active; 'I' for Inactive)
REMARK    1  A    between atoms: C4_4  and  C5_5 
REMARK    2  A    between atoms: C5_5  and  N1_6 
REMARK    3  A    between atoms: N1_6  and  C6_8 
REMARK    4  A    between atoms: C10_16  and  C11_17 
ROOT
HETATM    1  C6  UNL     1       6.563  36.044  76.190  1.00  0.00     0.114 A 
HETATM    2  N2  UNL     1       6.618  34.937  76.936  1.00  0.00    -0.338 N 
ATOM      3  H2  UNL     1       7.258  34.191  76.664  1.00  0.00     0.168 HD
HETATM    4  C7  UNL     1       5.853  34.772  78.039  1.00  0.00     0.182 A 
HETATM    5  N3  UNL     1       5.014  35.754  78.394  1.00  0.00    -0.352 N 
ATOM      6  H3  UNL     1       4.438  35.626  79.227  1.00  0.00     0.166 HD
HETATM    7  C8  UNL     1       4.894  36.895  77.704  1.00  0.00     0.047 A 
HETATM    8  C9  UNL     1       4.042  37.919  78.044  1.00  0.00     0.042 A 
HETATM    9  C10 UNL     1       3.930  39.093  77.322  1.00  0.00    -0.022 A 
HETATM   10  C22 UNL     1       4.746  39.206  76.191  1.00  0.00     0.013 A 
HETATM   11  C23 UNL     1       5.610  38.194  75.828  1.00  0.00     0.018 A 
HETATM   12  C24 UNL     1       5.678  37.045  76.588  1.00  0.00     0.034 A 
ENDROOT
BRANCH   9  13
HETATM   13  C11 UNL     1       3.024  40.160  77.700  1.00  0.00    -0.010 A 
HETATM   14  C12 UNL     1       2.166  40.043  78.765  1.00  0.00     0.016 A 
HETATM   15  C13 UNL     1       1.304  41.058  79.125  1.00  0.00     0.031 A 
HETATM   16  C14 UNL     1       1.308  42.222  78.392  1.00  0.00     0.042 A 
HETATM   17  C15 UNL     1       0.457  43.354  78.666  1.00  0.00    -0.009 A 
HETATM   18  N4  UNL     1       2.159  42.347  77.329  1.00  0.00    -0.364 N 
HETATM   19  C16 UNL     1      -0.434  43.337  79.706  1.00  0.00     0.013 A 
HETATM   20  C20 UNL     1       0.514  44.483  77.892  1.00  0.00     0.013 A 
HETATM   21  C17 UNL     1      -1.260  44.428  79.977  1.00  0.00     0.001 A 
HETATM   22  C18 UNL     1      -1.185  45.548  79.187  1.00  0.00     0.000 A 
HETATM   23  C19 UNL     1      -0.293  45.579  78.136  1.00  0.00     0.001 A 
HETATM   24  C21 UNL     1       2.991  41.341  76.999  1.00  0.00     0.100 A 
ATOM     25  H4  UNL     1       2.164  43.208  76.783  1.00  0.00     0.165 HD
ENDBRANCH   9  13
BRANCH   1  26
HETATM   26  N1  UNL     1       7.264  36.226  75.155  1.00  0.00    -0.371 N 
ATOM     27  H1  UNL     1       6.761  36.334  74.274  1.00  0.00     0.161 HD
BRANCH  26  28
HETATM   28  C5  UNL     1       8.687  36.296  75.094  1.00  0.00     0.160 C 
BRANCH  28  29
HETATM   29  C4  UNL     1       9.113  37.331  74.101  1.00  0.00    -0.041 A 
HETATM   30  C3  UNL     1      10.386  37.395  73.615  1.00  0.00     0.009 A 
HETATM   31  C2  UNL     1      10.729  38.373  72.695  1.00  0.00     0.001 A 
HETATM   32  C1  UNL     1       9.815  39.303  72.243  1.00  0.00     0.000 A 
HETATM   33  C26 UNL     1       8.539  39.240  72.729  1.00  0.00     0.001 A 
HETATM   34  C25 UNL     1       8.205  38.264  73.643  1.00  0.00     0.009 A 
ENDBRANCH  28  29
ENDBRANCH  26  28
ENDBRANCH   1  26
TORSDOF 4
ENDMDL
MODEL 3
REMARK VINA RESULT: -10.078631050      1.068      1.479
REMARK  4 active torsions:
REMARK  status: ('A' for Active; 'I' for Inactive)
REMARK    1  A    between atoms: C4_4  and  C5_5 
REMARK    2  A    between atoms: C5_5  and  N1_6 
REMARK    3  A    between atoms: N1_6  and  C6_8 
REMARK    4  A    between atoms: C10_16  and  C11_17 
ROOT
HETATM    1  C6  UNL     1       6.984  34.740  73.921  1.00  0.00     0.114 A 
HETATM    2  N2  UNL     1       5.755  34.357  73.565  1.00  0.00    -0.338 N 
ATOM      3  H2  UNL     1       4.958  34.911  73.877  1.00  0.00     0.168 HD
HETATM    4  C7  UNL     1       5.532  33.262  72.804  1.00  0.00     0.182 A 
HETATM    5  N3  UNL     1       6.582  32.537  72.395  1.00  0.00    -0.352 N 
ATOM      6  H3  UNL     1       6.410  31.711  71.821  1.00  0.00     0.166 HD
HETATM    7  C8  UNL     1       7.847  32.847  72.705  1.00  0.00     0.047 A 
HETATM    8  C9  UNL     1       8.943  32.123  72.299  1.00  0.00     0.042 A 
HETATM    9  C10 UNL     1      10.245  32.456  72.627  1.00  0.00    -0.022 A 
HETATM   10  C22 UNL     1      10.412  33.600  73.416  1.00  0.00     0.013 A 
HETATM   11  C23 UNL     1       9.330  34.345  73.836  1.00  0.00     0.018 A 
HETATM   12  C24 UNL     1       8.054  33.963  73.477  1.00  0.00     0.034 A 
ENDROOT
BRANCH   9  13
HETATM   13  C11 UNL     1      11.385  31.678  72.188  1.00  0.00    -0.010 A 
HETATM   14  C12 UNL     1      12.390  32.223  71.429  1.00  0.00     0.016 A 
HETATM   15  C13 UNL     1      13.476  31.483  71.011  1.00  0.00     0.031 A 
HETATM   16  C14 UNL     1      13.551  30.157  71.369  1.00  0.00     0.042 A 
HETATM   17  C15 UNL     1      14.632  29.278  70.996  1.00  0.00    -0.009 A 
HETATM   18  N4  UNL     1      12.554  29.605  72.124  1.00  0.00    -0.364 N 
HETATM   19  C16 UNL     1      15.683  29.725  70.239  1.00  0.00     0.013 A 
HETATM   20  C20 UNL     1      14.642  27.965  71.387  1.00  0.00     0.013 A 
HETATM   21  C17 UNL     1      16.732  28.881  69.875  1.00  0.00     0.001 A 
HETATM   22  C18 UNL     1      16.718  27.569  70.279  1.00  0.00     0.000 A 
HETATM   23  C19 UNL     1      15.667  27.105  71.041  1.00  0.00     0.001 A 
HETATM   24  C21 UNL     1      11.505  30.350  72.519  1.00  0.00     0.100 A 
ATOM     25  H4  UNL     1      12.606  28.621  72.390  1.00  0.00     0.165 HD
ENDBRANCH   9  13
BRANCH   1  26
HETATM   26  N1  UNL     1       7.223  35.757  74.630  1.00  0.00    -0.371 N 
ATOM     27  H1  UNL     1       7.724  35.599  75.504  1.00  0.00     0.161 HD
BRANCH  26  28
HETATM   28  C5  UNL     1       6.863  37.105  74.331  1.00  0.00     0.160 C 
BRANCH  28  29
HETATM   29  C4  UNL     1       7.925  37.752  73.498  1.00  0.00    -0.041 A 
HETATM   30  C3  UNL     1       7.636  38.459  72.368  1.00  0.00     0.009 A 
HETATM   31  C2  UNL     1       8.657  39.040  71.633  1.00  0.00     0.001 A 
HETATM   32  C1  UNL     1       9.980  38.929  72.007  1.00  0.00     0.000 A 
HETATM   33  C26 UNL     1      10.272  38.221  73.139  1.00  0.00     0.001 A 
HETATM   34  C25 UNL     1       9.251  37.647  73.866  1.00  0.00     0.009 A 
ENDBRANCH  28  29
ENDBRANCH  26  28
ENDBRANCH   1  26
TORSDOF 4
ENDMDL
MODEL 4
REMARK VINA RESULT: -9.638252592      1.119      1.401
REMARK  4 active torsions:
REMARK  status: ('A' for Active; 'I' for Inactive)
REMARK    1  A    between atoms: C4_4  and  C5_5 
REMARK    2  A    between atoms: C5_5  and  N1_6 
REMARK    3  A    between atoms: N1_6  and  C6_8 
REMARK    4  A    between atoms: C10_16  and  C11_17 
ROOT
HETATM    1  C6  UNL     1       8.101  33.680  73.913  1.00  0.00     0.114 A 
HETATM    2  N2  UNL     1       7.184  32.926  74.524  1.00  0.00    -0.338 N 
ATOM      3  H2  UNL     1       6.324  33.365  74.851  1.00  0.00     0.168 HD
HETATM    4  C7  UNL     1       7.358  31.600  74.725  1.00  0.00     0.182 A 
HETATM    5  N3  UNL     1       8.489  31.026  74.294  1.00  0.00    -0.352 N 
ATOM      6  H3  UNL     1       8.616  30.025  74.448  1.00  0.00     0.166 HD
HETATM    7  C8  UNL     1       9.461  31.706  73.673  1.00  0.00     0.047 A 
HETATM    8  C9  UNL     1      10.631  31.144  73.221  1.00  0.00     0.042 A 
HETATM    9  C10 UNL     1      11.626  31.859  72.580  1.00  0.00    -0.022 A 
HETATM   10  C22 UNL     1      11.389  33.227  72.401  1.00  0.00     0.013 A 
HETATM   11  C23 UNL     1      10.224  33.816  72.845  1.00  0.00     0.018 A 
HETATM   12  C24 UNL     1       9.267  33.050  73.478  1.00  0.00     0.034 A 
ENDROOT
BRANCH   9  13
HETATM   13  C11 UNL     1      12.852  31.245  72.111  1.00  0.00    -0.010 A 
HETATM   14  C12 UNL     1      12.853  30.070  71.403  1.00  0.00     0.016 A 
HETATM   15  C13 UNL     1      14.020  29.485  70.956  1.00  0.00     0.031 A 
HETATM   16  C14 UNL     1      15.218  30.103  71.231  1.00  0.00     0.042 A 
HETATM   17  C15 UNL     1      16.503  29.595  70.820  1.00  0.00    -0.009 A 
HETATM   18  N4  UNL     1      15.227  31.274  71.936  1.00  0.00    -0.364 N 
HETATM   19  C16 UNL     1      16.612  28.429  70.109  1.00  0.00     0.013 A 
HETATM   20  C20 UNL     1      17.658  30.263  71.129  1.00  0.00     0.013 A 
HETATM   21  C17 UNL     1      17.853  27.931  69.708  1.00  0.00     0.001 A 
HETATM   22  C18 UNL     1      18.995  28.619  70.031  1.00  0.00     0.000 A 
HETATM   23  C19 UNL     1      18.901  29.794  70.746  1.00  0.00     0.001 A 
HETATM   24  C21 UNL     1      14.073  31.824  72.360  1.00  0.00     0.100 A 
ATOM     25  H4  UNL     1      16.113  31.735  72.142  1.00  0.00     0.165 HD
ENDBRANCH   9  13
BRANCH   1  26
HETATM   26  N1  UNL     1       7.968  34.920  73.712  1.00  0.00    -0.371 N 
ATOM     27  H1  UNL     1       7.542  35.198  72.828  1.00  0.00     0.161 HD
BRANCH  26  28
HETATM   28  C5  UNL     1       8.352  35.971  74.597  1.00  0.00     0.160 C 
BRANCH  28  29
HETATM   29  C4  UNL     1       8.900  37.127  73.822  1.00  0.00    -0.041 A 
HETATM   30  C3  UNL     1      10.238  37.298  73.615  1.00  0.00     0.009 A 
HETATM   31  C2  UNL     1      10.694  38.386  72.889  1.00  0.00     0.001 A 
HETATM   32  C1  UNL     1       9.831  39.322  72.356  1.00  0.00     0.000 A 
HETATM   33  C26 UNL     1       8.490  39.153  72.562  1.00  0.00     0.001 A 
HETATM   34  C25 UNL     1       8.044  38.067  73.286  1.00  0.00     0.009 A 
ENDBRANCH  28  29
ENDBRANCH  26  28
ENDBRANCH   1  26
TORSDOF 4
ENDMDL
MODEL 5
REMARK VINA RESULT: -9.389151422      1.175      1.646
REMARK  4 active torsions:
REMARK  status: ('A' for Active; 'I' for Inactive)
REMARK    1  A    between atoms: C4_4  and  C5_5 
REMARK    2  A    between atoms: C5_5  and  N1_6 
REMARK    3  A    between atoms: N1_6  and  C6_8 
REMARK    4  A    between atoms: C10_16  and  C11_17 
ROOT
HETATM    1  C6  UNL     1       8.018  33.629  73.814  1.00  0.00     0.114 A 
HETATM    2  N2  UNL     1       7.106  32.841  74.388  1.00  0.00    -0.338 N 
ATOM      3  H2  UNL     1       6.220  33.249  74.686  1.00  0.00     0.168 HD
HETATM    4  C7  UNL     1       7.316  31.520  74.588  1.00  0.00     0.182 A 
HETATM    5  N3  UNL     1       8.481  30.987  74.195  1.00  0.00    -0.352 N 
ATOM      6  H3  UNL     1       8.636  29.990  74.348  1.00  0.00     0.166 HD
HETATM    7  C8  UNL     1       9.450  31.703  73.613  1.00  0.00     0.047 A 
HETATM    8  C9  UNL     1      10.655  31.183  73.200  1.00  0.00     0.042 A 
HETATM    9  C10 UNL     1      11.647  31.935  72.599  1.00  0.00    -0.022 A 
HETATM   10  C22 UNL     1      11.371  33.295  72.419  1.00  0.00     0.013 A 
HETATM   11  C23 UNL     1      10.172  33.842  72.824  1.00  0.00     0.018 A 
HETATM   12  C24 UNL     1       9.219  33.041  73.418  1.00  0.00     0.034 A 
ENDROOT
BRANCH   9  13
HETATM   13  C11 UNL     1      12.909  31.365  72.172  1.00  0.00    -0.010 A 
HETATM   14  C12 UNL     1      14.100  32.027  72.339  1.00  0.00     0.016 A 
HETATM   15  C13 UNL     1      15.302  31.484  71.933  1.00  0.00     0.031 A 
HETATM   16  C14 UNL     1      15.302  30.242  71.344  1.00  0.00     0.042 A 
HETATM   17  C15 UNL     1      16.489  29.568  70.877  1.00  0.00    -0.009 A 
HETATM   18  N4  UNL     1      14.121  29.575  71.173  1.00  0.00    -0.364 N 
HETATM   19  C16 UNL     1      17.727  30.143  70.997  1.00  0.00     0.013 A 
HETATM   20  C20 UNL     1      16.416  28.329  70.298  1.00  0.00     0.013 A 
HETATM   21  C17 UNL     1      18.879  29.497  70.548  1.00  0.00     0.001 A 
HETATM   22  C18 UNL     1      18.779  28.256  69.971  1.00  0.00     0.000 A 
HETATM   23  C19 UNL     1      17.540  27.665  69.843  1.00  0.00     0.001 A 
HETATM   24  C21 UNL     1      12.962  30.127  71.578  1.00  0.00     0.100 A 
ATOM     25  H4  UNL     1      14.117  28.654  70.735  1.00  0.00     0.165 HD
ENDBRANCH   9  13
BRANCH   1  26
HETATM   26  N1  UNL     1       7.850  34.865  73.615  1.00  0.00    -0.371 N 
ATOM     27  H1  UNL     1       7.464  35.136  72.711  1.00  0.00     0.161 HD
BRANCH  26  28
HETATM   28  C5  UNL     1       8.147  35.921  74.528  1.00  0.00     0.160 C 
BRANCH  28  29
HETATM   29  C4  UNL     1       8.672  37.111  73.790  1.00  0.00    -0.041 A 
HETATM   30  C3  UNL     1       7.852  38.078  73.287  1.00  0.00     0.009 A 
HETATM   31  C2  UNL     1       8.390  39.162  72.611  1.00  0.00     0.001 A 
HETATM   32  C1  UNL     1       9.750  39.303  72.423  1.00  0.00     0.000 A 
HETATM   33  C26 UNL     1      10.574  38.335  72.926  1.00  0.00     0.001 A 
HETATM   34  C25 UNL     1      10.031  37.261  73.597  1.00  0.00     0.009 A 
ENDBRANCH  28  29
ENDBRANCH  26  28
ENDBRANCH   1  26
TORSDOF 4
ENDMDL
