MODEL 1
REMARK VINA RESULT: -9.910967690      0.000      0.000
REMARK  5 active torsions:
REMARK  status: ('A' for Active; 'I' for Inactive)
REMARK    1  A    between atoms: C4_4  and  C5_5 
REMARK    2  A    between atoms: C5_5  and  N1_6 
REMARK    3  A    between atoms: N1_6  and  C6_7 
REMARK    4  A    between atoms: C7_10  and  C8_11 
REMARK    5  A    between atoms: C11_14  and  C12_15 
ROOT
HETATM    1  C6  UNL     1       9.897  34.150  73.503  1.00  0.00     0.192 A 
HETATM    2  N2  UNL     1      11.026  33.512  73.074  1.00  0.00    -0.316 N 
ATOM      3  H2  UNL     1      11.920  33.916  73.351  1.00  0.00     0.170 HD
HETATM    4  C7  UNL     1      11.065  32.415  72.333  1.00  0.00     0.118 A 
HETATM    5  N4  UNL     1       9.866  31.889  71.973  1.00  0.00    -0.341 N 
ATOM      6  H4  UNL     1       9.845  31.045  71.402  1.00  0.00     0.167 HD
HETATM    7  C19 UNL     1       8.712  32.453  72.351  1.00  0.00     0.048 A 
HETATM    8  C20 UNL     1       7.531  31.869  71.952  1.00  0.00     0.030 A 
HETATM    9  C21 UNL     1       6.323  32.425  72.324  1.00  0.00     0.002 A 
HETATM   10  C22 UNL     1       6.274  33.576  73.103  1.00  0.00     0.001 A 
HETATM   11  C23 UNL     1       7.467  34.171  73.509  1.00  0.00     0.018 A 
HETATM   12  C24 UNL     1       8.669  33.586  73.118  1.00  0.00     0.049 A 
ENDROOT
BRANCH   4  13
HETATM   13  C8  UNL     1      12.303  31.766  71.897  1.00  0.00     0.008 A 
HETATM   14  C9  UNL     1      13.159  31.247  72.846  1.00  0.00     0.016 A 
HETATM   15  C10 UNL     1      14.355  30.616  72.499  1.00  0.00     0.013 A 
HETATM   16  C11 UNL     1      14.702  30.500  71.178  1.00  0.00    -0.025 A 
HETATM   17  C17 UNL     1      13.839  31.023  70.240  1.00  0.00     0.013 A 
HETATM   18  C18 UNL     1      12.641  31.655  70.591  1.00  0.00     0.016 A 
BRANCH  16  19
HETATM   19  C12 UNL     1      15.953  29.839  70.814  1.00  0.00    -0.011 A 
HETATM   20  C13 UNL     1      17.145  30.207  71.421  1.00  0.00     0.015 A 
HETATM   21  C14 UNL     1      18.328  29.579  71.075  1.00  0.00     0.018 A 
HETATM   22  C15 UNL     1      18.369  28.579  70.125  1.00  0.00     0.087 A 
HETATM   23  N3  UNL     1      17.204  28.233  69.545  1.00  0.00    -0.374 N 
HETATM   24  C16 UNL     1      16.030  28.836  69.869  1.00  0.00     0.099 A 
ATOM     25  H3  UNL     1      17.202  27.496  68.840  1.00  0.00     0.164 HD
ENDBRANCH  16  19
ENDBRANCH   4  13
BRANCH   1  26
HETATM   26  N1  UNL     1       9.906  35.153  74.181  1.00  0.00    -0.398 NA
BRANCH  26  27
HETATM   27  C5  UNL     1       9.905  36.339  74.778  1.00  0.00     0.196 C 
BRANCH  27  28
HETATM   28  C4  UNL     1       9.508  37.518  73.901  1.00  0.00    -0.007 A 
HETATM   29  C3  UNL     1       8.231  38.026  73.903  1.00  0.00     0.014 A 
HETATM   30  C2  UNL     1       7.919  39.097  73.090  1.00  0.00     0.001 A 
HETATM   31  C1  UNL     1       8.859  39.681  72.264  1.00  0.00     0.000 A 
HETATM   32  C26 UNL     1      10.127  39.170  72.267  1.00  0.00     0.001 A 
HETATM   33  C25 UNL     1      10.438  38.101  73.080  1.00  0.00     0.014 A 
ENDBRANCH  27  28
ENDBRANCH  26  27
ENDBRANCH   1  26
TORSDOF 5
ENDMDL
MODEL 2
REMARK VINA RESULT: -9.811704344      0.971      1.081
REMARK  5 active torsions:
REMARK  status: ('A' for Active; 'I' for Inactive)
REMARK    1  A    between atoms: C4_4  and  C5_5 
REMARK    2  A    between atoms: C5_5  and  N1_6 
REMARK    3  A    between atoms: N1_6  and  C6_7 
REMARK    4  A    between atoms: C7_10  and  C8_11 
REMARK    5  A    between atoms: C11_14  and  C12_15 
ROOT
HETATM    1  C6  UNL     1       9.466  34.087  73.645  1.00  0.00     0.192 A 
HETATM    2  N2  UNL     1      10.493  33.292  73.222  1.00  0.00    -0.316 N 
ATOM      3  H2  UNL     1      11.438  33.585  73.471  1.00  0.00     0.170 HD
HETATM    4  C7  UNL     1      10.374  32.176  72.521  1.00  0.00     0.118 A 
HETATM    5  N4  UNL     1       9.110  31.800  72.199  1.00  0.00    -0.341 N 
ATOM      6  H4  UNL     1       8.967  30.946  71.659  1.00  0.00     0.167 HD
HETATM    7  C19 UNL     1       8.047  32.522  72.574  1.00  0.00     0.048 A 
HETATM    8  C20 UNL     1       6.792  32.085  72.215  1.00  0.00     0.030 A 
HETATM    9  C21 UNL     1       5.674  32.807  72.585  1.00  0.00     0.002 A 
HETATM   10  C22 UNL     1       5.792  33.981  73.322  1.00  0.00     0.001 A 
HETATM   11  C23 UNL     1       7.061  34.427  73.688  1.00  0.00     0.018 A 
HETATM   12  C24 UNL     1       8.168  33.677  73.300  1.00  0.00     0.049 A 
ENDROOT
BRANCH   4  13
HETATM   13  C8  UNL     1      11.508  31.356  72.089  1.00  0.00     0.008 A 
HETATM   14  C9  UNL     1      12.415  30.915  73.032  1.00  0.00     0.016 A 
HETATM   15  C10 UNL     1      13.516  30.131  72.688  1.00  0.00     0.013 A 
HETATM   16  C11 UNL     1      13.717  29.778  71.379  1.00  0.00    -0.025 A 
HETATM   17  C17 UNL     1      12.805  30.224  70.448  1.00  0.00     0.013 A 
HETATM   18  C18 UNL     1      11.700  31.011  70.795  1.00  0.00     0.016 A 
BRANCH  16  19
HETATM   19  C12 UNL     1      14.870  28.956  71.019  1.00  0.00    -0.011 A 
HETATM   20  C13 UNL     1      15.866  29.464  70.197  1.00  0.00     0.015 A 
HETATM   21  C14 UNL     1      16.956  28.684  69.857  1.00  0.00     0.018 A 
HETATM   22  C15 UNL     1      17.095  27.389  70.314  1.00  0.00     0.087 A 
HETATM   23  N3  UNL     1      16.120  26.911  71.111  1.00  0.00    -0.374 N 
HETATM   24  C16 UNL     1      15.040  27.658  71.457  1.00  0.00     0.099 A 
ATOM     25  H3  UNL     1      16.195  25.958  71.465  1.00  0.00     0.164 HD
ENDBRANCH  16  19
ENDBRANCH   4  13
BRANCH   1  26
HETATM   26  N1  UNL     1       9.619  35.103  74.286  1.00  0.00    -0.398 NA
BRANCH  26  27
HETATM   27  C5  UNL     1       9.775  36.300  74.840  1.00  0.00     0.196 C 
BRANCH  27  28
HETATM   28  C4  UNL     1       9.453  37.488  73.945  1.00  0.00    -0.007 A 
HETATM   29  C3  UNL     1       8.203  38.059  73.919  1.00  0.00     0.014 A 
HETATM   30  C2  UNL     1       7.960  39.135  73.090  1.00  0.00     0.001 A 
HETATM   31  C1  UNL     1       8.943  39.663  72.276  1.00  0.00     0.000 A 
HETATM   32  C26 UNL     1      10.184  39.089  72.308  1.00  0.00     0.001 A 
HETATM   33  C25 UNL     1      10.426  38.015  73.136  1.00  0.00     0.014 A 
ENDBRANCH  27  28
ENDBRANCH  26  27
ENDBRANCH   1  26
TORSDOF 5
ENDMDL
MODEL 3
REMARK VINA RESULT: -9.731963648      0.715      1.032
REMARK  5 active torsions:
REMARK  status: ('A' for Active; 'I' for Inactive)
REMARK    1  A    between atoms: C4_4  and  C5_5 
REMARK    2  A    between atoms: C5_5  and  N1_6 
REMARK    3  A    between atoms: N1_6  and  C6_7 
REMARK    4  A    between atoms: C7_10  and  C8_11 
REMARK    5  A    between atoms: C11_14  and  C12_15 
ROOT
HETATM    1  C6  UNL     1       9.860  34.137  73.558  1.00  0.00     0.192 A 
HETATM    2  N2  UNL     1      10.978  33.452  73.177  1.00  0.00    -0.316 N 
ATOM      3  H2  UNL     1      11.877  33.827  73.481  1.00  0.00     0.170 HD
HETATM    4  C7  UNL     1      11.002  32.347  72.448  1.00  0.00     0.118 A 
HETATM    5  N4  UNL     1       9.799  31.862  72.051  1.00  0.00    -0.341 N 
ATOM      6  H4  UNL     1       9.765  31.012  71.488  1.00  0.00     0.167 HD
HETATM    7  C19 UNL     1       8.654  32.472  72.381  1.00  0.00     0.048 A 
HETATM    8  C20 UNL     1       7.466  31.928  71.947  1.00  0.00     0.030 A 
HETATM    9  C21 UNL     1       6.267  32.533  72.269  1.00  0.00     0.002 A 
HETATM   10  C22 UNL     1       6.235  33.694  73.034  1.00  0.00     0.001 A 
HETATM   11  C23 UNL     1       7.434  34.248  73.476  1.00  0.00     0.018 A 
HETATM   12  C24 UNL     1       8.626  33.615  73.135  1.00  0.00     0.049 A 
ENDROOT
BRANCH   4  13
HETATM   13  C8  UNL     1      12.230  31.647  72.064  1.00  0.00     0.008 A 
HETATM   14  C9  UNL     1      13.425  32.337  72.069  1.00  0.00     0.016 A 
HETATM   15  C10 UNL     1      14.631  31.731  71.715  1.00  0.00     0.013 A 
HETATM   16  C11 UNL     1      14.645  30.410  71.348  1.00  0.00    -0.025 A 
HETATM   17  C17 UNL     1      13.446  29.733  71.347  1.00  0.00     0.013 A 
HETATM   18  C18 UNL     1      12.237  30.343  71.703  1.00  0.00     0.016 A 
BRANCH  16  19
HETATM   19  C12 UNL     1      15.908  29.774  70.978  1.00  0.00    -0.011 A 
HETATM   20  C13 UNL     1      15.913  28.618  70.210  1.00  0.00     0.015 A 
HETATM   21  C14 UNL     1      17.108  28.018  69.860  1.00  0.00     0.018 A 
HETATM   22  C15 UNL     1      18.325  28.536  70.255  1.00  0.00     0.087 A 
HETATM   23  N3  UNL     1      18.303  29.658  71.000  1.00  0.00    -0.374 N 
HETATM   24  C16 UNL     1      17.141  30.265  71.356  1.00  0.00     0.099 A 
ATOM     25  H3  UNL     1      19.186  30.065  71.306  1.00  0.00     0.164 HD
ENDBRANCH  16  19
ENDBRANCH   4  13
BRANCH   1  26
HETATM   26  N1  UNL     1       9.882  35.147  74.226  1.00  0.00    -0.398 NA
BRANCH  26  27
HETATM   27  C5  UNL     1       9.887  36.339  74.811  1.00  0.00     0.196 C 
BRANCH  27  28
HETATM   28  C4  UNL     1       9.501  37.512  73.921  1.00  0.00    -0.007 A 
HETATM   29  C3  UNL     1       8.226  38.025  73.909  1.00  0.00     0.014 A 
HETATM   30  C2  UNL     1       7.924  39.089  73.085  1.00  0.00     0.001 A 
HETATM   31  C1  UNL     1       8.872  39.663  72.261  1.00  0.00     0.000 A 
HETATM   32  C26 UNL     1      10.138  39.147  72.278  1.00  0.00     0.001 A 
HETATM   33  C25 UNL     1      10.440  38.084  73.102  1.00  0.00     0.014 A 
ENDBRANCH  27  28
ENDBRANCH  26  27
ENDBRANCH   1  26
TORSDOF 5
ENDMDL
MODEL 4
REMARK VINA RESULT: -9.548896759      7.095     14.003
REMARK  5 active torsions:
REMARK  status: ('A' for Active; 'I' for Inactive)
REMARK    1  A    between atoms: C4_4  and  C5_5 
REMARK    2  A    between atoms: C5_5  and  N1_6 
REMARK    3  A    between atoms: N1_6  and  C6_7 
REMARK    4  A    between atoms: C7_10  and  C8_11 
REMARK    5  A    between atoms: C11_14  and  C12_15 
ROOT
HETATM    1  C6  UNL     1       5.667  37.879  75.611  1.00  0.00     0.192 A 
HETATM    2  N2  UNL     1       4.827  38.893  75.975  1.00  0.00    -0.316 N 
ATOM      3  H2  UNL     1       4.622  39.601  75.269  1.00  0.00     0.170 HD
HETATM    4  C7  UNL     1       4.253  39.040  77.159  1.00  0.00     0.118 A 
HETATM    5  N4  UNL     1       4.535  38.089  78.086  1.00  0.00    -0.341 N 
ATOM      6  H4  UNL     1       4.116  38.159  79.014  1.00  0.00     0.167 HD
HETATM    7  C19 UNL     1       5.349  37.063  77.812  1.00  0.00     0.048 A 
HETATM    8  C20 UNL     1       5.594  36.132  78.797  1.00  0.00     0.030 A 
HETATM    9  C21 UNL     1       6.429  35.062  78.547  1.00  0.00     0.002 A 
HETATM   10  C22 UNL     1       7.036  34.901  77.306  1.00  0.00     0.001 A 
HETATM   11  C23 UNL     1       6.791  35.840  76.306  1.00  0.00     0.018 A 
HETATM   12  C24 UNL     1       5.943  36.908  76.588  1.00  0.00     0.049 A 
ENDROOT
BRANCH   4  13
HETATM   13  C8  UNL     1       3.357  40.146  77.502  1.00  0.00     0.008 A 
HETATM   14  C9  UNL     1       2.357  39.938  78.430  1.00  0.00     0.016 A 
HETATM   15  C10 UNL     1       1.470  40.949  78.802  1.00  0.00     0.013 A 
HETATM   16  C11 UNL     1       1.584  42.193  78.238  1.00  0.00    -0.025 A 
HETATM   17  C17 UNL     1       2.586  42.388  77.314  1.00  0.00     0.013 A 
HETATM   18  C18 UNL     1       3.475  41.373  76.941  1.00  0.00     0.016 A 
BRANCH  16  19
HETATM   19  C12 UNL     1       0.657  43.253  78.628  1.00  0.00    -0.011 A 
HETATM   20  C13 UNL     1      -0.300  43.025  79.607  1.00  0.00     0.015 A 
HETATM   21  C14 UNL     1      -1.176  44.029  79.974  1.00  0.00     0.018 A 
HETATM   22  C15 UNL     1      -1.136  45.279  79.391  1.00  0.00     0.087 A 
HETATM   23  N3  UNL     1      -0.202  45.485  78.442  1.00  0.00    -0.374 N 
HETATM   24  C16 UNL     1       0.669  44.513  78.065  1.00  0.00     0.099 A 
ATOM     25  H3  UNL     1      -0.146  46.399  77.994  1.00  0.00     0.164 HD
ENDBRANCH  16  19
ENDBRANCH   4  13
BRANCH   1  26
HETATM   26  N1  UNL     1       6.173  37.783  74.515  1.00  0.00    -0.398 NA
BRANCH  26  27
HETATM   27  C5  UNL     1       6.637  37.816  73.272  1.00  0.00     0.196 C 
BRANCH  27  28
HETATM   28  C4  UNL     1       8.139  38.016  73.134  1.00  0.00    -0.007 A 
HETATM   29  C3  UNL     1       9.042  37.170  73.734  1.00  0.00     0.014 A 
HETATM   30  C2  UNL     1      10.395  37.393  73.580  1.00  0.00     0.001 A 
HETATM   31  C1  UNL     1      10.878  38.450  72.835  1.00  0.00     0.000 A 
HETATM   32  C26 UNL     1       9.974  39.288  72.243  1.00  0.00     0.001 A 
HETATM   33  C25 UNL     1       8.623  39.065  72.396  1.00  0.00     0.014 A 
ENDBRANCH  27  28
ENDBRANCH  26  27
ENDBRANCH   1  26
TORSDOF 5
ENDMDL
MODEL 5
REMARK VINA RESULT: -9.159704171      6.711     12.755
REMARK  5 active torsions:
REMARK  status: ('A' for Active; 'I' for Inactive)
REMARK    1  A    between atoms: C4_4  and  C5_5 
REMARK    2  A    between atoms: C5_5  and  N1_6 
REMARK    3  A    between atoms: N1_6  and  C6_7 
REMARK    4  A    between atoms: C7_10  and  C8_11 
REMARK    5  A    between atoms: C11_14  and  C12_15 
ROOT
HETATM    1  C6  UNL     1       6.989  36.328  76.366  1.00  0.00     0.192 A 
HETATM    2  N2  UNL     1       6.226  37.439  76.593  1.00  0.00    -0.316 N 
ATOM      3  H2  UNL     1       6.638  38.341  76.354  1.00  0.00     0.170 HD
HETATM    4  C7  UNL     1       5.001  37.450  77.094  1.00  0.00     0.118 A 
HETATM    5  N4  UNL     1       4.467  36.242  77.406  1.00  0.00    -0.341 N 
ATOM      6  H4  UNL     1       3.525  36.200  77.795  1.00  0.00     0.167 HD
HETATM    7  C19 UNL     1       5.147  35.105  77.216  1.00  0.00     0.048 A 
HETATM    8  C20 UNL     1       4.548  33.912  77.553  1.00  0.00     0.030 A 
HETATM    9  C21 UNL     1       5.223  32.721  77.369  1.00  0.00     0.002 A 
HETATM   10  C22 UNL     1       6.510  32.702  76.844  1.00  0.00     0.001 A 
HETATM   11  C23 UNL     1       7.120  33.906  76.501  1.00  0.00     0.018 A 
HETATM   12  C24 UNL     1       6.415  35.090  76.697  1.00  0.00     0.049 A 
ENDROOT
BRANCH   4  13
HETATM   13  C8  UNL     1       4.221  38.670  77.320  1.00  0.00     0.008 A 
HETATM   14  C9  UNL     1       3.126  38.621  78.157  1.00  0.00     0.016 A 
HETATM   15  C10 UNL     1       2.341  39.745  78.416  1.00  0.00     0.013 A 
HETATM   16  C11 UNL     1       2.656  40.942  77.828  1.00  0.00    -0.025 A 
HETATM   17  C17 UNL     1       3.752  40.978  76.994  1.00  0.00     0.013 A 
HETATM   18  C18 UNL     1       4.538  39.849  76.736  1.00  0.00     0.016 A 
BRANCH  16  19
HETATM   19  C12 UNL     1       1.836  42.121  78.098  1.00  0.00    -0.011 A 
HETATM   20  C13 UNL     1       0.877  42.094  79.101  1.00  0.00     0.015 A 
HETATM   21  C14 UNL     1       0.102  43.210  79.356  1.00  0.00     0.018 A 
HETATM   22  C15 UNL     1       0.248  44.378  78.634  1.00  0.00     0.087 A 
HETATM   23  N3  UNL     1       1.183  44.388  77.664  1.00  0.00    -0.374 N 
HETATM   24  C16 UNL     1       1.956  43.303  77.396  1.00  0.00     0.099 A 
ATOM     25  H3  UNL     1       1.315  45.236  77.115  1.00  0.00     0.164 HD
ENDBRANCH  16  19
ENDBRANCH   4  13
BRANCH   1  26
HETATM   26  N1  UNL     1       8.109  36.362  75.906  1.00  0.00    -0.398 NA
BRANCH  26  27
HETATM   27  C5  UNL     1       9.262  36.420  75.249  1.00  0.00     0.196 C 
BRANCH  27  28
HETATM   28  C4  UNL     1       9.341  37.468  74.149  1.00  0.00    -0.007 A 
HETATM   29  C3  UNL     1      10.481  37.651  73.402  1.00  0.00     0.014 A 
HETATM   30  C2  UNL     1      10.504  38.615  72.415  1.00  0.00     0.001 A 
HETATM   31  C1  UNL     1       9.409  39.412  72.150  1.00  0.00     0.000 A 
HETATM   32  C26 UNL     1       8.279  39.225  72.897  1.00  0.00     0.001 A 
HETATM   33  C25 UNL     1       8.255  38.262  73.883  1.00  0.00     0.014 A 
ENDBRANCH  27  28
ENDBRANCH  26  27
ENDBRANCH   1  26
TORSDOF 5
ENDMDL
