MODEL 1
REMARK VINA RESULT: -9.312611814      0.000      0.000
REMARK  5 active torsions:
REMARK  status: ('A' for Active; 'I' for Inactive)
REMARK    1  A    between atoms: C4_6  and  C5_7 
REMARK    2  A    between atoms: C5_7  and  N2_8 
REMARK    3  A    between atoms: N2_8  and  C6_10 
REMARK    4  A    between atoms: C11_15  and  C12_16 
REMARK    5  A    between atoms: C15_19  and  C16_20 
ROOT
HETATM    1  C6  UNL     1       8.017  36.372  74.288  1.00  0.00     0.101 A 
HETATM    2  C7  UNL     1       7.866  37.521  73.544  1.00  0.00     0.049 A 
HETATM    3  C8  UNL     1       6.993  38.511  73.958  1.00  0.00     0.017 A 
HETATM    4  C9  UNL     1       6.291  38.299  75.128  1.00  0.00    -0.009 A 
HETATM    5  C10 UNL     1       5.417  39.273  75.558  1.00  0.00     0.026 A 
HETATM    6  C11 UNL     1       4.668  39.151  76.724  1.00  0.00    -0.025 A 
HETATM    7  C23 UNL     1       4.846  37.977  77.448  1.00  0.00     0.014 A 
HETATM    8  C24 UNL     1       5.717  36.993  77.030  1.00  0.00     0.031 A 
HETATM    9  C25 UNL     1       6.457  37.145  75.854  1.00  0.00     0.044 A 
HETATM   10  N4  UNL     1       7.307  36.208  75.429  1.00  0.00    -0.342 N 
ATOM     11  H4  UNL     1       7.424  35.354  75.973  1.00  0.00     0.167 HD
ENDROOT
BRANCH   6  12
HETATM   12  C12 UNL     1       3.764  40.201  77.132  1.00  0.00    -0.026 A 
HETATM   13  C13 UNL     1       2.659  39.887  77.877  1.00  0.00     0.013 A 
HETATM   14  C14 UNL     1       1.784  40.893  78.277  1.00  0.00     0.013 A 
HETATM   15  C15 UNL     1       1.976  42.217  77.956  1.00  0.00    -0.026 A 
HETATM   16  C21 UNL     1       3.113  42.518  77.194  1.00  0.00     0.013 A 
HETATM   17  C22 UNL     1       3.980  41.513  76.798  1.00  0.00     0.013 A 
BRANCH  15  18
HETATM   18  C16 UNL     1       1.058  43.251  78.382  1.00  0.00    -0.023 A 
HETATM   19  C17 UNL     1       0.260  43.116  79.489  1.00  0.00     0.029 A 
HETATM   20  C18 UNL     1      -0.621  44.135  79.877  1.00  0.00     0.088 A 
HETATM   21  N3  UNL     1      -0.675  45.278  79.131  1.00  0.00    -0.375 N 
HETATM   22  C19 UNL     1       0.095  45.433  78.045  1.00  0.00     0.088 A 
ATOM     23  H3  UNL     1      -1.313  46.026  79.404  1.00  0.00     0.164 HD
HETATM   24  C20 UNL     1       0.959  44.427  77.669  1.00  0.00     0.029 A 
ENDBRANCH  15  18
ENDBRANCH   6  12
BRANCH   1  25
HETATM   25  N2  UNL     1       8.835  35.462  73.895  1.00  0.00    -0.372 N 
ATOM     26  H2  UNL     1       9.658  35.774  73.380  1.00  0.00     0.161 HD
BRANCH  25  27
HETATM   27  C5  UNL     1       8.704  34.066  74.106  1.00  0.00     0.161 C 
BRANCH  27  28
HETATM   28  C4  UNL     1       9.529  33.236  73.168  1.00  0.00    -0.025 A 
HETATM   29  C3  UNL     1       9.058  32.091  72.566  1.00  0.00     0.096 A 
HETATM   30  N1  UNL     1       9.850  31.403  71.741  1.00  0.00    -0.375 N 
HETATM   31  C2  UNL     1      11.113  31.766  71.451  1.00  0.00     0.087 A 
ATOM     32  H1  UNL     1       9.479  30.558  71.306  1.00  0.00     0.164 HD
HETATM   33  C1  UNL     1      11.597  32.903  72.043  1.00  0.00     0.018 A 
HETATM   34  C26 UNL     1      10.810  33.637  72.898  1.00  0.00     0.011 A 
ENDBRANCH  27  28
ENDBRANCH  25  27
ENDBRANCH   1  25
TORSDOF 5
ENDMDL
MODEL 2
REMARK VINA RESULT: -9.259535956      1.529      2.008
REMARK  5 active torsions:
REMARK  status: ('A' for Active; 'I' for Inactive)
REMARK    1  A    between atoms: C4_6  and  C5_7 
REMARK    2  A    between atoms: C5_7  and  N2_8 
REMARK    3  A    between atoms: N2_8  and  C6_10 
REMARK    4  A    between atoms: C11_15  and  C12_16 
REMARK    5  A    between atoms: C15_19  and  C16_20 
ROOT
HETATM    1  C6  UNL     1       7.964  36.440  74.327  1.00  0.00     0.101 A 
HETATM    2  C7  UNL     1       7.709  37.516  73.506  1.00  0.00     0.049 A 
HETATM    3  C8  UNL     1       6.826  38.504  73.904  1.00  0.00     0.017 A 
HETATM    4  C9  UNL     1       6.222  38.366  75.138  1.00  0.00    -0.009 A 
HETATM    5  C10 UNL     1       5.340  39.339  75.553  1.00  0.00     0.026 A 
HETATM    6  C11 UNL     1       4.684  39.287  76.780  1.00  0.00    -0.025 A 
HETATM    7  C23 UNL     1       4.966  38.186  77.580  1.00  0.00     0.014 A 
HETATM    8  C24 UNL     1       5.846  37.204  77.178  1.00  0.00     0.031 A 
HETATM    9  C25 UNL     1       6.491  37.284  75.940  1.00  0.00     0.044 A 
HETATM   10  N4  UNL     1       7.347  36.347  75.529  1.00  0.00    -0.342 N 
ATOM     11  H4  UNL     1       7.541  35.546  76.130  1.00  0.00     0.167 HD
ENDROOT
BRANCH   6  12
HETATM   12  C12 UNL     1       3.767  40.333  77.168  1.00  0.00    -0.026 A 
HETATM   13  C13 UNL     1       2.654  40.015  77.899  1.00  0.00     0.013 A 
HETATM   14  C14 UNL     1       1.767  41.018  78.281  1.00  0.00     0.013 A 
HETATM   15  C15 UNL     1       1.954  42.341  77.956  1.00  0.00    -0.026 A 
HETATM   16  C21 UNL     1       3.101  42.646  77.209  1.00  0.00     0.013 A 
HETATM   17  C22 UNL     1       3.979  41.645  76.831  1.00  0.00     0.013 A 
BRANCH  15  18
HETATM   18  C16 UNL     1       1.023  43.371  78.363  1.00  0.00    -0.023 A 
HETATM   19  C17 UNL     1       0.218  43.241  79.465  1.00  0.00     0.029 A 
HETATM   20  C18 UNL     1      -0.676  44.256  79.835  1.00  0.00     0.088 A 
HETATM   21  N3  UNL     1      -0.735  45.390  79.076  1.00  0.00    -0.375 N 
HETATM   22  C19 UNL     1       0.043  45.540  77.994  1.00  0.00     0.088 A 
ATOM     23  H3  UNL     1      -1.381  46.135  79.336  1.00  0.00     0.164 HD
HETATM   24  C20 UNL     1       0.919  44.538  77.636  1.00  0.00     0.029 A 
ENDBRANCH  15  18
ENDBRANCH   6  12
BRANCH   1  25
HETATM   25  N2  UNL     1       8.790  35.532  73.948  1.00  0.00    -0.372 N 
ATOM     26  H2  UNL     1       9.548  35.827  73.333  1.00  0.00     0.161 HD
BRANCH  25  27
HETATM   27  C5  UNL     1       8.750  34.158  74.300  1.00  0.00     0.161 C 
BRANCH  27  28
HETATM   28  C4  UNL     1       7.511  33.454  73.833  1.00  0.00    -0.025 A 
HETATM   29  C3  UNL     1       6.567  32.943  74.696  1.00  0.00     0.096 A 
HETATM   30  N1  UNL     1       5.488  32.328  74.207  1.00  0.00    -0.375 N 
HETATM   31  C2  UNL     1       5.255  32.171  72.891  1.00  0.00     0.087 A 
ATOM     32  H1  UNL     1       4.803  31.957  74.866  1.00  0.00     0.164 HD
HETATM   33  C1  UNL     1       6.187  32.674  72.019  1.00  0.00     0.018 A 
HETATM   34  C26 UNL     1       7.310  33.313  72.486  1.00  0.00     0.011 A 
ENDBRANCH  27  28
ENDBRANCH  25  27
ENDBRANCH   1  25
TORSDOF 5
ENDMDL
MODEL 3
REMARK VINA RESULT: -9.164353664      2.023     12.290
REMARK  5 active torsions:
REMARK  status: ('A' for Active; 'I' for Inactive)
REMARK    1  A    between atoms: C4_6  and  C5_7 
REMARK    2  A    between atoms: C5_7  and  N2_8 
REMARK    3  A    between atoms: N2_8  and  C6_10 
REMARK    4  A    between atoms: C11_15  and  C12_16 
REMARK    5  A    between atoms: C15_19  and  C16_20 
ROOT
HETATM    1  C6  UNL     1       5.079  38.329  76.635  1.00  0.00     0.101 A 
HETATM    2  C7  UNL     1       5.622  38.903  75.506  1.00  0.00     0.049 A 
HETATM    3  C8  UNL     1       6.525  38.199  74.730  1.00  0.00     0.017 A 
HETATM    4  C9  UNL     1       6.852  36.919  75.130  1.00  0.00    -0.009 A 
HETATM    5  C10 UNL     1       7.749  36.200  74.370  1.00  0.00     0.026 A 
HETATM    6  C11 UNL     1       8.139  34.903  74.691  1.00  0.00    -0.025 A 
HETATM    7  C23 UNL     1       7.571  34.358  75.837  1.00  0.00     0.014 A 
HETATM    8  C24 UNL     1       6.673  35.065  76.608  1.00  0.00     0.031 A 
HETATM    9  C25 UNL     1       6.299  36.366  76.259  1.00  0.00     0.044 A 
HETATM   10  N4  UNL     1       5.431  37.070  76.988  1.00  0.00    -0.342 N 
ATOM     11  H4  UNL     1       5.025  36.653  77.825  1.00  0.00     0.167 HD
ENDROOT
BRANCH   6  12
HETATM   12  C12 UNL     1       9.083  34.192  73.862  1.00  0.00    -0.026 A 
HETATM   13  C13 UNL     1       8.738  32.973  73.342  1.00  0.00     0.013 A 
HETATM   14  C14 UNL     1       9.641  32.282  72.538  1.00  0.00     0.013 A 
HETATM   15  C15 UNL     1      10.890  32.771  72.231  1.00  0.00    -0.026 A 
HETATM   16  C21 UNL     1      11.223  34.020  72.772  1.00  0.00     0.013 A 
HETATM   17  C22 UNL     1      10.322  34.703  73.571  1.00  0.00     0.013 A 
BRANCH  15  18
HETATM   18  C16 UNL     1      11.815  32.040  71.392  1.00  0.00    -0.023 A 
HETATM   19  C17 UNL     1      11.403  31.299  70.315  1.00  0.00     0.029 A 
HETATM   20  C18 UNL     1      12.323  30.600  69.520  1.00  0.00     0.088 A 
HETATM   21  N3  UNL     1      13.651  30.669  69.836  1.00  0.00    -0.375 N 
HETATM   22  C19 UNL     1      14.077  31.387  70.884  1.00  0.00     0.088 A 
ATOM     23  H3  UNL     1      14.329  30.165  69.264  1.00  0.00     0.164 HD
HETATM   24  C20 UNL     1      13.167  32.072  71.661  1.00  0.00     0.029 A 
ENDBRANCH  15  18
ENDBRANCH   6  12
BRANCH   1  25
HETATM   25  N2  UNL     1       4.239  38.993  77.345  1.00  0.00    -0.372 N 
ATOM     26  H2  UNL     1       4.492  39.163  78.318  1.00  0.00     0.161 HD
BRANCH  25  27
HETATM   27  C5  UNL     1       2.993  39.511  76.908  1.00  0.00     0.161 C 
BRANCH  27  28
HETATM   28  C4  UNL     1       2.880  41.000  77.044  1.00  0.00    -0.025 A 
HETATM   29  C3  UNL     1       3.903  41.863  76.720  1.00  0.00     0.096 A 
HETATM   30  N1  UNL     1       3.731  43.179  76.868  1.00  0.00    -0.375 N 
HETATM   31  C2  UNL     1       2.592  43.731  77.323  1.00  0.00     0.087 A 
ATOM     32  H1  UNL     1       4.503  43.798  76.621  1.00  0.00     0.164 HD
HETATM   33  C1  UNL     1       1.564  42.885  77.651  1.00  0.00     0.018 A 
HETATM   34  C26 UNL     1       1.706  41.525  77.512  1.00  0.00     0.011 A 
ENDBRANCH  27  28
ENDBRANCH  25  27
ENDBRANCH   1  25
TORSDOF 5
ENDMDL
MODEL 4
REMARK VINA RESULT: -9.059855719      1.834      3.998
REMARK  5 active torsions:
REMARK  status: ('A' for Active; 'I' for Inactive)
REMARK    1  A    between atoms: C4_6  and  C5_7 
REMARK    2  A    between atoms: C5_7  and  N2_8 
REMARK    3  A    between atoms: N2_8  and  C6_10 
REMARK    4  A    between atoms: C11_15  and  C12_16 
REMARK    5  A    between atoms: C15_19  and  C16_20 
ROOT
HETATM    1  C6  UNL     1       8.678  32.715  72.714  1.00  0.00     0.101 A 
HETATM    2  C7  UNL     1       7.359  32.806  72.328  1.00  0.00     0.049 A 
HETATM    3  C8  UNL     1       6.563  33.833  72.802  1.00  0.00     0.017 A 
HETATM    4  C9  UNL     1       7.138  34.745  73.664  1.00  0.00    -0.009 A 
HETATM    5  C10 UNL     1       6.363  35.776  74.147  1.00  0.00     0.026 A 
HETATM    6  C11 UNL     1       6.853  36.744  75.019  1.00  0.00    -0.025 A 
HETATM    7  C23 UNL     1       8.189  36.618  75.386  1.00  0.00     0.014 A 
HETATM    8  C24 UNL     1       8.977  35.592  74.912  1.00  0.00     0.031 A 
HETATM    9  C25 UNL     1       8.456  34.635  74.036  1.00  0.00     0.044 A 
HETATM   10  N4  UNL     1       9.199  33.633  73.562  1.00  0.00    -0.342 N 
ATOM     11  H4  UNL     1      10.177  33.557  73.843  1.00  0.00     0.167 HD
ENDROOT
BRANCH   6  12
HETATM   12  C12 UNL     1       5.999  37.805  75.497  1.00  0.00    -0.026 A 
HETATM   13  C13 UNL     1       5.820  38.924  74.728  1.00  0.00     0.013 A 
HETATM   14  C14 UNL     1       4.995  39.950  75.180  1.00  0.00     0.013 A 
HETATM   15  C15 UNL     1       4.334  39.898  76.386  1.00  0.00    -0.026 A 
HETATM   16  C21 UNL     1       4.529  38.744  77.157  1.00  0.00     0.013 A 
HETATM   17  C22 UNL     1       5.351  37.726  76.703  1.00  0.00     0.013 A 
BRANCH  15  18
HETATM   18  C16 UNL     1       3.478  40.973  76.839  1.00  0.00    -0.023 A 
HETATM   19  C17 UNL     1       3.878  42.284  76.832  1.00  0.00     0.029 A 
HETATM   20  C18 UNL     1       3.027  43.305  77.278  1.00  0.00     0.088 A 
HETATM   21  N3  UNL     1       1.780  42.974  77.725  1.00  0.00    -0.375 N 
HETATM   22  C19 UNL     1       1.367  41.699  77.741  1.00  0.00     0.088 A 
ATOM     23  H3  UNL     1       1.152  43.709  78.051  1.00  0.00     0.164 HD
HETATM   24  C20 UNL     1       2.208  40.700  77.301  1.00  0.00     0.029 A 
ENDBRANCH  15  18
ENDBRANCH   6  12
BRANCH   1  25
HETATM   25  N2  UNL     1       9.409  31.758  72.263  1.00  0.00    -0.372 N 
ATOM     26  H2  UNL     1       9.032  31.221  71.482  1.00  0.00     0.161 HD
BRANCH  25  27
HETATM   27  C5  UNL     1      10.687  31.377  72.744  1.00  0.00     0.161 C 
BRANCH  27  28
HETATM   28  C4  UNL     1      11.743  31.340  71.680  1.00  0.00    -0.025 A 
HETATM   29  C3  UNL     1      13.046  31.730  71.901  1.00  0.00     0.096 A 
HETATM   30  N1  UNL     1      13.933  31.669  70.905  1.00  0.00    -0.375 N 
HETATM   31  C2  UNL     1      13.629  31.239  69.666  1.00  0.00     0.087 A 
ATOM     32  H1  UNL     1      14.891  31.963  71.092  1.00  0.00     0.164 HD
HETATM   33  C1  UNL     1      12.336  30.849  69.431  1.00  0.00     0.018 A 
HETATM   34  C26 UNL     1      11.396  30.898  70.432  1.00  0.00     0.011 A 
ENDBRANCH  27  28
ENDBRANCH  25  27
ENDBRANCH   1  25
TORSDOF 5
ENDMDL
MODEL 5
REMARK VINA RESULT: -9.050060672      1.624      2.824
REMARK  5 active torsions:
REMARK  status: ('A' for Active; 'I' for Inactive)
REMARK    1  A    between atoms: C4_6  and  C5_7 
REMARK    2  A    between atoms: C5_7  and  N2_8 
REMARK    3  A    between atoms: N2_8  and  C6_10 
REMARK    4  A    between atoms: C11_15  and  C12_16 
REMARK    5  A    between atoms: C15_19  and  C16_20 
ROOT
HETATM    1  C6  UNL     1      10.167  35.263  73.538  1.00  0.00     0.101 A 
HETATM    2  C7  UNL     1      10.478  36.605  73.540  1.00  0.00     0.049 A 
HETATM    3  C8  UNL     1       9.576  37.530  74.036  1.00  0.00     0.017 A 
HETATM    4  C9  UNL     1       8.372  37.057  74.518  1.00  0.00    -0.009 A 
HETATM    5  C10 UNL     1       7.461  37.962  75.017  1.00  0.00     0.026 A 
HETATM    6  C11 UNL     1       6.223  37.581  75.526  1.00  0.00    -0.025 A 
HETATM    7  C23 UNL     1       5.944  36.219  75.505  1.00  0.00     0.014 A 
HETATM    8  C24 UNL     1       6.846  35.302  75.010  1.00  0.00     0.031 A 
HETATM    9  C25 UNL     1       8.082  35.715  74.506  1.00  0.00     0.044 A 
HETATM   10  N4  UNL     1       8.973  34.846  74.021  1.00  0.00    -0.342 N 
ATOM     11  H4  UNL     1       8.750  33.851  74.015  1.00  0.00     0.167 HD
ENDROOT
BRANCH   6  12
HETATM   12  C12 UNL     1       5.302  38.569  76.037  1.00  0.00    -0.026 A 
HETATM   13  C13 UNL     1       4.593  38.303  77.178  1.00  0.00     0.013 A 
HETATM   14  C14 UNL     1       3.706  39.251  77.680  1.00  0.00     0.013 A 
HETATM   15  C15 UNL     1       3.499  40.469  77.076  1.00  0.00    -0.026 A 
HETATM   16  C21 UNL     1       4.234  40.723  75.910  1.00  0.00     0.013 A 
HETATM   17  C22 UNL     1       5.115  39.777  75.415  1.00  0.00     0.013 A 
BRANCH  15  18
HETATM   18  C16 UNL     1       2.574  41.444  77.612  1.00  0.00    -0.023 A 
HETATM   19  C17 UNL     1       2.636  42.774  77.286  1.00  0.00     0.029 A 
HETATM   20  C18 UNL     1       1.726  43.697  77.822  1.00  0.00     0.088 A 
HETATM   21  N3  UNL     1       0.765  43.248  78.682  1.00  0.00    -0.375 N 
HETATM   22  C19 UNL     1       0.684  41.953  79.015  1.00  0.00     0.088 A 
ATOM     23  H3  UNL     1       0.097  43.911  79.078  1.00  0.00     0.164 HD
HETATM   24  C20 UNL     1       1.582  41.051  78.485  1.00  0.00     0.029 A 
ENDBRANCH  15  18
ENDBRANCH   6  12
BRANCH   1  25
HETATM   25  N2  UNL     1      11.015  34.414  73.079  1.00  0.00    -0.372 N 
ATOM     26  H2  UNL     1      11.958  34.757  72.899  1.00  0.00     0.161 HD
BRANCH  25  27
HETATM   27  C5  UNL     1      10.767  33.046  72.798  1.00  0.00     0.161 C 
BRANCH  27  28
HETATM   28  C4  UNL     1      11.902  32.361  72.098  1.00  0.00    -0.025 A 
HETATM   29  C3  UNL     1      12.641  31.351  72.673  1.00  0.00     0.096 A 
HETATM   30  N1  UNL     1      13.638  30.787  71.989  1.00  0.00    -0.375 N 
HETATM   31  C2  UNL     1      13.978  31.150  70.739  1.00  0.00     0.087 A 
ATOM     32  H1  UNL     1      14.170  30.041  72.437  1.00  0.00     0.164 HD
HETATM   33  C1  UNL     1      13.253  32.155  70.152  1.00  0.00     0.018 A 
HETATM   34  C26 UNL     1      12.219  32.759  70.827  1.00  0.00     0.011 A 
ENDBRANCH  27  28
ENDBRANCH  25  27
ENDBRANCH   1  25
TORSDOF 5
ENDMDL
