MODEL 1
REMARK VINA RESULT: -10.393551898      0.000      0.000
REMARK  4 active torsions:
REMARK  status: ('A' for Active; 'I' for Inactive)
REMARK    1  A    between atoms: C4_4  and  C5_5 
REMARK    2  A    between atoms: C13_17  and  C14_18 
REMARK    3  A    between atoms: C14_18  and  C15_19 
REMARK    4  A    between atoms: C15_19  and  N3_20 
ROOT
HETATM    1  C5  UNL     1       7.390  36.282  73.790  1.00  0.00     0.055 A 
HETATM    2  N1  UNL     1       7.333  35.064  73.197  1.00  0.00    -0.354 N 
ATOM      3  H1  UNL     1       7.920  34.855  72.389  1.00  0.00     0.166 HD
HETATM    4  C6  UNL     1       6.500  34.144  73.685  1.00  0.00     0.045 A 
HETATM    5  C7  UNL     1       6.452  32.908  73.073  1.00  0.00     0.030 A 
HETATM    6  C8  UNL     1       5.603  31.934  73.549  1.00  0.00     0.002 A 
HETATM    7  C9  UNL     1       4.797  32.175  74.636  1.00  0.00     0.001 A 
HETATM    8  C10 UNL     1       4.859  33.416  75.233  1.00  0.00     0.016 A 
HETATM    9  C11 UNL     1       5.698  34.409  74.779  1.00  0.00     0.018 A 
HETATM   10  C12 UNL     1       5.726  35.635  75.409  1.00  0.00     0.057 A 
HETATM   11  N2  UNL     1       5.091  36.186  76.452  1.00  0.00    -0.358 N 
ATOM     12  H2  UNL     1       4.391  35.712  77.022  1.00  0.00     0.166 HD
HETATM   13  C13 UNL     1       5.504  37.450  76.640  1.00  0.00     0.012 A 
HETATM   14  C23 UNL     1       6.450  37.703  75.662  1.00  0.00     0.041 A 
HETATM   15  C24 UNL     1       6.603  36.579  74.882  1.00  0.00     0.021 A 
ENDROOT
BRANCH  13  16
HETATM   16  C14 UNL     1       5.027  38.369  77.694  1.00  0.00     0.077 C 
BRANCH  16  17
HETATM   17  C15 UNL     1       3.592  38.805  77.388  1.00  0.00     0.136 C 
BRANCH  17  18
HETATM   18  N3  UNL     1       3.571  40.228  77.109  1.00  0.00    -0.341 N 
HETATM   19  C16 UNL     1       4.412  40.863  76.278  1.00  0.00     0.183 A 
HETATM   20  N4  UNL     1       4.106  42.164  76.262  1.00  0.00    -0.350 N 
HETATM   21  C17 UNL     1       3.071  42.377  77.079  1.00  0.00     0.060 A 
ATOM     22  H4  UNL     1       4.585  42.879  75.716  1.00  0.00     0.166 HD
HETATM   23  C18 UNL     1       2.342  43.499  77.452  1.00  0.00     0.032 A 
HETATM   24  C22 UNL     1       2.737  41.153  77.611  1.00  0.00     0.062 A 
HETATM   25  C19 UNL     1       1.310  43.401  78.331  1.00  0.00     0.002 A 
HETATM   26  C20 UNL     1       0.972  42.177  78.866  1.00  0.00     0.002 A 
HETATM   27  C21 UNL     1       1.688  41.060  78.503  1.00  0.00     0.032 A 
ENDBRANCH  17  18
ENDBRANCH  16  17
ENDBRANCH  13  16
BRANCH   1  28
HETATM   28  C4  UNL     1       8.277  37.328  73.296  1.00  0.00    -0.009 A 
HETATM   29  C3  UNL     1       7.849  38.410  72.561  1.00  0.00     0.014 A 
HETATM   30  C2  UNL     1       8.726  39.369  72.107  1.00  0.00     0.001 A 
HETATM   31  C1  UNL     1      10.076  39.255  72.392  1.00  0.00     0.000 A 
HETATM   32  C26 UNL     1      10.545  38.189  73.126  1.00  0.00     0.001 A 
HETATM   33  C25 UNL     1       9.648  37.243  73.568  1.00  0.00     0.014 A 
ENDBRANCH   1  28
TORSDOF 4
ENDMDL
MODEL 2
REMARK VINA RESULT: -10.059397480      2.523      4.624
REMARK  4 active torsions:
REMARK  status: ('A' for Active; 'I' for Inactive)
REMARK    1  A    between atoms: C4_4  and  C5_5 
REMARK    2  A    between atoms: C13_17  and  C14_18 
REMARK    3  A    between atoms: C14_18  and  C15_19 
REMARK    4  A    between atoms: C15_19  and  N3_20 
ROOT
HETATM    1  C5  UNL     1       8.125  36.987  76.408  1.00  0.00     0.055 A 
HETATM    2  N1  UNL     1       9.237  36.902  75.637  1.00  0.00    -0.354 N 
ATOM      3  H1  UNL     1      10.030  36.334  75.935  1.00  0.00     0.166 HD
HETATM    4  C6  UNL     1       9.278  37.572  74.485  1.00  0.00     0.045 A 
HETATM    5  C7  UNL     1      10.416  37.478  73.708  1.00  0.00     0.030 A 
HETATM    6  C8  UNL     1      10.494  38.157  72.513  1.00  0.00     0.002 A 
HETATM    7  C9  UNL     1       9.446  38.933  72.075  1.00  0.00     0.001 A 
HETATM    8  C10 UNL     1       8.320  39.014  72.865  1.00  0.00     0.016 A 
HETATM    9  C11 UNL     1       8.213  38.347  74.065  1.00  0.00     0.018 A 
HETATM   10  C12 UNL     1       7.065  38.459  74.822  1.00  0.00     0.057 A 
HETATM   11  N2  UNL     1       5.902  39.111  74.698  1.00  0.00    -0.358 N 
ATOM     12  H2  UNL     1       5.651  39.708  73.910  1.00  0.00     0.166 HD
HETATM   13  C13 UNL     1       5.113  38.870  75.757  1.00  0.00     0.012 A 
HETATM   14  C23 UNL     1       5.821  38.020  76.589  1.00  0.00     0.041 A 
HETATM   15  C24 UNL     1       7.045  37.751  76.019  1.00  0.00     0.021 A 
ENDROOT
BRANCH  13  16
HETATM   16  C14 UNL     1       3.757  39.417  75.969  1.00  0.00     0.077 C 
BRANCH  16  17
HETATM   17  C15 UNL     1       3.631  39.945  77.400  1.00  0.00     0.136 C 
BRANCH  17  18
HETATM   18  N3  UNL     1       3.244  41.342  77.365  1.00  0.00    -0.341 N 
HETATM   19  C16 UNL     1       3.888  42.303  76.685  1.00  0.00     0.183 A 
HETATM   20  N4  UNL     1       3.257  43.467  76.877  1.00  0.00    -0.350 N 
HETATM   21  C17 UNL     1       2.208  43.265  77.678  1.00  0.00     0.060 A 
ATOM     22  H4  UNL     1       3.532  44.363  76.477  1.00  0.00     0.166 HD
HETATM   23  C18 UNL     1       1.218  44.083  78.207  1.00  0.00     0.032 A 
HETATM   24  C22 UNL     1       2.203  41.924  77.983  1.00  0.00     0.062 A 
HETATM   25  C19 UNL     1       0.252  43.576  79.019  1.00  0.00     0.002 A 
HETATM   26  C20 UNL     1       0.244  42.234  79.326  1.00  0.00     0.002 A 
HETATM   27  C21 UNL     1       1.220  41.415  78.807  1.00  0.00     0.032 A 
ENDBRANCH  17  18
ENDBRANCH  16  17
ENDBRANCH  13  16
BRANCH   1  28
HETATM   28  C4  UNL     1       8.026  36.281  77.680  1.00  0.00    -0.009 A 
HETATM   29  C3  UNL     1       7.555  34.993  77.806  1.00  0.00     0.014 A 
HETATM   30  C2  UNL     1       7.471  34.371  79.030  1.00  0.00     0.001 A 
HETATM   31  C1  UNL     1       7.867  35.046  80.173  1.00  0.00     0.000 A 
HETATM   32  C26 UNL     1       8.344  36.334  80.090  1.00  0.00     0.001 A 
HETATM   33  C25 UNL     1       8.419  36.934  78.854  1.00  0.00     0.014 A 
ENDBRANCH   1  28
TORSDOF 4
ENDMDL
MODEL 3
REMARK VINA RESULT: -9.998017399      0.811      1.186
REMARK  4 active torsions:
REMARK  status: ('A' for Active; 'I' for Inactive)
REMARK    1  A    between atoms: C4_4  and  C5_5 
REMARK    2  A    between atoms: C13_17  and  C14_18 
REMARK    3  A    between atoms: C14_18  and  C15_19 
REMARK    4  A    between atoms: C15_19  and  N3_20 
ROOT
HETATM    1  C5  UNL     1       7.750  36.338  74.191  1.00  0.00     0.055 A 
HETATM    2  N1  UNL     1       7.875  35.015  73.924  1.00  0.00    -0.354 N 
ATOM      3  H1  UNL     1       8.547  34.689  73.229  1.00  0.00     0.166 HD
HETATM    4  C6  UNL     1       7.105  34.147  74.581  1.00  0.00     0.045 A 
HETATM    5  C7  UNL     1       7.242  32.802  74.300  1.00  0.00     0.030 A 
HETATM    6  C8  UNL     1       6.464  31.877  74.960  1.00  0.00     0.002 A 
HETATM    7  C9  UNL     1       5.546  32.274  75.903  1.00  0.00     0.001 A 
HETATM    8  C10 UNL     1       5.425  33.621  76.169  1.00  0.00     0.016 A 
HETATM    9  C11 UNL     1       6.189  34.569  75.525  1.00  0.00     0.018 A 
HETATM   10  C12 UNL     1       6.032  35.906  75.825  1.00  0.00     0.057 A 
HETATM   11  N2  UNL     1       5.255  36.612  76.656  1.00  0.00    -0.358 N 
ATOM     12  H2  UNL     1       4.563  36.209  77.288  1.00  0.00     0.166 HD
HETATM   13  C13 UNL     1       5.513  37.925  76.542  1.00  0.00     0.012 A 
HETATM   14  C23 UNL     1       6.507  38.047  75.586  1.00  0.00     0.041 A 
HETATM   15  C24 UNL     1       6.846  36.794  75.127  1.00  0.00     0.021 A 
ENDROOT
BRANCH  13  16
HETATM   16  C14 UNL     1       4.852  39.008  77.299  1.00  0.00     0.077 C 
BRANCH  16  17
HETATM   17  C15 UNL     1       3.616  39.491  76.537  1.00  0.00     0.136 C 
BRANCH  17  18
HETATM   18  N3  UNL     1       3.454  40.917  76.741  1.00  0.00    -0.341 N 
HETATM   19  C16 UNL     1       4.284  41.863  76.274  1.00  0.00     0.183 A 
HETATM   20  N4  UNL     1       3.830  43.063  76.651  1.00  0.00    -0.350 N 
HETATM   21  C17 UNL     1       2.710  42.901  77.360  1.00  0.00     0.060 A 
ATOM     22  H4  UNL     1       4.268  43.957  76.432  1.00  0.00     0.166 HD
HETATM   23  C18 UNL     1       1.825  43.767  77.990  1.00  0.00     0.032 A 
HETATM   24  C22 UNL     1       2.477  41.547  77.415  1.00  0.00     0.062 A 
HETATM   25  C19 UNL     1       0.739  43.293  78.657  1.00  0.00     0.002 A 
HETATM   26  C20 UNL     1       0.502  41.937  78.714  1.00  0.00     0.002 A 
HETATM   27  C21 UNL     1       1.373  41.071  78.093  1.00  0.00     0.032 A 
ENDBRANCH  17  18
ENDBRANCH  16  17
ENDBRANCH  13  16
BRANCH   1  28
HETATM   28  C4  UNL     1       8.560  37.333  73.499  1.00  0.00    -0.009 A 
HETATM   29  C3  UNL     1       9.927  37.429  73.625  1.00  0.00     0.014 A 
HETATM   30  C2  UNL     1      10.649  38.393  72.959  1.00  0.00     0.001 A 
HETATM   31  C1  UNL     1       9.995  39.295  72.136  1.00  0.00     0.000 A 
HETATM   32  C26 UNL     1       8.630  39.232  71.982  1.00  0.00     0.001 A 
HETATM   33  C25 UNL     1       7.930  38.259  72.659  1.00  0.00     0.014 A 
ENDBRANCH   1  28
TORSDOF 4
ENDMDL
MODEL 4
REMARK VINA RESULT: -9.839010200      0.711      1.231
REMARK  4 active torsions:
REMARK  status: ('A' for Active; 'I' for Inactive)
REMARK    1  A    between atoms: C4_4  and  C5_5 
REMARK    2  A    between atoms: C13_17  and  C14_18 
REMARK    3  A    between atoms: C14_18  and  C15_19 
REMARK    4  A    between atoms: C15_19  and  N3_20 
ROOT
HETATM    1  C5  UNL     1       7.448  36.164  73.781  1.00  0.00     0.055 A 
HETATM    2  N1  UNL     1       7.325  34.985  73.124  1.00  0.00    -0.354 N 
ATOM      3  H1  UNL     1       7.887  34.795  72.294  1.00  0.00     0.166 HD
HETATM    4  C6  UNL     1       6.459  34.079  73.577  1.00  0.00     0.045 A 
HETATM    5  C7  UNL     1       6.342  32.881  72.899  1.00  0.00     0.030 A 
HETATM    6  C8  UNL     1       5.458  31.923  73.339  1.00  0.00     0.002 A 
HETATM    7  C9  UNL     1       4.682  32.139  74.453  1.00  0.00     0.001 A 
HETATM    8  C10 UNL     1       4.812  33.341  75.115  1.00  0.00     0.016 A 
HETATM    9  C11 UNL     1       5.688  34.319  74.699  1.00  0.00     0.018 A 
HETATM   10  C12 UNL     1       5.784  35.506  75.395  1.00  0.00     0.057 A 
HETATM   11  N2  UNL     1       5.193  36.026  76.478  1.00  0.00    -0.358 N 
ATOM     12  H2  UNL     1       4.482  35.554  77.036  1.00  0.00     0.166 HD
HETATM   13  C13 UNL     1       5.667  37.257  76.727  1.00  0.00     0.012 A 
HETATM   14  C23 UNL     1       6.608  37.521  75.746  1.00  0.00     0.041 A 
HETATM   15  C24 UNL     1       6.695  36.436  74.903  1.00  0.00     0.021 A 
ENDROOT
BRANCH  13  16
HETATM   16  C14 UNL     1       5.252  38.138  77.839  1.00  0.00     0.077 C 
BRANCH  16  17
HETATM   17  C15 UNL     1       3.727  38.116  77.971  1.00  0.00     0.136 C 
BRANCH  17  18
HETATM   18  N3  UNL     1       3.198  39.426  77.641  1.00  0.00    -0.341 N 
HETATM   19  C16 UNL     1       3.485  40.114  76.526  1.00  0.00     0.183 A 
HETATM   20  N4  UNL     1       2.825  41.277  76.552  1.00  0.00    -0.350 N 
HETATM   21  C17 UNL     1       2.112  41.346  77.679  1.00  0.00     0.060 A 
ATOM     22  H4  UNL     1       2.860  41.995  75.829  1.00  0.00     0.166 HD
HETATM   23  C18 UNL     1       1.257  42.292  78.231  1.00  0.00     0.032 A 
HETATM   24  C22 UNL     1       2.350  40.177  78.363  1.00  0.00     0.062 A 
HETATM   25  C19 UNL     1       0.658  42.076  79.433  1.00  0.00     0.002 A 
HETATM   26  C20 UNL     1       0.895  40.906  80.121  1.00  0.00     0.002 A 
HETATM   27  C21 UNL     1       1.740  39.963  79.582  1.00  0.00     0.032 A 
ENDBRANCH  17  18
ENDBRANCH  16  17
ENDBRANCH  13  16
BRANCH   1  28
HETATM   28  C4  UNL     1       8.374  37.195  73.328  1.00  0.00    -0.009 A 
HETATM   29  C3  UNL     1       9.724  37.184  73.601  1.00  0.00     0.014 A 
HETATM   30  C2  UNL     1      10.559  38.186  73.160  1.00  0.00     0.001 A 
HETATM   31  C1  UNL     1      10.041  39.236  72.420  1.00  0.00     0.000 A 
HETATM   32  C26 UNL     1       8.698  39.282  72.124  1.00  0.00     0.001 A 
HETATM   33  C25 UNL     1       7.884  38.269  72.577  1.00  0.00     0.014 A 
ENDBRANCH   1  28
TORSDOF 4
ENDMDL
MODEL 5
REMARK VINA RESULT: -9.767118949      0.664      1.325
REMARK  4 active torsions:
REMARK  status: ('A' for Active; 'I' for Inactive)
REMARK    1  A    between atoms: C4_4  and  C5_5 
REMARK    2  A    between atoms: C13_17  and  C14_18 
REMARK    3  A    between atoms: C14_18  and  C15_19 
REMARK    4  A    between atoms: C15_19  and  N3_20 
ROOT
HETATM    1  C5  UNL     1       7.474  36.182  73.696  1.00  0.00     0.055 A 
HETATM    2  N1  UNL     1       7.433  34.974  73.082  1.00  0.00    -0.354 N 
ATOM      3  H1  UNL     1       8.023  34.784  72.272  1.00  0.00     0.166 HD
HETATM    4  C6  UNL     1       6.609  34.037  73.554  1.00  0.00     0.045 A 
HETATM    5  C7  UNL     1       6.576  32.810  72.921  1.00  0.00     0.030 A 
HETATM    6  C8  UNL     1       5.738  31.819  73.380  1.00  0.00     0.002 A 
HETATM    7  C9  UNL     1       4.926  32.033  74.468  1.00  0.00     0.001 A 
HETATM    8  C10 UNL     1       4.973  33.264  75.085  1.00  0.00     0.016 A 
HETATM    9  C11 UNL     1       5.801  34.275  74.649  1.00  0.00     0.018 A 
HETATM   10  C12 UNL     1       5.814  35.491  75.300  1.00  0.00     0.057 A 
HETATM   11  N2  UNL     1       5.170  36.017  76.349  1.00  0.00    -0.358 N 
ATOM     12  H2  UNL     1       4.474  35.526  76.910  1.00  0.00     0.166 HD
HETATM   13  C13 UNL     1       5.568  37.282  76.559  1.00  0.00     0.012 A 
HETATM   14  C23 UNL     1       6.514  37.562  75.588  1.00  0.00     0.041 A 
HETATM   15  C24 UNL     1       6.681  36.452  74.790  1.00  0.00     0.021 A 
ENDROOT
BRANCH  13  16
HETATM   16  C14 UNL     1       5.078  38.179  77.627  1.00  0.00     0.077 C 
BRANCH  16  17
HETATM   17  C15 UNL     1       4.716  39.541  77.030  1.00  0.00     0.136 C 
BRANCH  17  18
HETATM   18  N3  UNL     1       3.397  39.931  77.490  1.00  0.00    -0.341 N 
HETATM   19  C16 UNL     1       2.464  39.088  77.959  1.00  0.00     0.183 A 
HETATM   20  N4  UNL     1       1.374  39.789  78.289  1.00  0.00    -0.350 N 
HETATM   21  C17 UNL     1       1.595  41.081  78.037  1.00  0.00     0.060 A 
ATOM     22  H4  UNL     1       0.513  39.400  78.672  1.00  0.00     0.166 HD
HETATM   23  C18 UNL     1       0.844  42.241  78.178  1.00  0.00     0.032 A 
HETATM   24  C22 UNL     1       2.872  41.166  77.533  1.00  0.00     0.062 A 
HETATM   25  C19 UNL     1       1.353  43.451  77.824  1.00  0.00     0.002 A 
HETATM   26  C20 UNL     1       2.632  43.540  77.318  1.00  0.00     0.002 A 
HETATM   27  C21 UNL     1       3.384  42.397  77.175  1.00  0.00     0.032 A 
ENDBRANCH  17  18
ENDBRANCH  16  17
ENDBRANCH  13  16
BRANCH   1  28
HETATM   28  C4  UNL     1       8.350  37.246  73.221  1.00  0.00    -0.009 A 
HETATM   29  C3  UNL     1       7.915  38.323  72.482  1.00  0.00     0.014 A 
HETATM   30  C2  UNL     1       8.782  39.299  72.047  1.00  0.00     0.001 A 
HETATM   31  C1  UNL     1      10.130  39.208  72.355  1.00  0.00     0.000 A 
HETATM   32  C26 UNL     1      10.605  38.149  73.093  1.00  0.00     0.001 A 
HETATM   33  C25 UNL     1       9.717  37.185  73.516  1.00  0.00     0.014 A 
ENDBRANCH   1  28
TORSDOF 4
ENDMDL
