MODEL 1
REMARK VINA RESULT: -9.788783598      0.000      0.000
REMARK  5 active torsions:
REMARK  status: ('A' for Active; 'I' for Inactive)
REMARK    1  A    between atoms: C3_4  and  C4_5 
REMARK    2  A    between atoms: C6_7  and  C7_8 
REMARK    3  A    between atoms: C8_9  and  C9_10 
REMARK    4  A    between atoms: N3_26  and  C21_27 
REMARK    5  A    between atoms: C21_27  and  C22_28 
ROOT
HETATM    1  O1  UNL     1       1.308  37.230  78.602  1.00  0.00    -0.267 OA
HETATM    2  C1  UNL     1       1.784  38.321  78.220  1.00  0.00     0.259 A 
HETATM    3  C2  UNL     1       3.221  38.465  77.813  1.00  0.00     0.047 A 
HETATM    4  C3  UNL     1       4.065  37.474  77.794  1.00  0.00     0.049 C 
HETATM    5  C15 UNL     1       3.367  39.861  77.441  1.00  0.00     0.007 A 
HETATM    6  C16 UNL     1       4.444  40.603  76.960  1.00  0.00     0.015 A 
HETATM    7  C17 UNL     1       4.299  41.942  76.664  1.00  0.00     0.001 A 
HETATM    8  C18 UNL     1       3.085  42.554  76.841  1.00  0.00     0.002 A 
HETATM    9  C19 UNL     1       1.986  41.872  77.309  1.00  0.00     0.030 A 
HETATM   10  C20 UNL     1       2.145  40.531  77.603  1.00  0.00     0.049 A 
HETATM   11  N3  UNL     1       1.193  39.575  78.078  1.00  0.00    -0.307 N 
ENDROOT
BRANCH   4  12
HETATM   12  C4  UNL     1       5.469  37.362  77.458  1.00  0.00     0.051 A 
HETATM   13  C5  UNL     1       6.072  36.538  76.559  1.00  0.00     0.061 A 
HETATM   14  C6  UNL     1       7.468  36.765  76.537  1.00  0.00     0.050 A 
HETATM   15  N1  UNL     1       7.611  37.741  77.456  1.00  0.00    -0.300 N 
HETATM   16  N2  UNL     1       6.473  38.103  78.000  1.00  0.00    -0.300 N 
ATOM     17  H1  UNL     1       8.510  38.154  77.703  1.00  0.00     0.187 HD
ATOM     18  H2  UNL     1       6.359  38.823  78.714  1.00  0.00     0.187 HD
BRANCH  14  19
HETATM   19  C7  UNL     1       8.418  35.993  75.791  1.00  0.00     0.032 C 
HETATM   20  C8  UNL     1       9.101  36.155  74.750  1.00  0.00     0.013 C 
BRANCH  20  21
HETATM   21  C9  UNL     1       9.238  37.210  73.790  1.00  0.00    -0.036 A 
HETATM   22  C10 UNL     1       8.041  37.819  73.364  1.00  0.00     0.011 A 
HETATM   23  C11 UNL     1       7.987  38.902  72.539  1.00  0.00     0.001 A 
HETATM   24  C12 UNL     1       9.189  39.435  72.091  1.00  0.00     0.000 A 
HETATM   25  C13 UNL     1      10.386  38.867  72.486  1.00  0.00     0.001 A 
HETATM   26  C14 UNL     1      10.389  37.775  73.322  1.00  0.00     0.011 A 
ENDBRANCH  20  21
ENDBRANCH  14  19
ENDBRANCH   4  12
BRANCH  11  27
HETATM   27  C21 UNL     1      -0.217  39.836  78.376  1.00  0.00     0.197 C 
BRANCH  27  28
HETATM   28  C22 UNL     1      -0.311  40.691  79.605  1.00  0.00     0.070 A 
HETATM   29  C23 UNL     1       0.474  40.704  80.729  1.00  0.00     0.036 A 
HETATM   30  C24 UNL     1       0.003  41.665  81.599  1.00  0.00     0.027 A 
HETATM   31  C25 UNL     1      -1.082  42.215  80.949  1.00  0.00     0.142 A 
HETATM   32  O2  UNL     1      -1.233  41.621  79.789  1.00  0.00    -0.325 OA
ENDBRANCH  27  28
ENDBRANCH  11  27
TORSDOF 5
ENDMDL
MODEL 2
REMARK VINA RESULT: -9.633350679      1.972      3.114
REMARK  5 active torsions:
REMARK  status: ('A' for Active; 'I' for Inactive)
REMARK    1  A    between atoms: C3_4  and  C4_5 
REMARK    2  A    between atoms: C6_7  and  C7_8 
REMARK    3  A    between atoms: C8_9  and  C9_10 
REMARK    4  A    between atoms: N3_26  and  C21_27 
REMARK    5  A    between atoms: C21_27  and  C22_28 
ROOT
HETATM    1  O1  UNL     1       3.223  43.910  76.941  1.00  0.00    -0.267 OA
HETATM    2  C1  UNL     1       2.553  42.918  77.301  1.00  0.00     0.259 A 
HETATM    3  C2  UNL     1       3.094  41.521  77.226  1.00  0.00     0.047 A 
HETATM    4  C3  UNL     1       4.297  41.237  76.818  1.00  0.00     0.049 C 
HETATM    5  C15 UNL     1       2.025  40.677  77.730  1.00  0.00     0.007 A 
HETATM    6  C16 UNL     1       1.921  39.302  77.931  1.00  0.00     0.015 A 
HETATM    7  C17 UNL     1       0.769  38.753  78.453  1.00  0.00     0.001 A 
HETATM    8  C18 UNL     1      -0.288  39.563  78.780  1.00  0.00     0.002 A 
HETATM    9  C19 UNL     1      -0.242  40.927  78.607  1.00  0.00     0.030 A 
HETATM   10  C20 UNL     1       0.918  41.464  78.083  1.00  0.00     0.049 A 
HETATM   11  N3  UNL     1       1.261  42.827  77.814  1.00  0.00    -0.307 N 
ENDROOT
BRANCH   4  12
HETATM   12  C4  UNL     1       5.031  39.999  76.650  1.00  0.00     0.051 A 
HETATM   13  C5  UNL     1       5.122  39.200  75.553  1.00  0.00     0.061 A 
HETATM   14  C6  UNL     1       5.957  38.089  75.818  1.00  0.00     0.050 A 
HETATM   15  N1  UNL     1       6.319  38.306  77.098  1.00  0.00    -0.300 N 
HETATM   16  N2  UNL     1       5.799  39.401  77.600  1.00  0.00    -0.300 N 
ATOM     17  H1  UNL     1       6.934  37.683  77.623  1.00  0.00     0.187 HD
ATOM     18  H2  UNL     1       5.947  39.748  78.548  1.00  0.00     0.187 HD
BRANCH  14  19
HETATM   19  C7  UNL     1       6.178  36.991  74.923  1.00  0.00     0.032 C 
HETATM   20  C8  UNL     1       7.016  36.700  74.036  1.00  0.00     0.013 C 
BRANCH  20  21
HETATM   21  C9  UNL     1       8.163  37.354  73.479  1.00  0.00    -0.036 A 
HETATM   22  C10 UNL     1       7.904  38.496  72.695  1.00  0.00     0.011 A 
HETATM   23  C11 UNL     1       8.873  39.301  72.175  1.00  0.00     0.001 A 
HETATM   24  C12 UNL     1      10.197  38.971  72.436  1.00  0.00     0.000 A 
HETATM   25  C13 UNL     1      10.494  37.859  73.201  1.00  0.00     0.001 A 
HETATM   26  C14 UNL     1       9.480  37.077  73.705  1.00  0.00     0.011 A 
ENDBRANCH  20  21
ENDBRANCH  14  19
ENDBRANCH   4  12
BRANCH  11  27
HETATM   27  C21 UNL     1       0.404  43.993  78.042  1.00  0.00     0.197 C 
BRANCH  27  28
HETATM   28  C22 UNL     1      -0.094  43.971  79.457  1.00  0.00     0.070 A 
HETATM   29  C23 UNL     1      -1.331  44.283  79.959  1.00  0.00     0.036 A 
HETATM   30  C24 UNL     1      -1.320  44.114  81.327  1.00  0.00     0.027 A 
HETATM   31  C25 UNL     1      -0.038  43.692  81.611  1.00  0.00     0.142 A 
HETATM   32  O2  UNL     1       0.647  43.621  80.495  1.00  0.00    -0.325 OA
ENDBRANCH  27  28
ENDBRANCH  11  27
TORSDOF 5
ENDMDL
MODEL 3
REMARK VINA RESULT: -9.362398408      1.406      2.553
REMARK  5 active torsions:
REMARK  status: ('A' for Active; 'I' for Inactive)
REMARK    1  A    between atoms: C3_4  and  C4_5 
REMARK    2  A    between atoms: C6_7  and  C7_8 
REMARK    3  A    between atoms: C8_9  and  C9_10 
REMARK    4  A    between atoms: N3_26  and  C21_27 
REMARK    5  A    between atoms: C21_27  and  C22_28 
ROOT
HETATM    1  O1  UNL     1       3.023  41.304  76.658  1.00  0.00    -0.267 OA
HETATM    2  C1  UNL     1       2.769  40.192  77.169  1.00  0.00     0.259 A 
HETATM    3  C2  UNL     1       3.824  39.141  77.357  1.00  0.00     0.047 A 
HETATM    4  C3  UNL     1       5.073  39.313  77.038  1.00  0.00     0.049 C 
HETATM    5  C15 UNL     1       3.132  38.022  77.972  1.00  0.00     0.007 A 
HETATM    6  C16 UNL     1       3.562  36.771  78.411  1.00  0.00     0.015 A 
HETATM    7  C17 UNL     1       2.677  35.887  78.990  1.00  0.00     0.001 A 
HETATM    8  C18 UNL     1       1.360  36.237  79.141  1.00  0.00     0.002 A 
HETATM    9  C19 UNL     1       0.879  37.458  78.731  1.00  0.00     0.030 A 
HETATM   10  C20 UNL     1       1.776  38.335  78.151  1.00  0.00     0.049 A 
HETATM   11  N3  UNL     1       1.575  39.662  77.656  1.00  0.00    -0.307 N 
ENDROOT
BRANCH   4  12
HETATM   12  C4  UNL     1       6.250  38.471  77.111  1.00  0.00     0.051 A 
HETATM   13  C5  UNL     1       6.967  37.913  76.099  1.00  0.00     0.061 A 
HETATM   14  C6  UNL     1       8.054  37.168  76.614  1.00  0.00     0.050 A 
HETATM   15  N1  UNL     1       7.906  37.334  77.944  1.00  0.00    -0.300 N 
HETATM   16  N2  UNL     1       6.874  38.083  78.255  1.00  0.00    -0.300 N 
ATOM     17  H1  UNL     1       8.532  36.922  78.636  1.00  0.00     0.187 HD
ATOM     18  H2  UNL     1       6.586  38.332  79.202  1.00  0.00     0.187 HD
BRANCH  14  19
HETATM   19  C7  UNL     1       8.943  36.357  75.834  1.00  0.00     0.032 C 
HETATM   20  C8  UNL     1       9.475  36.430  74.700  1.00  0.00     0.013 C 
BRANCH  20  21
HETATM   21  C9  UNL     1       9.428  37.373  73.622  1.00  0.00    -0.036 A 
HETATM   22  C10 UNL     1       8.157  37.599  73.054  1.00  0.00     0.011 A 
HETATM   23  C11 UNL     1       7.906  38.535  72.096  1.00  0.00     0.001 A 
HETATM   24  C12 UNL     1       8.970  39.311  71.654  1.00  0.00     0.000 A 
HETATM   25  C13 UNL     1      10.232  39.120  72.185  1.00  0.00     0.001 A 
HETATM   26  C14 UNL     1      10.436  38.164  73.153  1.00  0.00     0.011 A 
ENDBRANCH  20  21
ENDBRANCH  14  19
ENDBRANCH   4  12
BRANCH  11  27
HETATM   27  C21 UNL     1       0.310  40.399  77.651  1.00  0.00     0.197 C 
BRANCH  27  28
HETATM   28  C22 UNL     1       0.238  41.266  78.873  1.00  0.00     0.070 A 
HETATM   29  C23 UNL     1       0.184  40.915  80.198  1.00  0.00     0.036 A 
HETATM   30  C24 UNL     1       0.127  42.058  80.966  1.00  0.00     0.027 A 
HETATM   31  C25 UNL     1       0.151  43.090  80.050  1.00  0.00     0.142 A 
HETATM   32  O2  UNL     1       0.216  42.587  78.841  1.00  0.00    -0.325 OA
ENDBRANCH  27  28
ENDBRANCH  11  27
TORSDOF 5
ENDMDL
MODEL 4
REMARK VINA RESULT: -9.307714241      1.442      2.220
REMARK  5 active torsions:
REMARK  status: ('A' for Active; 'I' for Inactive)
REMARK    1  A    between atoms: C3_4  and  C4_5 
REMARK    2  A    between atoms: C6_7  and  C7_8 
REMARK    3  A    between atoms: C8_9  and  C9_10 
REMARK    4  A    between atoms: N3_26  and  C21_27 
REMARK    5  A    between atoms: C21_27  and  C22_28 
ROOT
HETATM    1  O1  UNL     1       1.272  37.822  78.422  1.00  0.00    -0.267 OA
HETATM    2  C1  UNL     1       1.705  38.962  78.146  1.00  0.00     0.259 A 
HETATM    3  C2  UNL     1       3.109  39.187  77.669  1.00  0.00     0.047 A 
HETATM    4  C3  UNL     1       3.965  38.226  77.476  1.00  0.00     0.049 C 
HETATM    5  C15 UNL     1       3.209  40.621  77.462  1.00  0.00     0.007 A 
HETATM    6  C16 UNL     1       4.240  41.441  77.007  1.00  0.00     0.015 A 
HETATM    7  C17 UNL     1       4.055  42.802  76.886  1.00  0.00     0.001 A 
HETATM    8  C18 UNL     1       2.846  43.359  77.213  1.00  0.00     0.002 A 
HETATM    9  C19 UNL     1       1.791  42.601  77.664  1.00  0.00     0.030 A 
HETATM   10  C20 UNL     1       1.990  41.238  77.781  1.00  0.00     0.049 A 
HETATM   11  N3  UNL     1       1.086  40.210  78.195  1.00  0.00    -0.307 N 
ENDROOT
BRANCH   4  12
HETATM   12  C4  UNL     1       5.347  38.188  77.040  1.00  0.00     0.051 A 
HETATM   13  C5  UNL     1       5.847  38.239  75.777  1.00  0.00     0.061 A 
HETATM   14  C6  UNL     1       7.261  38.184  75.802  1.00  0.00     0.050 A 
HETATM   15  N1  UNL     1       7.518  38.101  77.122  1.00  0.00    -0.300 N 
HETATM   16  N2  UNL     1       6.430  38.102  77.857  1.00  0.00    -0.300 N 
ATOM     17  H1  UNL     1       8.459  38.042  77.510  1.00  0.00     0.187 HD
ATOM     18  H2  UNL     1       6.403  38.048  78.876  1.00  0.00     0.187 HD
BRANCH  14  19
HETATM   19  C7  UNL     1       8.104  38.100  74.645  1.00  0.00     0.032 C 
HETATM   20  C8  UNL     1       8.511  37.187  73.886  1.00  0.00     0.013 C 
BRANCH  20  21
HETATM   21  C9  UNL     1       8.329  35.767  73.829  1.00  0.00    -0.036 A 
HETATM   22  C10 UNL     1       7.074  35.322  73.368  1.00  0.00     0.011 A 
HETATM   23  C11 UNL     1       6.760  34.014  73.150  1.00  0.00     0.001 A 
HETATM   24  C12 UNL     1       7.742  33.063  73.401  1.00  0.00     0.000 A 
HETATM   25  C13 UNL     1       8.987  33.458  73.854  1.00  0.00     0.001 A 
HETATM   26  C14 UNL     1       9.256  34.792  74.057  1.00  0.00     0.011 A 
ENDBRANCH  20  21
ENDBRANCH  14  19
ENDBRANCH   4  12
BRANCH  11  27
HETATM   27  C21 UNL     1      -0.305  40.400  78.612  1.00  0.00     0.197 C 
BRANCH  27  28
HETATM   28  C22 UNL     1      -0.330  41.066  79.956  1.00  0.00     0.070 A 
HETATM   29  C23 UNL     1       0.474  40.871  81.050  1.00  0.00     0.036 A 
HETATM   30  C24 UNL     1       0.071  41.714  82.063  1.00  0.00     0.027 A 
HETATM   31  C25 UNL     1      -0.993  42.411  81.529  1.00  0.00     0.142 A 
HETATM   32  O2  UNL     1      -1.196  42.005  80.299  1.00  0.00    -0.325 OA
ENDBRANCH  27  28
ENDBRANCH  11  27
TORSDOF 5
ENDMDL
MODEL 5
REMARK VINA RESULT: -8.944366900      2.900      9.425
REMARK  5 active torsions:
REMARK  status: ('A' for Active; 'I' for Inactive)
REMARK    1  A    between atoms: C3_4  and  C4_5 
REMARK    2  A    between atoms: C6_7  and  C7_8 
REMARK    3  A    between atoms: C8_9  and  C9_10 
REMARK    4  A    between atoms: N3_26  and  C21_27 
REMARK    5  A    between atoms: C21_27  and  C22_28 
ROOT
HETATM    1  O1  UNL     1       6.565  35.073  76.980  1.00  0.00    -0.267 OA
HETATM    2  C1  UNL     1       7.208  35.740  76.141  1.00  0.00     0.259 A 
HETATM    3  C2  UNL     1       6.798  37.126  75.740  1.00  0.00     0.047 A 
HETATM    4  C3  UNL     1       5.775  37.748  76.250  1.00  0.00     0.049 C 
HETATM    5  C15 UNL     1       7.790  37.544  74.765  1.00  0.00     0.007 A 
HETATM    6  C16 UNL     1       7.972  38.725  74.048  1.00  0.00     0.015 A 
HETATM    7  C17 UNL     1       9.035  38.864  73.181  1.00  0.00     0.001 A 
HETATM    8  C18 UNL     1       9.925  37.835  73.019  1.00  0.00     0.002 A 
HETATM    9  C19 UNL     1       9.799  36.647  73.702  1.00  0.00     0.030 A 
HETATM   10  C20 UNL     1       8.730  36.520  74.568  1.00  0.00     0.049 A 
HETATM   11  N3  UNL     1       8.358  35.430  75.416  1.00  0.00    -0.307 N 
ENDROOT
BRANCH   4  12
HETATM   12  C4  UNL     1       5.184  39.052  76.028  1.00  0.00     0.051 A 
HETATM   13  C5  UNL     1       4.793  39.981  76.941  1.00  0.00     0.061 A 
HETATM   14  C6  UNL     1       4.274  41.126  76.292  1.00  0.00     0.050 A 
HETATM   15  N1  UNL     1       4.392  40.792  74.991  1.00  0.00    -0.300 N 
HETATM   16  N2  UNL     1       4.915  39.601  74.814  1.00  0.00    -0.300 N 
ATOM     17  H1  UNL     1       4.104  41.400  74.225  1.00  0.00     0.187 HD
ATOM     18  H2  UNL     1       5.091  39.159  73.911  1.00  0.00     0.187 HD
BRANCH  14  19
HETATM   19  C7  UNL     1       3.666  42.245  76.951  1.00  0.00     0.032 C 
HETATM   20  C8  UNL     1       2.645  42.437  77.655  1.00  0.00     0.013 C 
BRANCH  20  21
HETATM   21  C9  UNL     1       1.576  41.608  78.127  1.00  0.00    -0.036 A 
HETATM   22  C10 UNL     1       0.867  42.090  79.246  1.00  0.00     0.011 A 
HETATM   23  C11 UNL     1      -0.241  41.489  79.764  1.00  0.00     0.001 A 
HETATM   24  C12 UNL     1      -0.696  40.330  79.149  1.00  0.00     0.000 A 
HETATM   25  C13 UNL     1      -0.029  39.824  78.048  1.00  0.00     0.001 A 
HETATM   26  C14 UNL     1       1.085  40.468  77.561  1.00  0.00     0.011 A 
ENDBRANCH  20  21
ENDBRANCH  14  19
ENDBRANCH   4  12
BRANCH  11  27
HETATM   27  C21 UNL     1       9.065  34.153  75.539  1.00  0.00     0.197 C 
BRANCH  27  28
HETATM   28  C22 UNL     1       8.717  33.281  74.369  1.00  0.00     0.070 A 
HETATM   29  C23 UNL     1       9.474  32.925  73.282  1.00  0.00     0.036 A 
HETATM   30  C24 UNL     1       8.729  32.104  72.462  1.00  0.00     0.027 A 
HETATM   31  C25 UNL     1       7.513  31.990  73.103  1.00  0.00     0.142 A 
HETATM   32  O2  UNL     1       7.545  32.690  74.211  1.00  0.00    -0.325 OA
ENDBRANCH  27  28
ENDBRANCH  11  27
TORSDOF 5
ENDMDL
