MODEL 1
REMARK VINA RESULT: -8.909475932      0.000      0.000
REMARK  5 active torsions:
REMARK  status: ('A' for Active; 'I' for Inactive)
REMARK       I    between atoms: C1_2  and  N1_3 
REMARK    1  A    between atoms: C1_2  and  C20_28 
REMARK    2  A    between atoms: N1_3  and  C2_5 
REMARK    3  A    between atoms: C5_8  and  C6_9 
REMARK    4  A    between atoms: C10_13  and  C11_14 
REMARK    5  A    between atoms: C11_14  and  C12_15 
ROOT
HETATM    1  C6  UNL     1       8.806  31.261  71.876  1.00  0.00     0.041 C 
HETATM    2  C7  UNL     1       8.292  32.451  72.027  1.00  0.00     0.035 A 
HETATM    3  C8  UNL     1       7.350  33.233  72.172  1.00  0.00     0.030 A 
HETATM    4  C9  UNL     1       6.929  34.385  72.705  1.00  0.00     0.019 A 
HETATM    5  C10 UNL     1       8.005  35.021  73.416  1.00  0.00     0.034 A 
HETATM    6  C17 UNL     1       9.204  34.331  73.400  1.00  0.00     0.256 A 
HETATM    7  O2  UNL     1      10.215  34.841  74.026  1.00  0.00    -0.267 OA
HETATM    8  N3  UNL     1       9.409  33.173  72.796  1.00  0.00    -0.323 N 
ATOM      9  H3  UNL     1      10.334  32.747  72.842  1.00  0.00     0.169 HD
ENDROOT
BRANCH   1  10
HETATM   10  C5  UNL     1      10.086  30.697  71.725  1.00  0.00    -0.034 A 
HETATM   11  C4  UNL     1      10.778  31.024  70.507  1.00  0.00     0.013 A 
HETATM   12  C3  UNL     1      11.970  30.428  70.276  1.00  0.00     0.030 A 
HETATM   13  C2  UNL     1      12.475  29.532  71.210  1.00  0.00     0.035 A 
HETATM   14  C19 UNL     1      11.858  29.216  72.342  1.00  0.00     0.030 A 
HETATM   15  C18 UNL     1      10.617  29.813  72.624  1.00  0.00     0.013 A 
BRANCH  13  16
HETATM   16  N1  UNL     1      13.714  28.861  70.779  1.00  0.00    -0.323 N 
HETATM   17  C1  UNL     1      14.851  29.726  71.039  1.00  0.00     0.256 C 
HETATM   18  O1  UNL     1      14.572  30.859  71.500  1.00  0.00    -0.267 OA
ATOM     19  H1  UNL     1      13.765  27.931  70.362  1.00  0.00     0.169 HD
BRANCH  17  20
HETATM   20  C20 UNL     1      16.228  29.371  70.822  1.00  0.00     0.032 A 
HETATM   21  C21 UNL     1      16.507  28.419  69.830  1.00  0.00     0.017 A 
HETATM   22  C22 UNL     1      17.748  28.207  69.304  1.00  0.00     0.001 A 
HETATM   23  C23 UNL     1      18.825  28.984  69.786  1.00  0.00     0.000 A 
HETATM   24  C24 UNL     1      18.537  29.877  70.740  1.00  0.00     0.001 A 
HETATM   25  C25 UNL     1      17.305  30.132  71.305  1.00  0.00     0.017 A 
ENDBRANCH  17  20
ENDBRANCH  13  16
ENDBRANCH   1  10
BRANCH   5  26
HETATM   26  C11 UNL     1       7.807  36.193  73.952  1.00  0.00     0.046 C 
BRANCH  26  27
HETATM   27  C12 UNL     1       8.266  37.411  73.301  1.00  0.00     0.032 A 
HETATM   28  C13 UNL     1       7.651  38.458  72.651  1.00  0.00     0.029 A 
HETATM   29  C14 UNL     1       8.367  39.443  72.021  1.00  0.00     0.004 A 
HETATM   30  C15 UNL     1       9.728  39.432  72.026  1.00  0.00     0.017 A 
HETATM   31  C16 UNL     1      10.356  38.408  72.672  1.00  0.00     0.088 A 
HETATM   32  N2  UNL     1       9.641  37.473  73.265  1.00  0.00    -0.366 N 
ATOM     33  H2  UNL     1      10.152  36.728  73.738  1.00  0.00     0.165 HD
ENDBRANCH  26  27
ENDBRANCH   5  26
TORSDOF 5
ENDMDL
MODEL 2
REMARK VINA RESULT: -8.875414035      4.096     11.852
REMARK  5 active torsions:
REMARK  status: ('A' for Active; 'I' for Inactive)
REMARK       I    between atoms: C1_2  and  N1_3 
REMARK    1  A    between atoms: C1_2  and  C20_28 
REMARK    2  A    between atoms: N1_3  and  C2_5 
REMARK    3  A    between atoms: C5_8  and  C6_9 
REMARK    4  A    between atoms: C10_13  and  C11_14 
REMARK    5  A    between atoms: C11_14  and  C12_15 
ROOT
HETATM    1  C6  UNL     1       6.421  34.953  72.811  1.00  0.00     0.041 C 
HETATM    2  C7  UNL     1       7.086  33.834  72.723  1.00  0.00     0.035 A 
HETATM    3  C8  UNL     1       7.354  32.751  72.196  1.00  0.00     0.030 A 
HETATM    4  C9  UNL     1       8.301  31.844  71.933  1.00  0.00     0.019 A 
HETATM    5  C10 UNL     1       9.557  32.268  72.489  1.00  0.00     0.034 A 
HETATM    6  C17 UNL     1       9.523  33.481  73.154  1.00  0.00     0.256 A 
HETATM    7  O2  UNL     1      10.620  33.928  73.674  1.00  0.00    -0.267 OA
HETATM    8  N3  UNL     1       8.450  34.239  73.301  1.00  0.00    -0.323 N 
ATOM      9  H3  UNL     1       8.530  35.117  73.813  1.00  0.00     0.169 HD
ENDROOT
BRANCH   1  10
HETATM   10  C5  UNL     1       6.394  36.078  73.657  1.00  0.00    -0.034 A 
HETATM   11  C4  UNL     1       5.884  35.854  74.984  1.00  0.00     0.013 A 
HETATM   12  C3  UNL     1       5.750  36.924  75.800  1.00  0.00     0.030 A 
HETATM   13  C2  UNL     1       6.101  38.185  75.332  1.00  0.00     0.035 A 
HETATM   14  C19 UNL     1       6.576  38.416  74.114  1.00  0.00     0.030 A 
HETATM   15  C18 UNL     1       6.734  37.333  73.233  1.00  0.00     0.013 A 
BRANCH  13  16
HETATM   16  N1  UNL     1       5.788  39.275  76.272  1.00  0.00    -0.323 N 
HETATM   17  C1  UNL     1       4.514  39.873  75.915  1.00  0.00     0.256 C 
HETATM   18  O1  UNL     1       3.974  39.415  74.880  1.00  0.00    -0.267 OA
ATOM     19  H1  UNL     1       6.375  39.565  77.053  1.00  0.00     0.169 HD
BRANCH  17  20
HETATM   20  C20 UNL     1       3.850  40.911  76.657  1.00  0.00     0.032 A 
HETATM   21  C21 UNL     1       4.369  42.211  76.565  1.00  0.00     0.017 A 
HETATM   22  C22 UNL     1       3.692  43.332  76.951  1.00  0.00     0.001 A 
HETATM   23  C23 UNL     1       2.392  43.183  77.481  1.00  0.00     0.000 A 
HETATM   24  C24 UNL     1       1.922  41.933  77.569  1.00  0.00     0.001 A 
HETATM   25  C25 UNL     1       2.561  40.770  77.196  1.00  0.00     0.017 A 
ENDBRANCH  17  20
ENDBRANCH  13  16
ENDBRANCH   1  10
BRANCH   5  26
HETATM   26  C11 UNL     1      10.592  31.481  72.392  1.00  0.00     0.046 C 
BRANCH  26  27
HETATM   27  C12 UNL     1      11.423  31.464  71.197  1.00  0.00     0.032 A 
HETATM   28  C13 UNL     1      11.294  30.941  69.929  1.00  0.00     0.029 A 
HETATM   29  C14 UNL     1      12.317  30.986  69.017  1.00  0.00     0.004 A 
HETATM   30  C15 UNL     1      13.507  31.569  69.328  1.00  0.00     0.017 A 
HETATM   31  C16 UNL     1      13.651  32.100  70.576  1.00  0.00     0.088 A 
HETATM   32  N2  UNL     1      12.652  32.037  71.432  1.00  0.00    -0.366 N 
ATOM     33  H2  UNL     1      12.803  32.451  72.353  1.00  0.00     0.165 HD
ENDBRANCH  26  27
ENDBRANCH   5  26
TORSDOF 5
ENDMDL
MODEL 3
REMARK VINA RESULT: -8.741489441      0.919      1.104
REMARK  5 active torsions:
REMARK  status: ('A' for Active; 'I' for Inactive)
REMARK       I    between atoms: C1_2  and  N1_3 
REMARK    1  A    between atoms: C1_2  and  C20_28 
REMARK    2  A    between atoms: N1_3  and  C2_5 
REMARK    3  A    between atoms: C5_8  and  C6_9 
REMARK    4  A    between atoms: C10_13  and  C11_14 
REMARK    5  A    between atoms: C11_14  and  C12_15 
ROOT
HETATM    1  C6  UNL     1       9.317  30.989  71.679  1.00  0.00     0.041 C 
HETATM    2  C7  UNL     1       8.655  32.103  71.831  1.00  0.00     0.035 A 
HETATM    3  C8  UNL     1       7.617  32.766  71.900  1.00  0.00     0.030 A 
HETATM    4  C9  UNL     1       7.005  33.826  72.438  1.00  0.00     0.019 A 
HETATM    5  C10 UNL     1       7.909  34.524  73.313  1.00  0.00     0.034 A 
HETATM    6  C17 UNL     1       9.174  33.971  73.409  1.00  0.00     0.256 A 
HETATM    7  O2  UNL     1      10.037  34.544  74.184  1.00  0.00    -0.267 OA
HETATM    8  N3  UNL     1       9.581  32.887  72.772  1.00  0.00    -0.323 N 
ATOM      9  H3  UNL     1      10.538  32.561  72.910  1.00  0.00     0.169 HD
ENDROOT
BRANCH   1  10
HETATM   10  C5  UNL     1      10.663  30.579  71.659  1.00  0.00    -0.034 A 
HETATM   11  C4  UNL     1      11.408  30.925  70.478  1.00  0.00     0.013 A 
HETATM   12  C3  UNL     1      12.678  30.469  70.373  1.00  0.00     0.030 A 
HETATM   13  C2  UNL     1      13.207  29.691  71.395  1.00  0.00     0.035 A 
HETATM   14  C19 UNL     1      12.542  29.361  72.495  1.00  0.00     0.030 A 
HETATM   15  C18 UNL     1      11.221  29.815  72.647  1.00  0.00     0.013 A 
BRANCH  13  16
HETATM   16  N1  UNL     1      14.548  29.155  71.099  1.00  0.00    -0.323 N 
HETATM   17  C1  UNL     1      15.553  29.972  71.756  1.00  0.00     0.256 C 
HETATM   18  O1  UNL     1      15.116  30.975  72.370  1.00  0.00    -0.267 OA
ATOM     19  H1  UNL     1      14.740  28.337  70.522  1.00  0.00     0.169 HD
BRANCH  17  20
HETATM   20  C20 UNL     1      16.966  29.703  71.757  1.00  0.00     0.032 A 
HETATM   21  C21 UNL     1      17.438  28.701  72.617  1.00  0.00     0.017 A 
HETATM   22  C22 UNL     1      18.673  28.129  72.517  1.00  0.00     0.001 A 
HETATM   23  C23 UNL     1      19.538  28.571  71.491  1.00  0.00     0.000 A 
HETATM   24  C24 UNL     1      19.070  29.535  70.690  1.00  0.00     0.001 A 
HETATM   25  C25 UNL     1      17.835  30.146  70.747  1.00  0.00     0.017 A 
ENDBRANCH  17  20
ENDBRANCH  13  16
ENDBRANCH   1  10
BRANCH   5  26
HETATM   26  C11 UNL     1       7.514  35.627  73.884  1.00  0.00     0.046 C 
BRANCH  26  27
HETATM   27  C12 UNL     1       7.887  36.931  73.353  1.00  0.00     0.032 A 
HETATM   28  C13 UNL     1       7.211  37.961  72.737  1.00  0.00     0.029 A 
HETATM   29  C14 UNL     1       7.862  39.055  72.229  1.00  0.00     0.004 A 
HETATM   30  C15 UNL     1       9.215  39.175  72.328  1.00  0.00     0.017 A 
HETATM   31  C16 UNL     1       9.901  38.169  72.943  1.00  0.00     0.088 A 
HETATM   32  N2  UNL     1       9.248  37.127  73.417  1.00  0.00    -0.366 N 
ATOM     33  H2  UNL     1       9.802  36.400  73.871  1.00  0.00     0.165 HD
ENDBRANCH  26  27
ENDBRANCH   5  26
TORSDOF 5
ENDMDL
MODEL 4
REMARK VINA RESULT: -8.636055423      1.642      2.101
REMARK  5 active torsions:
REMARK  status: ('A' for Active; 'I' for Inactive)
REMARK       I    between atoms: C1_2  and  N1_3 
REMARK    1  A    between atoms: C1_2  and  C20_28 
REMARK    2  A    between atoms: N1_3  and  C2_5 
REMARK    3  A    between atoms: C5_8  and  C6_9 
REMARK    4  A    between atoms: C10_13  and  C11_14 
REMARK    5  A    between atoms: C11_14  and  C12_15 
ROOT
HETATM    1  C6  UNL     1       9.518  31.316  71.470  1.00  0.00     0.041 C 
HETATM    2  C7  UNL     1       8.525  32.143  71.647  1.00  0.00     0.035 A 
HETATM    3  C8  UNL     1       7.330  32.447  71.632  1.00  0.00     0.030 A 
HETATM    4  C9  UNL     1       6.358  33.178  72.190  1.00  0.00     0.019 A 
HETATM    5  C10 UNL     1       6.892  33.966  73.267  1.00  0.00     0.034 A 
HETATM    6  C17 UNL     1       8.248  33.807  73.491  1.00  0.00     0.256 A 
HETATM    7  O2  UNL     1       8.796  34.481  74.450  1.00  0.00    -0.267 OA
HETATM    8  N3  UNL     1       9.046  33.009  72.803  1.00  0.00    -0.323 N 
ATOM      9  H3  UNL     1      10.035  32.966  73.048  1.00  0.00     0.169 HD
ENDROOT
BRANCH   1  10
HETATM   10  C5  UNL     1      10.918  31.334  71.609  1.00  0.00    -0.034 A 
HETATM   11  C4  UNL     1      11.645  32.007  70.566  1.00  0.00     0.013 A 
HETATM   12  C3  UNL     1      12.997  31.968  70.608  1.00  0.00     0.030 A 
HETATM   13  C2  UNL     1      13.625  31.284  71.642  1.00  0.00     0.035 A 
HETATM   14  C19 UNL     1      12.977  30.658  72.617  1.00  0.00     0.030 A 
HETATM   15  C18 UNL     1      11.573  30.676  72.614  1.00  0.00     0.013 A 
BRANCH  13  16
HETATM   16  N1  UNL     1      15.090  31.210  71.500  1.00  0.00    -0.323 N 
HETATM   17  C1  UNL     1      15.444  30.038  70.720  1.00  0.00     0.256 C 
HETATM   18  O1  UNL     1      14.484  29.303  70.384  1.00  0.00    -0.267 OA
ATOM     19  H1  UNL     1      15.753  31.880  71.890  1.00  0.00     0.169 HD
BRANCH  17  20
HETATM   20  C20 UNL     1      16.778  29.687  70.311  1.00  0.00     0.032 A 
HETATM   21  C21 UNL     1      17.847  30.290  70.991  1.00  0.00     0.017 A 
HETATM   22  C22 UNL     1      19.136  29.845  70.933  1.00  0.00     0.001 A 
HETATM   23  C23 UNL     1      19.421  28.712  70.138  1.00  0.00     0.000 A 
HETATM   24  C24 UNL     1      18.387  28.162  69.490  1.00  0.00     0.001 A 
HETATM   25  C25 UNL     1      17.071  28.570  69.513  1.00  0.00     0.017 A 
ENDBRANCH  17  20
ENDBRANCH  13  16
ENDBRANCH   1  10
BRANCH   5  26
HETATM   26  C11 UNL     1       6.108  34.797  73.895  1.00  0.00     0.046 C 
BRANCH  26  27
HETATM   27  C12 UNL     1       6.458  36.202  74.046  1.00  0.00     0.032 A 
HETATM   28  C13 UNL     1       6.754  37.231  73.178  1.00  0.00     0.029 A 
HETATM   29  C14 UNL     1       7.168  38.460  73.623  1.00  0.00     0.004 A 
HETATM   30  C15 UNL     1       7.291  38.718  74.954  1.00  0.00     0.017 A 
HETATM   31  C16 UNL     1       6.994  37.715  75.829  1.00  0.00     0.088 A 
HETATM   32  N2  UNL     1       6.603  36.543  75.372  1.00  0.00    -0.366 N 
ATOM     33  H2  UNL     1       6.389  35.823  76.062  1.00  0.00     0.165 HD
ENDBRANCH  26  27
ENDBRANCH   5  26
TORSDOF 5
ENDMDL
MODEL 5
REMARK VINA RESULT: -8.570961214      4.271     12.231
REMARK  5 active torsions:
REMARK  status: ('A' for Active; 'I' for Inactive)
REMARK       I    between atoms: C1_2  and  N1_3 
REMARK    1  A    between atoms: C1_2  and  C20_28 
REMARK    2  A    between atoms: N1_3  and  C2_5 
REMARK    3  A    between atoms: C5_8  and  C6_9 
REMARK    4  A    between atoms: C10_13  and  C11_14 
REMARK    5  A    between atoms: C11_14  and  C12_15 
ROOT
HETATM    1  C6  UNL     1       9.194  36.270  74.553  1.00  0.00     0.041 C 
HETATM    2  C7  UNL     1       9.581  35.314  73.752  1.00  0.00     0.035 A 
HETATM    3  C8  UNL     1      10.364  34.435  73.385  1.00  0.00     0.030 A 
HETATM    4  C9  UNL     1      10.506  33.248  72.787  1.00  0.00     0.019 A 
HETATM    5  C10 UNL     1       9.223  32.749  72.372  1.00  0.00     0.034 A 
HETATM    6  C17 UNL     1       8.152  33.573  72.669  1.00  0.00     0.256 A 
HETATM    7  O2  UNL     1       6.965  33.184  72.330  1.00  0.00    -0.267 OA
HETATM    8  N3  UNL     1       8.236  34.739  73.285  1.00  0.00    -0.323 N 
ATOM      9  H3  UNL     1       7.383  35.272  73.455  1.00  0.00     0.169 HD
ENDROOT
BRANCH   1  10
HETATM   10  C5  UNL     1       8.105  37.154  74.659  1.00  0.00    -0.034 A 
HETATM   11  C4  UNL     1       7.112  36.814  75.643  1.00  0.00     0.013 A 
HETATM   12  C3  UNL     1       6.001  37.582  75.714  1.00  0.00     0.030 A 
HETATM   13  C2  UNL     1       5.860  38.656  74.843  1.00  0.00     0.035 A 
HETATM   14  C19 UNL     1       6.762  38.992  73.930  1.00  0.00     0.030 A 
HETATM   15  C18 UNL     1       7.933  38.223  73.822  1.00  0.00     0.013 A 
BRANCH  13  16
HETATM   16  N1  UNL     1       4.553  39.330  74.940  1.00  0.00    -0.323 N 
HETATM   17  C1  UNL     1       4.529  40.176  76.120  1.00  0.00     0.256 C 
HETATM   18  O1  UNL     1       5.554  40.126  76.841  1.00  0.00    -0.267 OA
ATOM     19  H1  UNL     1       3.784  39.219  74.279  1.00  0.00     0.169 HD
BRANCH  17  20
HETATM   20  C20 UNL     1       3.445  41.046  76.492  1.00  0.00     0.032 A 
HETATM   21  C21 UNL     1       2.281  40.456  77.006  1.00  0.00     0.017 A 
HETATM   22  C22 UNL     1       1.309  41.142  77.674  1.00  0.00     0.001 A 
HETATM   23  C23 UNL     1       1.472  42.532  77.858  1.00  0.00     0.000 A 
HETATM   24  C24 UNL     1       2.585  43.076  77.349  1.00  0.00     0.001 A 
HETATM   25  C25 UNL     1       3.596  42.432  76.668  1.00  0.00     0.017 A 
ENDBRANCH  17  20
ENDBRANCH  13  16
ENDBRANCH   1  10
BRANCH   5  26
HETATM   26  C11 UNL     1       9.162  31.628  71.709  1.00  0.00     0.046 C 
BRANCH  26  27
HETATM   27  C12 UNL     1      10.367  30.948  71.256  1.00  0.00     0.032 A 
HETATM   28  C13 UNL     1      11.251  31.124  70.214  1.00  0.00     0.029 A 
HETATM   29  C14 UNL     1      12.264  30.235  69.964  1.00  0.00     0.004 A 
HETATM   30  C15 UNL     1      12.446  29.140  70.751  1.00  0.00     0.017 A 
HETATM   31  C16 UNL     1      11.586  28.953  71.793  1.00  0.00     0.088 A 
HETATM   32  N2  UNL     1      10.618  29.822  72.006  1.00  0.00    -0.366 N 
ATOM     33  H2  UNL     1      10.001  29.644  72.799  1.00  0.00     0.165 HD
ENDBRANCH  26  27
ENDBRANCH   5  26
TORSDOF 5
ENDMDL
