MODEL 1
REMARK VINA RESULT: -7.119221245      0.000      0.000
REMARK  6 active torsions:
REMARK  status: ('A' for Active; 'I' for Inactive)
REMARK    1  A    between atoms: N1_2  and  C2_4 
REMARK    2  A    between atoms: C3_7  and  N3_8 
REMARK    3  A    between atoms: N3_8  and  C4_10 
REMARK    4  A    between atoms: C4_10  and  C5_11 
REMARK    5  A    between atoms: C5_11  and  C6_12 
REMARK    6  A    between atoms: C6_12  and  N4_13 
ROOT
HETATM    1  C2  UNL     1       6.514  38.105  75.886  1.00  0.00     0.124 A 
HETATM    2  N2  UNL     1       7.120  38.080  77.088  1.00  0.00    -0.176 N 
ATOM      3  H2  UNL     1       6.870  38.781  77.785  1.00  0.00     0.186 HD
HETATM    4  C3  UNL     1       8.040  37.161  77.392  1.00  0.00     0.679 A 
HETATM    5  N5  UNL     1       8.356  36.245  76.458  1.00  0.00    -0.195 N 
ATOM      6  H5  UNL     1       9.058  35.537  76.677  1.00  0.00     0.184 HD
HETATM    7  C11 UNL     1       7.769  36.232  75.229  1.00  0.00     0.036 A 
HETATM    8  C12 UNL     1       6.820  37.163  74.893  1.00  0.00     0.009 A 
HETATM    9  C13 UNL     1       6.092  37.250  73.614  1.00  0.00     0.044 C 
HETATM   10  C14 UNL     1       6.820  37.741  72.434  1.00  0.00     0.005 C 
HETATM   11  C15 UNL     1       7.768  38.883  72.637  1.00  0.00     0.000 C 
HETATM   12  C16 UNL     1       8.681  38.935  71.435  1.00  0.00     0.000 C 
HETATM   13  C17 UNL     1      10.092  39.311  71.754  1.00  0.00     0.000 C 
HETATM   14  C18 UNL     1      10.741  38.502  72.824  1.00  0.00     0.000 C 
HETATM   15  C19 UNL     1      10.570  37.009  72.678  1.00  0.00     0.000 C 
HETATM   16  C20 UNL     1      10.390  36.467  74.083  1.00  0.00     0.000 C 
HETATM   17  C21 UNL     1       9.739  35.135  74.158  1.00  0.00     0.006 C 
HETATM   18  C22 UNL     1       8.237  35.152  74.326  1.00  0.00     0.058 C 
ENDROOT
BRANCH   4  19
HETATM   19  N3  UNL     1       8.604  37.162  78.555  1.00  0.00    -0.226 N 
ATOM     20  H3  UNL     1       9.606  37.344  78.606  1.00  0.00     0.177 HD
BRANCH  19  21
HETATM   21  C4  UNL     1       7.896  36.922  79.769  1.00  0.00     0.140 C 
BRANCH  21  22
HETATM   22  C5  UNL     1       7.239  35.556  79.751  1.00  0.00     0.050 C 
BRANCH  22  23
HETATM   23  C6  UNL     1       5.774  35.765  80.117  1.00  0.00     0.274 C 
BRANCH  23  24
HETATM   24  N4  UNL     1       4.947  35.807  78.961  1.00  0.00     0.092 N 
HETATM   25  C7  UNL     1       5.245  34.855  77.942  1.00  0.00     0.298 C 
HETATM   26  C8  UNL     1       4.312  35.143  76.774  1.00  0.00     0.198 C 
HETATM   27  O1  UNL     1       2.979  35.070  77.183  1.00  0.00    -0.388 OA
HETATM   28  C9  UNL     1       2.743  36.148  78.033  1.00  0.00     0.198 C 
HETATM   29  C10 UNL     1       3.564  35.890  79.298  1.00  0.00     0.298 C 
ENDBRANCH  23  24
ENDBRANCH  22  23
ENDBRANCH  21  22
ENDBRANCH  19  21
ENDBRANCH   4  19
BRANCH   1  30
HETATM   30  N1  UNL     1       5.643  38.995  75.629  1.00  0.00    -0.380 N 
HETATM   31  C1  UNL     1       4.401  39.009  76.368  1.00  0.00     0.147 C 
ATOM     32  H1  UNL     1       5.819  39.693  74.906  1.00  0.00     0.160 HD
ENDBRANCH   1  30
TORSDOF 6
ENDMDL
MODEL 2
REMARK VINA RESULT: -7.117310287      1.951      2.458
REMARK  6 active torsions:
REMARK  status: ('A' for Active; 'I' for Inactive)
REMARK    1  A    between atoms: N1_2  and  C2_4 
REMARK    2  A    between atoms: C3_7  and  N3_8 
REMARK    3  A    between atoms: N3_8  and  C4_10 
REMARK    4  A    between atoms: C4_10  and  C5_11 
REMARK    5  A    between atoms: C5_11  and  C6_12 
REMARK    6  A    between atoms: C6_12  and  N4_13 
ROOT
HETATM    1  C2  UNL     1       6.249  38.072  75.620  1.00  0.00     0.124 A 
HETATM    2  N2  UNL     1       6.776  38.177  76.854  1.00  0.00    -0.176 N 
ATOM      3  H2  UNL     1       6.422  38.894  77.486  1.00  0.00     0.186 HD
HETATM    4  C3  UNL     1       7.749  37.365  77.275  1.00  0.00     0.679 A 
HETATM    5  N5  UNL     1       8.203  36.424  76.425  1.00  0.00    -0.195 N 
ATOM      6  H5  UNL     1       8.947  35.798  76.733  1.00  0.00     0.184 HD
HETATM    7  C11 UNL     1       7.700  36.282  75.167  1.00  0.00     0.036 A 
HETATM    8  C12 UNL     1       6.699  37.101  74.713  1.00  0.00     0.009 A 
HETATM    9  C13 UNL     1       6.051  37.043  73.390  1.00  0.00     0.044 C 
HETATM   10  C14 UNL     1       6.810  37.523  72.225  1.00  0.00     0.005 C 
HETATM   11  C15 UNL     1       7.641  38.755  72.406  1.00  0.00     0.000 C 
HETATM   12  C16 UNL     1       8.623  38.815  71.259  1.00  0.00     0.000 C 
HETATM   13  C17 UNL     1       9.973  39.334  71.635  1.00  0.00     0.000 C 
HETATM   14  C18 UNL     1      10.618  38.655  72.794  1.00  0.00     0.000 C 
HETATM   15  C19 UNL     1      10.584  37.147  72.741  1.00  0.00     0.000 C 
HETATM   16  C20 UNL     1      10.361  36.679  74.166  1.00  0.00     0.000 C 
HETATM   17  C21 UNL     1       9.823  35.301  74.292  1.00  0.00     0.006 C 
HETATM   18  C22 UNL     1       8.318  35.195  74.369  1.00  0.00     0.058 C 
ENDROOT
BRANCH   4  19
HETATM   19  N3  UNL     1       8.235  37.489  78.466  1.00  0.00    -0.226 N 
ATOM     20  H3  UNL     1       7.831  38.194  79.082  1.00  0.00     0.177 HD
BRANCH  19  21
HETATM   21  C4  UNL     1       9.306  36.689  78.961  1.00  0.00     0.140 C 
BRANCH  21  22
HETATM   22  C5  UNL     1       9.275  36.619  80.475  1.00  0.00     0.050 C 
BRANCH  22  23
HETATM   23  C6  UNL     1       8.227  35.577  80.848  1.00  0.00     0.274 C 
BRANCH  23  24
HETATM   24  N4  UNL     1       7.155  36.154  81.583  1.00  0.00     0.092 N 
HETATM   25  C7  UNL     1       7.372  37.473  82.079  1.00  0.00     0.298 C 
HETATM   26  C8  UNL     1       6.150  37.847  82.906  1.00  0.00     0.198 C 
HETATM   27  O1  UNL     1       4.991  37.767  82.131  1.00  0.00    -0.388 OA
HETATM   28  C9  UNL     1       4.769  36.419  81.853  1.00  0.00     0.198 C 
HETATM   29  C10 UNL     1       5.901  35.975  80.925  1.00  0.00     0.298 C 
ENDBRANCH  23  24
ENDBRANCH  22  23
ENDBRANCH  21  22
ENDBRANCH  19  21
ENDBRANCH   4  19
BRANCH   1  30
HETATM   30  N1  UNL     1       5.324  38.863  75.251  1.00  0.00    -0.380 N 
HETATM   31  C1  UNL     1       4.912  39.934  76.130  1.00  0.00     0.147 C 
ATOM     32  H1  UNL     1       4.875  38.742  74.343  1.00  0.00     0.160 HD
ENDBRANCH   1  30
TORSDOF 6
ENDMDL
MODEL 3
REMARK VINA RESULT: -6.922035666      3.270      5.685
REMARK  6 active torsions:
REMARK  status: ('A' for Active; 'I' for Inactive)
REMARK    1  A    between atoms: N1_2  and  C2_4 
REMARK    2  A    between atoms: C3_7  and  N3_8 
REMARK    3  A    between atoms: N3_8  and  C4_10 
REMARK    4  A    between atoms: C4_10  and  C5_11 
REMARK    5  A    between atoms: C5_11  and  C6_12 
REMARK    6  A    between atoms: C6_12  and  N4_13 
ROOT
HETATM    1  C2  UNL     1       7.548  37.808  77.144  1.00  0.00     0.124 A 
HETATM    2  N2  UNL     1       6.363  38.447  77.151  1.00  0.00    -0.176 N 
ATOM      3  H2  UNL     1       5.893  38.611  78.041  1.00  0.00     0.186 HD
HETATM    4  C3  UNL     1       5.788  38.874  76.025  1.00  0.00     0.679 A 
HETATM    5  N5  UNL     1       6.426  38.648  74.860  1.00  0.00    -0.195 N 
ATOM      6  H5  UNL     1       5.996  38.968  73.992  1.00  0.00     0.184 HD
HETATM    7  C11 UNL     1       7.625  38.005  74.805  1.00  0.00     0.036 A 
HETATM    8  C12 UNL     1       8.237  37.559  75.948  1.00  0.00     0.009 A 
HETATM    9  C13 UNL     1       9.539  36.872  76.034  1.00  0.00     0.044 C 
HETATM   10  C14 UNL     1       9.615  35.472  75.590  1.00  0.00     0.005 C 
HETATM   11  C15 UNL     1       8.467  34.577  75.940  1.00  0.00     0.000 C 
HETATM   12  C16 UNL     1       8.556  33.356  75.054  1.00  0.00     0.000 C 
HETATM   13  C17 UNL     1       7.232  32.832  74.599  1.00  0.00     0.000 C 
HETATM   14  C18 UNL     1       6.334  33.834  73.958  1.00  0.00     0.000 C 
HETATM   15  C19 UNL     1       6.996  34.694  72.909  1.00  0.00     0.000 C 
HETATM   16  C20 UNL     1       6.401  36.081  73.063  1.00  0.00     0.000 C 
HETATM   17  C21 UNL     1       7.218  37.177  72.485  1.00  0.00     0.006 C 
HETATM   18  C22 UNL     1       8.182  37.842  73.440  1.00  0.00     0.058 C 
ENDROOT
BRANCH   4  19
HETATM   19  N3  UNL     1       4.650  39.486  76.063  1.00  0.00    -0.226 N 
ATOM     20  H3  UNL     1       3.873  39.033  76.544  1.00  0.00     0.177 HD
BRANCH  19  21
HETATM   21  C4  UNL     1       4.428  40.762  75.468  1.00  0.00     0.140 C 
BRANCH  21  22
HETATM   22  C5  UNL     1       3.743  41.702  76.440  1.00  0.00     0.050 C 
BRANCH  22  23
HETATM   23  C6  UNL     1       2.463  41.011  76.896  1.00  0.00     0.274 C 
BRANCH  23  24
HETATM   24  N4  UNL     1       1.787  41.766  77.893  1.00  0.00     0.092 N 
HETATM   25  C7  UNL     1       1.780  43.180  77.711  1.00  0.00     0.298 C 
HETATM   26  C8  UNL     1       1.097  43.786  78.930  1.00  0.00     0.198 C 
HETATM   27  O1  UNL     1      -0.194  43.272  79.073  1.00  0.00    -0.388 OA
HETATM   28  C9  UNL     1      -0.071  41.930  79.428  1.00  0.00     0.198 C 
HETATM   29  C10 UNL     1       0.512  41.211  78.210  1.00  0.00     0.298 C 
ENDBRANCH  23  24
ENDBRANCH  22  23
ENDBRANCH  21  22
ENDBRANCH  19  21
ENDBRANCH   4  19
BRANCH   1  30
HETATM   30  N1  UNL     1       8.067  37.413  78.236  1.00  0.00    -0.380 N 
HETATM   31  C1  UNL     1       7.361  36.452  79.053  1.00  0.00     0.147 C 
ATOM     32  H1  UNL     1       8.975  37.773  78.533  1.00  0.00     0.160 HD
ENDBRANCH   1  30
TORSDOF 6
ENDMDL
MODEL 4
REMARK VINA RESULT: -6.850405551      3.307      5.884
REMARK  6 active torsions:
REMARK  status: ('A' for Active; 'I' for Inactive)
REMARK    1  A    between atoms: N1_2  and  C2_4 
REMARK    2  A    between atoms: C3_7  and  N3_8 
REMARK    3  A    between atoms: N3_8  and  C4_10 
REMARK    4  A    between atoms: C4_10  and  C5_11 
REMARK    5  A    between atoms: C5_11  and  C6_12 
REMARK    6  A    between atoms: C6_12  and  N4_13 
ROOT
HETATM    1  C2  UNL     1       7.403  38.342  74.044  1.00  0.00     0.124 A 
HETATM    2  N2  UNL     1       6.398  39.196  74.313  1.00  0.00    -0.176 N 
ATOM      3  H2  UNL     1       6.465  40.160  73.987  1.00  0.00     0.186 HD
HETATM    4  C3  UNL     1       5.316  38.816  74.996  1.00  0.00     0.679 A 
HETATM    5  N5  UNL     1       5.247  37.539  75.419  1.00  0.00    -0.195 N 
ATOM      6  H5  UNL     1       4.426  37.236  75.942  1.00  0.00     0.184 HD
HETATM    7  C11 UNL     1       6.240  36.640  75.170  1.00  0.00     0.036 A 
HETATM    8  C12 UNL     1       7.361  37.006  74.469  1.00  0.00     0.009 A 
HETATM    9  C13 UNL     1       8.494  36.134  74.112  1.00  0.00     0.044 C 
HETATM   10  C14 UNL     1       9.432  35.744  75.176  1.00  0.00     0.005 C 
HETATM   11  C15 UNL     1       9.803  36.791  76.180  1.00  0.00     0.000 C 
HETATM   12  C16 UNL     1      10.409  36.083  77.370  1.00  0.00     0.000 C 
HETATM   13  C17 UNL     1      10.056  36.692  78.689  1.00  0.00     0.000 C 
HETATM   14  C18 UNL     1       8.600  36.892  78.931  1.00  0.00     0.000 C 
HETATM   15  C19 UNL     1       7.737  35.696  78.608  1.00  0.00     0.000 C 
HETATM   16  C20 UNL     1       6.459  36.248  78.004  1.00  0.00     0.000 C 
HETATM   17  C21 UNL     1       5.687  35.279  77.188  1.00  0.00     0.006 C 
HETATM   18  C22 UNL     1       5.998  35.280  75.709  1.00  0.00     0.058 C 
ENDROOT
BRANCH   4  19
HETATM   19  N3  UNL     1       4.366  39.659  75.238  1.00  0.00    -0.226 N 
ATOM     20  H3  UNL     1       3.429  39.296  75.408  1.00  0.00     0.177 HD
BRANCH  19  21
HETATM   21  C4  UNL     1       4.565  41.070  75.281  1.00  0.00     0.140 C 
BRANCH  21  22
HETATM   22  C5  UNL     1       3.978  41.662  76.547  1.00  0.00     0.050 C 
BRANCH  22  23
HETATM   23  C6  UNL     1       2.640  40.970  76.780  1.00  0.00     0.274 C 
BRANCH  23  24
HETATM   24  N4  UNL     1       1.720  41.822  77.449  1.00  0.00     0.092 N 
HETATM   25  C7  UNL     1       1.108  41.287  78.620  1.00  0.00     0.298 C 
HETATM   26  C8  UNL     1       0.100  42.318  79.111  1.00  0.00     0.198 C 
HETATM   27  O1  UNL     1       0.733  43.537  79.364  1.00  0.00    -0.388 OA
HETATM   28  C9  UNL     1       1.133  44.062  78.137  1.00  0.00     0.198 C 
HETATM   29  C10 UNL     1       2.236  43.142  77.611  1.00  0.00     0.298 C 
ENDBRANCH  23  24
ENDBRANCH  22  23
ENDBRANCH  21  22
ENDBRANCH  19  21
ENDBRANCH   4  19
BRANCH   1  30
HETATM   30  N1  UNL     1       8.421  38.738  73.393  1.00  0.00    -0.380 N 
HETATM   31  C1  UNL     1       8.309  38.966  71.970  1.00  0.00     0.147 C 
ATOM     32  H1  UNL     1       9.309  38.894  73.870  1.00  0.00     0.160 HD
ENDBRANCH   1  30
TORSDOF 6
ENDMDL
MODEL 5
REMARK VINA RESULT: -6.802426084      2.797      3.856
REMARK  6 active torsions:
REMARK  status: ('A' for Active; 'I' for Inactive)
REMARK    1  A    between atoms: N1_2  and  C2_4 
REMARK    2  A    between atoms: C3_7  and  N3_8 
REMARK    3  A    between atoms: N3_8  and  C4_10 
REMARK    4  A    between atoms: C4_10  and  C5_11 
REMARK    5  A    between atoms: C5_11  and  C6_12 
REMARK    6  A    between atoms: C6_12  and  N4_13 
ROOT
HETATM    1  C2  UNL     1       6.261  38.264  75.682  1.00  0.00     0.124 A 
HETATM    2  N2  UNL     1       6.767  38.314  76.929  1.00  0.00    -0.176 N 
ATOM      3  H2  UNL     1       6.471  39.063  77.555  1.00  0.00     0.186 HD
HETATM    4  C3  UNL     1       7.645  37.411  77.368  1.00  0.00     0.679 A 
HETATM    5  N5  UNL     1       8.024  36.431  76.525  1.00  0.00    -0.195 N 
ATOM      6  H5  UNL     1       8.696  35.734  76.848  1.00  0.00     0.184 HD
HETATM    7  C11 UNL     1       7.539  36.341  75.256  1.00  0.00     0.036 A 
HETATM    8  C12 UNL     1       6.634  37.255  74.782  1.00  0.00     0.009 A 
HETATM    9  C13 UNL     1       6.015  37.263  73.444  1.00  0.00     0.044 C 
HETATM   10  C14 UNL     1       6.843  37.668  72.299  1.00  0.00     0.005 C 
HETATM   11  C15 UNL     1       7.787  38.812  72.504  1.00  0.00     0.000 C 
HETATM   12  C16 UNL     1       8.796  38.776  71.380  1.00  0.00     0.000 C 
HETATM   13  C17 UNL     1      10.182  39.160  71.789  1.00  0.00     0.000 C 
HETATM   14  C18 UNL     1      10.730  38.419  72.959  1.00  0.00     0.000 C 
HETATM   15  C19 UNL     1      10.550  36.922  72.899  1.00  0.00     0.000 C 
HETATM   16  C20 UNL     1      10.248  36.476  74.317  1.00  0.00     0.000 C 
HETATM   17  C21 UNL     1       9.575  35.157  74.426  1.00  0.00     0.006 C 
HETATM   18  C22 UNL     1       8.065  35.199  74.468  1.00  0.00     0.058 C 
ENDROOT
BRANCH   4  19
HETATM   19  N3  UNL     1       8.113  37.484  78.571  1.00  0.00    -0.226 N 
ATOM     20  H3  UNL     1       7.546  37.944  79.283  1.00  0.00     0.177 HD
BRANCH  19  21
HETATM   21  C4  UNL     1       9.381  36.955  78.951  1.00  0.00     0.140 C 
BRANCH  21  22
HETATM   22  C5  UNL     1       9.370  36.507  80.399  1.00  0.00     0.050 C 
BRANCH  22  23
HETATM   23  C6  UNL     1       8.749  35.115  80.426  1.00  0.00     0.274 C 
BRANCH  23  24
HETATM   24  N4  UNL     1       9.636  34.158  80.990  1.00  0.00     0.092 N 
HETATM   25  C7  UNL     1      10.257  33.262  80.071  1.00  0.00     0.298 C 
HETATM   26  C8  UNL     1      11.076  32.275  80.893  1.00  0.00     0.198 C 
HETATM   27  O1  UNL     1      12.013  32.950  81.677  1.00  0.00    -0.388 OA
HETATM   28  C9  UNL     1      11.311  33.650  82.655  1.00  0.00     0.198 C 
HETATM   29  C10 UNL     1      10.533  34.749  81.928  1.00  0.00     0.298 C 
ENDBRANCH  23  24
ENDBRANCH  22  23
ENDBRANCH  21  22
ENDBRANCH  19  21
ENDBRANCH   4  19
BRANCH   1  30
HETATM   30  N1  UNL     1       5.427  39.143  75.296  1.00  0.00    -0.380 N 
HETATM   31  C1  UNL     1       4.262  39.422  76.106  1.00  0.00     0.147 C 
ATOM     32  H1  UNL     1       5.577  39.646  74.421  1.00  0.00     0.160 HD
ENDBRANCH   1  30
TORSDOF 6
ENDMDL
