MODEL 1
REMARK VINA RESULT: -5.299603691      0.000      0.000
REMARK  1 active torsions:
REMARK  status: ('A' for Active; 'I' for Inactive)
REMARK    1  A    between atoms: C3_7  and  O4_8 
ROOT
HETATM    1  O1  UNL     1      29.993   9.432  35.657  1.00  0.00    -0.196 OA
HETATM    2  S1  UNL     1      30.991   8.866  36.620  1.00  0.00     0.306 S 
HETATM    3  O2  UNL     1      31.458   9.918  37.841  1.00  0.00    -0.271 OA
HETATM    4  C1  UNL     1      30.855   9.600  39.082  1.00  0.00     0.224 C 
HETATM    5  C2  UNL     1      29.745   8.671  38.798  1.00  0.00     0.180 C 
HETATM    6  O3  UNL     1      28.872   8.435  39.834  1.00  0.00    -0.351 OA
HETATM    7  C3  UNL     1      27.989   7.525  39.205  1.00  0.00     0.260 C 
HETATM    8  C4  UNL     1      28.876   6.509  38.524  1.00  0.00     0.096 C 
HETATM    9  C5  UNL     1      30.195   7.275  38.436  1.00  0.00     0.178 C 
HETATM   10  O5  UNL     1      30.654   7.308  37.142  1.00  0.00    -0.266 OA
ENDROOT
BRANCH   7  11
HETATM   11  O4  UNL     1      27.084   6.982  40.074  1.00  0.00    -0.371 OA
ATOM     12  H4  UNL     1      26.414   6.473  39.634  1.00  0.00     0.212 HD
ENDBRANCH   7  11
TORSDOF 1
ENDMDL
MODEL 2
REMARK VINA RESULT: -5.210212762      1.862      3.609
REMARK  1 active torsions:
REMARK  status: ('A' for Active; 'I' for Inactive)
REMARK    1  A    between atoms: C3_7  and  O4_8 
ROOT
HETATM    1  O1  UNL     1      31.959   5.350  38.888  1.00  0.00    -0.196 OA
HETATM    2  S1  UNL     1      30.897   5.699  37.890  1.00  0.00     0.306 S 
HETATM    3  O2  UNL     1      29.331   5.639  38.487  1.00  0.00    -0.271 OA
HETATM    4  C1  UNL     1      28.799   6.929  38.729  1.00  0.00     0.224 C 
HETATM    5  C2  UNL     1      29.932   7.874  38.711  1.00  0.00     0.180 C 
HETATM    6  O3  UNL     1      29.671   9.142  39.173  1.00  0.00    -0.351 OA
HETATM    7  C3  UNL     1      30.945   9.732  38.997  1.00  0.00     0.260 C 
HETATM    8  C4  UNL     1      31.376   9.352  37.600  1.00  0.00     0.096 C 
HETATM    9  C5  UNL     1      30.480   8.144  37.330  1.00  0.00     0.178 C 
HETATM   10  O5  UNL     1      31.231   7.054  36.960  1.00  0.00    -0.266 OA
ENDROOT
BRANCH   7  11
HETATM   11  O4  UNL     1      30.940  11.078  39.233  1.00  0.00    -0.371 OA
ATOM     12  H4  UNL     1      30.190  11.359  39.743  1.00  0.00     0.212 HD
ENDBRANCH   7  11
TORSDOF 1
ENDMDL
MODEL 3
REMARK VINA RESULT: -5.127681679      9.824     11.063
REMARK  1 active torsions:
REMARK  status: ('A' for Active; 'I' for Inactive)
REMARK    1  A    between atoms: C3_7  and  O4_8 
ROOT
HETATM    1  O1  UNL     1      29.748   0.898  45.762  1.00  0.00    -0.196 OA
HETATM    2  S1  UNL     1      29.737  -0.563  45.429  1.00  0.00     0.306 S 
HETATM    3  O2  UNL     1      28.527  -1.443  46.186  1.00  0.00    -0.271 OA
HETATM    4  C1  UNL     1      27.465  -1.764  45.307  1.00  0.00     0.224 C 
HETATM    5  C2  UNL     1      27.618  -0.908  44.115  1.00  0.00     0.180 C 
HETATM    6  O3  UNL     1      26.551  -0.880  43.249  1.00  0.00    -0.351 OA
HETATM    7  C3  UNL     1      27.058   0.006  42.268  1.00  0.00     0.260 C 
HETATM    8  C4  UNL     1      28.454  -0.486  41.964  1.00  0.00     0.096 C 
HETATM    9  C5  UNL     1      28.754  -1.319  43.209  1.00  0.00     0.178 C 
HETATM   10  O5  UNL     1      29.926  -0.909  43.798  1.00  0.00    -0.266 OA
ENDROOT
BRANCH   7  11
HETATM   11  O4  UNL     1      26.248   0.097  41.171  1.00  0.00    -0.371 OA
ATOM     12  H4  UNL     1      25.723  -0.683  41.036  1.00  0.00     0.212 HD
ENDBRANCH   7  11
TORSDOF 1
ENDMDL
MODEL 4
REMARK VINA RESULT: -5.123560073      8.005      9.095
REMARK  1 active torsions:
REMARK  status: ('A' for Active; 'I' for Inactive)
REMARK    1  A    between atoms: C3_7  and  O4_8 
ROOT
HETATM    1  O1  UNL     1      26.558  -0.145  41.885  1.00  0.00    -0.196 OA
HETATM    2  S1  UNL     1      26.902   1.309  41.763  1.00  0.00     0.306 S 
HETATM    3  O2  UNL     1      25.871   2.343  42.587  1.00  0.00    -0.271 OA
HETATM    4  C1  UNL     1      26.449   2.838  43.780  1.00  0.00     0.224 C 
HETATM    5  C2  UNL     1      27.624   1.996  44.074  1.00  0.00     0.180 C 
HETATM    6  O3  UNL     1      28.182   2.148  45.321  1.00  0.00    -0.351 OA
HETATM    7  C3  UNL     1      29.245   1.219  45.226  1.00  0.00     0.260 C 
HETATM    8  C4  UNL     1      29.911   1.503  43.899  1.00  0.00     0.096 C 
HETATM    9  C5  UNL     1      28.801   2.253  43.164  1.00  0.00     0.178 C 
HETATM   10  O5  UNL     1      28.531   1.659  41.955  1.00  0.00    -0.266 OA
ENDROOT
BRANCH   7  11
HETATM   11  O4  UNL     1      30.092   1.274  46.297  1.00  0.00    -0.371 OA
ATOM     12  H4  UNL     1      30.017   0.515  46.864  1.00  0.00     0.212 HD
ENDBRANCH   7  11
TORSDOF 1
ENDMDL
MODEL 5
REMARK VINA RESULT: -5.107143965      1.881      4.018
REMARK  1 active torsions:
REMARK  status: ('A' for Active; 'I' for Inactive)
REMARK    1  A    between atoms: C3_7  and  O4_8 
ROOT
HETATM    1  O1  UNL     1      27.099   7.636  39.525  1.00  0.00    -0.196 OA
HETATM    2  S1  UNL     1      28.469   7.658  40.131  1.00  0.00     0.306 S 
HETATM    3  O2  UNL     1      29.296   6.202  40.044  1.00  0.00    -0.271 OA
HETATM    4  C1  UNL     1      30.301   6.214  39.047  1.00  0.00     0.224 C 
HETATM    5  C2  UNL     1      30.040   7.382  38.184  1.00  0.00     0.180 C 
HETATM    6  O3  UNL     1      30.749   7.437  37.008  1.00  0.00    -0.351 OA
HETATM    7  C3  UNL     1      30.252   8.653  36.481  1.00  0.00     0.260 C 
HETATM    8  C4  UNL     1      30.319   9.642  37.621  1.00  0.00     0.096 C 
HETATM    9  C5  UNL     1      30.384   8.705  38.826  1.00  0.00     0.178 C 
HETATM   10  O5  UNL     1      29.390   9.001  39.727  1.00  0.00    -0.266 OA
ENDROOT
BRANCH   7  11
HETATM   11  O4  UNL     1      30.919   9.052  35.357  1.00  0.00    -0.371 OA
ATOM     12  H4  UNL     1      31.678   8.513  35.169  1.00  0.00     0.212 HD
ENDBRANCH   7  11
TORSDOF 1
ENDMDL
