MODEL 1
REMARK VINA RESULT: -5.787911399      0.000      0.000
REMARK  1 active torsions:
REMARK  status: ('A' for Active; 'I' for Inactive)
REMARK    1  A    between atoms: O1_1  and  C1_3 
ROOT
HETATM    1  C1  UNL     1      28.073   6.714  39.983  1.00  0.00     0.143 C 
HETATM    2  C2  UNL     1      28.230   5.368  39.282  1.00  0.00     0.202 C 
HETATM    3  O2  UNL     1      29.589   5.158  38.939  1.00  0.00    -0.355 OA
HETATM    4  C3  UNL     1      29.858   6.024  37.922  1.00  0.00     0.312 C 
HETATM    5  O3  UNL     1      31.134   6.064  37.444  1.00  0.00    -0.204 OA
HETATM    6  O4  UNL     1      31.357   7.224  36.917  1.00  0.00    -0.204 OA
HETATM    7  C4  UNL     1      30.579   8.189  37.562  1.00  0.00     0.312 C 
HETATM    8  O5  UNL     1      31.239   8.834  38.614  1.00  0.00    -0.356 OA
HETATM    9  C5  UNL     1      30.897   7.761  39.463  1.00  0.00     0.191 C 
HETATM   10  C6  UNL     1      29.791   7.431  38.517  1.00  0.00     0.089 C 
HETATM   11  C7  UNL     1      28.446   7.789  38.949  1.00  0.00     0.055 C 
ENDROOT
BRANCH   1  12
HETATM   12  O1  UNL     1      26.815   6.867  40.475  1.00  0.00    -0.393 OA
ATOM     13  H1  UNL     1      26.832   7.058  41.405  1.00  0.00     0.210 HD
ENDBRANCH   1  12
TORSDOF 1
ENDMDL
MODEL 2
REMARK VINA RESULT: -5.516961143      1.747      2.834
REMARK  1 active torsions:
REMARK  status: ('A' for Active; 'I' for Inactive)
REMARK    1  A    between atoms: O1_1  and  C1_3 
ROOT
HETATM    1  C1  UNL     1      28.811   6.631  38.706  1.00  0.00     0.143 C 
HETATM    2  C2  UNL     1      29.118   7.305  40.041  1.00  0.00     0.202 C 
HETATM    3  O2  UNL     1      29.175   8.710  39.871  1.00  0.00    -0.355 OA
HETATM    4  C3  UNL     1      30.320   8.958  39.175  1.00  0.00     0.312 C 
HETATM    5  O3  UNL     1      30.582  10.249  38.824  1.00  0.00    -0.204 OA
HETATM    6  O4  UNL     1      31.341  10.262  37.777  1.00  0.00    -0.204 OA
HETATM    7  C4  UNL     1      31.092   9.126  37.004  1.00  0.00     0.312 C 
HETATM    8  O5  UNL     1      30.144   9.326  35.995  1.00  0.00    -0.356 OA
HETATM    9  C5  UNL     1      29.119   9.105  36.938  1.00  0.00     0.191 C 
HETATM   10  C6  UNL     1      30.116   8.377  37.775  1.00  0.00     0.089 C 
HETATM   11  C7  UNL     1      30.009   6.924  37.787  1.00  0.00     0.055 C 
ENDROOT
BRANCH   1  12
HETATM   12  O1  UNL     1      28.581   5.301  38.869  1.00  0.00    -0.393 OA
ATOM     13  H1  UNL     1      27.974   5.144  39.582  1.00  0.00     0.210 HD
ENDBRANCH   1  12
TORSDOF 1
ENDMDL
MODEL 3
REMARK VINA RESULT: -5.454536274      1.753      2.147
REMARK  1 active torsions:
REMARK  status: ('A' for Active; 'I' for Inactive)
REMARK    1  A    between atoms: O1_1  and  C1_3 
ROOT
HETATM    1  C1  UNL     1      30.341   6.766  40.037  1.00  0.00     0.143 C 
HETATM    2  C2  UNL     1      30.770   5.870  38.879  1.00  0.00     0.202 C 
HETATM    3  O2  UNL     1      31.540   6.615  37.952  1.00  0.00    -0.355 OA
HETATM    4  C3  UNL     1      30.668   7.458  37.331  1.00  0.00     0.312 C 
HETATM    5  O3  UNL     1      31.175   8.338  36.422  1.00  0.00    -0.204 OA
HETATM    6  O4  UNL     1      30.391   9.363  36.337  1.00  0.00    -0.204 OA
HETATM    7  C4  UNL     1      29.747   9.564  37.560  1.00  0.00     0.312 C 
HETATM    8  O5  UNL     1      30.404  10.469  38.401  1.00  0.00    -0.356 OA
HETATM    9  C5  UNL     1      31.248   9.425  38.835  1.00  0.00     0.191 C 
HETATM   10  C6  UNL     1      30.202   8.461  38.387  1.00  0.00     0.089 C 
HETATM   11  C7  UNL     1      29.410   7.834  39.438  1.00  0.00     0.055 C 
ENDROOT
BRANCH   1  12
HETATM   12  O1  UNL     1      29.749   6.042  41.024  1.00  0.00    -0.393 OA
ATOM     13  H1  UNL     1      29.754   6.516  41.847  1.00  0.00     0.210 HD
ENDBRANCH   1  12
TORSDOF 1
ENDMDL
MODEL 4
REMARK VINA RESULT: -5.426314354      1.066      1.083
REMARK  1 active torsions:
REMARK  status: ('A' for Active; 'I' for Inactive)
REMARK    1  A    between atoms: O1_1  and  C1_3 
ROOT
HETATM    1  C1  UNL     1      28.168   6.508  40.697  1.00  0.00     0.143 C 
HETATM    2  C2  UNL     1      28.463   5.289  39.827  1.00  0.00     0.202 C 
HETATM    3  O2  UNL     1      29.636   5.512  39.065  1.00  0.00    -0.355 OA
HETATM    4  C3  UNL     1      29.302   6.439  38.124  1.00  0.00     0.312 C 
HETATM    5  O3  UNL     1      30.286   6.878  37.288  1.00  0.00    -0.204 OA
HETATM    6  O4  UNL     1      29.986   8.060  36.859  1.00  0.00    -0.204 OA
HETATM    7  C4  UNL     1      29.221   8.727  37.819  1.00  0.00     0.312 C 
HETATM    8  O5  UNL     1      29.975   9.523  38.688  1.00  0.00    -0.356 OA
HETATM    9  C5  UNL     1      30.248   8.380  39.468  1.00  0.00     0.191 C 
HETATM   10  C6  UNL     1      29.037   7.746  38.873  1.00  0.00     0.089 C 
HETATM   11  C7  UNL     1      27.862   7.666  39.732  1.00  0.00     0.055 C 
ENDROOT
BRANCH   1  12
HETATM   12  O1  UNL     1      27.150   6.258  41.562  1.00  0.00    -0.393 OA
ATOM     13  H1  UNL     1      26.627   5.519  41.272  1.00  0.00     0.210 HD
ENDBRANCH   1  12
TORSDOF 1
ENDMDL
MODEL 5
REMARK VINA RESULT: -5.398726057      7.655      8.704
REMARK  1 active torsions:
REMARK  status: ('A' for Active; 'I' for Inactive)
REMARK    1  A    between atoms: O1_1  and  C1_3 
ROOT
HETATM    1  C1  UNL     1      28.582   1.033  44.535  1.00  0.00     0.143 C 
HETATM    2  C2  UNL     1      27.783   2.226  44.018  1.00  0.00     0.202 C 
HETATM    3  O2  UNL     1      26.609   1.774  43.367  1.00  0.00    -0.355 OA
HETATM    4  C3  UNL     1      27.022   1.201  42.202  1.00  0.00     0.312 C 
HETATM    5  O3  UNL     1      26.075   0.626  41.407  1.00  0.00    -0.204 OA
HETATM    6  O4  UNL     1      26.627  -0.290  40.679  1.00  0.00    -0.204 OA
HETATM    7  C4  UNL     1      27.719  -0.834  41.359  1.00  0.00     0.312 C 
HETATM    8  O5  UNL     1      27.410  -1.980  42.098  1.00  0.00    -0.356 OA
HETATM    9  C5  UNL     1      26.961  -1.157  43.152  1.00  0.00     0.191 C 
HETATM   10  C6  UNL     1      27.797  -0.060  42.585  1.00  0.00     0.089 C 
HETATM   11  C7  UNL     1      29.033   0.242  43.296  1.00  0.00     0.055 C 
ENDROOT
BRANCH   1  12
HETATM   12  O1  UNL     1      29.623   1.439  45.310  1.00  0.00    -0.393 OA
ATOM     13  H1  UNL     1      29.984   0.714  45.806  1.00  0.00     0.210 HD
ENDBRANCH   1  12
TORSDOF 1
ENDMDL
