MODEL 1
REMARK VINA RESULT: -9.108105792      0.000      0.000
REMARK  7 active torsions:
REMARK  status: ('A' for Active; 'I' for Inactive)
REMARK    1  A    between atoms: S1_2  and  C2_3 
REMARK    2  A    between atoms: C2_3  and  C3_4 
REMARK    3  A    between atoms: C3_4  and  C4_5 
REMARK    4  A    between atoms: C4_5  and  N1_6 
REMARK    5  A    between atoms: C4_5  and  C19_28 
REMARK       I    between atoms: N1_6  and  C5_8 
REMARK    6  A    between atoms: C5_8  and  C6_10 
REMARK    7  A    between atoms: C7_11  and  O2_12 
ROOT
HETATM    1  C6  UNL     1      -4.254 -20.905  20.517  1.00  0.00     0.141 A 
HETATM    2  C7  UNL     1      -4.675 -21.724  21.597  1.00  0.00     0.100 A 
HETATM    3  C8  UNL     1      -5.967 -21.675  22.034  1.00  0.00     0.034 A 
HETATM    4  C9  UNL     1      -6.435 -22.445  23.077  1.00  0.00     0.026 A 
HETATM    5  C10 UNL     1      -7.752 -22.396  23.521  1.00  0.00    -0.026 A 
HETATM    6  C11 UNL     1      -8.204 -23.253  24.656  1.00  0.00     0.051 C 
HETATM    7  C12 UNL     1      -8.600 -21.528  22.867  1.00  0.00     0.094 A 
HETATM    8  O3  UNL     1      -9.876 -21.264  23.056  1.00  0.00    -0.321 OA
HETATM    9  C13 UNL     1     -10.265 -20.353  22.179  1.00  0.00     0.150 A 
HETATM   10  C14 UNL     1      -9.195 -20.003  21.379  1.00  0.00    -0.024 A 
HETATM   11  C15 UNL     1      -9.182 -19.018  20.269  1.00  0.00     0.051 C 
HETATM   12  C16 UNL     1      -8.135 -20.761  21.831  1.00  0.00     0.041 A 
HETATM   13  C17 UNL     1      -6.822 -20.807  21.382  1.00  0.00     0.106 A 
HETATM   14  O4  UNL     1      -6.405 -20.068  20.395  1.00  0.00    -0.273 OA
HETATM   15  C18 UNL     1      -5.154 -20.079  19.931  1.00  0.00     0.307 A 
HETATM   16  O5  UNL     1      -4.888 -19.300  18.954  1.00  0.00    -0.259 OA
ENDROOT
BRANCH   1  17
HETATM   17  C5  UNL     1      -2.886 -21.003  20.107  1.00  0.00     0.261 C 
HETATM   18  N1  UNL     1      -2.414 -21.648  18.963  1.00  0.00    -0.342 N 
ATOM     19  H1  UNL     1      -3.076 -22.105  18.334  1.00  0.00     0.163 HD
HETATM   20  O1  UNL     1      -1.960 -20.458  20.833  1.00  0.00    -0.267 OA
BRANCH  18  21
HETATM   21  C4  UNL     1      -0.968 -21.679  18.648  1.00  0.00     0.186 C 
BRANCH  21  22
HETATM   22  C3  UNL     1      -0.394 -22.938  19.219  1.00  0.00     0.046 C 
BRANCH  22  23
HETATM   23  C2  UNL     1       0.886 -22.723  19.975  1.00  0.00     0.076 C 
BRANCH  23  24
HETATM   24  S1  UNL     1       0.645 -22.568  21.747  1.00  0.00    -0.173 SA
HETATM   25  C1  UNL     1      -0.487 -23.896  22.276  1.00  0.00     0.089 C 
ENDBRANCH  23  24
ENDBRANCH  22  23
ENDBRANCH  21  22
BRANCH  21  26
HETATM   26  C19 UNL     1      -0.770 -21.513  17.210  1.00  0.00     0.196 C 
HETATM   27  O6  UNL     1      -1.434 -20.718  16.495  1.00  0.00    -0.646 OA
HETATM   28  O7  UNL     1       0.206 -22.269  16.580  1.00  0.00    -0.646 OA
ENDBRANCH  21  26
ENDBRANCH  18  21
ENDBRANCH   1  17
BRANCH   2  29
HETATM   29  O2  UNL     1      -3.754 -22.563  22.191  1.00  0.00    -0.358 OA
ATOM     30  H2  UNL     1      -3.374 -23.263  21.673  1.00  0.00     0.217 HD
ENDBRANCH   2  29
TORSDOF 7
ENDMDL
MODEL 2
REMARK VINA RESULT: -8.556591312      3.816      6.678
REMARK  7 active torsions:
REMARK  status: ('A' for Active; 'I' for Inactive)
REMARK    1  A    between atoms: S1_2  and  C2_3 
REMARK    2  A    between atoms: C2_3  and  C3_4 
REMARK    3  A    between atoms: C3_4  and  C4_5 
REMARK    4  A    between atoms: C4_5  and  N1_6 
REMARK    5  A    between atoms: C4_5  and  C19_28 
REMARK       I    between atoms: N1_6  and  C5_8 
REMARK    6  A    between atoms: C5_8  and  C6_10 
REMARK    7  A    between atoms: C7_11  and  O2_12 
ROOT
HETATM    1  C6  UNL     1      -6.765 -23.929  23.813  1.00  0.00     0.141 A 
HETATM    2  C7  UNL     1      -5.875 -23.431  22.827  1.00  0.00     0.100 A 
HETATM    3  C8  UNL     1      -6.200 -22.317  22.107  1.00  0.00     0.034 A 
HETATM    4  C9  UNL     1      -5.377 -21.787  21.136  1.00  0.00     0.026 A 
HETATM    5  C10 UNL     1      -5.707 -20.651  20.404  1.00  0.00    -0.026 A 
HETATM    6  C11 UNL     1      -4.778 -20.121  19.364  1.00  0.00     0.051 C 
HETATM    7  C12 UNL     1      -6.918 -20.056  20.687  1.00  0.00     0.094 A 
HETATM    8  O3  UNL     1      -7.495 -18.992  20.170  1.00  0.00    -0.321 OA
HETATM    9  C13 UNL     1      -8.663 -18.802  20.763  1.00  0.00     0.150 A 
HETATM   10  C14 UNL     1      -8.861 -19.787  21.710  1.00  0.00    -0.024 A 
HETATM   11  C15 UNL     1     -10.032 -19.958  22.605  1.00  0.00     0.051 C 
HETATM   12  C16 UNL     1      -7.737 -20.584  21.651  1.00  0.00     0.041 A 
HETATM   13  C17 UNL     1      -7.412 -21.716  22.386  1.00  0.00     0.106 A 
HETATM   14  O4  UNL     1      -8.207 -22.198  23.297  1.00  0.00    -0.273 OA
HETATM   15  C18 UNL     1      -7.937 -23.282  24.027  1.00  0.00     0.307 A 
HETATM   16  O5  UNL     1      -8.812 -23.639  24.887  1.00  0.00    -0.259 OA
ENDROOT
BRANCH   1  17
HETATM   17  C5  UNL     1      -6.366 -25.101  24.533  1.00  0.00     0.261 C 
HETATM   18  N1  UNL     1      -5.394 -25.161  25.532  1.00  0.00    -0.342 N 
ATOM     19  H1  UNL     1      -4.898 -24.311  25.802  1.00  0.00     0.163 HD
HETATM   20  O1  UNL     1      -6.933 -26.236  24.270  1.00  0.00    -0.267 OA
BRANCH  18  21
HETATM   21  C4  UNL     1      -5.072 -26.439  26.204  1.00  0.00     0.186 C 
BRANCH  21  22
HETATM   22  C3  UNL     1      -3.890 -27.045  25.512  1.00  0.00     0.046 C 
BRANCH  22  23
HETATM   23  C2  UNL     1      -2.783 -26.065  25.250  1.00  0.00     0.076 C 
BRANCH  23  24
HETATM   24  S1  UNL     1      -1.339 -26.335  26.281  1.00  0.00    -0.173 SA
HETATM   25  C1  UNL     1      -1.399 -25.135  27.654  1.00  0.00     0.089 C 
ENDBRANCH  23  24
ENDBRANCH  22  23
ENDBRANCH  21  22
BRANCH  21  26
HETATM   26  C19 UNL     1      -4.893 -26.216  27.637  1.00  0.00     0.196 C 
HETATM   27  O6  UNL     1      -5.273 -25.178  28.240  1.00  0.00    -0.646 OA
HETATM   28  O7  UNL     1      -4.270 -27.197  28.393  1.00  0.00    -0.646 OA
ENDBRANCH  21  26
ENDBRANCH  18  21
ENDBRANCH   1  17
BRANCH   2  29
HETATM   29  O2  UNL     1      -4.684 -24.094  22.613  1.00  0.00    -0.358 OA
ATOM     30  H2  UNL     1      -3.869 -23.625  22.751  1.00  0.00     0.217 HD
ENDBRANCH   2  29
TORSDOF 7
ENDMDL
MODEL 3
REMARK VINA RESULT: -8.535921786      1.007      1.166
REMARK  7 active torsions:
REMARK  status: ('A' for Active; 'I' for Inactive)
REMARK    1  A    between atoms: S1_2  and  C2_3 
REMARK    2  A    between atoms: C2_3  and  C3_4 
REMARK    3  A    between atoms: C3_4  and  C4_5 
REMARK    4  A    between atoms: C4_5  and  N1_6 
REMARK    5  A    between atoms: C4_5  and  C19_28 
REMARK       I    between atoms: N1_6  and  C5_8 
REMARK    6  A    between atoms: C5_8  and  C6_10 
REMARK    7  A    between atoms: C7_11  and  O2_12 
ROOT
HETATM    1  C6  UNL     1      -4.398 -20.893  20.871  1.00  0.00     0.141 A 
HETATM    2  C7  UNL     1      -4.888 -21.668  21.953  1.00  0.00     0.100 A 
HETATM    3  C8  UNL     1      -6.215 -21.638  22.274  1.00  0.00     0.034 A 
HETATM    4  C9  UNL     1      -6.751 -22.368  23.314  1.00  0.00     0.026 A 
HETATM    5  C10 UNL     1      -8.103 -22.339  23.640  1.00  0.00    -0.026 A 
HETATM    6  C11 UNL     1      -8.627 -23.150  24.777  1.00  0.00     0.051 C 
HETATM    7  C12 UNL     1      -8.914 -21.533  22.869  1.00  0.00     0.094 A 
HETATM    8  O3  UNL     1     -10.208 -21.302  22.933  1.00  0.00    -0.321 OA
HETATM    9  C13 UNL     1     -10.544 -20.451  21.977  1.00  0.00     0.150 A 
HETATM   10  C14 UNL     1      -9.418 -20.108  21.254  1.00  0.00    -0.024 A 
HETATM   11  C15 UNL     1      -9.336 -19.183  20.097  1.00  0.00     0.051 C 
HETATM   12  C16 UNL     1      -8.382 -20.808  21.836  1.00  0.00     0.041 A 
HETATM   13  C17 UNL     1      -7.033 -20.834  21.505  1.00  0.00     0.106 A 
HETATM   14  O4  UNL     1      -6.552 -20.134  20.518  1.00  0.00    -0.273 OA
HETATM   15  C18 UNL     1      -5.266 -20.128  20.164  1.00  0.00     0.307 A 
HETATM   16  O5  UNL     1      -4.937 -19.393  19.173  1.00  0.00    -0.259 OA
ENDROOT
BRANCH   1  17
HETATM   17  C5  UNL     1      -2.997 -20.968  20.585  1.00  0.00     0.261 C 
HETATM   18  N1  UNL     1      -2.325 -22.064  20.042  1.00  0.00    -0.342 N 
ATOM     19  H1  UNL     1      -2.847 -22.911  19.814  1.00  0.00     0.163 HD
HETATM   20  O1  UNL     1      -2.238 -19.947  20.836  1.00  0.00    -0.267 OA
BRANCH  18  21
HETATM   21  C4  UNL     1      -0.867 -22.015  19.794  1.00  0.00     0.186 C 
BRANCH  21  22
HETATM   22  C3  UNL     1      -0.180 -22.743  20.906  1.00  0.00     0.046 C 
BRANCH  22  23
HETATM   23  C2  UNL     1      -0.982 -23.885  21.461  1.00  0.00     0.076 C 
BRANCH  23  24
HETATM   24  S1  UNL     1      -0.277 -24.587  22.955  1.00  0.00    -0.173 SA
HETATM   25  C1  UNL     1      -1.653 -25.139  24.017  1.00  0.00     0.089 C 
ENDBRANCH  23  24
ENDBRANCH  22  23
ENDBRANCH  21  22
BRANCH  21  26
HETATM   26  C19 UNL     1      -0.575 -22.526  18.456  1.00  0.00     0.196 C 
HETATM   27  O6  UNL     1      -1.387 -22.488  17.495  1.00  0.00    -0.646 OA
HETATM   28  O7  UNL     1       0.669 -23.089  18.214  1.00  0.00    -0.646 OA
ENDBRANCH  21  26
ENDBRANCH  18  21
ENDBRANCH   1  17
BRANCH   2  29
HETATM   29  O2  UNL     1      -4.000 -22.445  22.669  1.00  0.00    -0.358 OA
ATOM     30  H2  UNL     1      -4.344 -23.112  23.251  1.00  0.00     0.217 HD
ENDBRANCH   2  29
TORSDOF 7
ENDMDL
MODEL 4
REMARK VINA RESULT: -8.489290662      1.037      2.913
REMARK  7 active torsions:
REMARK  status: ('A' for Active; 'I' for Inactive)
REMARK    1  A    between atoms: S1_2  and  C2_3 
REMARK    2  A    between atoms: C2_3  and  C3_4 
REMARK    3  A    between atoms: C3_4  and  C4_5 
REMARK    4  A    between atoms: C4_5  and  N1_6 
REMARK    5  A    between atoms: C4_5  and  C19_28 
REMARK       I    between atoms: N1_6  and  C5_8 
REMARK    6  A    between atoms: C5_8  and  C6_10 
REMARK    7  A    between atoms: C7_11  and  O2_12 
ROOT
HETATM    1  C6  UNL     1      -3.611 -21.929  21.166  1.00  0.00     0.141 A 
HETATM    2  C7  UNL     1      -4.675 -21.003  21.008  1.00  0.00     0.100 A 
HETATM    3  C8  UNL     1      -5.855 -21.194  21.666  1.00  0.00     0.034 A 
HETATM    4  C9  UNL     1      -6.924 -20.331  21.554  1.00  0.00     0.026 A 
HETATM    5  C10 UNL     1      -8.127 -20.525  22.225  1.00  0.00    -0.026 A 
HETATM    6  C11 UNL     1      -9.251 -19.557  22.065  1.00  0.00     0.051 C 
HETATM    7  C12 UNL     1      -8.220 -21.641  23.029  1.00  0.00     0.094 A 
HETATM    8  O3  UNL     1      -9.210 -22.085  23.774  1.00  0.00    -0.321 OA
HETATM    9  C13 UNL     1      -8.835 -23.204  24.372  1.00  0.00     0.150 A 
HETATM   10  C14 UNL     1      -7.540 -23.508  24.001  1.00  0.00    -0.024 A 
HETATM   11  C15 UNL     1      -6.727 -24.672  24.432  1.00  0.00     0.051 C 
HETATM   12  C16 UNL     1      -7.158 -22.500  23.141  1.00  0.00     0.041 A 
HETATM   13  C17 UNL     1      -5.955 -22.311  22.474  1.00  0.00     0.106 A 
HETATM   14  O4  UNL     1      -4.961 -23.142  22.597  1.00  0.00    -0.273 OA
HETATM   15  C18 UNL     1      -3.788 -23.001  21.977  1.00  0.00     0.307 A 
HETATM   16  O5  UNL     1      -2.902 -23.895  22.193  1.00  0.00    -0.259 OA
ENDROOT
BRANCH   1  17
HETATM   17  C5  UNL     1      -2.398 -21.672  20.449  1.00  0.00     0.261 C 
HETATM   18  N1  UNL     1      -1.784 -22.532  19.537  1.00  0.00    -0.342 N 
ATOM     19  H1  UNL     1      -2.207 -23.438  19.337  1.00  0.00     0.163 HD
HETATM   20  O1  UNL     1      -1.776 -20.549  20.627  1.00  0.00    -0.267 OA
BRANCH  18  21
HETATM   21  C4  UNL     1      -0.526 -22.147  18.858  1.00  0.00     0.186 C 
BRANCH  21  22
HETATM   22  C3  UNL     1       0.502 -23.193  19.154  1.00  0.00     0.046 C 
BRANCH  22  23
HETATM   23  C2  UNL     1       1.774 -22.638  19.729  1.00  0.00     0.076 C 
BRANCH  23  24
HETATM   24  S1  UNL     1       1.552 -21.879  21.339  1.00  0.00    -0.173 SA
HETATM   25  C1  UNL     1       0.565 -23.020  22.364  1.00  0.00     0.089 C 
ENDBRANCH  23  24
ENDBRANCH  22  23
ENDBRANCH  21  22
BRANCH  21  26
HETATM   26  C19 UNL     1      -0.779 -21.921  17.437  1.00  0.00     0.196 C 
HETATM   27  O6  UNL     1      -0.162 -22.509  16.511  1.00  0.00    -0.646 OA
HETATM   28  O7  UNL     1      -1.754 -21.007  17.069  1.00  0.00    -0.646 OA
ENDBRANCH  21  26
ENDBRANCH  18  21
ENDBRANCH   1  17
BRANCH   2  29
HETATM   29  O2  UNL     1      -4.489 -19.914  20.181  1.00  0.00    -0.358 OA
ATOM     30  H2  UNL     1      -3.750 -19.339  20.342  1.00  0.00     0.217 HD
ENDBRANCH   2  29
TORSDOF 7
ENDMDL
MODEL 5
REMARK VINA RESULT: -8.452230783      0.999      2.757
REMARK  7 active torsions:
REMARK  status: ('A' for Active; 'I' for Inactive)
REMARK    1  A    between atoms: S1_2  and  C2_3 
REMARK    2  A    between atoms: C2_3  and  C3_4 
REMARK    3  A    between atoms: C3_4  and  C4_5 
REMARK    4  A    between atoms: C4_5  and  N1_6 
REMARK    5  A    between atoms: C4_5  and  C19_28 
REMARK       I    between atoms: N1_6  and  C5_8 
REMARK    6  A    between atoms: C5_8  and  C6_10 
REMARK    7  A    between atoms: C7_11  and  O2_12 
ROOT
HETATM    1  C6  UNL     1      -4.266 -21.137  20.664  1.00  0.00     0.141 A 
HETATM    2  C7  UNL     1      -5.227 -20.431  19.895  1.00  0.00     0.100 A 
HETATM    3  C8  UNL     1      -6.535 -20.406  20.285  1.00  0.00     0.034 A 
HETATM    4  C9  UNL     1      -7.514 -19.739  19.580  1.00  0.00     0.026 A 
HETATM    5  C10 UNL     1      -8.847 -19.713  19.978  1.00  0.00    -0.026 A 
HETATM    6  C11 UNL     1      -9.864 -18.974  19.175  1.00  0.00     0.051 C 
HETATM    7  C12 UNL     1      -9.167 -20.395  21.132  1.00  0.00     0.094 A 
HETATM    8  O3  UNL     1     -10.320 -20.550  21.747  1.00  0.00    -0.321 OA
HETATM    9  C13 UNL     1     -10.138 -21.292  22.828  1.00  0.00     0.150 A 
HETATM   10  C14 UNL     1      -8.805 -21.639  22.925  1.00  0.00    -0.024 A 
HETATM   11  C15 UNL     1      -8.161 -22.462  23.977  1.00  0.00     0.051 C 
HETATM   12  C16 UNL     1      -8.195 -21.059  21.832  1.00  0.00     0.041 A 
HETATM   13  C17 UNL     1      -6.863 -21.088  21.441  1.00  0.00     0.106 A 
HETATM   14  O4  UNL     1      -5.958 -21.726  22.124  1.00  0.00    -0.273 OA
HETATM   15  C18 UNL     1      -4.668 -21.782  21.787  1.00  0.00     0.307 A 
HETATM   16  O5  UNL     1      -3.892 -22.446  22.554  1.00  0.00    -0.259 OA
ENDROOT
BRANCH   1  17
HETATM   17  C5  UNL     1      -2.910 -21.124  20.202  1.00  0.00     0.261 C 
HETATM   18  N1  UNL     1      -2.356 -21.988  19.256  1.00  0.00    -0.342 N 
ATOM     19  H1  UNL     1      -2.939 -22.710  18.832  1.00  0.00     0.163 HD
HETATM   20  O1  UNL     1      -2.082 -20.247  20.676  1.00  0.00    -0.267 OA
BRANCH  18  21
HETATM   21  C4  UNL     1      -0.935 -21.872  18.861  1.00  0.00     0.186 C 
BRANCH  21  22
HETATM   22  C3  UNL     1      -0.208 -23.076  19.375  1.00  0.00     0.046 C 
BRANCH  22  23
HETATM   23  C2  UNL     1      -1.082 -24.015  20.155  1.00  0.00     0.076 C 
BRANCH  23  24
HETATM   24  S1  UNL     1      -0.739 -24.004  21.917  1.00  0.00    -0.173 SA
HETATM   25  C1  UNL     1       0.674 -22.886  22.204  1.00  0.00     0.089 C 
ENDBRANCH  23  24
ENDBRANCH  22  23
ENDBRANCH  21  22
BRANCH  21  26
HETATM   26  C19 UNL     1      -0.836 -21.667  17.418  1.00  0.00     0.196 C 
HETATM   27  O6  UNL     1      -1.557 -20.864  16.770  1.00  0.00    -0.646 OA
HETATM   28  O7  UNL     1       0.103 -22.395  16.703  1.00  0.00    -0.646 OA
ENDBRANCH  21  26
ENDBRANCH  18  21
ENDBRANCH   1  17
BRANCH   2  29
HETATM   29  O2  UNL     1      -4.812 -19.777  18.753  1.00  0.00    -0.358 OA
ATOM     30  H2  UNL     1      -4.047 -19.215  18.802  1.00  0.00     0.217 HD
ENDBRANCH   2  29
TORSDOF 7
ENDMDL
