MODEL 1
REMARK VINA RESULT: -7.770658765      0.000      0.000
REMARK  8 active torsions:
REMARK  status: ('A' for Active; 'I' for Inactive)
REMARK    1  A    between atoms: C2_2  and  C3_7 
REMARK    2  A    between atoms: N1_3  and  O1_5 
REMARK    3  A    between atoms: C6_11  and  C7_12 
REMARK    4  A    between atoms: C7_12  and  S1_13 
REMARK    5  A    between atoms: S1_13  and  C8_14 
REMARK    6  A    between atoms: C9_15  and  C10_16 
REMARK    7  A    between atoms: C12_22  and  C13_23 
REMARK    8  A    between atoms: C13_23  and  O6_25 
ROOT
HETATM    1  C8  UNL     1      -6.687 -20.742  20.663  1.00  0.00     0.018 C 
HETATM    2  C9  UNL     1      -7.957 -20.331  20.735  1.00  0.00     0.128 C 
HETATM    3  N2  UNL     1      -8.567 -21.014  21.794  1.00  0.00    -0.304 N 
HETATM    4  C11 UNL     1      -9.426 -21.405  22.848  1.00  0.00     0.233 C 
HETATM    5  O5  UNL     1     -10.627 -21.310  23.180  1.00  0.00    -0.272 OA
HETATM    6  C12 UNL     1      -8.240 -22.039  23.483  1.00  0.00     0.130 C 
HETATM    7  C15 UNL     1      -7.807 -22.231  22.070  1.00  0.00     0.117 C 
HETATM    8  C16 UNL     1      -6.413 -21.757  21.703  1.00  0.00     0.048 C 
HETATM    9  C17 UNL     1      -5.703 -22.992  21.161  1.00  0.00     0.018 C 
ENDROOT
BRANCH   1  10
HETATM   10  S1  UNL     1      -5.562 -20.100  19.454  1.00  0.00    -0.127 SA
BRANCH  10  11
HETATM   11  C7  UNL     1      -3.997 -19.582  20.048  1.00  0.00     0.121 C 
BRANCH  11  12
HETATM   12  C6  UNL     1      -3.060 -20.659  20.361  1.00  0.00    -0.010 A 
HETATM   13  C4  UNL     1      -2.833 -21.079  21.705  1.00  0.00     0.057 A 
HETATM   14  O2  UNL     1      -1.984 -22.045  21.728  1.00  0.00    -0.312 OA
HETATM   15  C5  UNL     1      -3.515 -20.446  22.867  1.00  0.00     0.077 C 
HETATM   16  C3  UNL     1      -1.578 -22.357  20.487  1.00  0.00     0.106 A 
HETATM   17  C18 UNL     1      -2.254 -21.494  19.641  1.00  0.00    -0.017 A 
HETATM   18  C19 UNL     1      -2.149 -21.563  18.164  1.00  0.00     0.052 C 
BRANCH  16  19
HETATM   19  C2  UNL     1      -0.608 -23.406  20.197  1.00  0.00     0.062 C 
HETATM   20  C1  UNL     1       0.656 -23.238  19.492  1.00  0.00     0.073 C 
HETATM   21  N1  UNL     1      -0.880 -24.620  20.640  1.00  0.00    -0.271 N 
ATOM     22  H1  UNL     1      -1.746 -24.813  21.142  1.00  0.00     0.194 HD
BRANCH  21  23
HETATM   23  O1  UNL     1       0.028 -25.608  20.407  1.00  0.00    -0.290 OA
ATOM     24  H1  UNL     1       0.354 -25.717  19.522  1.00  0.00     0.244 HD
ENDBRANCH  21  23
ENDBRANCH  16  19
ENDBRANCH  11  12
ENDBRANCH  10  11
ENDBRANCH   1  10
BRANCH   2  25
HETATM   25  C10 UNL     1      -8.637 -19.340  19.898  1.00  0.00     0.228 C 
HETATM   26  O3  UNL     1      -8.575 -18.141  20.260  1.00  0.00    -0.643 OA
HETATM   27  O4  UNL     1      -9.324 -19.683  18.756  1.00  0.00    -0.643 OA
ENDBRANCH   2  25
BRANCH   6  28
HETATM   28  C13 UNL     1      -8.472 -23.340  24.175  1.00  0.00     0.129 C 
HETATM   29  C14 UNL     1      -7.211 -23.928  24.740  1.00  0.00     0.040 C 
BRANCH  28  30
HETATM   30  O6  UNL     1      -9.481 -23.237  25.133  1.00  0.00    -0.395 OA
ATOM     31  H6  UNL     1      -9.123 -23.117  26.004  1.00  0.00     0.210 HD
ENDBRANCH  28  30
ENDBRANCH   6  28
TORSDOF 8
ENDMDL
MODEL 2
REMARK VINA RESULT: -7.764371310      3.848      5.966
REMARK  8 active torsions:
REMARK  status: ('A' for Active; 'I' for Inactive)
REMARK    1  A    between atoms: C2_2  and  C3_7 
REMARK    2  A    between atoms: N1_3  and  O1_5 
REMARK    3  A    between atoms: C6_11  and  C7_12 
REMARK    4  A    between atoms: C7_12  and  S1_13 
REMARK    5  A    between atoms: S1_13  and  C8_14 
REMARK    6  A    between atoms: C9_15  and  C10_16 
REMARK    7  A    between atoms: C12_22  and  C13_23 
REMARK    8  A    between atoms: C13_23  and  O6_25 
ROOT
HETATM    1  C8  UNL     1      -5.411 -22.340  21.798  1.00  0.00     0.018 C 
HETATM    2  C9  UNL     1      -5.622 -22.024  20.516  1.00  0.00     0.128 C 
HETATM    3  N2  UNL     1      -6.652 -21.077  20.475  1.00  0.00    -0.304 N 
HETATM    4  C11 UNL     1      -7.534 -20.040  20.091  1.00  0.00     0.233 C 
HETATM    5  O5  UNL     1      -8.032 -19.551  19.054  1.00  0.00    -0.272 OA
HETATM    6  C12 UNL     1      -7.660 -19.710  21.536  1.00  0.00     0.130 C 
HETATM    7  C15 UNL     1      -7.431 -21.172  21.707  1.00  0.00     0.117 C 
HETATM    8  C16 UNL     1      -6.338 -21.592  22.674  1.00  0.00     0.048 C 
HETATM    9  C17 UNL     1      -7.036 -22.477  23.701  1.00  0.00     0.018 C 
ENDROOT
BRANCH   1  10
HETATM   10  S1  UNL     1      -4.166 -23.505  22.283  1.00  0.00    -0.127 SA
BRANCH  10  11
HETATM   11  C7  UNL     1      -4.679 -25.174  22.426  1.00  0.00     0.121 C 
BRANCH  11  12
HETATM   12  C6  UNL     1      -4.691 -25.709  23.786  1.00  0.00    -0.010 A 
HETATM   13  C4  UNL     1      -5.910 -26.064  24.434  1.00  0.00     0.057 A 
HETATM   14  O2  UNL     1      -5.668 -26.521  25.611  1.00  0.00    -0.312 OA
HETATM   15  C5  UNL     1      -7.240 -25.903  23.782  1.00  0.00     0.077 C 
HETATM   16  C3  UNL     1      -4.349 -26.523  25.863  1.00  0.00     0.106 A 
HETATM   17  C18 UNL     1      -3.747 -26.020  24.722  1.00  0.00    -0.017 A 
HETATM   18  C19 UNL     1      -2.277 -25.931  24.558  1.00  0.00     0.052 C 
BRANCH  16  19
HETATM   19  C2  UNL     1      -3.771 -26.976  27.123  1.00  0.00     0.062 C 
HETATM   20  C1  UNL     1      -3.235 -26.127  28.178  1.00  0.00     0.073 C 
HETATM   21  N1  UNL     1      -3.756 -28.278  27.348  1.00  0.00    -0.271 N 
ATOM     22  H1  UNL     1      -4.115 -28.934  26.654  1.00  0.00     0.194 HD
BRANCH  21  23
HETATM   23  O1  UNL     1      -3.249 -28.719  28.532  1.00  0.00    -0.290 OA
ATOM     24  H1  UNL     1      -3.031 -29.640  28.610  1.00  0.00     0.244 HD
ENDBRANCH  21  23
ENDBRANCH  16  19
ENDBRANCH  11  12
ENDBRANCH  10  11
ENDBRANCH   1  10
BRANCH   2  25
HETATM   25  C10 UNL     1      -4.926 -22.532  19.331  1.00  0.00     0.228 C 
HETATM   26  O3  UNL     1      -5.612 -23.145  18.481  1.00  0.00    -0.643 OA
HETATM   27  O4  UNL     1      -3.575 -22.356  19.136  1.00  0.00    -0.643 OA
ENDBRANCH   2  25
BRANCH   6  28
HETATM   28  C13 UNL     1      -9.014 -19.301  22.008  1.00  0.00     0.129 C 
HETATM   29  C14 UNL     1      -8.990 -18.025  22.800  1.00  0.00     0.040 C 
BRANCH  28  30
HETATM   30  O6  UNL     1      -9.930 -19.250  20.957  1.00  0.00    -0.395 OA
ATOM     31  H6  UNL     1     -10.267 -18.372  20.830  1.00  0.00     0.210 HD
ENDBRANCH  28  30
ENDBRANCH   6  28
TORSDOF 8
ENDMDL
MODEL 3
REMARK VINA RESULT: -7.652954110      1.388      2.140
REMARK  8 active torsions:
REMARK  status: ('A' for Active; 'I' for Inactive)
REMARK    1  A    between atoms: C2_2  and  C3_7 
REMARK    2  A    between atoms: N1_3  and  O1_5 
REMARK    3  A    between atoms: C6_11  and  C7_12 
REMARK    4  A    between atoms: C7_12  and  S1_13 
REMARK    5  A    between atoms: S1_13  and  C8_14 
REMARK    6  A    between atoms: C9_15  and  C10_16 
REMARK    7  A    between atoms: C12_22  and  C13_23 
REMARK    8  A    between atoms: C13_23  and  O6_25 
ROOT
HETATM    1  C8  UNL     1      -5.404 -21.309  21.067  1.00  0.00     0.018 C 
HETATM    2  C9  UNL     1      -6.638 -20.796  21.090  1.00  0.00     0.128 C 
HETATM    3  N2  UNL     1      -7.362 -21.471  22.081  1.00  0.00    -0.304 N 
HETATM    4  C11 UNL     1      -8.309 -21.832  23.068  1.00  0.00     0.233 C 
HETATM    5  O5  UNL     1      -9.515 -21.651  23.339  1.00  0.00    -0.272 OA
HETATM    6  C12 UNL     1      -7.216 -22.589  23.736  1.00  0.00     0.130 C 
HETATM    7  C15 UNL     1      -6.721 -22.757  22.341  1.00  0.00     0.117 C 
HETATM    8  C16 UNL     1      -5.273 -22.386  22.072  1.00  0.00     0.048 C 
HETATM    9  C17 UNL     1      -4.637 -23.653  21.512  1.00  0.00     0.018 C 
ENDROOT
BRANCH   1  10
HETATM   10  S1  UNL     1      -4.163 -20.713  19.951  1.00  0.00    -0.127 SA
BRANCH  10  11
HETATM   11  C7  UNL     1      -2.545 -20.551  20.604  1.00  0.00     0.121 C 
BRANCH  11  12
HETATM   12  C6  UNL     1      -1.627 -21.640  20.276  1.00  0.00    -0.010 A 
HETATM   13  C4  UNL     1      -1.147 -21.832  18.947  1.00  0.00     0.057 A 
HETATM   14  O2  UNL     1      -0.347 -22.838  18.909  1.00  0.00    -0.312 OA
HETATM   15  C5  UNL     1      -1.554 -20.955  17.815  1.00  0.00     0.077 C 
HETATM   16  C3  UNL     1      -0.212 -23.392  20.124  1.00  0.00     0.106 A 
HETATM   17  C18 UNL     1      -1.009 -22.640  20.971  1.00  0.00    -0.017 A 
HETATM   18  C19 UNL     1      -1.079 -22.873  22.433  1.00  0.00     0.052 C 
BRANCH  16  19
HETATM   19  C2  UNL     1       0.623 -24.557  20.390  1.00  0.00     0.062 C 
HETATM   20  C1  UNL     1       2.072 -24.561  20.536  1.00  0.00     0.073 C 
HETATM   21  N1  UNL     1       0.011 -25.718  20.544  1.00  0.00    -0.271 N 
ATOM     22  H1  UNL     1      -1.002 -25.791  20.455  1.00  0.00     0.194 HD
BRANCH  21  23
HETATM   23  O1  UNL     1       0.770 -26.812  20.823  1.00  0.00    -0.290 OA
ATOM     24  H1  UNL     1       0.473 -27.657  20.506  1.00  0.00     0.244 HD
ENDBRANCH  21  23
ENDBRANCH  16  19
ENDBRANCH  11  12
ENDBRANCH  10  11
ENDBRANCH   1  10
BRANCH   2  25
HETATM   25  C10 UNL     1      -7.187 -19.718  20.264  1.00  0.00     0.228 C 
HETATM   26  O3  UNL     1      -7.641 -18.712  20.860  1.00  0.00    -0.643 OA
HETATM   27  O4  UNL     1      -7.215 -19.780  18.890  1.00  0.00    -0.643 OA
ENDBRANCH   2  25
BRANCH   6  28
HETATM   28  C13 UNL     1      -7.593 -23.893  24.353  1.00  0.00     0.129 C 
HETATM   29  C14 UNL     1      -6.456 -24.530  25.100  1.00  0.00     0.040 C 
BRANCH  28  30
HETATM   30  O6  UNL     1      -8.740 -23.776  25.139  1.00  0.00    -0.395 OA
ATOM     31  H6  UNL     1      -9.498 -23.548  24.616  1.00  0.00     0.210 HD
ENDBRANCH  28  30
ENDBRANCH   6  28
TORSDOF 8
ENDMDL
MODEL 4
REMARK VINA RESULT: -7.610647178      3.448      4.900
REMARK  8 active torsions:
REMARK  status: ('A' for Active; 'I' for Inactive)
REMARK    1  A    between atoms: C2_2  and  C3_7 
REMARK    2  A    between atoms: N1_3  and  O1_5 
REMARK    3  A    between atoms: C6_11  and  C7_12 
REMARK    4  A    between atoms: C7_12  and  S1_13 
REMARK    5  A    between atoms: S1_13  and  C8_14 
REMARK    6  A    between atoms: C9_15  and  C10_16 
REMARK    7  A    between atoms: C12_22  and  C13_23 
REMARK    8  A    between atoms: C13_23  and  O6_25 
ROOT
HETATM    1  C8  UNL     1      -5.099 -21.256  21.552  1.00  0.00     0.018 C 
HETATM    2  C9  UNL     1      -5.241 -20.584  20.406  1.00  0.00     0.128 C 
HETATM    3  N2  UNL     1      -6.603 -20.300  20.243  1.00  0.00    -0.304 N 
HETATM    4  C11 UNL     1      -7.839 -19.737  19.850  1.00  0.00     0.233 C 
HETATM    5  O5  UNL     1      -8.351 -19.162  18.865  1.00  0.00    -0.272 OA
HETATM    6  C12 UNL     1      -8.361 -20.125  21.188  1.00  0.00     0.130 C 
HETATM    7  C15 UNL     1      -7.380 -21.238  21.050  1.00  0.00     0.117 C 
HETATM    8  C16 UNL     1      -6.413 -21.455  22.201  1.00  0.00     0.048 C 
HETATM    9  C17 UNL     1      -6.647 -22.893  22.650  1.00  0.00     0.018 C 
ENDROOT
BRANCH   1  10
HETATM   10  S1  UNL     1      -3.513 -21.792  22.133  1.00  0.00    -0.127 SA
BRANCH  10  11
HETATM   11  C7  UNL     1      -2.995 -23.384  21.619  1.00  0.00     0.121 C 
BRANCH  11  12
HETATM   12  C6  UNL     1      -2.771 -24.346  22.696  1.00  0.00    -0.010 A 
HETATM   13  C4  UNL     1      -1.493 -24.490  23.311  1.00  0.00     0.057 A 
HETATM   14  O2  UNL     1      -1.546 -25.382  24.236  1.00  0.00    -0.312 OA
HETATM   15  C5  UNL     1      -0.309 -23.689  22.893  1.00  0.00     0.077 C 
HETATM   16  C3  UNL     1      -2.782 -25.897  24.335  1.00  0.00     0.106 A 
HETATM   17  C18 UNL     1      -3.540 -25.246  23.377  1.00  0.00    -0.017 A 
HETATM   18  C19 UNL     1      -4.996 -25.469  23.211  1.00  0.00     0.052 C 
BRANCH  16  19
HETATM   19  C2  UNL     1      -3.145 -26.939  25.289  1.00  0.00     0.062 C 
HETATM   20  C1  UNL     1      -2.846 -28.359  25.168  1.00  0.00     0.073 C 
HETATM   21  N1  UNL     1      -3.781 -26.561  26.384  1.00  0.00    -0.271 N 
ATOM     22  H1  UNL     1      -4.024 -25.582  26.537  1.00  0.00     0.194 HD
BRANCH  21  23
HETATM   23  O1  UNL     1      -4.102 -27.513  27.302  1.00  0.00    -0.290 OA
ATOM     24  H1  UNL     1      -4.932 -27.436  27.756  1.00  0.00     0.244 HD
ENDBRANCH  21  23
ENDBRANCH  16  19
ENDBRANCH  11  12
ENDBRANCH  10  11
ENDBRANCH   1  10
BRANCH   2  25
HETATM   25  C10 UNL     1      -4.200 -20.177  19.458  1.00  0.00     0.228 C 
HETATM   26  O3  UNL     1      -3.941 -18.953  19.381  1.00  0.00    -0.643 OA
HETATM   27  O4  UNL     1      -3.520 -21.081  18.674  1.00  0.00    -0.643 OA
ENDBRANCH   2  25
BRANCH   6  28
HETATM   28  C13 UNL     1      -9.765 -20.624  21.235  1.00  0.00     0.129 C 
HETATM   29  C14 UNL     1     -10.271 -20.796  22.639  1.00  0.00     0.040 C 
BRANCH  28  30
HETATM   30  O6  UNL     1     -10.615 -19.834  20.462  1.00  0.00    -0.395 OA
ATOM     31  H6  UNL     1     -11.197 -19.315  21.004  1.00  0.00     0.210 HD
ENDBRANCH  28  30
ENDBRANCH   6  28
TORSDOF 8
ENDMDL
MODEL 5
REMARK VINA RESULT: -7.553216047      1.249      2.003
REMARK  8 active torsions:
REMARK  status: ('A' for Active; 'I' for Inactive)
REMARK    1  A    between atoms: C2_2  and  C3_7 
REMARK    2  A    between atoms: N1_3  and  O1_5 
REMARK    3  A    between atoms: C6_11  and  C7_12 
REMARK    4  A    between atoms: C7_12  and  S1_13 
REMARK    5  A    between atoms: S1_13  and  C8_14 
REMARK    6  A    between atoms: C9_15  and  C10_16 
REMARK    7  A    between atoms: C12_22  and  C13_23 
REMARK    8  A    between atoms: C13_23  and  O6_25 
ROOT
HETATM    1  C8  UNL     1      -6.728 -20.729  20.568  1.00  0.00     0.018 C 
HETATM    2  C9  UNL     1      -7.991 -20.303  20.678  1.00  0.00     0.128 C 
HETATM    3  N2  UNL     1      -8.575 -20.976  21.759  1.00  0.00    -0.304 N 
HETATM    4  C11 UNL     1      -9.404 -21.352  22.841  1.00  0.00     0.233 C 
HETATM    5  O5  UNL     1     -10.593 -21.243  23.210  1.00  0.00    -0.272 OA
HETATM    6  C12 UNL     1      -8.205 -21.996  23.442  1.00  0.00     0.130 C 
HETATM    7  C15 UNL     1      -7.820 -22.199  22.017  1.00  0.00     0.117 C 
HETATM    8  C16 UNL     1      -6.432 -21.741  21.604  1.00  0.00     0.048 C 
HETATM    9  C17 UNL     1      -5.754 -22.987  21.046  1.00  0.00     0.018 C 
ENDROOT
BRANCH   1  10
HETATM   10  S1  UNL     1      -5.635 -20.104  19.321  1.00  0.00    -0.127 SA
BRANCH  10  11
HETATM   11  C7  UNL     1      -4.062 -19.561  19.869  1.00  0.00     0.121 C 
BRANCH  11  12
HETATM   12  C6  UNL     1      -3.168 -20.615  20.343  1.00  0.00    -0.010 A 
HETATM   13  C4  UNL     1      -2.320 -21.329  19.447  1.00  0.00     0.057 A 
HETATM   14  O2  UNL     1      -1.620 -22.192  20.095  1.00  0.00    -0.312 OA
HETATM   15  C5  UNL     1      -2.298 -21.062  17.982  1.00  0.00     0.077 C 
HETATM   16  C3  UNL     1      -1.902 -22.152  21.406  1.00  0.00     0.106 A 
HETATM   17  C18 UNL     1      -2.864 -21.167  21.555  1.00  0.00    -0.017 A 
HETATM   18  C19 UNL     1      -3.393 -20.748  22.874  1.00  0.00     0.052 C 
BRANCH  16  19
HETATM   19  C2  UNL     1      -1.273 -23.023  22.392  1.00  0.00     0.062 C 
HETATM   20  C1  UNL     1      -1.876 -24.194  23.015  1.00  0.00     0.073 C 
HETATM   21  N1  UNL     1      -0.027 -22.748  22.734  1.00  0.00    -0.271 N 
ATOM     22  H1  UNL     1       0.460 -21.944  22.339  1.00  0.00     0.194 HD
BRANCH  21  23
HETATM   23  O1  UNL     1       0.589 -23.568  23.630  1.00  0.00    -0.290 OA
ATOM     24  H1  UNL     1       1.458 -23.888  23.420  1.00  0.00     0.244 HD
ENDBRANCH  21  23
ENDBRANCH  16  19
ENDBRANCH  11  12
ENDBRANCH  10  11
ENDBRANCH   1  10
BRANCH   2  25
HETATM   25  C10 UNL     1      -8.687 -19.309  19.858  1.00  0.00     0.228 C 
HETATM   26  O3  UNL     1      -8.628 -18.114  20.231  1.00  0.00    -0.643 OA
HETATM   27  O4  UNL     1      -9.384 -19.646  18.720  1.00  0.00    -0.643 OA
ENDBRANCH   2  25
BRANCH   6  28
HETATM   28  C13 UNL     1      -8.430 -23.291  24.147  1.00  0.00     0.129 C 
HETATM   29  C14 UNL     1      -7.159 -23.885  24.685  1.00  0.00     0.040 C 
BRANCH  28  30
HETATM   30  O6  UNL     1      -9.414 -23.176  25.129  1.00  0.00    -0.395 OA
ATOM     31  H6  UNL     1      -9.958 -23.953  25.169  1.00  0.00     0.210 HD
ENDBRANCH  28  30
ENDBRANCH   6  28
TORSDOF 8
ENDMDL
