MODEL 1
REMARK VINA RESULT: -8.006866782      0.000      0.000
REMARK  10 active torsions:
REMARK  status: ('A' for Active; 'I' for Inactive)
REMARK    1  A    between atoms: C2_2  and  N1_3 
REMARK    2  A    between atoms: N1_3  and  C3_5 
REMARK    3  A    between atoms: C4_8  and  N3_9 
REMARK    4  A    between atoms: N3_9  and  N4_11 
REMARK    5  A    between atoms: C5_13  and  C6_14 
REMARK    6  A    between atoms: C8_17  and  C9_18 
REMARK    7  A    between atoms: C9_18  and  C10_19 
REMARK    8  A    between atoms: C10_19  and  N5_20 
REMARK    9  A    between atoms: C13_23  and  O1_24 
REMARK   10  A    between atoms: C16_31  and  C17_32 
ROOT
HETATM    1  C3  UNL     1      -5.324 -26.080  26.997  1.00  0.00     0.132 A 
HETATM    2  N2  UNL     1      -6.309 -25.272  26.585  1.00  0.00    -0.174 N 
ATOM      3  H2  UNL     1      -6.946 -24.859  27.267  1.00  0.00     0.186 HD
HETATM    4  C4  UNL     1      -6.467 -25.000  25.266  1.00  0.00     0.700 A 
HETATM    5  N6  UNL     1      -5.674 -25.506  24.318  1.00  0.00    -0.168 N 
ATOM      6  H6  UNL     1      -5.827 -25.277  23.336  1.00  0.00     0.186 HD
HETATM    7  C14 UNL     1      -4.671 -26.323  24.683  1.00  0.00     0.176 A 
HETATM    8  O2  UNL     1      -3.736 -26.968  24.007  1.00  0.00    -0.304 OA
HETATM    9  C15 UNL     1      -2.973 -27.650  24.825  1.00  0.00     0.152 A 
HETATM   10  C16 UNL     1      -3.398 -27.471  26.130  1.00  0.00    -0.018 A 
HETATM   11  C19 UNL     1      -4.480 -26.625  26.039  1.00  0.00     0.068 A 
ENDROOT
BRANCH   4  12
HETATM   12  N3  UNL     1      -7.433 -24.217  24.958  1.00  0.00    -0.132 N 
ATOM     13  H3  UNL     1      -8.247 -24.164  25.570  1.00  0.00     0.205 HD
BRANCH  12  14
HETATM   14  N4  UNL     1      -7.396 -23.453  23.828  1.00  0.00    -0.297 N 
HETATM   15  C5  UNL     1      -7.659 -22.209  23.849  1.00  0.00     0.122 C 
ATOM     16  H4  UNL     1      -7.149 -23.892  22.941  1.00  0.00     0.186 HD
BRANCH  15  17
HETATM   17  C6  UNL     1      -7.610 -21.400  22.593  1.00  0.00     0.022 A 
HETATM   18  C7  UNL     1      -8.513 -20.391  22.388  1.00  0.00     0.066 A 
HETATM   19  S1  UNL     1      -8.068 -19.776  20.868  1.00  0.00    -0.098 SA
HETATM   20  C8  UNL     1      -6.755 -20.802  20.525  1.00  0.00     0.040 A 
HETATM   21  C13 UNL     1      -6.700 -21.614  21.631  1.00  0.00     0.095 A 
BRANCH  20  22
HETATM   22  C9  UNL     1      -5.865 -20.848  19.351  1.00  0.00     0.038 C 
BRANCH  22  23
HETATM   23  C10 UNL     1      -4.758 -20.147  19.324  1.00  0.00     0.086 C 
BRANCH  23  24
HETATM   24  N5  UNL     1      -3.506 -20.483  19.865  1.00  0.00    -0.398 N 
HETATM   25  C11 UNL     1      -2.576 -21.279  19.072  1.00  0.00     0.148 C 
HETATM   26  C12 UNL     1      -3.187 -20.034  21.215  1.00  0.00     0.148 C 
ENDBRANCH  23  24
ENDBRANCH  22  23
ENDBRANCH  20  22
BRANCH  21  27
HETATM   27  O1  UNL     1      -5.703 -22.630  21.713  1.00  0.00    -0.358 OA
ATOM     28  H1  UNL     1      -4.891 -22.522  22.195  1.00  0.00     0.217 HD
ENDBRANCH  21  27
ENDBRANCH  15  17
ENDBRANCH  12  14
ENDBRANCH   4  12
BRANCH   1  29
HETATM   29  N1  UNL     1      -5.092 -26.390  28.219  1.00  0.00    -0.375 N 
ATOM     30  H1  UNL     1      -5.047 -27.366  28.513  1.00  0.00     0.161 HD
BRANCH  29  31
HETATM   31  C2  UNL     1      -4.894 -25.319  29.169  1.00  0.00     0.116 C 
HETATM   32  C1  UNL     1      -3.468 -24.808  29.181  1.00  0.00     0.026 C 
ENDBRANCH  29  31
ENDBRANCH   1  29
BRANCH  10  33
HETATM   33  C17 UNL     1      -2.854 -28.051  27.374  1.00  0.00     0.037 C 
HETATM   34  C18 UNL     1      -3.241 -29.497  27.582  1.00  0.00     0.010 C 
ENDBRANCH  10  33
TORSDOF 10
ENDMDL
MODEL 2
REMARK VINA RESULT: -7.905117743      2.873      8.192
REMARK  10 active torsions:
REMARK  status: ('A' for Active; 'I' for Inactive)
REMARK    1  A    between atoms: C2_2  and  N1_3 
REMARK    2  A    between atoms: N1_3  and  C3_5 
REMARK    3  A    between atoms: C4_8  and  N3_9 
REMARK    4  A    between atoms: N3_9  and  N4_11 
REMARK    5  A    between atoms: C5_13  and  C6_14 
REMARK    6  A    between atoms: C8_17  and  C9_18 
REMARK    7  A    between atoms: C9_18  and  C10_19 
REMARK    8  A    between atoms: C10_19  and  N5_20 
REMARK    9  A    between atoms: C13_23  and  O1_24 
REMARK   10  A    between atoms: C16_31  and  C17_32 
ROOT
HETATM    1  C3  UNL     1      -6.763 -21.767  21.996  1.00  0.00     0.132 A 
HETATM    2  N2  UNL     1      -5.743 -22.579  21.692  1.00  0.00    -0.174 N 
ATOM      3  H2  UNL     1      -5.370 -23.212  22.400  1.00  0.00     0.186 HD
HETATM    4  C4  UNL     1      -5.202 -22.565  20.449  1.00  0.00     0.700 A 
HETATM    5  N6  UNL     1      -5.637 -21.763  19.473  1.00  0.00    -0.168 N 
ATOM      6  H6  UNL     1      -5.203 -21.783  18.551  1.00  0.00     0.186 HD
HETATM    7  C14 UNL     1      -6.659 -20.930  19.731  1.00  0.00     0.176 A 
HETATM    8  O2  UNL     1      -7.306 -20.036  19.003  1.00  0.00    -0.304 OA
HETATM    9  C15 UNL     1      -8.247 -19.465  19.714  1.00  0.00     0.152 A 
HETATM   10  C16 UNL     1      -8.253 -19.985  20.996  1.00  0.00    -0.018 A 
HETATM   11  C19 UNL     1      -7.242 -20.919  21.007  1.00  0.00     0.068 A 
ENDROOT
BRANCH   4  12
HETATM   12  N3  UNL     1      -4.231 -23.374  20.242  1.00  0.00    -0.132 N 
ATOM     13  H3  UNL     1      -3.784 -23.393  19.325  1.00  0.00     0.205 HD
BRANCH  12  14
HETATM   14  N4  UNL     1      -3.782 -24.211  21.222  1.00  0.00    -0.297 N 
HETATM   15  C5  UNL     1      -2.911 -23.844  22.073  1.00  0.00     0.122 C 
ATOM     16  H4  UNL     1      -4.155 -25.159  21.273  1.00  0.00     0.186 HD
BRANCH  15  17
HETATM   17  C6  UNL     1      -2.440 -24.784  23.134  1.00  0.00     0.022 A 
HETATM   18  C7  UNL     1      -1.132 -24.765  23.541  1.00  0.00     0.066 A 
HETATM   19  S1  UNL     1      -1.080 -25.975  24.732  1.00  0.00    -0.098 SA
HETATM   20  C8  UNL     1      -2.704 -26.479  24.692  1.00  0.00     0.040 A 
HETATM   21  C13 UNL     1      -3.255 -25.670  23.728  1.00  0.00     0.095 A 
BRANCH  20  22
HETATM   22  C9  UNL     1      -3.398 -27.516  25.475  1.00  0.00     0.038 C 
BRANCH  22  23
HETATM   23  C10 UNL     1      -3.830 -27.262  26.687  1.00  0.00     0.086 C 
BRANCH  23  24
HETATM   24  N5  UNL     1      -4.316 -26.046  27.196  1.00  0.00    -0.398 N 
HETATM   25  C11 UNL     1      -3.470 -25.253  28.080  1.00  0.00     0.148 C 
HETATM   26  C12 UNL     1      -5.664 -25.628  26.831  1.00  0.00     0.148 C 
ENDBRANCH  23  24
ENDBRANCH  22  23
ENDBRANCH  20  22
BRANCH  21  27
HETATM   27  O1  UNL     1      -4.637 -25.798  23.403  1.00  0.00    -0.358 OA
ATOM     28  H1  UNL     1      -5.189 -26.490  23.747  1.00  0.00     0.217 HD
ENDBRANCH  21  27
ENDBRANCH  15  17
ENDBRANCH  12  14
ENDBRANCH   4  12
BRANCH   1  29
HETATM   29  N1  UNL     1      -7.343 -21.713  23.138  1.00  0.00    -0.375 N 
ATOM     30  H1  UNL     1      -7.742 -20.840  23.482  1.00  0.00     0.161 HD
BRANCH  29  31
HETATM   31  C2  UNL     1      -7.416 -22.923  23.924  1.00  0.00     0.116 C 
HETATM   32  C1  UNL     1      -8.760 -23.096  24.603  1.00  0.00     0.026 C 
ENDBRANCH  29  31
ENDBRANCH   1  29
BRANCH  10  33
HETATM   33  C17 UNL     1      -9.122 -19.636  22.138  1.00  0.00     0.037 C 
HETATM   34  C18 UNL     1     -10.355 -20.504  22.243  1.00  0.00     0.010 C 
ENDBRANCH  10  33
TORSDOF 10
ENDMDL
MODEL 3
REMARK VINA RESULT: -7.881174655      5.022      7.985
REMARK  10 active torsions:
REMARK  status: ('A' for Active; 'I' for Inactive)
REMARK    1  A    between atoms: C2_2  and  N1_3 
REMARK    2  A    between atoms: N1_3  and  C3_5 
REMARK    3  A    between atoms: C4_8  and  N3_9 
REMARK    4  A    between atoms: N3_9  and  N4_11 
REMARK    5  A    between atoms: C5_13  and  C6_14 
REMARK    6  A    between atoms: C8_17  and  C9_18 
REMARK    7  A    between atoms: C9_18  and  C10_19 
REMARK    8  A    between atoms: C10_19  and  N5_20 
REMARK    9  A    between atoms: C13_23  and  O1_24 
REMARK   10  A    between atoms: C16_31  and  C17_32 
ROOT
HETATM    1  C3  UNL     1      -6.780 -21.767  21.993  1.00  0.00     0.132 A 
HETATM    2  N2  UNL     1      -5.730 -22.520  21.639  1.00  0.00    -0.174 N 
ATOM      3  H2  UNL     1      -5.271 -23.108  22.334  1.00  0.00     0.186 HD
HETATM    4  C4  UNL     1      -5.274 -22.504  20.362  1.00  0.00     0.700 A 
HETATM    5  N6  UNL     1      -5.825 -21.758  19.401  1.00  0.00    -0.168 N 
ATOM      6  H6  UNL     1      -5.451 -21.774  18.452  1.00  0.00     0.186 HD
HETATM    7  C14 UNL     1      -6.880 -20.985  19.708  1.00  0.00     0.176 A 
HETATM    8  O2  UNL     1      -7.631 -20.155  19.005  1.00  0.00    -0.304 OA
HETATM    9  C15 UNL     1      -8.559 -19.627  19.765  1.00  0.00     0.152 A 
HETATM   10  C16 UNL     1      -8.447 -20.112  21.056  1.00  0.00    -0.018 A 
HETATM   11  C19 UNL     1      -7.377 -20.978  21.020  1.00  0.00     0.068 A 
ENDROOT
BRANCH   4  12
HETATM   12  N3  UNL     1      -4.267 -23.254  20.108  1.00  0.00    -0.132 N 
ATOM     13  H3  UNL     1      -4.202 -24.170  20.553  1.00  0.00     0.205 HD
BRANCH  12  14
HETATM   14  N4  UNL     1      -3.280 -22.854  19.256  1.00  0.00    -0.297 N 
HETATM   15  C5  UNL     1      -2.120 -22.538  19.670  1.00  0.00     0.122 C 
ATOM     16  H4  UNL     1      -3.478 -22.806  18.256  1.00  0.00     0.186 HD
BRANCH  15  17
HETATM   17  C6  UNL     1      -1.060 -22.103  18.710  1.00  0.00     0.022 A 
HETATM   18  C7  UNL     1       0.239 -22.496  18.894  1.00  0.00     0.066 A 
HETATM   19  S1  UNL     1       1.049 -21.777  17.585  1.00  0.00    -0.098 SA
HETATM   20  C8  UNL     1      -0.266 -20.999  16.836  1.00  0.00     0.040 A 
HETATM   21  C13 UNL     1      -1.323 -21.329  17.647  1.00  0.00     0.095 A 
BRANCH  20  22
HETATM   22  C9  UNL     1      -0.311 -20.169  15.619  1.00  0.00     0.038 C 
BRANCH  22  23
HETATM   23  C10 UNL     1       0.533 -19.180  15.453  1.00  0.00     0.086 C 
BRANCH  23  24
HETATM   24  N5  UNL     1       0.614 -18.281  14.377  1.00  0.00    -0.398 N 
HETATM   25  C11 UNL     1      -0.280 -18.449  13.237  1.00  0.00     0.148 C 
HETATM   26  C12 UNL     1       1.608 -17.215  14.433  1.00  0.00     0.148 C 
ENDBRANCH  23  24
ENDBRANCH  22  23
ENDBRANCH  20  22
BRANCH  21  27
HETATM   27  O1  UNL     1      -2.629 -20.849  17.336  1.00  0.00    -0.358 OA
ATOM     28  H1  UNL     1      -3.412 -21.144  17.786  1.00  0.00     0.217 HD
ENDBRANCH  21  27
ENDBRANCH  15  17
ENDBRANCH  12  14
ENDBRANCH   4  12
BRANCH   1  29
HETATM   29  N1  UNL     1      -7.286 -21.720  23.170  1.00  0.00    -0.375 N 
ATOM     30  H1  UNL     1      -7.645 -20.845  23.551  1.00  0.00     0.161 HD
BRANCH  29  31
HETATM   31  C2  UNL     1      -7.333 -22.941  23.941  1.00  0.00     0.116 C 
HETATM   32  C1  UNL     1      -8.627 -23.090  24.715  1.00  0.00     0.026 C 
ENDBRANCH  29  31
ENDBRANCH   1  29
BRANCH  10  33
HETATM   33  C17 UNL     1      -9.260 -19.789  22.246  1.00  0.00     0.037 C 
HETATM   34  C18 UNL     1     -10.450 -20.703  22.426  1.00  0.00     0.010 C 
ENDBRANCH  10  33
TORSDOF 10
ENDMDL
MODEL 4
REMARK VINA RESULT: -7.731685922      2.817      8.676
REMARK  10 active torsions:
REMARK  status: ('A' for Active; 'I' for Inactive)
REMARK    1  A    between atoms: C2_2  and  N1_3 
REMARK    2  A    between atoms: N1_3  and  C3_5 
REMARK    3  A    between atoms: C4_8  and  N3_9 
REMARK    4  A    between atoms: N3_9  and  N4_11 
REMARK    5  A    between atoms: C5_13  and  C6_14 
REMARK    6  A    between atoms: C8_17  and  C9_18 
REMARK    7  A    between atoms: C9_18  and  C10_19 
REMARK    8  A    between atoms: C10_19  and  N5_20 
REMARK    9  A    between atoms: C13_23  and  O1_24 
REMARK   10  A    between atoms: C16_31  and  C17_32 
ROOT
HETATM    1  C3  UNL     1      -7.260 -21.572  22.736  1.00  0.00     0.132 A 
HETATM    2  N2  UNL     1      -7.127 -22.542  23.650  1.00  0.00    -0.174 N 
ATOM      3  H2  UNL     1      -6.198 -22.879  23.900  1.00  0.00     0.186 HD
HETATM    4  C4  UNL     1      -8.222 -23.079  24.244  1.00  0.00     0.700 A 
HETATM    5  N6  UNL     1      -9.468 -22.688  23.965  1.00  0.00    -0.168 N 
ATOM      6  H6  UNL     1     -10.265 -23.118  24.435  1.00  0.00     0.186 HD
HETATM    7  C14 UNL     1      -9.652 -21.718  23.054  1.00  0.00     0.176 A 
HETATM    8  O2  UNL     1     -10.727 -21.123  22.568  1.00  0.00    -0.304 OA
HETATM    9  C15 UNL     1     -10.386 -20.219  21.682  1.00  0.00     0.152 A 
HETATM   10  C16 UNL     1      -9.009 -20.186  21.546  1.00  0.00    -0.018 A 
HETATM   11  C19 UNL     1      -8.542 -21.141  22.420  1.00  0.00     0.068 A 
ENDROOT
BRANCH   4  12
HETATM   12  N3  UNL     1      -8.005 -24.000  25.108  1.00  0.00    -0.132 N 
ATOM     13  H3  UNL     1      -8.784 -24.360  25.659  1.00  0.00     0.205 HD
BRANCH  12  14
HETATM   14  N4  UNL     1      -6.755 -24.510  25.304  1.00  0.00    -0.297 N 
HETATM   15  C5  UNL     1      -6.398 -25.626  24.808  1.00  0.00     0.122 C 
ATOM     16  H4  UNL     1      -6.087 -23.981  25.866  1.00  0.00     0.186 HD
BRANCH  15  17
HETATM   17  C6  UNL     1      -5.021 -26.156  25.043  1.00  0.00     0.022 A 
HETATM   18  C7  UNL     1      -4.142 -26.278  24.000  1.00  0.00     0.066 A 
HETATM   19  S1  UNL     1      -2.746 -26.903  24.739  1.00  0.00    -0.098 SA
HETATM   20  C8  UNL     1      -3.300 -26.998  26.345  1.00  0.00     0.040 A 
HETATM   21  C13 UNL     1      -4.587 -26.529  26.257  1.00  0.00     0.095 A 
BRANCH  20  22
HETATM   22  C9  UNL     1      -2.609 -27.459  27.563  1.00  0.00     0.038 C 
BRANCH  22  23
HETATM   23  C10 UNL     1      -1.806 -26.657  28.220  1.00  0.00     0.086 C 
BRANCH  23  24
HETATM   24  N5  UNL     1      -2.097 -25.873  29.349  1.00  0.00    -0.398 N 
HETATM   25  C11 UNL     1      -2.735 -24.574  29.171  1.00  0.00     0.148 C 
HETATM   26  C12 UNL     1      -1.731 -26.385  30.664  1.00  0.00     0.148 C 
ENDBRANCH  23  24
ENDBRANCH  22  23
ENDBRANCH  20  22
BRANCH  21  27
HETATM   27  O1  UNL     1      -5.395 -26.456  27.429  1.00  0.00    -0.358 OA
ATOM     28  H1  UNL     1      -5.366 -27.107  28.121  1.00  0.00     0.217 HD
ENDBRANCH  21  27
ENDBRANCH  15  17
ENDBRANCH  12  14
ENDBRANCH   4  12
BRANCH   1  29
HETATM   29  N1  UNL     1      -6.289 -21.000  22.126  1.00  0.00    -0.375 N 
ATOM     30  H1  UNL     1      -6.187 -19.985  22.140  1.00  0.00     0.161 HD
BRANCH  29  31
HETATM   31  C2  UNL     1      -5.342 -21.832  21.420  1.00  0.00     0.116 C 
HETATM   32  C1  UNL     1      -5.914 -22.405  20.139  1.00  0.00     0.026 C 
ENDBRANCH  29  31
ENDBRANCH   1  29
BRANCH  10  33
HETATM   33  C17 UNL     1      -8.182 -19.343  20.660  1.00  0.00     0.037 C 
HETATM   34  C18 UNL     1      -8.952 -18.751  19.502  1.00  0.00     0.010 C 
ENDBRANCH  10  33
TORSDOF 10
ENDMDL
MODEL 5
REMARK VINA RESULT: -7.709188457      4.767      7.595
REMARK  10 active torsions:
REMARK  status: ('A' for Active; 'I' for Inactive)
REMARK    1  A    between atoms: C2_2  and  N1_3 
REMARK    2  A    between atoms: N1_3  and  C3_5 
REMARK    3  A    between atoms: C4_8  and  N3_9 
REMARK    4  A    between atoms: N3_9  and  N4_11 
REMARK    5  A    between atoms: C5_13  and  C6_14 
REMARK    6  A    between atoms: C8_17  and  C9_18 
REMARK    7  A    between atoms: C9_18  and  C10_19 
REMARK    8  A    between atoms: C10_19  and  N5_20 
REMARK    9  A    between atoms: C13_23  and  O1_24 
REMARK   10  A    between atoms: C16_31  and  C17_32 
ROOT
HETATM    1  C3  UNL     1      -6.158 -22.557  22.423  1.00  0.00     0.132 A 
HETATM    2  N2  UNL     1      -5.191 -23.478  22.326  1.00  0.00    -0.174 N 
ATOM      3  H2  UNL     1      -4.901 -23.998  23.155  1.00  0.00     0.186 HD
HETATM    4  C4  UNL     1      -4.595 -23.724  21.133  1.00  0.00     0.700 A 
HETATM    5  N6  UNL     1      -4.922 -23.083  20.009  1.00  0.00    -0.168 N 
ATOM      6  H6  UNL     1      -4.449 -23.297  19.131  1.00  0.00     0.186 HD
HETATM    7  C14 UNL     1      -5.887 -22.148  20.056  1.00  0.00     0.176 A 
HETATM    8  O2  UNL     1      -6.429 -21.358  19.145  1.00  0.00    -0.304 OA
HETATM    9  C15 UNL     1      -7.354 -20.605  19.689  1.00  0.00     0.152 A 
HETATM   10  C16 UNL     1      -7.459 -20.885  21.040  1.00  0.00    -0.018 A 
HETATM   11  C19 UNL     1      -6.524 -21.869  21.274  1.00  0.00     0.068 A 
ENDROOT
BRANCH   4  12
HETATM   12  N3  UNL     1      -3.681 -24.622  21.129  1.00  0.00    -0.132 N 
ATOM     13  H3  UNL     1      -3.813 -25.471  21.679  1.00  0.00     0.205 HD
BRANCH  12  14
HETATM   14  N4  UNL     1      -2.536 -24.467  20.403  1.00  0.00    -0.297 N 
HETATM   15  C5  UNL     1      -1.474 -23.990  20.916  1.00  0.00     0.122 C 
ATOM     16  H4  UNL     1      -2.531 -24.741  19.420  1.00  0.00     0.186 HD
BRANCH  15  17
HETATM   17  C6  UNL     1      -0.237 -23.832  20.094  1.00  0.00     0.022 A 
HETATM   18  C7  UNL     1       0.933 -24.426  20.489  1.00  0.00     0.066 A 
HETATM   19  S1  UNL     1       2.026 -23.978  19.268  1.00  0.00    -0.098 SA
HETATM   20  C8  UNL     1       0.987 -23.052  18.288  1.00  0.00     0.040 A 
HETATM   21  C13 UNL     1      -0.211 -23.121  18.957  1.00  0.00     0.095 A 
BRANCH  20  22
HETATM   22  C9  UNL     1       1.255 -22.338  17.028  1.00  0.00     0.038 C 
BRANCH  22  23
HETATM   23  C10 UNL     1       1.505 -21.051  17.029  1.00  0.00     0.086 C 
BRANCH  23  24
HETATM   24  N5  UNL     1       0.853 -20.040  16.303  1.00  0.00    -0.398 N 
HETATM   25  C11 UNL     1      -0.547 -20.215  15.935  1.00  0.00     0.148 C 
HETATM   26  C12 UNL     1       1.612 -18.853  15.928  1.00  0.00     0.148 C 
ENDBRANCH  23  24
ENDBRANCH  22  23
ENDBRANCH  20  22
BRANCH  21  27
HETATM   27  O1  UNL     1      -1.353 -22.451  18.430  1.00  0.00    -0.358 OA
ATOM     28  H1  UNL     1      -1.382 -22.082  17.555  1.00  0.00     0.217 HD
ENDBRANCH  21  27
ENDBRANCH  15  17
ENDBRANCH  12  14
ENDBRANCH   4  12
BRANCH   1  29
HETATM   29  N1  UNL     1      -6.783 -22.259  23.501  1.00  0.00    -0.375 N 
ATOM     30  H1  UNL     1      -6.840 -21.293  23.825  1.00  0.00     0.161 HD
BRANCH  29  31
HETATM   31  C2  UNL     1      -7.405 -23.329  24.247  1.00  0.00     0.116 C 
HETATM   32  C1  UNL     1      -8.901 -23.140  24.397  1.00  0.00     0.026 C 
ENDBRANCH  29  31
ENDBRANCH   1  29
BRANCH  10  33
HETATM   33  C17 UNL     1      -8.348 -20.278  22.050  1.00  0.00     0.037 C 
HETATM   34  C18 UNL     1      -9.817 -20.417  21.719  1.00  0.00     0.010 C 
ENDBRANCH  10  33
TORSDOF 10
ENDMDL
