MODEL 1
REMARK VINA RESULT: -7.807747093      0.000      0.000
REMARK  10 active torsions:
REMARK  status: ('A' for Active; 'I' for Inactive)
REMARK    1  A    between atoms: C4_4  and  C5_5 
REMARK    2  A    between atoms: C5_5  and  O2_7 
REMARK    3  A    between atoms: O2_7  and  C6_8 
REMARK    4  A    between atoms: C10_14  and  C11_15 
REMARK    5  A    between atoms: C11_15  and  C12_16 
REMARK    6  A    between atoms: C12_16  and  C13_17 
REMARK       I    between atoms: C13_17  and  N2_19 
REMARK    7  A    between atoms: N2_19  and  C15_21 
REMARK    8  A    between atoms: C15_21  and  C16_22 
REMARK    9  A    between atoms: C16_22  and  C17_23 
REMARK       I    between atoms: C17_23  and  N3_25 
REMARK   10  A    between atoms: N3_25  and  C18_27 
ROOT
HETATM    1  C1  UNL     1      25.639  -7.142   5.806  1.00  0.00     0.018 C 
HETATM    2  C2  UNL     1      25.547  -6.240   6.605  1.00  0.00    -0.075 C 
HETATM    3  C3  UNL     1      25.448  -5.149   7.546  1.00  0.00     0.058 A 
HETATM    4  C4  UNL     1      25.779  -3.810   7.321  1.00  0.00     0.128 A 
HETATM    5  N1  UNL     1      25.529  -3.178   8.458  1.00  0.00    -0.353 N 
ATOM      6  H1  UNL     1      25.672  -2.179   8.604  1.00  0.00     0.166 HD
HETATM    7  C8  UNL     1      25.059  -4.026   9.400  1.00  0.00     0.013 A 
HETATM    8  C9  UNL     1      24.673  -3.670  10.785  1.00  0.00     0.068 C 
HETATM    9  C10 UNL     1      24.997  -5.290   8.847  1.00  0.00    -0.014 A 
ENDROOT
BRANCH   4  10
HETATM   10  C5  UNL     1      26.290  -3.315   6.048  1.00  0.00     0.311 C 
HETATM   11  O1  UNL     1      25.463  -2.918   5.169  1.00  0.00    -0.258 OA
BRANCH  10  12
HETATM   12  O2  UNL     1      27.610  -3.242   5.719  1.00  0.00    -0.317 OA
BRANCH  12  13
HETATM   13  C6  UNL     1      28.227  -3.964   4.678  1.00  0.00     0.175 C 
HETATM   14  C7  UNL     1      28.778  -3.118   3.590  1.00  0.00     0.034 C 
ENDBRANCH  12  13
ENDBRANCH  10  12
ENDBRANCH   4  10
BRANCH   9  15
HETATM   15  C11 UNL     1      24.538  -6.540   9.502  1.00  0.00     0.051 C 
BRANCH  15  16
HETATM   16  C12 UNL     1      23.166  -6.947   9.091  1.00  0.00     0.107 C 
BRANCH  16  17
HETATM   17  C13 UNL     1      23.173  -8.355   8.599  1.00  0.00     0.219 C 
HETATM   18  O3  UNL     1      24.261  -8.975   8.600  1.00  0.00    -0.273 OA
HETATM   19  N2  UNL     1      22.018  -9.010   8.138  1.00  0.00    -0.356 N 
HETATM   20  C14 UNL     1      20.752  -8.321   8.136  1.00  0.00     0.152 C 
BRANCH  19  21
HETATM   21  C15 UNL     1      22.075 -10.367   7.655  1.00  0.00     0.134 C 
BRANCH  21  22
HETATM   22  C16 UNL     1      21.419 -11.271   8.700  1.00  0.00     0.123 C 
BRANCH  22  23
HETATM   23  C17 UNL     1      22.408 -12.207   9.247  1.00  0.00     0.224 C 
HETATM   24  O4  UNL     1      22.137 -13.430   9.291  1.00  0.00    -0.273 OA
HETATM   25  N3  UNL     1      23.675 -11.784   9.734  1.00  0.00    -0.312 N 
ATOM     26  H3  UNL     1      23.737 -11.014  10.399  1.00  0.00     0.170 HD
BRANCH  25  27
HETATM   27  C18 UNL     1      24.751 -12.381   9.330  1.00  0.00     0.130 A 
HETATM   28  C19 UNL     1      25.290 -12.456   8.071  1.00  0.00     0.084 A 
HETATM   29  C20 UNL     1      26.438 -13.213   8.190  1.00  0.00     0.076 A 
HETATM   30  C21 UNL     1      27.394 -13.598   7.141  1.00  0.00     0.079 C 
HETATM   31  O5  UNL     1      26.542 -13.546   9.444  1.00  0.00    -0.241 OA
HETATM   32  N4  UNL     1      25.565 -13.072  10.138  1.00  0.00    -0.245 N 
ATOM     33  H4  UNL     1      25.434 -13.202  11.141  1.00  0.00     0.196 HD
ENDBRANCH  25  27
ENDBRANCH  22  23
ENDBRANCH  21  22
ENDBRANCH  19  21
ENDBRANCH  16  17
ENDBRANCH  15  16
ENDBRANCH   9  15
TORSDOF 10
ENDMDL
MODEL 2
REMARK VINA RESULT: -7.746383903      3.516      8.116
REMARK  10 active torsions:
REMARK  status: ('A' for Active; 'I' for Inactive)
REMARK    1  A    between atoms: C4_4  and  C5_5 
REMARK    2  A    between atoms: C5_5  and  O2_7 
REMARK    3  A    between atoms: O2_7  and  C6_8 
REMARK    4  A    between atoms: C10_14  and  C11_15 
REMARK    5  A    between atoms: C11_15  and  C12_16 
REMARK    6  A    between atoms: C12_16  and  C13_17 
REMARK       I    between atoms: C13_17  and  N2_19 
REMARK    7  A    between atoms: N2_19  and  C15_21 
REMARK    8  A    between atoms: C15_21  and  C16_22 
REMARK    9  A    between atoms: C16_22  and  C17_23 
REMARK       I    between atoms: C17_23  and  N3_25 
REMARK   10  A    between atoms: N3_25  and  C18_27 
ROOT
HETATM    1  C1  UNL     1      22.365  -5.980   4.820  1.00  0.00     0.018 C 
HETATM    2  C2  UNL     1      22.074  -7.108   5.139  1.00  0.00    -0.075 C 
HETATM    3  C3  UNL     1      21.715  -8.449   5.539  1.00  0.00     0.058 A 
HETATM    4  C4  UNL     1      20.831  -8.816   6.556  1.00  0.00     0.128 A 
HETATM    5  N1  UNL     1      20.814 -10.140   6.562  1.00  0.00    -0.353 N 
ATOM      6  H1  UNL     1      20.254 -10.706   7.202  1.00  0.00     0.166 HD
HETATM    7  C8  UNL     1      21.632 -10.648   5.614  1.00  0.00     0.013 A 
HETATM    8  C9  UNL     1      21.862 -12.085   5.332  1.00  0.00     0.068 C 
HETATM    9  C10 UNL     1      22.220  -9.593   4.945  1.00  0.00    -0.014 A 
ENDROOT
BRANCH   4  10
HETATM   10  C5  UNL     1      20.120  -7.850   7.386  1.00  0.00     0.311 C 
HETATM   11  O1  UNL     1      19.072  -7.300   6.924  1.00  0.00    -0.258 OA
BRANCH  10  12
HETATM   12  O2  UNL     1      20.497  -7.483   8.643  1.00  0.00    -0.317 OA
BRANCH  12  13
HETATM   13  C6  UNL     1      21.743  -7.773   9.233  1.00  0.00     0.175 C 
HETATM   14  C7  UNL     1      22.800  -6.771   8.952  1.00  0.00     0.034 C 
ENDBRANCH  12  13
ENDBRANCH  10  12
ENDBRANCH   4  10
BRANCH   9  15
HETATM   15  C11 UNL     1      23.187  -9.663   3.822  1.00  0.00     0.051 C 
BRANCH  15  16
HETATM   16  C12 UNL     1      24.590  -9.884   4.269  1.00  0.00     0.107 C 
BRANCH  16  17
HETATM   17  C13 UNL     1      25.438  -8.714   3.902  1.00  0.00     0.219 C 
HETATM   18  O3  UNL     1      25.824  -8.614   2.715  1.00  0.00    -0.273 OA
HETATM   19  N2  UNL     1      25.819  -7.725   4.826  1.00  0.00    -0.356 N 
HETATM   20  C14 UNL     1      25.380  -7.813   6.196  1.00  0.00     0.152 C 
BRANCH  19  21
HETATM   21  C15 UNL     1      26.655  -6.620   4.430  1.00  0.00     0.134 C 
BRANCH  21  22
HETATM   22  C16 UNL     1      25.748  -5.497   3.924  1.00  0.00     0.123 C 
BRANCH  22  23
HETATM   23  C17 UNL     1      25.899  -4.309   4.771  1.00  0.00     0.224 C 
HETATM   24  O4  UNL     1      25.269  -3.264   4.483  1.00  0.00    -0.273 OA
HETATM   25  N3  UNL     1      26.739  -4.288   5.918  1.00  0.00    -0.312 N 
ATOM     26  H3  UNL     1      27.703  -4.614   5.853  1.00  0.00     0.170 HD
BRANCH  25  27
HETATM   27  C18 UNL     1      26.275  -3.853   7.047  1.00  0.00     0.130 A 
HETATM   28  C19 UNL     1      25.873  -4.553   8.155  1.00  0.00     0.084 A 
HETATM   29  C20 UNL     1      25.463  -3.610   9.077  1.00  0.00     0.076 A 
HETATM   30  C21 UNL     1      24.940  -3.824  10.434  1.00  0.00     0.079 C 
HETATM   31  O5  UNL     1      25.624  -2.445   8.520  1.00  0.00    -0.241 OA
HETATM   32  N4  UNL     1      26.099  -2.556   7.327  1.00  0.00    -0.245 N 
ATOM     33  H4  UNL     1      26.308  -1.780   6.698  1.00  0.00     0.196 HD
ENDBRANCH  25  27
ENDBRANCH  22  23
ENDBRANCH  21  22
ENDBRANCH  19  21
ENDBRANCH  16  17
ENDBRANCH  15  16
ENDBRANCH   9  15
TORSDOF 10
ENDMDL
MODEL 3
REMARK VINA RESULT: -7.722687445      2.879      8.473
REMARK  10 active torsions:
REMARK  status: ('A' for Active; 'I' for Inactive)
REMARK    1  A    between atoms: C4_4  and  C5_5 
REMARK    2  A    between atoms: C5_5  and  O2_7 
REMARK    3  A    between atoms: O2_7  and  C6_8 
REMARK    4  A    between atoms: C10_14  and  C11_15 
REMARK    5  A    between atoms: C11_15  and  C12_16 
REMARK    6  A    between atoms: C12_16  and  C13_17 
REMARK       I    between atoms: C13_17  and  N2_19 
REMARK    7  A    between atoms: N2_19  and  C15_21 
REMARK    8  A    between atoms: C15_21  and  C16_22 
REMARK    9  A    between atoms: C16_22  and  C17_23 
REMARK       I    between atoms: C17_23  and  N3_25 
REMARK   10  A    between atoms: N3_25  and  C18_27 
ROOT
HETATM    1  C1  UNL     1      23.054  -6.270   8.905  1.00  0.00     0.018 C 
HETATM    2  C2  UNL     1      22.592  -7.370   8.719  1.00  0.00    -0.075 C 
HETATM    3  C3  UNL     1      22.020  -8.681   8.510  1.00  0.00     0.058 A 
HETATM    4  C4  UNL     1      20.716  -9.087   8.803  1.00  0.00     0.128 A 
HETATM    5  N1  UNL     1      20.644 -10.360   8.447  1.00  0.00    -0.353 N 
ATOM      6  H1  UNL     1      19.807 -10.937   8.540  1.00  0.00     0.166 HD
HETATM    7  C8  UNL     1      21.819 -10.799   7.945  1.00  0.00     0.013 A 
HETATM    8  C9  UNL     1      22.105 -12.165   7.446  1.00  0.00     0.068 C 
HETATM    9  C10 UNL     1      22.716  -9.749   7.973  1.00  0.00    -0.014 A 
ENDROOT
BRANCH   4  10
HETATM   10  C5  UNL     1      19.714  -8.202   9.385  1.00  0.00     0.311 C 
HETATM   11  O1  UNL     1      19.064  -7.425   8.618  1.00  0.00    -0.258 OA
BRANCH  10  12
HETATM   12  O2  UNL     1      19.411  -8.140  10.712  1.00  0.00    -0.317 OA
BRANCH  12  13
HETATM   13  C6  UNL     1      18.122  -7.929  11.240  1.00  0.00     0.175 C 
HETATM   14  C7  UNL     1      18.107  -7.390  12.622  1.00  0.00     0.034 C 
ENDBRANCH  12  13
ENDBRANCH  10  12
ENDBRANCH   4  10
BRANCH   9  15
HETATM   15  C11 UNL     1      24.128  -9.757   7.517  1.00  0.00     0.051 C 
BRANCH  15  16
HETATM   16  C12 UNL     1      24.279  -9.430   6.072  1.00  0.00     0.107 C 
BRANCH  16  17
HETATM   17  C13 UNL     1      25.188  -8.261   5.901  1.00  0.00     0.219 C 
HETATM   18  O3  UNL     1      25.561  -7.648   6.927  1.00  0.00    -0.273 OA
HETATM   19  N2  UNL     1      25.641  -7.821   4.645  1.00  0.00    -0.356 N 
HETATM   20  C14 UNL     1      25.233  -8.515   3.449  1.00  0.00     0.152 C 
BRANCH  19  21
HETATM   21  C15 UNL     1      26.505  -6.673   4.525  1.00  0.00     0.134 C 
BRANCH  21  22
HETATM   22  C16 UNL     1      25.684  -5.520   3.946  1.00  0.00     0.123 C 
BRANCH  22  23
HETATM   23  C17 UNL     1      25.869  -4.314   4.762  1.00  0.00     0.224 C 
HETATM   24  O4  UNL     1      25.254  -3.265   4.455  1.00  0.00    -0.273 OA
HETATM   25  N3  UNL     1      26.723  -4.280   5.897  1.00  0.00    -0.312 N 
ATOM     26  H3  UNL     1      27.680  -4.625   5.829  1.00  0.00     0.170 HD
BRANCH  25  27
HETATM   27  C18 UNL     1      26.282  -3.809   7.020  1.00  0.00     0.130 A 
HETATM   28  C19 UNL     1      26.004  -4.461   8.194  1.00  0.00     0.084 A 
HETATM   29  C20 UNL     1      25.560  -3.494   9.074  1.00  0.00     0.076 A 
HETATM   30  C21 UNL     1      25.129  -3.657  10.471  1.00  0.00     0.079 C 
HETATM   31  O5  UNL     1      25.585  -2.362   8.434  1.00  0.00    -0.241 OA
HETATM   32  N4  UNL     1      26.005  -2.515   7.224  1.00  0.00    -0.245 N 
ATOM     33  H4  UNL     1      26.110  -1.770   6.535  1.00  0.00     0.196 HD
ENDBRANCH  25  27
ENDBRANCH  22  23
ENDBRANCH  21  22
ENDBRANCH  19  21
ENDBRANCH  16  17
ENDBRANCH  15  16
ENDBRANCH   9  15
TORSDOF 10
ENDMDL
MODEL 4
REMARK VINA RESULT: -7.437206945      3.629      8.293
REMARK  10 active torsions:
REMARK  status: ('A' for Active; 'I' for Inactive)
REMARK    1  A    between atoms: C4_4  and  C5_5 
REMARK    2  A    between atoms: C5_5  and  O2_7 
REMARK    3  A    between atoms: O2_7  and  C6_8 
REMARK    4  A    between atoms: C10_14  and  C11_15 
REMARK    5  A    between atoms: C11_15  and  C12_16 
REMARK    6  A    between atoms: C12_16  and  C13_17 
REMARK       I    between atoms: C13_17  and  N2_19 
REMARK    7  A    between atoms: N2_19  and  C15_21 
REMARK    8  A    between atoms: C15_21  and  C16_22 
REMARK    9  A    between atoms: C16_22  and  C17_23 
REMARK       I    between atoms: C17_23  and  N3_25 
REMARK   10  A    between atoms: N3_25  and  C18_27 
ROOT
HETATM    1  C1  UNL     1      22.232  -5.946   4.704  1.00  0.00     0.018 C 
HETATM    2  C2  UNL     1      21.941  -7.062   5.064  1.00  0.00    -0.075 C 
HETATM    3  C3  UNL     1      21.581  -8.387   5.513  1.00  0.00     0.058 A 
HETATM    4  C4  UNL     1      20.649  -8.717   6.500  1.00  0.00     0.128 A 
HETATM    5  N1  UNL     1      20.651 -10.040   6.573  1.00  0.00    -0.353 N 
ATOM      6  H1  UNL     1      20.066 -10.582   7.210  1.00  0.00     0.166 HD
HETATM    7  C8  UNL     1      21.526 -10.580   5.696  1.00  0.00     0.013 A 
HETATM    8  C9  UNL     1      21.791 -12.025   5.500  1.00  0.00     0.068 C 
HETATM    9  C10 UNL     1      22.134  -9.550   5.006  1.00  0.00    -0.014 A 
ENDROOT
BRANCH   4  10
HETATM   10  C5  UNL     1      19.881  -7.723   7.241  1.00  0.00     0.311 C 
HETATM   11  O1  UNL     1      20.152  -7.529   8.467  1.00  0.00    -0.258 OA
BRANCH  10  12
HETATM   12  O2  UNL     1      18.877  -6.968   6.713  1.00  0.00    -0.317 OA
BRANCH  12  13
HETATM   13  C6  UNL     1      18.143  -7.292   5.555  1.00  0.00     0.175 C 
HETATM   14  C7  UNL     1      18.336  -6.349   4.425  1.00  0.00     0.034 C 
ENDBRANCH  12  13
ENDBRANCH  10  12
ENDBRANCH   4  10
BRANCH   9  15
HETATM   15  C11 UNL     1      23.160  -9.660   3.940  1.00  0.00     0.051 C 
BRANCH  15  16
HETATM   16  C12 UNL     1      24.538  -9.852   4.471  1.00  0.00     0.107 C 
BRANCH  16  17
HETATM   17  C13 UNL     1      25.412  -8.719   4.053  1.00  0.00     0.219 C 
HETATM   18  O3  UNL     1      25.827  -8.698   2.872  1.00  0.00    -0.273 OA
HETATM   19  N2  UNL     1      25.788  -7.681   4.923  1.00  0.00    -0.356 N 
HETATM   20  C14 UNL     1      25.317  -7.677   6.285  1.00  0.00     0.152 C 
BRANCH  19  21
HETATM   21  C15 UNL     1      26.651  -6.614   4.480  1.00  0.00     0.134 C 
BRANCH  21  22
HETATM   22  C16 UNL     1      25.770  -5.486   3.938  1.00  0.00     0.123 C 
BRANCH  22  23
HETATM   23  C17 UNL     1      25.909  -4.293   4.781  1.00  0.00     0.224 C 
HETATM   24  O4  UNL     1      25.265  -3.258   4.489  1.00  0.00    -0.273 OA
HETATM   25  N3  UNL     1      26.749  -4.257   5.926  1.00  0.00    -0.312 N 
ATOM     26  H3  UNL     1      27.717  -4.571   5.861  1.00  0.00     0.170 HD
BRANCH  25  27
HETATM   27  C18 UNL     1      26.282  -3.824   7.054  1.00  0.00     0.130 A 
HETATM   28  C19 UNL     1      25.891  -4.524   8.166  1.00  0.00     0.084 A 
HETATM   29  C20 UNL     1      25.471  -3.583   9.084  1.00  0.00     0.076 A 
HETATM   30  C21 UNL     1      24.951  -3.797  10.443  1.00  0.00     0.079 C 
HETATM   31  O5  UNL     1      25.616  -2.418   8.522  1.00  0.00    -0.241 OA
HETATM   32  N4  UNL     1      26.091  -2.527   7.329  1.00  0.00    -0.245 N 
ATOM     33  H4  UNL     1      26.289  -1.752   6.697  1.00  0.00     0.196 HD
ENDBRANCH  25  27
ENDBRANCH  22  23
ENDBRANCH  21  22
ENDBRANCH  19  21
ENDBRANCH  16  17
ENDBRANCH  15  16
ENDBRANCH   9  15
TORSDOF 10
ENDMDL
MODEL 5
REMARK VINA RESULT: -7.416762866      4.155      8.775
REMARK  10 active torsions:
REMARK  status: ('A' for Active; 'I' for Inactive)
REMARK    1  A    between atoms: C4_4  and  C5_5 
REMARK    2  A    between atoms: C5_5  and  O2_7 
REMARK    3  A    between atoms: O2_7  and  C6_8 
REMARK    4  A    between atoms: C10_14  and  C11_15 
REMARK    5  A    between atoms: C11_15  and  C12_16 
REMARK    6  A    between atoms: C12_16  and  C13_17 
REMARK       I    between atoms: C13_17  and  N2_19 
REMARK    7  A    between atoms: N2_19  and  C15_21 
REMARK    8  A    between atoms: C15_21  and  C16_22 
REMARK    9  A    between atoms: C16_22  and  C17_23 
REMARK       I    between atoms: C17_23  and  N3_25 
REMARK   10  A    between atoms: N3_25  and  C18_27 
ROOT
HETATM    1  C1  UNL     1      21.514  -9.251  10.035  1.00  0.00     0.018 C 
HETATM    2  C2  UNL     1      20.854  -8.719   9.174  1.00  0.00    -0.075 C 
HETATM    3  C3  UNL     1      20.046  -8.087   8.157  1.00  0.00     0.058 A 
HETATM    4  C4  UNL     1      18.695  -7.742   8.249  1.00  0.00     0.128 A 
HETATM    5  N1  UNL     1      18.381  -7.192   7.086  1.00  0.00    -0.353 N 
ATOM      6  H1  UNL     1      17.454  -6.835   6.850  1.00  0.00     0.166 HD
HETATM    7  C8  UNL     1      19.444  -7.163   6.251  1.00  0.00     0.013 A 
HETATM    8  C9  UNL     1      19.461  -6.621   4.873  1.00  0.00     0.068 C 
HETATM    9  C10 UNL     1      20.520  -7.728   6.908  1.00  0.00    -0.014 A 
ENDROOT
BRANCH   4  10
HETATM   10  C5  UNL     1      17.886  -7.984   9.438  1.00  0.00     0.311 C 
HETATM   11  O1  UNL     1      17.172  -9.034   9.490  1.00  0.00    -0.258 OA
BRANCH  10  12
HETATM   12  O2  UNL     1      17.834  -7.159  10.521  1.00  0.00    -0.317 OA
BRANCH  12  13
HETATM   13  C6  UNL     1      16.750  -6.322  10.852  1.00  0.00     0.175 C 
HETATM   14  C7  UNL     1      16.168  -5.591   9.699  1.00  0.00     0.034 C 
ENDBRANCH  12  13
ENDBRANCH  10  12
ENDBRANCH   4  10
BRANCH   9  15
HETATM   15  C11 UNL     1      21.898  -7.908   6.390  1.00  0.00     0.051 C 
BRANCH  15  16
HETATM   16  C12 UNL     1      22.794  -6.758   6.697  1.00  0.00     0.107 C 
BRANCH  16  17
HETATM   17  C13 UNL     1      23.387  -6.218   5.440  1.00  0.00     0.219 C 
HETATM   18  O3  UNL     1      22.689  -5.450   4.740  1.00  0.00    -0.273 OA
HETATM   19  N2  UNL     1      24.689  -6.533   5.011  1.00  0.00    -0.356 N 
HETATM   20  C14 UNL     1      25.515  -7.409   5.803  1.00  0.00     0.152 C 
BRANCH  19  21
HETATM   21  C15 UNL     1      25.215  -6.002   3.779  1.00  0.00     0.134 C 
BRANCH  21  22
HETATM   22  C16 UNL     1      26.530  -5.286   4.095  1.00  0.00     0.123 C 
BRANCH  22  23
HETATM   23  C17 UNL     1      26.271  -4.112   4.937  1.00  0.00     0.224 C 
HETATM   24  O4  UNL     1      25.415  -3.272   4.572  1.00  0.00    -0.273 OA
HETATM   25  N3  UNL     1      26.956  -3.882   6.161  1.00  0.00    -0.312 N 
ATOM     26  H3  UNL     1      27.973  -3.935   6.197  1.00  0.00     0.170 HD
BRANCH  25  27
HETATM   27  C18 UNL     1      26.282  -3.603   7.231  1.00  0.00     0.130 A 
HETATM   28  C19 UNL     1      25.766  -4.443   8.184  1.00  0.00     0.084 A 
HETATM   29  C20 UNL     1      25.137  -3.634   9.109  1.00  0.00     0.076 A 
HETATM   30  C21 UNL     1      24.421  -4.027  10.332  1.00  0.00     0.079 C 
HETATM   31  O5  UNL     1      25.290  -2.407   8.702  1.00  0.00    -0.241 OA
HETATM   32  N4  UNL     1      25.959  -2.357   7.601  1.00  0.00    -0.245 N 
ATOM     33  H4  UNL     1      26.203  -1.506   7.095  1.00  0.00     0.196 HD
ENDBRANCH  25  27
ENDBRANCH  22  23
ENDBRANCH  21  22
ENDBRANCH  19  21
ENDBRANCH  16  17
ENDBRANCH  15  16
ENDBRANCH   9  15
TORSDOF 10
ENDMDL
