MODEL 1
REMARK VINA RESULT: -8.124314725      0.000      0.000
REMARK  8 active torsions:
REMARK  status: ('A' for Active; 'I' for Inactive)
REMARK    1  A    between atoms: O1_2  and  C2_3 
REMARK    2  A    between atoms: C8_9  and  S1_10 
REMARK    3  A    between atoms: S1_10  and  N1_13 
REMARK    4  A    between atoms: N1_13  and  C9_15 
REMARK    5  A    between atoms: C9_15  and  C10_16 
REMARK    6  A    between atoms: N3_18  and  C11_20 
REMARK    7  A    between atoms: C11_20  and  C12_21 
REMARK    8  A    between atoms: C12_21  and  C13_22 
ROOT
HETATM    1  S1  UNL     1      26.067  -7.495   4.411  1.00  0.00     0.259 S 
HETATM    2  O2  UNL     1      26.935  -8.556   3.821  1.00  0.00    -0.201 OA
HETATM    3  O3  UNL     1      25.194  -6.962   3.296  1.00  0.00    -0.201 OA
ENDROOT
BRANCH   1   4
HETATM    4  C8  UNL     1      25.051  -8.087   5.723  1.00  0.00     0.086 A 
HETATM    5  C6  UNL     1      24.069  -7.343   6.317  1.00  0.00    -0.028 A 
HETATM    6  C5  UNL     1      23.266  -7.833   7.351  1.00  0.00    -0.018 A 
HETATM    7  C7  UNL     1      23.830  -5.954   5.878  1.00  0.00     0.050 C 
HETATM    8  C4  UNL     1      22.273  -7.081   7.944  1.00  0.00     0.015 A 
HETATM    9  C20 UNL     1      23.471  -9.122   7.792  1.00  0.00    -0.023 A 
HETATM   10  C3  UNL     1      21.482  -7.577   8.964  1.00  0.00     0.037 A 
HETATM   11  C2  UNL     1      21.682  -8.864   9.409  1.00  0.00     0.069 A 
HETATM   12  C21 UNL     1      22.674  -9.614   8.814  1.00  0.00     0.049 A 
HETATM   13  C19 UNL     1      24.457  -9.886   7.205  1.00  0.00     0.014 A 
HETATM   14  C18 UNL     1      25.245  -9.399   6.187  1.00  0.00     0.027 A 
BRANCH  11  15
HETATM   15  O1  UNL     1      20.897  -9.376  10.432  1.00  0.00    -0.356 OA
HETATM   16  C1  UNL     1      20.088  -8.590  11.263  1.00  0.00     0.210 C 
ENDBRANCH  11  15
ENDBRANCH   1   4
BRANCH   1  17
HETATM   17  N1  UNL     1      27.046  -6.195   4.941  1.00  0.00    -0.309 N 
ATOM     18  H1  UNL     1      27.695  -6.256   5.726  1.00  0.00     0.172 HD
BRANCH  17  19
HETATM   19  C9  UNL     1      26.850  -4.997   4.147  1.00  0.00     0.205 C 
BRANCH  19  20
HETATM   20  C10 UNL     1      27.673  -3.871   4.609  1.00  0.00     0.107 C 
HETATM   21  N2  UNL     1      29.033  -3.734   4.213  1.00  0.00    -0.086 NA
HETATM   22  N3  UNL     1      27.193  -2.965   5.390  1.00  0.00    -0.380 N 
ATOM     23  H3  UNL     1      27.811  -2.207   5.677  1.00  0.00     0.160 HD
BRANCH  22  24
HETATM   24  C11 UNL     1      25.832  -2.953   5.888  1.00  0.00     0.125 C 
BRANCH  24  25
HETATM   25  C12 UNL     1      25.910  -2.573   7.367  1.00  0.00     0.059 C 
BRANCH  25  26
HETATM   26  C13 UNL     1      25.616  -3.719   8.236  1.00  0.00    -0.041 A 
HETATM   27  C14 UNL     1      24.646  -3.634   9.209  1.00  0.00     0.010 A 
HETATM   28  C15 UNL     1      24.370  -4.728  10.035  1.00  0.00     0.018 A 
HETATM   29  C16 UNL     1      25.100  -5.873   9.833  1.00  0.00     0.087 A 
HETATM   30  N4  UNL     1      26.044  -5.950   8.883  1.00  0.00    -0.375 N 
HETATM   31  C17 UNL     1      26.317  -4.886   8.075  1.00  0.00     0.094 A 
ATOM     32  H4  UNL     1      26.564  -6.819   8.762  1.00  0.00     0.164 HD
ENDBRANCH  25  26
ENDBRANCH  24  25
ENDBRANCH  22  24
ENDBRANCH  19  20
ENDBRANCH  17  19
ENDBRANCH   1  17
TORSDOF 8
ENDMDL
MODEL 2
REMARK VINA RESULT: -8.089183568      0.631      1.591
REMARK  8 active torsions:
REMARK  status: ('A' for Active; 'I' for Inactive)
REMARK    1  A    between atoms: O1_2  and  C2_3 
REMARK    2  A    between atoms: C8_9  and  S1_10 
REMARK    3  A    between atoms: S1_10  and  N1_13 
REMARK    4  A    between atoms: N1_13  and  C9_15 
REMARK    5  A    between atoms: C9_15  and  C10_16 
REMARK    6  A    between atoms: N3_18  and  C11_20 
REMARK    7  A    between atoms: C11_20  and  C12_21 
REMARK    8  A    between atoms: C12_21  and  C13_22 
ROOT
HETATM    1  S1  UNL     1      25.929  -7.386   4.521  1.00  0.00     0.259 S 
HETATM    2  O2  UNL     1      26.628  -8.694   4.357  1.00  0.00    -0.201 OA
HETATM    3  O3  UNL     1      25.347  -7.019   3.174  1.00  0.00    -0.201 OA
ENDROOT
BRANCH   1   4
HETATM    4  C8  UNL     1      24.644  -7.437   5.725  1.00  0.00     0.086 A 
HETATM    5  C6  UNL     1      24.311  -8.559   6.432  1.00  0.00    -0.028 A 
HETATM    6  C5  UNL     1      23.294  -8.577   7.391  1.00  0.00    -0.018 A 
HETATM    7  C7  UNL     1      25.031  -9.824   6.188  1.00  0.00     0.050 C 
HETATM    8  C4  UNL     1      22.965  -9.711   8.106  1.00  0.00     0.015 A 
HETATM    9  C20 UNL     1      22.595  -7.416   7.635  1.00  0.00    -0.023 A 
HETATM   10  C3  UNL     1      21.960  -9.717   9.055  1.00  0.00     0.037 A 
HETATM   11  C2  UNL     1      21.257  -8.559   9.304  1.00  0.00     0.069 A 
HETATM   12  C21 UNL     1      21.588  -7.429   8.588  1.00  0.00     0.049 A 
HETATM   13  C19 UNL     1      22.917  -6.276   6.931  1.00  0.00     0.014 A 
HETATM   14  C18 UNL     1      23.920  -6.262   5.988  1.00  0.00     0.027 A 
BRANCH  11  15
HETATM   15  O1  UNL     1      20.245  -8.550  10.252  1.00  0.00    -0.356 OA
HETATM   16  C1  UNL     1      18.936  -8.125   9.992  1.00  0.00     0.210 C 
ENDBRANCH  11  15
ENDBRANCH   1   4
BRANCH   1  17
HETATM   17  N1  UNL     1      27.079  -6.178   4.912  1.00  0.00    -0.309 N 
ATOM     18  H1  UNL     1      27.835  -6.310   5.583  1.00  0.00     0.172 HD
BRANCH  17  19
HETATM   19  C9  UNL     1      26.855  -4.946   4.179  1.00  0.00     0.205 C 
BRANCH  19  20
HETATM   20  C10 UNL     1      27.661  -3.829   4.692  1.00  0.00     0.107 C 
HETATM   21  N2  UNL     1      29.034  -3.685   4.348  1.00  0.00    -0.086 NA
HETATM   22  N3  UNL     1      27.152  -2.938   5.472  1.00  0.00    -0.380 N 
ATOM     23  H3  UNL     1      27.759  -2.185   5.795  1.00  0.00     0.160 HD
BRANCH  22  24
HETATM   24  C11 UNL     1      25.773  -2.935   5.919  1.00  0.00     0.125 C 
BRANCH  24  25
HETATM   25  C12 UNL     1      25.795  -2.544   7.398  1.00  0.00     0.059 C 
BRANCH  25  26
HETATM   26  C13 UNL     1      25.539  -3.700   8.266  1.00  0.00    -0.041 A 
HETATM   27  C14 UNL     1      24.590  -3.636   9.262  1.00  0.00     0.010 A 
HETATM   28  C15 UNL     1      24.350  -4.739  10.086  1.00  0.00     0.018 A 
HETATM   29  C16 UNL     1      25.092  -5.872   9.859  1.00  0.00     0.087 A 
HETATM   30  N4  UNL     1      26.014  -5.929   8.888  1.00  0.00    -0.375 N 
HETATM   31  C17 UNL     1      26.253  -4.856   8.081  1.00  0.00     0.094 A 
ATOM     32  H4  UNL     1      26.545  -6.789   8.749  1.00  0.00     0.164 HD
ENDBRANCH  25  26
ENDBRANCH  24  25
ENDBRANCH  22  24
ENDBRANCH  19  20
ENDBRANCH  17  19
ENDBRANCH   1  17
TORSDOF 8
ENDMDL
MODEL 3
REMARK VINA RESULT: -7.624556158      3.021      6.116
REMARK  8 active torsions:
REMARK  status: ('A' for Active; 'I' for Inactive)
REMARK    1  A    between atoms: O1_2  and  C2_3 
REMARK    2  A    between atoms: C8_9  and  S1_10 
REMARK    3  A    between atoms: S1_10  and  N1_13 
REMARK    4  A    between atoms: N1_13  and  C9_15 
REMARK    5  A    between atoms: C9_15  and  C10_16 
REMARK    6  A    between atoms: N3_18  and  C11_20 
REMARK    7  A    between atoms: C11_20  and  C12_21 
REMARK    8  A    between atoms: C12_21  and  C13_22 
ROOT
HETATM    1  S1  UNL     1      21.657  -8.787   5.650  1.00  0.00     0.259 S 
HETATM    2  O2  UNL     1      20.579  -7.830   6.037  1.00  0.00    -0.201 OA
HETATM    3  O3  UNL     1      21.217  -9.458   4.367  1.00  0.00    -0.201 OA
ENDROOT
BRANCH   1   4
HETATM    4  C8  UNL     1      23.216  -8.005   5.402  1.00  0.00     0.086 A 
HETATM    5  C6  UNL     1      23.359  -6.706   5.000  1.00  0.00    -0.028 A 
HETATM    6  C5  UNL     1      24.605  -6.100   4.818  1.00  0.00    -0.018 A 
HETATM    7  C7  UNL     1      22.163  -5.884   4.727  1.00  0.00     0.050 C 
HETATM    8  C4  UNL     1      24.744  -4.787   4.417  1.00  0.00     0.015 A 
HETATM    9  C20 UNL     1      25.741  -6.843   5.053  1.00  0.00    -0.023 A 
HETATM   10  C3  UNL     1      25.982  -4.197   4.243  1.00  0.00     0.037 A 
HETATM   11  C2  UNL     1      27.121  -4.934   4.477  1.00  0.00     0.069 A 
HETATM   12  C21 UNL     1      26.979  -6.245   4.878  1.00  0.00     0.049 A 
HETATM   13  C19 UNL     1      25.616  -8.154   5.459  1.00  0.00     0.014 A 
HETATM   14  C18 UNL     1      24.386  -8.746   5.637  1.00  0.00     0.027 A 
BRANCH  11  15
HETATM   15  O1  UNL     1      28.371  -4.356   4.307  1.00  0.00    -0.356 OA
HETATM   16  C1  UNL     1      28.600  -2.974   4.324  1.00  0.00     0.210 C 
ENDBRANCH  11  15
ENDBRANCH   1   4
BRANCH   1  17
HETATM   17  N1  UNL     1      21.775 -10.014   6.838  1.00  0.00    -0.309 N 
ATOM     18  H1  UNL     1      21.963 -10.994   6.626  1.00  0.00     0.172 HD
BRANCH  17  19
HETATM   19  C9  UNL     1      21.579  -9.502   8.181  1.00  0.00     0.205 C 
BRANCH  19  20
HETATM   20  C10 UNL     1      22.677  -9.861   9.089  1.00  0.00     0.107 C 
HETATM   21  N2  UNL     1      22.863 -11.198   9.538  1.00  0.00    -0.086 NA
HETATM   22  N3  UNL     1      23.515  -8.976   9.511  1.00  0.00    -0.380 N 
ATOM     23  H3  UNL     1      24.257  -9.284  10.138  1.00  0.00     0.160 HD
BRANCH  22  24
HETATM   24  C11 UNL     1      23.470  -7.573   9.153  1.00  0.00     0.125 C 
BRANCH  24  25
HETATM   25  C12 UNL     1      24.919  -7.130   8.940  1.00  0.00     0.059 C 
BRANCH  25  26
HETATM   26  C13 UNL     1      25.065  -5.675   9.071  1.00  0.00    -0.041 A 
HETATM   27  C14 UNL     1      25.554  -4.920   8.029  1.00  0.00     0.010 A 
HETATM   28  C15 UNL     1      25.691  -3.535   8.158  1.00  0.00     0.018 A 
HETATM   29  C16 UNL     1      25.320  -2.971   9.354  1.00  0.00     0.087 A 
HETATM   30  N4  UNL     1      24.844  -3.712  10.365  1.00  0.00    -0.375 N 
HETATM   31  C17 UNL     1      24.708  -5.063  10.245  1.00  0.00     0.094 A 
ATOM     32  H4  UNL     1      24.578  -3.256  11.239  1.00  0.00     0.164 HD
ENDBRANCH  25  26
ENDBRANCH  24  25
ENDBRANCH  22  24
ENDBRANCH  19  20
ENDBRANCH  17  19
ENDBRANCH   1  17
TORSDOF 8
ENDMDL
MODEL 4
REMARK VINA RESULT: -7.544625329      2.814      5.891
REMARK  8 active torsions:
REMARK  status: ('A' for Active; 'I' for Inactive)
REMARK    1  A    between atoms: O1_2  and  C2_3 
REMARK    2  A    between atoms: C8_9  and  S1_10 
REMARK    3  A    between atoms: S1_10  and  N1_13 
REMARK    4  A    between atoms: N1_13  and  C9_15 
REMARK    5  A    between atoms: C9_15  and  C10_16 
REMARK    6  A    between atoms: N3_18  and  C11_20 
REMARK    7  A    between atoms: C11_20  and  C12_21 
REMARK    8  A    between atoms: C12_21  and  C13_22 
ROOT
HETATM    1  S1  UNL     1      21.786  -8.979   4.463  1.00  0.00     0.259 S 
HETATM    2  O2  UNL     1      21.008  -8.620   3.240  1.00  0.00    -0.201 OA
HETATM    3  O3  UNL     1      22.027 -10.472   4.415  1.00  0.00    -0.201 OA
ENDROOT
BRANCH   1   4
HETATM    4  C8  UNL     1      23.328  -8.136   4.571  1.00  0.00     0.086 A 
HETATM    5  C6  UNL     1      23.454  -6.775   4.524  1.00  0.00    -0.028 A 
HETATM    6  C5  UNL     1      24.686  -6.123   4.621  1.00  0.00    -0.018 A 
HETATM    7  C7  UNL     1      22.256  -5.930   4.353  1.00  0.00     0.050 C 
HETATM    8  C4  UNL     1      24.808  -4.748   4.578  1.00  0.00     0.015 A 
HETATM    9  C20 UNL     1      25.825  -6.882   4.771  1.00  0.00    -0.023 A 
HETATM   10  C3  UNL     1      26.032  -4.113   4.680  1.00  0.00     0.037 A 
HETATM   11  C2  UNL     1      27.174  -4.867   4.829  1.00  0.00     0.069 A 
HETATM   12  C21 UNL     1      27.050  -6.239   4.872  1.00  0.00     0.049 A 
HETATM   13  C19 UNL     1      25.717  -8.255   4.820  1.00  0.00     0.014 A 
HETATM   14  C18 UNL     1      24.501  -8.893   4.724  1.00  0.00     0.027 A 
BRANCH  11  15
HETATM   15  O1  UNL     1      28.410  -4.245   4.932  1.00  0.00    -0.356 OA
HETATM   16  C1  UNL     1      28.661  -2.934   4.505  1.00  0.00     0.210 C 
ENDBRANCH  11  15
ENDBRANCH   1   4
BRANCH   1  17
HETATM   17  N1  UNL     1      20.828  -8.675   5.849  1.00  0.00    -0.309 N 
ATOM     18  H1  UNL     1      19.884  -8.290   5.814  1.00  0.00     0.172 HD
BRANCH  17  19
HETATM   19  C9  UNL     1      21.512  -9.026   7.080  1.00  0.00     0.205 C 
BRANCH  19  20
HETATM   20  C10 UNL     1      21.368  -7.999   8.120  1.00  0.00     0.107 C 
HETATM   21  N2  UNL     1      20.095  -7.659   8.656  1.00  0.00    -0.086 NA
HETATM   22  N3  UNL     1      22.391  -7.368   8.586  1.00  0.00    -0.380 N 
ATOM     23  H3  UNL     1      22.230  -6.666   9.308  1.00  0.00     0.160 HD
BRANCH  22  24
HETATM   24  C11 UNL     1      23.756  -7.591   8.152  1.00  0.00     0.125 C 
BRANCH  24  25
HETATM   25  C12 UNL     1      24.658  -7.175   9.315  1.00  0.00     0.059 C 
BRANCH  25  26
HETATM   26  C13 UNL     1      24.949  -5.736   9.286  1.00  0.00    -0.041 A 
HETATM   27  C14 UNL     1      24.571  -4.920  10.328  1.00  0.00     0.010 A 
HETATM   28  C15 UNL     1      24.850  -3.551  10.296  1.00  0.00     0.018 A 
HETATM   29  C16 UNL     1      25.509  -3.065   9.193  1.00  0.00     0.087 A 
HETATM   30  N4  UNL     1      25.875  -3.865   8.181  1.00  0.00    -0.375 N 
HETATM   31  C17 UNL     1      25.605  -5.201   8.208  1.00  0.00     0.094 A 
ATOM     32  H4  UNL     1      26.364  -3.468   7.379  1.00  0.00     0.164 HD
ENDBRANCH  25  26
ENDBRANCH  24  25
ENDBRANCH  22  24
ENDBRANCH  19  20
ENDBRANCH  17  19
ENDBRANCH   1  17
TORSDOF 8
ENDMDL
MODEL 5
REMARK VINA RESULT: -7.472799857      1.516      2.002
REMARK  8 active torsions:
REMARK  status: ('A' for Active; 'I' for Inactive)
REMARK    1  A    between atoms: O1_2  and  C2_3 
REMARK    2  A    between atoms: C8_9  and  S1_10 
REMARK    3  A    between atoms: S1_10  and  N1_13 
REMARK    4  A    between atoms: N1_13  and  C9_15 
REMARK    5  A    between atoms: C9_15  and  C10_16 
REMARK    6  A    between atoms: N3_18  and  C11_20 
REMARK    7  A    between atoms: C11_20  and  C12_21 
REMARK    8  A    between atoms: C12_21  and  C13_22 
ROOT
HETATM    1  S1  UNL     1      26.164  -7.640   4.350  1.00  0.00     0.259 S 
HETATM    2  O2  UNL     1      27.328  -8.242   3.636  1.00  0.00    -0.201 OA
HETATM    3  O3  UNL     1      25.254  -7.045   3.297  1.00  0.00    -0.201 OA
ENDROOT
BRANCH   1   4
HETATM    4  C8  UNL     1      25.266  -8.809   5.314  1.00  0.00     0.086 A 
HETATM    5  C6  UNL     1      24.120  -8.509   5.998  1.00  0.00    -0.028 A 
HETATM    6  C5  UNL     1      23.416  -9.453   6.749  1.00  0.00    -0.018 A 
HETATM    7  C7  UNL     1      23.585  -7.134   5.969  1.00  0.00     0.050 C 
HETATM    8  C4  UNL     1      22.257  -9.147   7.434  1.00  0.00     0.015 A 
HETATM    9  C20 UNL     1      23.894 -10.743   6.805  1.00  0.00    -0.023 A 
HETATM   10  C3  UNL     1      21.566 -10.090   8.171  1.00  0.00     0.037 A 
HETATM   11  C2  UNL     1      22.039 -11.381   8.231  1.00  0.00     0.069 A 
HETATM   12  C21 UNL     1      23.197 -11.684   7.547  1.00  0.00     0.049 A 
HETATM   13  C19 UNL     1      25.048 -11.063   6.123  1.00  0.00     0.014 A 
HETATM   14  C18 UNL     1      25.739 -10.130   5.384  1.00  0.00     0.027 A 
BRANCH  11  15
HETATM   15  O1  UNL     1      21.358 -12.339   8.968  1.00  0.00    -0.356 OA
HETATM   16  C1  UNL     1      21.708 -13.695   8.999  1.00  0.00     0.210 C 
ENDBRANCH  11  15
ENDBRANCH   1   4
BRANCH   1  17
HETATM   17  N1  UNL     1      26.711  -6.342   5.325  1.00  0.00    -0.309 N 
ATOM     18  H1  UNL     1      27.083  -6.458   6.268  1.00  0.00     0.172 HD
BRANCH  17  19
HETATM   19  C9  UNL     1      26.587  -5.060   4.658  1.00  0.00     0.205 C 
BRANCH  19  20
HETATM   20  C10 UNL     1      27.504  -4.049   5.201  1.00  0.00     0.107 C 
HETATM   21  N2  UNL     1      28.887  -4.047   4.868  1.00  0.00    -0.086 NA
HETATM   22  N3  UNL     1      27.088  -3.125   5.998  1.00  0.00    -0.380 N 
ATOM     23  H3  UNL     1      27.771  -2.450   6.342  1.00  0.00     0.160 HD
BRANCH  22  24
HETATM   24  C11 UNL     1      25.715  -2.983   6.438  1.00  0.00     0.125 C 
BRANCH  24  25
HETATM   25  C12 UNL     1      25.738  -3.028   7.966  1.00  0.00     0.059 C 
BRANCH  25  26
HETATM   26  C13 UNL     1      25.155  -4.274   8.479  1.00  0.00    -0.041 A 
HETATM   27  C14 UNL     1      25.931  -5.400   8.644  1.00  0.00     0.010 A 
HETATM   28  C15 UNL     1      25.370  -6.583   9.133  1.00  0.00     0.018 A 
HETATM   29  C16 UNL     1      24.031  -6.571   9.436  1.00  0.00     0.087 A 
HETATM   30  N4  UNL     1      23.281  -5.472   9.275  1.00  0.00    -0.375 N 
HETATM   31  C17 UNL     1      23.822  -4.315   8.798  1.00  0.00     0.094 A 
ATOM     32  H4  UNL     1      22.289  -5.501   9.512  1.00  0.00     0.164 HD
ENDBRANCH  25  26
ENDBRANCH  24  25
ENDBRANCH  22  24
ENDBRANCH  19  20
ENDBRANCH  17  19
ENDBRANCH   1  17
TORSDOF 8
ENDMDL
