MODEL 1
REMARK VINA RESULT: -7.143067048      0.000      0.000
REMARK  9 active torsions:
REMARK  status: ('A' for Active; 'I' for Inactive)
REMARK    1  A    between atoms: C2_2  and  N1_3 
REMARK    2  A    between atoms: N1_3  and  C3_4 
REMARK    3  A    between atoms: N1_3  and  C8_10 
REMARK    4  A    between atoms: C3_4  and  C4_5 
REMARK    5  A    between atoms: C4_5  and  C5_6 
REMARK    6  A    between atoms: C5_6  and  N2_7 
REMARK    7  A    between atoms: C8_10  and  C9_11 
REMARK       I    between atoms: C9_11  and  N3_13 
REMARK    8  A    between atoms: N3_13  and  C10_15 
REMARK    9  A    between atoms: N6_30  and  C20_31 
ROOT
HETATM    1  C10 UNL     1      23.832  -7.868   5.182  1.00  0.00     0.152 A 
HETATM    2  N4  UNL     1      23.400  -7.699   3.895  1.00  0.00    -0.283 N 
ATOM      3  H4  UNL     1      23.998  -7.636   3.071  1.00  0.00     0.188 HD
HETATM    4  N5  UNL     1      22.090  -7.631   3.896  1.00  0.00    -0.293 N 
ATOM      5  H5  UNL     1      21.498  -7.506   3.074  1.00  0.00     0.187 HD
HETATM    6  C11 UNL     1      21.655  -7.755   5.174  1.00  0.00     0.130 A 
HETATM    7  C12 UNL     1      20.385  -7.740   5.693  1.00  0.00     0.214 A 
HETATM    8  O2  UNL     1      19.418  -7.600   4.902  1.00  0.00    -0.285 OA
HETATM    9  C13 UNL     1      20.257  -7.882   7.055  1.00  0.00     0.043 A 
HETATM   10  C14 UNL     1      18.988  -7.857   7.587  1.00  0.00     0.018 A 
HETATM   11  C15 UNL     1      18.811  -7.983   8.947  1.00  0.00     0.008 A 
HETATM   12  C16 UNL     1      19.897  -8.134   9.779  1.00  0.00    -0.060 A 
HETATM   13  C17 UNL     1      19.642  -8.264  11.237  1.00  0.00     0.048 C 
HETATM   14  C18 UNL     1      21.185  -8.162   9.266  1.00  0.00     0.037 A 
HETATM   15  C19 UNL     1      21.356  -8.037   7.897  1.00  0.00     0.049 A 
HETATM   16  N6  UNL     1      22.606  -8.051   7.367  1.00  0.00    -0.341 N 
HETATM   17  C22 UNL     1      22.731  -7.909   6.025  1.00  0.00     0.113 A 
ENDROOT
BRANCH   1  18
HETATM   18  N3  UNL     1      25.046  -7.970   5.548  1.00  0.00    -0.309 N 
HETATM   19  C9  UNL     1      26.123  -7.509   4.753  1.00  0.00     0.251 C 
HETATM   20  O1  UNL     1      26.893  -8.354   4.165  1.00  0.00    -0.271 OA
ATOM     21  H3  UNL     1      25.251  -8.401   6.449  1.00  0.00     0.170 HD
BRANCH  19  22
HETATM   22  C8  UNL     1      26.468  -6.099   4.517  1.00  0.00     0.374 C 
BRANCH  22  23
HETATM   23  N1  UNL     1      26.927  -5.372   5.667  1.00  0.00     0.097 N 
BRANCH  23  24
HETATM   24  C2  UNL     1      28.081  -4.605   5.422  1.00  0.00     0.268 C 
HETATM   25  C1  UNL     1      27.930  -3.696   4.217  1.00  0.00     0.037 C 
ENDBRANCH  23  24
BRANCH  23  26
HETATM   26  C3  UNL     1      25.827  -4.816   6.340  1.00  0.00     0.275 C 
BRANCH  26  27
HETATM   27  C4  UNL     1      26.025  -4.217   7.682  1.00  0.00     0.060 C 
BRANCH  27  28
HETATM   28  C5  UNL     1      25.888  -5.333   8.716  1.00  0.00     0.273 C 
BRANCH  28  29
HETATM   29  N2  UNL     1      24.964  -5.002   9.751  1.00  0.00     0.080 N 
HETATM   30  C6  UNL     1      25.449  -3.826  10.441  1.00  0.00     0.309 C 
HETATM   31  C7  UNL     1      23.625  -4.761   9.320  1.00  0.00     0.309 C 
ENDBRANCH  28  29
ENDBRANCH  27  28
ENDBRANCH  26  27
ENDBRANCH  23  26
ENDBRANCH  22  23
ENDBRANCH  19  22
ENDBRANCH   1  18
BRANCH  16  32
HETATM   32  C20 UNL     1      23.734  -8.255   8.229  1.00  0.00     0.125 C 
HETATM   33  C21 UNL     1      23.970  -9.706   8.454  1.00  0.00     0.027 C 
ENDBRANCH  16  32
TORSDOF 9
ENDMDL
MODEL 2
REMARK VINA RESULT: -7.137980323      3.270      6.437
REMARK  9 active torsions:
REMARK  status: ('A' for Active; 'I' for Inactive)
REMARK    1  A    between atoms: C2_2  and  N1_3 
REMARK    2  A    between atoms: N1_3  and  C3_4 
REMARK    3  A    between atoms: N1_3  and  C8_10 
REMARK    4  A    between atoms: C3_4  and  C4_5 
REMARK    5  A    between atoms: C4_5  and  C5_6 
REMARK    6  A    between atoms: C5_6  and  N2_7 
REMARK    7  A    between atoms: C8_10  and  C9_11 
REMARK       I    between atoms: C9_11  and  N3_13 
REMARK    8  A    between atoms: N3_13  and  C10_15 
REMARK    9  A    between atoms: N6_30  and  C20_31 
ROOT
HETATM    1  C10 UNL     1      25.409  -7.758   4.946  1.00  0.00     0.152 A 
HETATM    2  N4  UNL     1      26.395  -7.451   4.048  1.00  0.00    -0.283 N 
ATOM      3  H4  UNL     1      26.655  -8.012   3.237  1.00  0.00     0.188 HD
HETATM    4  N5  UNL     1      26.949  -6.316   4.402  1.00  0.00    -0.293 N 
ATOM      5  H5  UNL     1      27.712  -5.847   3.913  1.00  0.00     0.187 HD
HETATM    6  C11 UNL     1      26.337  -5.871   5.526  1.00  0.00     0.130 A 
HETATM    7  C12 UNL     1      26.557  -4.747   6.282  1.00  0.00     0.214 A 
HETATM    8  O2  UNL     1      27.459  -3.951   5.918  1.00  0.00    -0.285 OA
HETATM    9  C13 UNL     1      25.767  -4.569   7.394  1.00  0.00     0.043 A 
HETATM   10  C14 UNL     1      25.989  -3.450   8.165  1.00  0.00     0.018 A 
HETATM   11  C15 UNL     1      25.231  -3.235   9.295  1.00  0.00     0.008 A 
HETATM   12  C16 UNL     1      24.253  -4.132   9.658  1.00  0.00    -0.060 A 
HETATM   13  C17 UNL     1      23.470  -3.845  10.888  1.00  0.00     0.048 C 
HETATM   14  C18 UNL     1      24.013  -5.266   8.897  1.00  0.00     0.037 A 
HETATM   15  C19 UNL     1      24.776  -5.475   7.761  1.00  0.00     0.049 A 
HETATM   16  N6  UNL     1      24.570  -6.582   7.002  1.00  0.00    -0.341 N 
HETATM   17  C22 UNL     1      25.350  -6.759   5.907  1.00  0.00     0.113 A 
ENDROOT
BRANCH   1  18
HETATM   18  N3  UNL     1      24.670  -8.791   4.909  1.00  0.00    -0.309 N 
HETATM   19  C9  UNL     1      25.177 -10.082   4.625  1.00  0.00     0.251 C 
HETATM   20  O1  UNL     1      24.920 -10.637   3.493  1.00  0.00    -0.271 OA
ATOM     21  H3  UNL     1      23.672  -8.686   5.091  1.00  0.00     0.170 HD
BRANCH  19  22
HETATM   22  C8  UNL     1      26.008 -10.892   5.529  1.00  0.00     0.374 C 
BRANCH  22  23
HETATM   23  N1  UNL     1      25.472 -12.177   5.879  1.00  0.00     0.097 N 
BRANCH  23  24
HETATM   24  C2  UNL     1      26.301 -13.251   5.507  1.00  0.00     0.268 C 
HETATM   25  C1  UNL     1      27.764 -12.857   5.434  1.00  0.00     0.037 C 
ENDBRANCH  23  24
BRANCH  23  26
HETATM   26  C3  UNL     1      24.912 -12.117   7.166  1.00  0.00     0.275 C 
BRANCH  26  27
HETATM   27  C4  UNL     1      24.881 -13.342   8.001  1.00  0.00     0.060 C 
BRANCH  27  28
HETATM   28  C5  UNL     1      25.674 -13.059   9.275  1.00  0.00     0.273 C 
BRANCH  28  29
HETATM   29  N2  UNL     1      26.444 -14.183   9.696  1.00  0.00     0.080 N 
HETATM   30  C6  UNL     1      27.634 -14.258   8.876  1.00  0.00     0.309 C 
HETATM   31  C7  UNL     1      26.834 -14.178  11.070  1.00  0.00     0.309 C 
ENDBRANCH  28  29
ENDBRANCH  27  28
ENDBRANCH  26  27
ENDBRANCH  23  26
ENDBRANCH  22  23
ENDBRANCH  19  22
ENDBRANCH   1  18
BRANCH  16  32
HETATM   32  C20 UNL     1      23.520  -7.493   7.355  1.00  0.00     0.125 C 
HETATM   33  C21 UNL     1      24.019  -8.539   8.286  1.00  0.00     0.027 C 
ENDBRANCH  16  32
TORSDOF 9
ENDMDL
MODEL 3
REMARK VINA RESULT: -7.121186640      3.331      6.391
REMARK  9 active torsions:
REMARK  status: ('A' for Active; 'I' for Inactive)
REMARK    1  A    between atoms: C2_2  and  N1_3 
REMARK    2  A    between atoms: N1_3  and  C3_4 
REMARK    3  A    between atoms: N1_3  and  C8_10 
REMARK    4  A    between atoms: C3_4  and  C4_5 
REMARK    5  A    between atoms: C4_5  and  C5_6 
REMARK    6  A    between atoms: C5_6  and  N2_7 
REMARK    7  A    between atoms: C8_10  and  C9_11 
REMARK       I    between atoms: C9_11  and  N3_13 
REMARK    8  A    between atoms: N3_13  and  C10_15 
REMARK    9  A    between atoms: N6_30  and  C20_31 
ROOT
HETATM    1  C10 UNL     1      24.147  -7.811   4.670  1.00  0.00     0.152 A 
HETATM    2  N4  UNL     1      24.389  -7.475   3.366  1.00  0.00    -0.283 N 
ATOM      3  H4  UNL     1      24.240  -8.082   2.559  1.00  0.00     0.188 HD
HETATM    4  N5  UNL     1      24.842  -6.245   3.324  1.00  0.00    -0.293 N 
ATOM      5  H5  UNL     1      25.106  -5.735   2.480  1.00  0.00     0.187 HD
HETATM    6  C11 UNL     1      24.902  -5.766   4.591  1.00  0.00     0.130 A 
HETATM    7  C12 UNL     1      25.312  -4.548   5.070  1.00  0.00     0.214 A 
HETATM    8  O2  UNL     1      25.703  -3.684   4.245  1.00  0.00    -0.285 OA
HETATM    9  C13 UNL     1      25.265  -4.356   6.431  1.00  0.00     0.043 A 
HETATM   10  C14 UNL     1      25.687  -3.140   6.922  1.00  0.00     0.018 A 
HETATM   11  C15 UNL     1      25.670  -2.906   8.279  1.00  0.00     0.008 A 
HETATM   12  C16 UNL     1      25.234  -3.880   9.148  1.00  0.00    -0.060 A 
HETATM   13  C17 UNL     1      25.241  -3.567  10.601  1.00  0.00     0.048 C 
HETATM   14  C18 UNL     1      24.806  -5.112   8.676  1.00  0.00     0.037 A 
HETATM   15  C19 UNL     1      24.823  -5.340   7.311  1.00  0.00     0.049 A 
HETATM   16  N6  UNL     1      24.419  -6.541   6.820  1.00  0.00    -0.341 N 
HETATM   17  C22 UNL     1      24.467  -6.730   5.479  1.00  0.00     0.113 A 
ENDROOT
BRANCH   1  18
HETATM   18  N3  UNL     1      23.703  -8.931   5.076  1.00  0.00    -0.309 N 
HETATM   19  C9  UNL     1      24.347 -10.157   4.785  1.00  0.00     0.251 C 
HETATM   20  O1  UNL     1      23.821 -10.973   3.941  1.00  0.00    -0.271 OA
ATOM     21  H3  UNL     1      22.849  -8.947   5.633  1.00  0.00     0.170 HD
BRANCH  19  22
HETATM   22  C8  UNL     1      25.616 -10.617   5.371  1.00  0.00     0.374 C 
BRANCH  22  23
HETATM   23  N1  UNL     1      25.625 -11.971   5.848  1.00  0.00     0.097 N 
BRANCH  23  24
HETATM   24  C2  UNL     1      26.766 -12.695   5.458  1.00  0.00     0.268 C 
HETATM   25  C1  UNL     1      26.492 -13.624   4.290  1.00  0.00     0.037 C 
ENDBRANCH  23  24
BRANCH  23  26
HETATM   26  C3  UNL     1      25.176 -12.001   7.179  1.00  0.00     0.275 C 
BRANCH  26  27
HETATM   27  C4  UNL     1      25.058 -13.306   7.874  1.00  0.00     0.060 C 
BRANCH  27  28
HETATM   28  C5  UNL     1      25.618 -13.135   9.285  1.00  0.00     0.273 C 
BRANCH  28  29
HETATM   29  N2  UNL     1      26.455 -14.223   9.671  1.00  0.00     0.080 N 
HETATM   30  C6  UNL     1      27.626 -14.227   8.821  1.00  0.00     0.309 C 
HETATM   31  C7  UNL     1      26.880 -14.214  11.035  1.00  0.00     0.309 C 
ENDBRANCH  28  29
ENDBRANCH  27  28
ENDBRANCH  26  27
ENDBRANCH  23  26
ENDBRANCH  22  23
ENDBRANCH  19  22
ENDBRANCH   1  18
BRANCH  16  32
HETATM   32  C20 UNL     1      23.922  -7.538   7.723  1.00  0.00     0.125 C 
HETATM   33  C21 UNL     1      22.462  -7.364   7.949  1.00  0.00     0.027 C 
ENDBRANCH  16  32
TORSDOF 9
ENDMDL
MODEL 4
REMARK VINA RESULT: -6.916288564      2.401      5.886
REMARK  9 active torsions:
REMARK  status: ('A' for Active; 'I' for Inactive)
REMARK    1  A    between atoms: C2_2  and  N1_3 
REMARK    2  A    between atoms: N1_3  and  C3_4 
REMARK    3  A    between atoms: N1_3  and  C8_10 
REMARK    4  A    between atoms: C3_4  and  C4_5 
REMARK    5  A    between atoms: C4_5  and  C5_6 
REMARK    6  A    between atoms: C5_6  and  N2_7 
REMARK    7  A    between atoms: C8_10  and  C9_11 
REMARK       I    between atoms: C9_11  and  N3_13 
REMARK    8  A    between atoms: N3_13  and  C10_15 
REMARK    9  A    between atoms: N6_30  and  C20_31 
ROOT
HETATM    1  C10 UNL     1      25.424  -7.795   4.887  1.00  0.00     0.152 A 
HETATM    2  N4  UNL     1      26.408  -7.492   3.986  1.00  0.00    -0.283 N 
ATOM      3  H4  UNL     1      26.666  -8.056   3.176  1.00  0.00     0.188 HD
HETATM    4  N5  UNL     1      26.964  -6.356   4.335  1.00  0.00    -0.293 N 
ATOM      5  H5  UNL     1      27.727  -5.890   3.843  1.00  0.00     0.187 HD
HETATM    6  C11 UNL     1      26.355  -5.908   5.460  1.00  0.00     0.130 A 
HETATM    7  C12 UNL     1      26.578  -4.782   6.211  1.00  0.00     0.214 A 
HETATM    8  O2  UNL     1      27.481  -3.988   5.843  1.00  0.00    -0.285 OA
HETATM    9  C13 UNL     1      25.791  -4.598   7.324  1.00  0.00     0.043 A 
HETATM   10  C14 UNL     1      26.015  -3.477   8.091  1.00  0.00     0.018 A 
HETATM   11  C15 UNL     1      25.260  -3.257   9.222  1.00  0.00     0.008 A 
HETATM   12  C16 UNL     1      24.282  -4.152   9.590  1.00  0.00    -0.060 A 
HETATM   13  C17 UNL     1      23.501  -3.861  10.821  1.00  0.00     0.048 C 
HETATM   14  C18 UNL     1      24.038  -5.289   8.833  1.00  0.00     0.037 A 
HETATM   15  C19 UNL     1      24.799  -5.503   7.696  1.00  0.00     0.049 A 
HETATM   16  N6  UNL     1      24.590  -6.612   6.941  1.00  0.00    -0.341 N 
HETATM   17  C22 UNL     1      25.367  -6.793   5.845  1.00  0.00     0.113 A 
ENDROOT
BRANCH   1  18
HETATM   18  N3  UNL     1      24.683  -8.828   4.855  1.00  0.00    -0.309 N 
HETATM   19  C9  UNL     1      25.185 -10.117   4.555  1.00  0.00     0.251 C 
HETATM   20  O1  UNL     1      24.911 -10.664   3.424  1.00  0.00    -0.271 OA
ATOM     21  H3  UNL     1      23.688  -8.723   5.052  1.00  0.00     0.170 HD
BRANCH  19  22
HETATM   22  C8  UNL     1      26.028 -10.933   5.442  1.00  0.00     0.374 C 
BRANCH  22  23
HETATM   23  N1  UNL     1      25.350 -11.980   6.152  1.00  0.00     0.097 N 
BRANCH  23  24
HETATM   24  C2  UNL     1      26.024 -13.214   6.110  1.00  0.00     0.268 C 
HETATM   25  C1  UNL     1      26.944 -13.414   7.300  1.00  0.00     0.037 C 
ENDBRANCH  23  24
BRANCH  23  26
HETATM   26  C3  UNL     1      24.851 -11.477   7.364  1.00  0.00     0.275 C 
BRANCH  26  27
HETATM   27  C4  UNL     1      23.384 -11.408   7.571  1.00  0.00     0.060 C 
BRANCH  27  28
HETATM   28  C5  UNL     1      23.135 -10.881   8.983  1.00  0.00     0.273 C 
BRANCH  28  29
HETATM   29  N2  UNL     1      21.768 -10.538   9.201  1.00  0.00     0.080 N 
HETATM   30  C6  UNL     1      21.718  -9.310   9.965  1.00  0.00     0.309 C 
HETATM   31  C7  UNL     1      20.982 -10.375   8.020  1.00  0.00     0.309 C 
ENDBRANCH  28  29
ENDBRANCH  27  28
ENDBRANCH  26  27
ENDBRANCH  23  26
ENDBRANCH  22  23
ENDBRANCH  19  22
ENDBRANCH   1  18
BRANCH  16  32
HETATM   32  C20 UNL     1      23.539  -7.520   7.299  1.00  0.00     0.125 C 
HETATM   33  C21 UNL     1      22.254  -7.114   6.671  1.00  0.00     0.027 C 
ENDBRANCH  16  32
TORSDOF 9
ENDMDL
MODEL 5
REMARK VINA RESULT: -6.901344779      3.033      6.276
REMARK  9 active torsions:
REMARK  status: ('A' for Active; 'I' for Inactive)
REMARK    1  A    between atoms: C2_2  and  N1_3 
REMARK    2  A    between atoms: N1_3  and  C3_4 
REMARK    3  A    between atoms: N1_3  and  C8_10 
REMARK    4  A    between atoms: C3_4  and  C4_5 
REMARK    5  A    between atoms: C4_5  and  C5_6 
REMARK    6  A    between atoms: C5_6  and  N2_7 
REMARK    7  A    between atoms: C8_10  and  C9_11 
REMARK       I    between atoms: C9_11  and  N3_13 
REMARK    8  A    between atoms: N3_13  and  C10_15 
REMARK    9  A    between atoms: N6_30  and  C20_31 
ROOT
HETATM    1  C10 UNL     1      24.664  -7.003   4.222  1.00  0.00     0.152 A 
HETATM    2  N4  UNL     1      25.181  -6.431   3.092  1.00  0.00    -0.283 N 
ATOM      3  H4  UNL     1      25.213  -6.863   2.168  1.00  0.00     0.188 HD
HETATM    4  N5  UNL     1      25.629  -5.235   3.392  1.00  0.00    -0.293 N 
ATOM      5  H5  UNL     1      26.067  -4.581   2.743  1.00  0.00     0.187 HD
HETATM    6  C11 UNL     1      25.411  -5.014   4.712  1.00  0.00     0.130 A 
HETATM    7  C12 UNL     1      25.703  -3.929   5.499  1.00  0.00     0.214 A 
HETATM    8  O2  UNL     1      26.261  -2.937   4.964  1.00  0.00    -0.285 OA
HETATM    9  C13 UNL     1      25.363  -4.003   6.829  1.00  0.00     0.043 A 
HETATM   10  C14 UNL     1      25.663  -2.924   7.630  1.00  0.00     0.018 A 
HETATM   11  C15 UNL     1      25.352  -2.957   8.971  1.00  0.00     0.008 A 
HETATM   12  C16 UNL     1      24.742  -4.063   9.517  1.00  0.00    -0.060 A 
HETATM   13  C17 UNL     1      24.433  -4.040  10.971  1.00  0.00     0.048 C 
HETATM   14  C18 UNL     1      24.431  -5.162   8.730  1.00  0.00     0.037 A 
HETATM   15  C19 UNL     1      24.744  -5.122   7.382  1.00  0.00     0.049 A 
HETATM   16  N6  UNL     1      24.460  -6.187   6.589  1.00  0.00    -0.341 N 
HETATM   17  C22 UNL     1      24.797  -6.114   5.278  1.00  0.00     0.113 A 
ENDROOT
BRANCH   1  18
HETATM   18  N3  UNL     1      24.147  -8.162   4.294  1.00  0.00    -0.309 N 
HETATM   19  C9  UNL     1      24.911  -9.347   4.166  1.00  0.00     0.251 C 
HETATM   20  O1  UNL     1      24.811 -10.063   3.103  1.00  0.00    -0.271 OA
ATOM     21  H3  UNL     1      23.142  -8.242   4.449  1.00  0.00     0.170 HD
BRANCH  19  22
HETATM   22  C8  UNL     1      25.853  -9.869   5.169  1.00  0.00     0.374 C 
BRANCH  22  23
HETATM   23  N1  UNL     1      25.396 -11.006   5.917  1.00  0.00     0.097 N 
BRANCH  23  24
HETATM   24  C2  UNL     1      24.043 -10.923   6.292  1.00  0.00     0.268 C 
HETATM   25  C1  UNL     1      23.857 -10.918   7.798  1.00  0.00     0.037 C 
ENDBRANCH  23  24
BRANCH  23  26
HETATM   26  C3  UNL     1      25.911 -12.181   5.346  1.00  0.00     0.275 C 
BRANCH  26  27
HETATM   27  C4  UNL     1      26.992 -12.914   6.049  1.00  0.00     0.060 C 
BRANCH  27  28
HETATM   28  C5  UNL     1      26.345 -13.766   7.140  1.00  0.00     0.273 C 
BRANCH  28  29
HETATM   29  N2  UNL     1      26.845 -13.454   8.439  1.00  0.00     0.080 N 
HETATM   30  C6  UNL     1      25.766 -13.593   9.393  1.00  0.00     0.309 C 
HETATM   31  C7  UNL     1      27.948 -14.248   8.877  1.00  0.00     0.309 C 
ENDBRANCH  28  29
ENDBRANCH  27  28
ENDBRANCH  26  27
ENDBRANCH  23  26
ENDBRANCH  22  23
ENDBRANCH  19  22
ENDBRANCH   1  18
BRANCH  16  32
HETATM   32  C20 UNL     1      23.782  -7.320   7.149  1.00  0.00     0.125 C 
HETATM   33  C21 UNL     1      22.309  -7.175   7.011  1.00  0.00     0.027 C 
ENDBRANCH  16  32
TORSDOF 9
ENDMDL
