MODEL 1
REMARK VINA RESULT: -7.105999485      0.000      0.000
REMARK  8 active torsions:
REMARK  status: ('A' for Active; 'I' for Inactive)
REMARK    1  A    between atoms: C2_2  and  C3_3 
REMARK    2  A    between atoms: C5_5  and  S1_6 
REMARK    3  A    between atoms: S1_6  and  N1_9 
REMARK    4  A    between atoms: N1_9  and  C6_10 
REMARK    5  A    between atoms: N1_9  and  C11_21 
REMARK    6  A    between atoms: C11_21  and  C12_22 
REMARK    7  A    between atoms: C11_21  and  C14_24 
REMARK    8  A    between atoms: C16_26  and  O5_27 
ROOT
HETATM    1  N1  UNL     1      22.924  -7.828   7.765  1.00  0.00    -0.260 N 
ENDROOT
BRANCH   1   2
HETATM    2  S1  UNL     1      23.794  -6.520   8.564  1.00  0.00     0.268 S 
HETATM    3  O1  UNL     1      24.533  -7.251   9.701  1.00  0.00    -0.200 OA
HETATM    4  O2  UNL     1      22.764  -5.692   9.297  1.00  0.00    -0.200 OA
BRANCH   2   5
HETATM    5  C5  UNL     1      24.865  -5.583   7.630  1.00  0.00     0.113 A 
HETATM    6  C4  UNL     1      25.414  -6.094   6.432  1.00  0.00     0.035 A 
HETATM    7  C3  UNL     1      26.310  -5.437   5.650  1.00  0.00    -0.051 A 
HETATM    8  C19 UNL     1      26.723  -4.181   6.035  1.00  0.00    -0.053 A 
HETATM    9  C18 UNL     1      26.224  -3.639   7.182  1.00  0.00     0.045 A 
HETATM   10  C20 UNL     1      27.709  -3.393   5.218  1.00  0.00     0.049 C 
HETATM   11  C16 UNL     1      25.301  -4.338   7.969  1.00  0.00     0.092 A 
BRANCH   7  12
HETATM   12  C2  UNL     1      26.857  -6.049   4.382  1.00  0.00     0.034 C 
HETATM   13  C1  UNL     1      26.532  -7.511   4.274  1.00  0.00     0.010 C 
ENDBRANCH   7  12
BRANCH  11  14
HETATM   14  O5  UNL     1      24.862  -3.658   9.111  1.00  0.00    -0.354 OA
HETATM   15  C17 UNL     1      25.485  -3.784  10.351  1.00  0.00     0.210 C 
ENDBRANCH  11  14
ENDBRANCH   2   5
ENDBRANCH   1   2
BRANCH   1  16
HETATM   16  C6  UNL     1      23.209  -9.146   8.227  1.00  0.00     0.136 A 
HETATM   17  C7  UNL     1      22.537  -9.707   9.273  1.00  0.00     0.043 A 
HETATM   18  C8  UNL     1      21.501  -9.045  10.107  1.00  0.00     0.071 C 
HETATM   19  N2  UNL     1      22.832 -10.980   9.684  1.00  0.00    -0.310 N 
HETATM   20  C9  UNL     1      23.789 -11.660   9.045  1.00  0.00     0.327 A 
ATOM     21  H2  UNL     1      22.330 -11.402  10.464  1.00  0.00     0.170 HD
HETATM   22  O3  UNL     1      24.085 -12.835   9.398  1.00  0.00    -0.247 OA
HETATM   23  N3  UNL     1      24.473 -11.142   8.018  1.00  0.00    -0.274 N 
HETATM   24  C10 UNL     1      24.210  -9.904   7.592  1.00  0.00     0.279 A 
ATOM     25  H3  UNL     1      25.198 -11.694   7.559  1.00  0.00     0.173 HD
HETATM   26  O4  UNL     1      24.850  -9.405   6.637  1.00  0.00    -0.265 OA
ENDBRANCH   1  16
BRANCH   1  27
HETATM   27  C11 UNL     1      22.064  -7.497   6.697  1.00  0.00     0.101 C 
BRANCH  27  28
HETATM   28  C12 UNL     1      22.610  -7.287   5.322  1.00  0.00     0.022 C 
HETATM   29  C13 UNL     1      22.277  -6.041   4.611  1.00  0.00     0.007 C 
ENDBRANCH  27  28
BRANCH  27  30
HETATM   30  C14 UNL     1      20.906  -8.568   6.531  1.00  0.00     0.022 C 
HETATM   31  C15 UNL     1      19.649  -7.859   6.998  1.00  0.00     0.007 C 
ENDBRANCH  27  30
ENDBRANCH   1  27
TORSDOF 8
ENDMDL
MODEL 2
REMARK VINA RESULT: -6.878863631      2.708      4.246
REMARK  8 active torsions:
REMARK  status: ('A' for Active; 'I' for Inactive)
REMARK    1  A    between atoms: C2_2  and  C3_3 
REMARK    2  A    between atoms: C5_5  and  S1_6 
REMARK    3  A    between atoms: S1_6  and  N1_9 
REMARK    4  A    between atoms: N1_9  and  C6_10 
REMARK    5  A    between atoms: N1_9  and  C11_21 
REMARK    6  A    between atoms: C11_21  and  C12_22 
REMARK    7  A    between atoms: C11_21  and  C14_24 
REMARK    8  A    between atoms: C16_26  and  O5_27 
ROOT
HETATM    1  N1  UNL     1      24.238  -8.625   5.010  1.00  0.00    -0.260 N 
ENDROOT
BRANCH   1   2
HETATM    2  S1  UNL     1      25.524  -7.449   4.746  1.00  0.00     0.268 S 
HETATM    3  O1  UNL     1      25.276  -6.997   3.294  1.00  0.00    -0.200 OA
HETATM    4  O2  UNL     1      26.816  -8.226   4.650  1.00  0.00    -0.200 OA
BRANCH   2   5
HETATM    5  C5  UNL     1      25.620  -6.117   5.803  1.00  0.00     0.113 A 
HETATM    6  C4  UNL     1      24.734  -5.999   6.897  1.00  0.00     0.035 A 
HETATM    7  C3  UNL     1      24.708  -4.951   7.761  1.00  0.00    -0.051 A 
HETATM    8  C19 UNL     1      25.603  -3.922   7.574  1.00  0.00    -0.053 A 
HETATM    9  C18 UNL     1      26.482  -3.985   6.534  1.00  0.00     0.045 A 
HETATM   10  C20 UNL     1      25.634  -2.731   8.492  1.00  0.00     0.049 C 
HETATM   11  C16 UNL     1      26.488  -5.077   5.658  1.00  0.00     0.092 A 
BRANCH   7  12
HETATM   12  C2  UNL     1      23.727  -4.892   8.909  1.00  0.00     0.034 C 
HETATM   13  C1  UNL     1      23.076  -6.221   9.165  1.00  0.00     0.010 C 
ENDBRANCH   7  12
BRANCH  11  14
HETATM   14  O5  UNL     1      27.451  -5.018   4.644  1.00  0.00    -0.354 OA
HETATM   15  C17 UNL     1      28.230  -3.888   4.408  1.00  0.00     0.210 C 
ENDBRANCH  11  14
ENDBRANCH   2   5
ENDBRANCH   1   2
BRANCH   1  16
HETATM   16  C6  UNL     1      24.611  -9.997   4.903  1.00  0.00     0.136 A 
HETATM   17  C7  UNL     1      24.603 -10.658   3.711  1.00  0.00     0.043 A 
HETATM   18  C8  UNL     1      24.157 -10.109   2.405  1.00  0.00     0.071 C 
HETATM   19  N2  UNL     1      24.976 -11.975   3.646  1.00  0.00    -0.310 N 
HETATM   20  C9  UNL     1      25.346 -12.598   4.769  1.00  0.00     0.327 A 
ATOM     21  H2  UNL     1      24.972 -12.471   2.756  1.00  0.00     0.170 HD
HETATM   22  O3  UNL     1      25.697 -13.810   4.744  1.00  0.00    -0.247 OA
HETATM   23  N3  UNL     1      25.363 -11.984   5.958  1.00  0.00    -0.274 N 
HETATM   24  C10 UNL     1      25.004 -10.702   6.056  1.00  0.00     0.279 A 
ATOM     25  H3  UNL     1      25.649 -12.497   6.792  1.00  0.00     0.173 HD
HETATM   26  O4  UNL     1      25.008 -10.118   7.166  1.00  0.00    -0.265 OA
ENDBRANCH   1  16
BRANCH   1  27
HETATM   27  C11 UNL     1      22.934  -8.141   5.245  1.00  0.00     0.101 C 
BRANCH  27  28
HETATM   28  C12 UNL     1      22.197  -7.403   4.176  1.00  0.00     0.022 C 
HETATM   29  C13 UNL     1      21.928  -5.967   4.364  1.00  0.00     0.007 C 
ENDBRANCH  27  28
BRANCH  27  30
HETATM   30  C14 UNL     1      21.958  -9.303   5.705  1.00  0.00     0.022 C 
HETATM   31  C15 UNL     1      21.596  -8.964   7.138  1.00  0.00     0.007 C 
ENDBRANCH  27  30
ENDBRANCH   1  27
TORSDOF 8
ENDMDL
MODEL 3
REMARK VINA RESULT: -6.859094458      3.221      6.624
REMARK  8 active torsions:
REMARK  status: ('A' for Active; 'I' for Inactive)
REMARK    1  A    between atoms: C2_2  and  C3_3 
REMARK    2  A    between atoms: C5_5  and  S1_6 
REMARK    3  A    between atoms: S1_6  and  N1_9 
REMARK    4  A    between atoms: N1_9  and  C6_10 
REMARK    5  A    between atoms: N1_9  and  C11_21 
REMARK    6  A    between atoms: C11_21  and  C12_22 
REMARK    7  A    between atoms: C11_21  and  C14_24 
REMARK    8  A    between atoms: C16_26  and  O5_27 
ROOT
HETATM    1  N1  UNL     1      25.108  -5.784   6.766  1.00  0.00    -0.260 N 
ENDROOT
BRANCH   1   2
HETATM    2  S1  UNL     1      23.668  -6.113   5.803  1.00  0.00     0.268 S 
HETATM    3  O1  UNL     1      23.791  -5.095   4.653  1.00  0.00    -0.200 OA
HETATM    4  O2  UNL     1      22.486  -5.601   6.592  1.00  0.00    -0.200 OA
BRANCH   2   5
HETATM    5  C5  UNL     1      23.445  -7.694   5.211  1.00  0.00     0.113 A 
HETATM    6  C4  UNL     1      24.336  -8.731   5.568  1.00  0.00     0.035 A 
HETATM    7  C3  UNL     1      24.262 -10.007   5.109  1.00  0.00    -0.051 A 
HETATM    8  C19 UNL     1      23.251 -10.332   4.231  1.00  0.00    -0.053 A 
HETATM    9  C18 UNL     1      22.362  -9.370   3.854  1.00  0.00     0.045 A 
HETATM   10  C20 UNL     1      23.105 -11.725   3.683  1.00  0.00     0.049 C 
HETATM   11  C16 UNL     1      22.461  -8.063   4.344  1.00  0.00     0.092 A 
BRANCH   7  12
HETATM   12  C2  UNL     1      25.254 -11.063   5.533  1.00  0.00     0.034 C 
HETATM   13  C1  UNL     1      24.940 -11.622   6.891  1.00  0.00     0.010 C 
ENDBRANCH   7  12
BRANCH  11  14
HETATM   14  O5  UNL     1      21.476  -7.182   3.884  1.00  0.00    -0.354 OA
HETATM   15  C17 UNL     1      20.348  -7.609   3.186  1.00  0.00     0.210 C 
ENDBRANCH  11  14
ENDBRANCH   2   5
ENDBRANCH   1   2
BRANCH   1  16
HETATM   16  C6  UNL     1      26.096  -4.960   6.155  1.00  0.00     0.136 A 
HETATM   17  C7  UNL     1      26.200  -3.628   6.431  1.00  0.00     0.043 A 
HETATM   18  C8  UNL     1      25.300  -2.842   7.313  1.00  0.00     0.071 C 
HETATM   19  N2  UNL     1      27.170  -2.869   5.830  1.00  0.00    -0.310 N 
HETATM   20  C9  UNL     1      28.008  -3.454   4.970  1.00  0.00     0.327 A 
ATOM     21  H2  UNL     1      27.250  -1.874   6.036  1.00  0.00     0.170 HD
HETATM   22  O3  UNL     1      28.914  -2.783   4.401  1.00  0.00    -0.247 OA
HETATM   23  N3  UNL     1      27.936  -4.756   4.670  1.00  0.00    -0.274 N 
HETATM   24  C10 UNL     1      27.003  -5.525   5.238  1.00  0.00     0.279 A 
ATOM     25  H3  UNL     1      28.594  -5.163   4.006  1.00  0.00     0.173 HD
HETATM   26  O4  UNL     1      26.919  -6.744   4.959  1.00  0.00    -0.265 OA
ENDBRANCH   1  16
BRANCH   1  27
HETATM   27  C11 UNL     1      25.213  -6.398   8.031  1.00  0.00     0.101 C 
BRANCH  27  28
HETATM   28  C12 UNL     1      26.034  -5.771   9.111  1.00  0.00     0.022 C 
HETATM   29  C13 UNL     1      25.362  -4.912  10.101  1.00  0.00     0.007 C 
ENDBRANCH  27  28
BRANCH  27  30
HETATM   30  C14 UNL     1      23.785  -6.643   8.677  1.00  0.00     0.022 C 
HETATM   31  C15 UNL     1      23.809  -8.086   9.141  1.00  0.00     0.007 C 
ENDBRANCH  27  30
ENDBRANCH   1  27
TORSDOF 8
ENDMDL
MODEL 4
REMARK VINA RESULT: -6.840903003      2.703      3.829
REMARK  8 active torsions:
REMARK  status: ('A' for Active; 'I' for Inactive)
REMARK    1  A    between atoms: C2_2  and  C3_3 
REMARK    2  A    between atoms: C5_5  and  S1_6 
REMARK    3  A    between atoms: S1_6  and  N1_9 
REMARK    4  A    between atoms: N1_9  and  C6_10 
REMARK    5  A    between atoms: N1_9  and  C11_21 
REMARK    6  A    between atoms: C11_21  and  C12_22 
REMARK    7  A    between atoms: C11_21  and  C14_24 
REMARK    8  A    between atoms: C16_26  and  O5_27 
ROOT
HETATM    1  N1  UNL     1      24.235  -8.490   4.895  1.00  0.00    -0.260 N 
ENDROOT
BRANCH   1   2
HETATM    2  S1  UNL     1      25.575  -7.365   4.678  1.00  0.00     0.268 S 
HETATM    3  O1  UNL     1      25.413  -6.925   3.211  1.00  0.00    -0.200 OA
HETATM    4  O2  UNL     1      26.841  -8.190   4.653  1.00  0.00    -0.200 OA
BRANCH   2   5
HETATM    5  C5  UNL     1      25.670  -6.023   5.721  1.00  0.00     0.113 A 
HETATM    6  C4  UNL     1      24.787  -5.896   6.816  1.00  0.00     0.035 A 
HETATM    7  C3  UNL     1      24.760  -4.840   7.671  1.00  0.00    -0.051 A 
HETATM    8  C19 UNL     1      25.651  -3.810   7.470  1.00  0.00    -0.053 A 
HETATM    9  C18 UNL     1      26.528  -3.881   6.429  1.00  0.00     0.045 A 
HETATM   10  C20 UNL     1      25.682  -2.610   8.377  1.00  0.00     0.049 C 
HETATM   11  C16 UNL     1      26.534  -4.982   5.564  1.00  0.00     0.092 A 
BRANCH   7  12
HETATM   12  C2  UNL     1      23.782  -4.773   8.820  1.00  0.00     0.034 C 
HETATM   13  C1  UNL     1      24.285  -5.502  10.033  1.00  0.00     0.010 C 
ENDBRANCH   7  12
BRANCH  11  14
HETATM   14  O5  UNL     1      27.494  -4.930   4.547  1.00  0.00    -0.354 OA
HETATM   15  C17 UNL     1      28.283  -3.807   4.310  1.00  0.00     0.210 C 
ENDBRANCH  11  14
ENDBRANCH   2   5
ENDBRANCH   1   2
BRANCH   1  16
HETATM   16  C6  UNL     1      24.534  -9.692   5.600  1.00  0.00     0.136 A 
HETATM   17  C7  UNL     1      24.314  -9.820   6.940  1.00  0.00     0.043 A 
HETATM   18  C8  UNL     1      23.823  -8.757   7.854  1.00  0.00     0.071 C 
HETATM   19  N2  UNL     1      24.606 -10.995   7.581  1.00  0.00    -0.310 N 
HETATM   20  C9  UNL     1      25.108 -12.011   6.873  1.00  0.00     0.327 A 
ATOM     21  H2  UNL     1      24.441 -11.094   8.582  1.00  0.00     0.170 HD
HETATM   22  O3  UNL     1      25.386 -13.108   7.433  1.00  0.00    -0.247 OA
HETATM   23  N3  UNL     1      25.341 -11.923   5.558  1.00  0.00    -0.274 N 
HETATM   24  C10 UNL     1      25.068 -10.792   4.902  1.00  0.00     0.279 A 
ATOM     25  H3  UNL     1      25.728 -12.721   5.055  1.00  0.00     0.173 HD
HETATM   26  O4  UNL     1      25.290 -10.694   3.672  1.00  0.00    -0.265 OA
ENDBRANCH   1  16
BRANCH   1  27
HETATM   27  C11 UNL     1      22.993  -8.161   4.314  1.00  0.00     0.101 C 
BRANCH  27  28
HETATM   28  C12 UNL     1      22.019  -9.234   3.951  1.00  0.00     0.022 C 
HETATM   29  C13 UNL     1      20.896  -9.509   4.864  1.00  0.00     0.007 C 
ENDBRANCH  27  28
BRANCH  27  30
HETATM   30  C14 UNL     1      22.180  -7.145   5.222  1.00  0.00     0.022 C 
HETATM   31  C15 UNL     1      21.989  -5.915   4.355  1.00  0.00     0.007 C 
ENDBRANCH  27  30
ENDBRANCH   1  27
TORSDOF 8
ENDMDL
MODEL 5
REMARK VINA RESULT: -6.840679042      3.399      5.408
REMARK  8 active torsions:
REMARK  status: ('A' for Active; 'I' for Inactive)
REMARK    1  A    between atoms: C2_2  and  C3_3 
REMARK    2  A    between atoms: C5_5  and  S1_6 
REMARK    3  A    between atoms: S1_6  and  N1_9 
REMARK    4  A    between atoms: N1_9  and  C6_10 
REMARK    5  A    between atoms: N1_9  and  C11_21 
REMARK    6  A    between atoms: C11_21  and  C12_22 
REMARK    7  A    between atoms: C11_21  and  C14_24 
REMARK    8  A    between atoms: C16_26  and  O5_27 
ROOT
HETATM    1  N1  UNL     1      24.764  -9.207   4.553  1.00  0.00    -0.260 N 
ENDROOT
BRANCH   1   2
HETATM    2  S1  UNL     1      25.810  -7.794   4.432  1.00  0.00     0.268 S 
HETATM    3  O1  UNL     1      25.303  -7.107   3.149  1.00  0.00    -0.200 OA
HETATM    4  O2  UNL     1      27.180  -8.295   4.036  1.00  0.00    -0.200 OA
BRANCH   2   5
HETATM    5  C5  UNL     1      25.847  -6.709   5.743  1.00  0.00     0.113 A 
HETATM    6  C4  UNL     1      25.066  -6.946   6.897  1.00  0.00     0.035 A 
HETATM    7  C3  UNL     1      24.997  -6.114   7.968  1.00  0.00    -0.051 A 
HETATM    8  C19 UNL     1      25.736  -4.952   7.947  1.00  0.00    -0.053 A 
HETATM    9  C18 UNL     1      26.509  -4.674   6.859  1.00  0.00     0.045 A 
HETATM   10  C20 UNL     1      25.712  -3.985   9.099  1.00  0.00     0.049 C 
HETATM   11  C16 UNL     1      26.562  -5.550   5.769  1.00  0.00     0.092 A 
BRANCH   7  12
HETATM   12  C2  UNL     1      24.135  -6.432   9.167  1.00  0.00     0.034 C 
HETATM   13  C1  UNL     1      22.746  -6.842   8.772  1.00  0.00     0.010 C 
ENDBRANCH   7  12
BRANCH  11  14
HETATM   14  O5  UNL     1      27.405  -5.148   4.726  1.00  0.00    -0.354 OA
HETATM   15  C17 UNL     1      28.026  -3.901   4.697  1.00  0.00     0.210 C 
ENDBRANCH  11  14
ENDBRANCH   2   5
ENDBRANCH   1   2
BRANCH   1  16
HETATM   16  C6  UNL     1      23.706  -9.288   3.602  1.00  0.00     0.136 A 
HETATM   17  C7  UNL     1      22.481  -8.736   3.831  1.00  0.00     0.043 A 
HETATM   18  C8  UNL     1      22.044  -8.056   5.079  1.00  0.00     0.071 C 
HETATM   19  N2  UNL     1      21.491  -8.827   2.889  1.00  0.00    -0.310 N 
HETATM   20  C9  UNL     1      21.746  -9.466   1.743  1.00  0.00     0.327 A 
ATOM     21  H2  UNL     1      20.575  -8.413   3.058  1.00  0.00     0.170 HD
HETATM   22  O3  UNL     1      20.857  -9.567   0.853  1.00  0.00    -0.247 OA
HETATM   23  N3  UNL     1      22.934 -10.025   1.482  1.00  0.00    -0.274 N 
HETATM   24  C10 UNL     1      23.920  -9.954   2.380  1.00  0.00     0.279 A 
ATOM     25  H3  UNL     1      23.087 -10.506   0.596  1.00  0.00     0.173 HD
HETATM   26  O4  UNL     1      25.034 -10.481   2.151  1.00  0.00    -0.265 OA
ENDBRANCH   1  16
BRANCH   1  27
HETATM   27  C11 UNL     1      25.000 -10.118   5.604  1.00  0.00     0.101 C 
BRANCH  27  28
HETATM   28  C12 UNL     1      23.857 -10.762   6.319  1.00  0.00     0.022 C 
HETATM   29  C13 UNL     1      23.544 -10.323   7.690  1.00  0.00     0.007 C 
ENDBRANCH  27  28
BRANCH  27  30
HETATM   30  C14 UNL     1      25.931 -11.314   5.136  1.00  0.00     0.022 C 
HETATM   31  C15 UNL     1      25.013 -12.519   5.071  1.00  0.00     0.007 C 
ENDBRANCH  27  30
ENDBRANCH   1  27
TORSDOF 8
ENDMDL
