MODEL 1
REMARK VINA RESULT: -7.004486785      0.000      0.000
REMARK  5 active torsions:
REMARK  status: ('A' for Active; 'I' for Inactive)
REMARK    1  A    between atoms: C9_12  and  C10_13 
REMARK    2  A    between atoms: C10_13  and  N3_14 
REMARK       I    between atoms: N3_14  and  C11_16 
REMARK       I    between atoms: C11_16  and  N4_18 
REMARK    3  A    between atoms: N4_18  and  C12_20 
REMARK    4  A    between atoms: C12_20  and  C14_22 
REMARK       I    between atoms: C14_22  and  N5_24 
REMARK    5  A    between atoms: N5_24  and  C15_26 
ROOT
HETATM    1  N3  UNL     1      25.104  -3.766  14.473  1.00  0.00    -0.343 N 
ATOM      2  H3  UNL     1      24.409  -3.277  15.037  1.00  0.00     0.164 HD
HETATM    3  C11 UNL     1      25.343  -5.136  14.688  1.00  0.00     0.316 C 
HETATM    4  O1  UNL     1      26.186  -5.730  13.984  1.00  0.00    -0.247 OA
HETATM    5  N4  UNL     1      24.668  -5.900  15.680  1.00  0.00    -0.330 N 
ATOM      6  H4  UNL     1      23.995  -5.396  16.258  1.00  0.00     0.165 HD
ENDROOT
BRANCH   1   7
HETATM    7  C10 UNL     1      25.827  -3.061  13.476  1.00  0.00     0.130 C 
BRANCH   7   8
HETATM    8  C9  UNL     1      25.014  -2.465  12.397  1.00  0.00     0.022 C 
HETATM    9  C6  UNL     1      25.327  -2.954  11.008  1.00  0.00     0.002 C 
HETATM   10  C4  UNL     1      24.520  -2.022  10.182  1.00  0.00     0.042 A 
HETATM   11  C7  UNL     1      26.782  -2.737  10.639  1.00  0.00     0.022 C 
HETATM   12  C8  UNL     1      24.915  -4.393  10.809  1.00  0.00     0.022 C 
HETATM   13  C3  UNL     1      24.354  -0.852  10.920  1.00  0.00    -0.009 A 
HETATM   14  N1  UNL     1      23.871  -1.830   8.994  1.00  0.00    -0.302 N 
HETATM   15  C2  UNL     1      23.602  -0.021  10.110  1.00  0.00     0.032 A 
HETATM   16  C19 UNL     1      25.038  -0.995  12.236  1.00  0.00     0.050 C 
HETATM   17  C1  UNL     1      23.163   1.357  10.465  1.00  0.00     0.070 C 
HETATM   18  N2  UNL     1      23.324  -0.629   8.959  1.00  0.00    -0.300 N 
HETATM   19  C5  UNL     1      22.562  -0.082   7.858  1.00  0.00     0.177 C 
ATOM     20  H1  UNL     1      23.817  -2.518   8.243  1.00  0.00     0.187 HD
ENDBRANCH   7   8
ENDBRANCH   1   7
BRANCH   5  21
HETATM   21  C12 UNL     1      24.823  -7.283  15.959  1.00  0.00     0.174 C 
HETATM   22  C13 UNL     1      26.171  -7.541  16.562  1.00  0.00     0.042 C 
BRANCH  21  23
HETATM   23  C14 UNL     1      23.784  -7.793  16.929  1.00  0.00     0.240 C 
HETATM   24  O2  UNL     1      22.909  -8.642  16.543  1.00  0.00    -0.271 OA
HETATM   25  N5  UNL     1      23.726  -7.363  18.275  1.00  0.00    -0.351 N 
ATOM     26  H5  UNL     1      24.404  -6.677  18.606  1.00  0.00     0.163 HD
BRANCH  25  27
HETATM   27  C15 UNL     1      22.735  -7.870  19.190  1.00  0.00     0.022 C 
HETATM   28  C16 UNL     1      21.423  -7.120  19.055  1.00  0.00     0.037 C 
HETATM   29  C17 UNL     1      23.284  -7.563  20.590  1.00  0.00     0.037 C 
HETATM   30  C18 UNL     1      22.494  -9.326  18.970  1.00  0.00     0.037 C 
ENDBRANCH  25  27
ENDBRANCH  21  23
ENDBRANCH   5  21
TORSDOF 5
ENDMDL
MODEL 2
REMARK VINA RESULT: -6.625577536      1.215      1.607
REMARK  5 active torsions:
REMARK  status: ('A' for Active; 'I' for Inactive)
REMARK    1  A    between atoms: C9_12  and  C10_13 
REMARK    2  A    between atoms: C10_13  and  N3_14 
REMARK       I    between atoms: N3_14  and  C11_16 
REMARK       I    between atoms: C11_16  and  N4_18 
REMARK    3  A    between atoms: N4_18  and  C12_20 
REMARK    4  A    between atoms: C12_20  and  C14_22 
REMARK       I    between atoms: C14_22  and  N5_24 
REMARK    5  A    between atoms: N5_24  and  C15_26 
ROOT
HETATM    1  N3  UNL     1      25.212  -3.557  14.023  1.00  0.00    -0.343 N 
ATOM      2  H3  UNL     1      24.687  -3.106  14.772  1.00  0.00     0.164 HD
HETATM    3  C11 UNL     1      25.299  -4.959  13.974  1.00  0.00     0.316 C 
HETATM    4  O1  UNL     1      25.932  -5.503  13.046  1.00  0.00    -0.247 OA
HETATM    5  N4  UNL     1      24.698  -5.814  14.940  1.00  0.00    -0.330 N 
ATOM      6  H4  UNL     1      24.199  -5.353  15.701  1.00  0.00     0.165 HD
ENDROOT
BRANCH   1   7
HETATM    7  C10 UNL     1      25.852  -2.764  13.034  1.00  0.00     0.130 C 
BRANCH   7   8
HETATM    8  C9  UNL     1      24.960  -2.145  12.034  1.00  0.00     0.022 C 
HETATM    9  C6  UNL     1      25.206  -2.555  10.607  1.00  0.00     0.002 C 
HETATM   10  C4  UNL     1      24.325  -1.612   9.875  1.00  0.00     0.042 A 
HETATM   11  C7  UNL     1      26.631  -2.271  10.168  1.00  0.00     0.022 C 
HETATM   12  C8  UNL     1      24.830  -3.996  10.359  1.00  0.00     0.022 C 
HETATM   13  C3  UNL     1      24.164  -0.486  10.679  1.00  0.00    -0.009 A 
HETATM   14  N1  UNL     1      23.603  -1.386   8.737  1.00  0.00    -0.302 N 
HETATM   15  C2  UNL     1      23.341   0.357   9.956  1.00  0.00     0.032 A 
HETATM   16  C19 UNL     1      24.928  -0.669  11.946  1.00  0.00     0.050 C 
HETATM   17  C1  UNL     1      22.879   1.700  10.403  1.00  0.00     0.070 C 
HETATM   18  N2  UNL     1      23.016  -0.204   8.793  1.00  0.00    -0.300 N 
HETATM   19  C5  UNL     1      22.175   0.369   7.766  1.00  0.00     0.177 C 
ATOM     20  H1  UNL     1      23.527  -2.038   7.956  1.00  0.00     0.187 HD
ENDBRANCH   7   8
ENDBRANCH   1   7
BRANCH   5  21
HETATM   21  C12 UNL     1      24.711  -7.233  14.967  1.00  0.00     0.174 C 
HETATM   22  C13 UNL     1      26.117  -7.738  14.851  1.00  0.00     0.042 C 
BRANCH  21  23
HETATM   23  C14 UNL     1      24.129  -7.789  16.245  1.00  0.00     0.240 C 
HETATM   24  O2  UNL     1      24.320  -7.180  17.352  1.00  0.00    -0.271 OA
HETATM   25  N5  UNL     1      23.371  -8.981  16.277  1.00  0.00    -0.351 N 
ATOM     26  H5  UNL     1      23.215  -9.494  15.409  1.00  0.00     0.163 HD
BRANCH  25  27
HETATM   27  C15 UNL     1      22.813  -9.491  17.504  1.00  0.00     0.022 C 
HETATM   28  C16 UNL     1      23.899  -9.816  18.513  1.00  0.00     0.037 C 
HETATM   29  C17 UNL     1      22.145 -10.819  17.122  1.00  0.00     0.037 C 
HETATM   30  C18 UNL     1      21.858  -8.516  18.107  1.00  0.00     0.037 C 
ENDBRANCH  25  27
ENDBRANCH  21  23
ENDBRANCH   5  21
TORSDOF 5
ENDMDL
MODEL 3
REMARK VINA RESULT: -6.585285525      2.051      2.584
REMARK  5 active torsions:
REMARK  status: ('A' for Active; 'I' for Inactive)
REMARK    1  A    between atoms: C9_12  and  C10_13 
REMARK    2  A    between atoms: C10_13  and  N3_14 
REMARK       I    between atoms: N3_14  and  C11_16 
REMARK       I    between atoms: C11_16  and  N4_18 
REMARK    3  A    between atoms: N4_18  and  C12_20 
REMARK    4  A    between atoms: C12_20  and  C14_22 
REMARK       I    between atoms: C14_22  and  N5_24 
REMARK    5  A    between atoms: N5_24  and  C15_26 
ROOT
HETATM    1  N3  UNL     1      24.333  -5.153  13.858  1.00  0.00    -0.343 N 
ATOM      2  H3  UNL     1      23.421  -5.256  13.413  1.00  0.00     0.164 HD
HETATM    3  C11 UNL     1      24.696  -6.006  14.916  1.00  0.00     0.316 C 
HETATM    4  O1  UNL     1      25.820  -5.882  15.446  1.00  0.00    -0.247 OA
HETATM    5  N4  UNL     1      23.843  -7.022  15.429  1.00  0.00    -0.330 N 
ATOM      6  H4  UNL     1      22.923  -7.099  14.996  1.00  0.00     0.165 HD
ENDROOT
BRANCH   1   7
HETATM    7  C10 UNL     1      25.229  -4.148  13.408  1.00  0.00     0.130 C 
BRANCH   7   8
HETATM    8  C9  UNL     1      24.764  -3.345  12.260  1.00  0.00     0.022 C 
HETATM    9  C6  UNL     1      25.431  -3.650  10.946  1.00  0.00     0.002 C 
HETATM   10  C4  UNL     1      24.914  -2.551  10.093  1.00  0.00     0.042 A 
HETATM   11  C7  UNL     1      26.939  -3.490  11.019  1.00  0.00     0.022 C 
HETATM   12  C8  UNL     1      25.045  -5.010  10.418  1.00  0.00     0.022 C 
HETATM   13  C3  UNL     1      24.588  -1.491  10.936  1.00  0.00    -0.009 A 
HETATM   14  N1  UNL     1      24.624  -2.143   8.822  1.00  0.00    -0.302 N 
HETATM   15  C2  UNL     1      24.116  -0.498  10.098  1.00  0.00     0.032 A 
HETATM   16  C19 UNL     1      24.879  -1.872  12.347  1.00  0.00     0.050 C 
HETATM   17  C1  UNL     1      23.639   0.843  10.536  1.00  0.00     0.070 C 
HETATM   18  N2  UNL     1      24.146  -0.911   8.832  1.00  0.00    -0.300 N 
HETATM   19  C5  UNL     1      23.735  -0.157   7.670  1.00  0.00     0.177 C 
ATOM     20  H1  UNL     1      24.758  -2.709   7.983  1.00  0.00     0.187 HD
ENDBRANCH   7   8
ENDBRANCH   1   7
BRANCH   5  21
HETATM   21  C12 UNL     1      24.124  -7.942  16.473  1.00  0.00     0.174 C 
HETATM   22  C13 UNL     1      23.171  -7.739  17.611  1.00  0.00     0.042 C 
BRANCH  21  23
HETATM   23  C14 UNL     1      24.000  -9.378  16.023  1.00  0.00     0.240 C 
HETATM   24  O2  UNL     1      24.801  -9.845  15.144  1.00  0.00    -0.271 OA
HETATM   25  N5  UNL     1      23.013 -10.251  16.536  1.00  0.00    -0.351 N 
ATOM     26  H5  UNL     1      22.352  -9.900  17.230  1.00  0.00     0.163 HD
BRANCH  25  27
HETATM   27  C15 UNL     1      22.916 -11.622  16.104  1.00  0.00     0.022 C 
HETATM   28  C16 UNL     1      22.490 -11.715  14.651  1.00  0.00     0.037 C 
HETATM   29  C17 UNL     1      21.784 -12.231  16.943  1.00  0.00     0.037 C 
HETATM   30  C18 UNL     1      24.215 -12.335  16.282  1.00  0.00     0.037 C 
ENDBRANCH  25  27
ENDBRANCH  21  23
ENDBRANCH   5  21
TORSDOF 5
ENDMDL
MODEL 4
REMARK VINA RESULT: -6.504055425      2.461      4.041
REMARK  5 active torsions:
REMARK  status: ('A' for Active; 'I' for Inactive)
REMARK    1  A    between atoms: C9_12  and  C10_13 
REMARK    2  A    between atoms: C10_13  and  N3_14 
REMARK       I    between atoms: N3_14  and  C11_16 
REMARK       I    between atoms: C11_16  and  N4_18 
REMARK    3  A    between atoms: N4_18  and  C12_20 
REMARK    4  A    between atoms: C12_20  and  C14_22 
REMARK       I    between atoms: C14_22  and  N5_24 
REMARK    5  A    between atoms: N5_24  and  C15_26 
ROOT
HETATM    1  N3  UNL     1      24.904  -5.598  15.605  1.00  0.00    -0.343 N 
ATOM      2  H3  UNL     1      24.099  -5.043  15.313  1.00  0.00     0.164 HD
HETATM    3  C11 UNL     1      24.731  -6.653  16.520  1.00  0.00     0.316 C 
HETATM    4  O1  UNL     1      25.719  -7.336  16.862  1.00  0.00    -0.247 OA
HETATM    5  N4  UNL     1      23.474  -6.994  17.091  1.00  0.00    -0.330 N 
ATOM      6  H4  UNL     1      22.681  -6.415  16.815  1.00  0.00     0.165 HD
ENDROOT
BRANCH   1   7
HETATM    7  C10 UNL     1      26.191  -5.302  15.087  1.00  0.00     0.130 C 
BRANCH   7   8
HETATM    8  C9  UNL     1      26.281  -4.090  14.249  1.00  0.00     0.022 C 
HETATM    9  C6  UNL     1      26.578  -2.814  14.988  1.00  0.00     0.002 C 
HETATM   10  C4  UNL     1      26.378  -1.803  13.921  1.00  0.00     0.042 A 
HETATM   11  C7  UNL     1      25.555  -2.529  16.073  1.00  0.00     0.022 C 
HETATM   12  C8  UNL     1      27.984  -2.792  15.537  1.00  0.00     0.022 C 
HETATM   13  C3  UNL     1      25.496  -2.351  12.992  1.00  0.00    -0.009 A 
HETATM   14  N1  UNL     1      26.697  -0.555  13.466  1.00  0.00    -0.302 N 
HETATM   15  C2  UNL     1      25.342  -1.376  12.024  1.00  0.00     0.032 A 
HETATM   16  C19 UNL     1      25.107  -3.722  13.427  1.00  0.00     0.050 C 
HETATM   17  C1  UNL     1      24.485  -1.495  10.812  1.00  0.00     0.070 C 
HETATM   18  N2  UNL     1      26.073  -0.305  12.329  1.00  0.00    -0.300 N 
HETATM   19  C5  UNL     1      26.172   0.917  11.563  1.00  0.00     0.177 C 
ATOM     20  H1  UNL     1      27.329   0.093  13.938  1.00  0.00     0.187 HD
ENDBRANCH   7   8
ENDBRANCH   1   7
BRANCH   5  21
HETATM   21  C12 UNL     1      23.195  -8.047  18.002  1.00  0.00     0.174 C 
HETATM   22  C13 UNL     1      21.940  -7.752  18.765  1.00  0.00     0.042 C 
BRANCH  21  23
HETATM   23  C14 UNL     1      23.006  -9.374  17.305  1.00  0.00     0.240 C 
HETATM   24  O2  UNL     1      21.829  -9.832  17.110  1.00  0.00    -0.271 OA
HETATM   25  N5  UNL     1      24.094 -10.155  16.853  1.00  0.00    -0.351 N 
ATOM     26  H5  UNL     1      25.045  -9.820  17.008  1.00  0.00     0.163 HD
BRANCH  25  27
HETATM   27  C15 UNL     1      23.895 -11.413  16.180  1.00  0.00     0.022 C 
HETATM   28  C16 UNL     1      23.359 -12.470  17.129  1.00  0.00     0.037 C 
HETATM   29  C17 UNL     1      25.296 -11.867  15.749  1.00  0.00     0.037 C 
HETATM   30  C18 UNL     1      22.956 -11.265  15.029  1.00  0.00     0.037 C 
ENDBRANCH  25  27
ENDBRANCH  21  23
ENDBRANCH   5  21
TORSDOF 5
ENDMDL
MODEL 5
REMARK VINA RESULT: -6.367299884      2.312      2.973
REMARK  5 active torsions:
REMARK  status: ('A' for Active; 'I' for Inactive)
REMARK    1  A    between atoms: C9_12  and  C10_13 
REMARK    2  A    between atoms: C10_13  and  N3_14 
REMARK       I    between atoms: N3_14  and  C11_16 
REMARK       I    between atoms: C11_16  and  N4_18 
REMARK    3  A    between atoms: N4_18  and  C12_20 
REMARK    4  A    between atoms: C12_20  and  C14_22 
REMARK       I    between atoms: C14_22  and  N5_24 
REMARK    5  A    between atoms: N5_24  and  C15_26 
ROOT
HETATM    1  N3  UNL     1      24.198  -5.583  14.129  1.00  0.00    -0.343 N 
ATOM      2  H3  UNL     1      23.327  -5.699  13.610  1.00  0.00     0.164 HD
HETATM    3  C11 UNL     1      24.456  -6.392  15.250  1.00  0.00     0.316 C 
HETATM    4  O1  UNL     1      25.531  -6.254  15.871  1.00  0.00    -0.247 OA
HETATM    5  N4  UNL     1      23.549  -7.377  15.729  1.00  0.00    -0.330 N 
ATOM      6  H4  UNL     1      22.669  -7.465  15.221  1.00  0.00     0.165 HD
ENDROOT
BRANCH   1   7
HETATM    7  C10 UNL     1      25.142  -4.607  13.715  1.00  0.00     0.130 C 
BRANCH   7   8
HETATM    8  C9  UNL     1      24.781  -3.839  12.508  1.00  0.00     0.022 C 
HETATM    9  C6  UNL     1      25.457  -4.278  11.237  1.00  0.00     0.002 C 
HETATM   10  C4  UNL     1      25.061  -3.195  10.305  1.00  0.00     0.042 A 
HETATM   11  C7  UNL     1      26.970  -4.242  11.352  1.00  0.00     0.022 C 
HETATM   12  C8  UNL     1      24.971  -5.632  10.776  1.00  0.00     0.022 C 
HETATM   13  C3  UNL     1      24.802  -2.062  11.073  1.00  0.00    -0.009 A 
HETATM   14  N1  UNL     1      24.844  -2.842   9.002  1.00  0.00    -0.302 N 
HETATM   15  C2  UNL     1      24.441  -1.085  10.162  1.00  0.00     0.032 A 
HETATM   16  C19 UNL     1      25.018  -2.379  12.512  1.00  0.00     0.050 C 
HETATM   17  C1  UNL     1      24.069   0.315  10.505  1.00  0.00     0.070 C 
HETATM   18  N2  UNL     1      24.473  -1.576   8.925  1.00  0.00    -0.300 N 
HETATM   19  C5  UNL     1      24.161  -0.862   7.707  1.00  0.00     0.177 C 
ATOM     20  H1  UNL     1      24.952  -3.467   8.203  1.00  0.00     0.187 HD
ENDBRANCH   7   8
ENDBRANCH   1   7
BRANCH   5  21
HETATM   21  C12 UNL     1      23.726  -8.251  16.834  1.00  0.00     0.174 C 
HETATM   22  C13 UNL     1      23.007  -7.719  18.036  1.00  0.00     0.042 C 
BRANCH  21  23
HETATM   23  C14 UNL     1      23.194  -9.638  16.560  1.00  0.00     0.240 C 
HETATM   24  O2  UNL     1      21.996  -9.940  16.887  1.00  0.00    -0.271 OA
HETATM   25  N5  UNL     1      23.977 -10.644  15.949  1.00  0.00    -0.351 N 
ATOM     26  H5  UNL     1      24.941 -10.434  15.689  1.00  0.00     0.163 HD
BRANCH  25  27
HETATM   27  C15 UNL     1      23.448 -11.958  15.684  1.00  0.00     0.022 C 
HETATM   28  C16 UNL     1      22.960 -12.625  16.957  1.00  0.00     0.037 C 
HETATM   29  C17 UNL     1      24.642 -12.779  15.178  1.00  0.00     0.037 C 
HETATM   30  C18 UNL     1      22.328 -11.900  14.699  1.00  0.00     0.037 C 
ENDBRANCH  25  27
ENDBRANCH  21  23
ENDBRANCH   5  21
TORSDOF 5
ENDMDL
