MODEL 1
REMARK VINA RESULT: -5.821223370      0.000      0.000
REMARK  9 active torsions:
REMARK  status: ('A' for Active; 'I' for Inactive)
REMARK    1  A    between atoms: C2_2  and  C3_3 
REMARK       I    between atoms: N1_6  and  C6_7 
REMARK       I    between atoms: C6_7  and  N6_25 
REMARK    2  A    between atoms: N2_8  and  C7_10 
REMARK    3  A    between atoms: C7_10  and  N3_12 
REMARK    4  A    between atoms: N3_12  and  N4_14 
REMARK    5  A    between atoms: N4_14  and  C8_16 
REMARK    6  A    between atoms: C8_16  and  N5_18 
REMARK    7  A    between atoms: N5_18  and  C9_20 
REMARK    8  A    between atoms: C9_20  and  C10_21 
REMARK    9  A    between atoms: C10_21  and  C11_22 
ROOT
HETATM    1  C7  UNL     1      25.818  -3.798   9.910  1.00  0.00     0.205 C 
HETATM    2  S1  UNL     1      27.318  -3.586  10.509  1.00  0.00    -0.039 SA
ENDROOT
BRANCH   1   3
HETATM    3  N2  UNL     1      24.990  -2.696   9.676  1.00  0.00    -0.165 N 
HETATM    4  C6  UNL     1      25.132  -1.913   8.666  1.00  0.00     0.678 C 
HETATM    5  N1  UNL     1      24.274  -0.800   8.455  1.00  0.00    -0.217 N 
HETATM    6  N6  UNL     1      26.187  -2.197   7.756  1.00  0.00    -0.230 N 
HETATM    7  C5  UNL     1      24.307   0.099   7.321  1.00  0.00     0.141 C 
HETATM    8  C15 UNL     1      23.213  -0.374   9.345  1.00  0.00     0.145 C 
HETATM    9  C4  UNL     1      22.844   0.427   7.150  1.00  0.00     0.027 C 
HETATM   10  C3  UNL     1      22.370   0.601   8.551  1.00  0.00     0.005 C 
HETATM   11  C14 UNL     1      26.107  -3.137   6.669  1.00  0.00     0.165 C 
ATOM     12  H6  UNL     1      27.068  -1.697   7.883  1.00  0.00     0.177 HD
ATOM     13  H2  UNL     1      24.238  -2.504  10.338  1.00  0.00     0.186 HD
BRANCH  10  14
HETATM   14  C2  UNL     1      22.608   1.979   9.120  1.00  0.00     0.002 C 
HETATM   15  C1  UNL     1      23.123   1.939  10.535  1.00  0.00     0.005 C 
ENDBRANCH  10  14
ENDBRANCH   1   3
BRANCH   1  16
HETATM   16  N3  UNL     1      25.380  -5.134   9.633  1.00  0.00    -0.274 N 
ATOM     17  H3  UNL     1      25.866  -5.680   8.921  1.00  0.00     0.189 HD
BRANCH  16  18
HETATM   18  N4  UNL     1      24.303  -5.706  10.315  1.00  0.00    -0.274 N 
ATOM     19  H4  UNL     1      23.368  -5.638   9.913  1.00  0.00     0.189 HD
BRANCH  18  20
HETATM   20  C8  UNL     1      24.475  -6.383  11.554  1.00  0.00     0.186 C 
HETATM   21  S2  UNL     1      25.636  -7.569  11.598  1.00  0.00    -0.040 SA
BRANCH  20  22
HETATM   22  N5  UNL     1      23.713  -6.072  12.690  1.00  0.00    -0.366 N 
ATOM     23  H5  UNL     1      22.721  -6.306  12.692  1.00  0.00     0.161 HD
BRANCH  22  24
HETATM   24  C9  UNL     1      24.271  -5.442  13.845  1.00  0.00     0.122 C 
BRANCH  24  25
HETATM   25  C10 UNL     1      25.165  -4.262  13.553  1.00  0.00     0.023 C 
BRANCH  25  26
HETATM   26  C11 UNL     1      24.454  -3.015  14.062  1.00  0.00    -0.021 C 
HETATM   27  C12 UNL     1      24.837  -1.908  13.082  1.00  0.00     0.009 C 
HETATM   28  C13 UNL     1      24.998  -2.679  15.425  1.00  0.00     0.009 C 
ENDBRANCH  25  26
ENDBRANCH  24  25
ENDBRANCH  22  24
ENDBRANCH  20  22
ENDBRANCH  18  20
ENDBRANCH  16  18
ENDBRANCH   1  16
TORSDOF 9
ENDMDL
MODEL 2
REMARK VINA RESULT: -5.535845042      2.187      5.734
REMARK  9 active torsions:
REMARK  status: ('A' for Active; 'I' for Inactive)
REMARK    1  A    between atoms: C2_2  and  C3_3 
REMARK       I    between atoms: N1_6  and  C6_7 
REMARK       I    between atoms: C6_7  and  N6_25 
REMARK    2  A    between atoms: N2_8  and  C7_10 
REMARK    3  A    between atoms: C7_10  and  N3_12 
REMARK    4  A    between atoms: N3_12  and  N4_14 
REMARK    5  A    between atoms: N4_14  and  C8_16 
REMARK    6  A    between atoms: C8_16  and  N5_18 
REMARK    7  A    between atoms: N5_18  and  C9_20 
REMARK    8  A    between atoms: C9_20  and  C10_21 
REMARK    9  A    between atoms: C10_21  and  C11_22 
ROOT
HETATM    1  C7  UNL     1      26.359  -3.486   8.130  1.00  0.00     0.205 C 
HETATM    2  S1  UNL     1      26.961  -4.952   7.753  1.00  0.00    -0.039 SA
ENDROOT
BRANCH   1   3
HETATM    3  N2  UNL     1      25.956  -3.205   9.439  1.00  0.00    -0.165 N 
HETATM    4  C6  UNL     1      26.766  -2.795  10.350  1.00  0.00     0.678 C 
HETATM    5  N1  UNL     1      26.326  -2.518  11.673  1.00  0.00    -0.217 N 
HETATM    6  N6  UNL     1      28.131  -2.627   9.990  1.00  0.00    -0.230 N 
HETATM    7  C5  UNL     1      27.138  -1.991  12.749  1.00  0.00     0.141 C 
HETATM    8  C15 UNL     1      24.980  -2.715  12.172  1.00  0.00     0.145 C 
HETATM    9  C4  UNL     1      26.143  -1.132  13.490  1.00  0.00     0.027 C 
HETATM   10  C3  UNL     1      24.908  -1.966  13.485  1.00  0.00     0.005 C 
HETATM   11  C14 UNL     1      28.678  -1.454   9.361  1.00  0.00     0.165 C 
ATOM     12  H6  UNL     1      28.771  -3.395  10.193  1.00  0.00     0.177 HD
ATOM     13  H2  UNL     1      24.974  -3.332   9.683  1.00  0.00     0.186 HD
BRANCH  10  14
HETATM   14  C2  UNL     1      24.845  -2.989  14.592  1.00  0.00     0.002 C 
HETATM   15  C1  UNL     1      25.293  -2.432  15.919  1.00  0.00     0.005 C 
ENDBRANCH  10  14
ENDBRANCH   1   3
BRANCH   1  16
HETATM   16  N3  UNL     1      26.257  -2.505   7.091  1.00  0.00    -0.274 N 
ATOM     17  H3  UNL     1      27.102  -2.202   6.607  1.00  0.00     0.189 HD
BRANCH  16  18
HETATM   18  N4  UNL     1      25.026  -1.954   6.723  1.00  0.00    -0.274 N 
ATOM     19  H4  UNL     1      24.325  -2.552   6.287  1.00  0.00     0.189 HD
BRANCH  18  20
HETATM   20  C8  UNL     1      24.725  -0.582   6.943  1.00  0.00     0.186 C 
HETATM   21  S2  UNL     1      26.015   0.460   7.017  1.00  0.00    -0.040 SA
BRANCH  20  22
HETATM   22  N5  UNL     1      23.410  -0.117   7.088  1.00  0.00    -0.366 N 
ATOM     23  H5  UNL     1      22.833  -0.011   6.254  1.00  0.00     0.161 HD
BRANCH  22  24
HETATM   24  C9  UNL     1      22.844   0.216   8.358  1.00  0.00     0.122 C 
BRANCH  24  25
HETATM   25  C10 UNL     1      23.429  -0.537   9.529  1.00  0.00     0.023 C 
BRANCH  25  26
HETATM   26  C11 UNL     1      23.698   0.477  10.633  1.00  0.00    -0.021 C 
HETATM   27  C12 UNL     1      22.957   1.742  10.204  1.00  0.00     0.009 C 
HETATM   28  C13 UNL     1      25.177   0.759  10.670  1.00  0.00     0.009 C 
ENDBRANCH  25  26
ENDBRANCH  24  25
ENDBRANCH  22  24
ENDBRANCH  20  22
ENDBRANCH  18  20
ENDBRANCH  16  18
ENDBRANCH   1  16
TORSDOF 9
ENDMDL
MODEL 3
REMARK VINA RESULT: -5.471791868      3.283      4.197
REMARK  9 active torsions:
REMARK  status: ('A' for Active; 'I' for Inactive)
REMARK    1  A    between atoms: C2_2  and  C3_3 
REMARK       I    between atoms: N1_6  and  C6_7 
REMARK       I    between atoms: C6_7  and  N6_25 
REMARK    2  A    between atoms: N2_8  and  C7_10 
REMARK    3  A    between atoms: C7_10  and  N3_12 
REMARK    4  A    between atoms: N3_12  and  N4_14 
REMARK    5  A    between atoms: N4_14  and  C8_16 
REMARK    6  A    between atoms: C8_16  and  N5_18 
REMARK    7  A    between atoms: N5_18  and  C9_20 
REMARK    8  A    between atoms: C9_20  and  C10_21 
REMARK    9  A    between atoms: C10_21  and  C11_22 
ROOT
HETATM    1  C7  UNL     1      28.725  -0.230  11.612  1.00  0.00     0.205 C 
HETATM    2  S1  UNL     1      29.952   0.596  10.929  1.00  0.00    -0.039 SA
ENDROOT
BRANCH   1   3
HETATM    3  N2  UNL     1      27.400   0.088  11.298  1.00  0.00    -0.165 N 
HETATM    4  C6  UNL     1      26.818  -0.312  10.223  1.00  0.00     0.678 C 
HETATM    5  N1  UNL     1      25.470   0.028   9.930  1.00  0.00    -0.217 N 
HETATM    6  N6  UNL     1      27.575  -1.113   9.324  1.00  0.00    -0.230 N 
HETATM    7  C5  UNL     1      24.705  -0.424   8.788  1.00  0.00     0.141 C 
HETATM    8  C15 UNL     1      24.625   0.889  10.734  1.00  0.00     0.145 C 
HETATM    9  C4  UNL     1      23.320  -0.542   9.375  1.00  0.00     0.027 C 
HETATM   10  C3  UNL     1      23.213   0.670  10.235  1.00  0.00     0.005 C 
HETATM   11  C14 UNL     1      27.746  -2.538   9.436  1.00  0.00     0.165 C 
ATOM     12  H6  UNL     1      28.030  -0.643   8.542  1.00  0.00     0.177 HD
ATOM     13  H2  UNL     1      26.870   0.664  11.952  1.00  0.00     0.186 HD
BRANCH  10  14
HETATM   14  C2  UNL     1      22.790   1.918   9.498  1.00  0.00     0.002 C 
HETATM   15  C1  UNL     1      21.637   1.673   8.560  1.00  0.00     0.005 C 
ENDBRANCH  10  14
ENDBRANCH   1   3
BRANCH   1  16
HETATM   16  N3  UNL     1      29.042  -1.280  12.534  1.00  0.00    -0.274 N 
ATOM     17  H3  UNL     1      29.077  -2.243  12.200  1.00  0.00     0.189 HD
BRANCH  16  18
HETATM   18  N4  UNL     1      29.306  -1.016  13.881  1.00  0.00    -0.274 N 
ATOM     19  H4  UNL     1      30.121  -0.454  14.127  1.00  0.00     0.189 HD
BRANCH  18  20
HETATM   20  C8  UNL     1      28.467  -1.508  14.918  1.00  0.00     0.186 C 
HETATM   21  S2  UNL     1      28.931  -2.930  15.639  1.00  0.00    -0.040 SA
BRANCH  20  22
HETATM   22  N5  UNL     1      27.304  -0.837  15.324  1.00  0.00    -0.366 N 
ATOM     23  H5  UNL     1      27.363  -0.186  16.106  1.00  0.00     0.161 HD
BRANCH  22  24
HETATM   24  C9  UNL     1      26.039  -1.028  14.687  1.00  0.00     0.122 C 
BRANCH  24  25
HETATM   25  C10 UNL     1      25.189  -2.125  15.283  1.00  0.00     0.023 C 
BRANCH  25  26
HETATM   26  C11 UNL     1      24.438  -2.792  14.138  1.00  0.00    -0.021 C 
HETATM   27  C12 UNL     1      24.943  -4.233  14.115  1.00  0.00     0.009 C 
HETATM   28  C13 UNL     1      24.827  -2.111  12.853  1.00  0.00     0.009 C 
ENDBRANCH  25  26
ENDBRANCH  24  25
ENDBRANCH  22  24
ENDBRANCH  20  22
ENDBRANCH  18  20
ENDBRANCH  16  18
ENDBRANCH   1  16
TORSDOF 9
ENDMDL
MODEL 4
REMARK VINA RESULT: -5.414197841      1.867      2.711
REMARK  9 active torsions:
REMARK  status: ('A' for Active; 'I' for Inactive)
REMARK    1  A    between atoms: C2_2  and  C3_3 
REMARK       I    between atoms: N1_6  and  C6_7 
REMARK       I    between atoms: C6_7  and  N6_25 
REMARK    2  A    between atoms: N2_8  and  C7_10 
REMARK    3  A    between atoms: C7_10  and  N3_12 
REMARK    4  A    between atoms: N3_12  and  N4_14 
REMARK    5  A    between atoms: N4_14  and  C8_16 
REMARK    6  A    between atoms: C8_16  and  N5_18 
REMARK    7  A    between atoms: N5_18  and  C9_20 
REMARK    8  A    between atoms: C9_20  and  C10_21 
REMARK    9  A    between atoms: C10_21  and  C11_22 
ROOT
HETATM    1  C7  UNL     1      26.105  -3.410  10.244  1.00  0.00     0.205 C 
HETATM    2  S1  UNL     1      25.722  -4.977  10.016  1.00  0.00    -0.039 SA
ENDROOT
BRANCH   1   3
HETATM    3  N2  UNL     1      25.188  -2.406   9.921  1.00  0.00    -0.165 N 
HETATM    4  C6  UNL     1      25.309  -1.651   8.886  1.00  0.00     0.678 C 
HETATM    5  N1  UNL     1      24.360  -0.637   8.584  1.00  0.00    -0.217 N 
HETATM    6  N6  UNL     1      26.435  -1.864   8.044  1.00  0.00    -0.230 N 
HETATM    7  C5  UNL     1      24.367   0.216   7.415  1.00  0.00     0.141 C 
HETATM    8  C15 UNL     1      23.215  -0.285   9.400  1.00  0.00     0.145 C 
HETATM    9  C4  UNL     1      22.891   0.391   7.156  1.00  0.00     0.027 C 
HETATM   10  C3  UNL     1      22.327   0.571   8.523  1.00  0.00     0.005 C 
HETATM   11  C14 UNL     1      26.505  -2.848   6.996  1.00  0.00     0.165 C 
ATOM     12  H6  UNL     1      27.254  -1.275   8.194  1.00  0.00     0.177 HD
ATOM     13  H2  UNL     1      24.386  -2.264  10.535  1.00  0.00     0.186 HD
BRANCH  10  14
HETATM   14  C2  UNL     1      22.399   1.986   9.043  1.00  0.00     0.002 C 
HETATM   15  C1  UNL     1      22.919   2.057  10.456  1.00  0.00     0.005 C 
ENDBRANCH  10  14
ENDBRANCH   1   3
BRANCH   1  16
HETATM   16  N3  UNL     1      27.398  -3.098  10.778  1.00  0.00    -0.274 N 
ATOM     17  H3  UNL     1      27.983  -2.414  10.297  1.00  0.00     0.189 HD
BRANCH  16  18
HETATM   18  N4  UNL     1      27.876  -3.708  11.940  1.00  0.00    -0.274 N 
ATOM     19  H4  UNL     1      28.143  -4.692  11.911  1.00  0.00     0.189 HD
BRANCH  18  20
HETATM   20  C8  UNL     1      28.000  -2.994  13.164  1.00  0.00     0.186 C 
HETATM   21  S2  UNL     1      28.647  -3.825  14.448  1.00  0.00    -0.040 SA
BRANCH  20  22
HETATM   22  N5  UNL     1      27.603  -1.655  13.294  1.00  0.00    -0.366 N 
ATOM     23  H5  UNL     1      28.168  -0.932  12.849  1.00  0.00     0.161 HD
BRANCH  22  24
HETATM   24  C9  UNL     1      26.440  -1.261  14.024  1.00  0.00     0.122 C 
BRANCH  24  25
HETATM   25  C10 UNL     1      25.128  -1.602  13.358  1.00  0.00     0.023 C 
BRANCH  25  26
HETATM   26  C11 UNL     1      24.384  -2.558  14.282  1.00  0.00    -0.021 C 
HETATM   27  C12 UNL     1      25.114  -2.471  15.620  1.00  0.00     0.009 C 
HETATM   28  C13 UNL     1      24.522  -3.954  13.734  1.00  0.00     0.009 C 
ENDBRANCH  25  26
ENDBRANCH  24  25
ENDBRANCH  22  24
ENDBRANCH  20  22
ENDBRANCH  18  20
ENDBRANCH  16  18
ENDBRANCH   1  16
TORSDOF 9
ENDMDL
MODEL 5
REMARK VINA RESULT: -5.407416514      2.038      3.428
REMARK  9 active torsions:
REMARK  status: ('A' for Active; 'I' for Inactive)
REMARK    1  A    between atoms: C2_2  and  C3_3 
REMARK       I    between atoms: N1_6  and  C6_7 
REMARK       I    between atoms: C6_7  and  N6_25 
REMARK    2  A    between atoms: N2_8  and  C7_10 
REMARK    3  A    between atoms: C7_10  and  N3_12 
REMARK    4  A    between atoms: N3_12  and  N4_14 
REMARK    5  A    between atoms: N4_14  and  C8_16 
REMARK    6  A    between atoms: C8_16  and  N5_18 
REMARK    7  A    between atoms: N5_18  and  C9_20 
REMARK    8  A    between atoms: C9_20  and  C10_21 
REMARK    9  A    between atoms: C10_21  and  C11_22 
ROOT
HETATM    1  C7  UNL     1      26.848  -2.790  10.102  1.00  0.00     0.205 C 
HETATM    2  S1  UNL     1      26.732  -4.402   9.899  1.00  0.00    -0.039 SA
ENDROOT
BRANCH   1   3
HETATM    3  N2  UNL     1      25.760  -1.962   9.811  1.00  0.00    -0.165 N 
HETATM    4  C6  UNL     1      25.723  -1.184   8.787  1.00  0.00     0.678 C 
HETATM    5  N1  UNL     1      24.602  -0.353   8.517  1.00  0.00    -0.217 N 
HETATM    6  N6  UNL     1      26.852  -1.180   7.923  1.00  0.00    -0.230 N 
HETATM    7  C5  UNL     1      24.434   0.503   7.363  1.00  0.00     0.141 C 
HETATM    8  C15 UNL     1      23.429  -0.223   9.358  1.00  0.00     0.145 C 
HETATM    9  C4  UNL     1      22.945   0.413   7.131  1.00  0.00     0.027 C 
HETATM   10  C3  UNL     1      22.384   0.471   8.511  1.00  0.00     0.005 C 
HETATM   11  C14 UNL     1      27.078  -2.122   6.858  1.00  0.00     0.165 C 
ATOM     12  H6  UNL     1      27.556  -0.456   8.069  1.00  0.00     0.177 HD
ATOM     13  H2  UNL     1      24.957  -1.975  10.440  1.00  0.00     0.186 HD
BRANCH  10  14
HETATM   14  C2  UNL     1      22.212   1.869   9.052  1.00  0.00     0.002 C 
HETATM   15  C1  UNL     1      22.789   2.028  10.435  1.00  0.00     0.005 C 
ENDBRANCH  10  14
ENDBRANCH   1   3
BRANCH   1  16
HETATM   16  N3  UNL     1      28.087  -2.253  10.581  1.00  0.00    -0.274 N 
ATOM     17  H3  UNL     1      28.908  -2.278   9.975  1.00  0.00     0.189 HD
BRANCH  16  18
HETATM   18  N4  UNL     1      28.199  -1.697  11.858  1.00  0.00    -0.274 N 
ATOM     19  H4  UNL     1      28.639  -2.242  12.600  1.00  0.00     0.189 HD
BRANCH  18  20
HETATM   20  C8  UNL     1      27.715  -0.393  12.152  1.00  0.00     0.186 C 
HETATM   21  S2  UNL     1      28.179   0.822  11.120  1.00  0.00    -0.040 SA
BRANCH  20  22
HETATM   22  N5  UNL     1      26.885  -0.131  13.252  1.00  0.00    -0.366 N 
ATOM     23  H5  UNL     1      26.762   0.836  13.552  1.00  0.00     0.161 HD
BRANCH  22  24
HETATM   24  C9  UNL     1      26.205  -1.162  13.970  1.00  0.00     0.122 C 
BRANCH  24  25
HETATM   25  C10 UNL     1      24.968  -1.698  13.289  1.00  0.00     0.023 C 
BRANCH  25  26
HETATM   26  C11 UNL     1      24.327  -2.704  14.236  1.00  0.00    -0.021 C 
HETATM   27  C12 UNL     1      25.088  -2.556  15.551  1.00  0.00     0.009 C 
HETATM   28  C13 UNL     1      24.553  -4.087  13.686  1.00  0.00     0.009 C 
ENDBRANCH  25  26
ENDBRANCH  24  25
ENDBRANCH  22  24
ENDBRANCH  20  22
ENDBRANCH  18  20
ENDBRANCH  16  18
ENDBRANCH   1  16
TORSDOF 9
ENDMDL
