MODEL 1
REMARK VINA RESULT: -7.179894884      0.000      0.000
REMARK  3 active torsions:
REMARK  status: ('A' for Active; 'I' for Inactive)
REMARK    1  A    between atoms: C2_2  and  N1_3 
REMARK    2  A    between atoms: C2_2  and  C4_8 
REMARK       I    between atoms: N1_3  and  C3_5 
REMARK       I    between atoms: C4_8  and  N3_10 
REMARK    3  A    between atoms: N3_10  and  C5_12 
ROOT
HETATM    1  C5  UNL     1      26.425  -1.484  10.496  1.00  0.00     0.102 C 
HETATM    2  C6  UNL     1      25.884  -2.513  11.416  1.00  0.00    -0.017 C 
HETATM    3  C7  UNL     1      25.174  -3.664  10.789  1.00  0.00     0.018 C 
HETATM    4  C8  UNL     1      26.749  -2.991  12.554  1.00  0.00     0.031 C 
HETATM    5  C9  UNL     1      26.000  -2.796  13.792  1.00  0.00     0.050 C 
HETATM    6  C10 UNL     1      25.135  -1.586  13.555  1.00  0.00     0.026 C 
HETATM    7  C11 UNL     1      25.036  -1.422  12.056  1.00  0.00     0.007 C 
HETATM    8  C12 UNL     1      26.047  -0.466  11.516  1.00  0.00    -0.015 A 
HETATM    9  C13 UNL     1      25.897   0.954  11.451  1.00  0.00     0.013 A 
HETATM   10  C14 UNL     1      26.986   0.306  12.317  1.00  0.00     0.013 A 
HETATM   11  C15 UNL     1      25.000  -3.862  14.171  1.00  0.00     0.227 C 
HETATM   12  O3  UNL     1      24.611  -4.911  13.686  1.00  0.00    -0.273 OA
HETATM   13  N4  UNL     1      24.517  -3.310  15.433  1.00  0.00    -0.360 N 
ATOM     14  H4  UNL     1      23.594  -3.465  15.837  1.00  0.00     0.162 HD
HETATM   15  C16 UNL     1      25.598  -2.486  16.027  1.00  0.00     0.132 C 
HETATM   16  C17 UNL     1      26.745  -2.823  15.075  1.00  0.00    -0.015 C 
HETATM   17  C18 UNL     1      27.045  -4.289  15.370  1.00  0.00     0.018 C 
HETATM   18  C19 UNL     1      27.966  -2.055  15.244  1.00  0.00     0.018 C 
ENDROOT
BRANCH   1  19
HETATM   19  N3  UNL     1      25.818  -1.334   9.209  1.00  0.00    -0.353 N 
HETATM   20  C4  UNL     1      26.271  -0.505   8.156  1.00  0.00     0.240 C 
HETATM   21  O2  UNL     1      27.221   0.255   8.205  1.00  0.00    -0.271 OA
ATOM     22  H3  UNL     1      24.974  -1.879   9.032  1.00  0.00     0.163 HD
BRANCH  20  23
HETATM   23  C2  UNL     1      25.503  -0.545   6.841  1.00  0.00     0.173 C 
HETATM   24  C1  UNL     1      24.286   0.392   7.121  1.00  0.00     0.042 C 
BRANCH  23  25
HETATM   25  N1  UNL     1      24.967  -1.815   6.510  1.00  0.00    -0.333 N 
HETATM   26  C3  UNL     1      25.705  -2.782   5.791  1.00  0.00     0.329 C 
HETATM   27  N2  UNL     1      25.261  -4.049   5.419  1.00  0.00    -0.040 NA
HETATM   28  O1  UNL     1      26.898  -2.418   5.477  1.00  0.00    -0.251 OA
ATOM     29  H1  UNL     1      24.015  -2.038   6.802  1.00  0.00     0.164 HD
ENDBRANCH  23  25
ENDBRANCH  20  23
ENDBRANCH   1  19
TORSDOF 3
ENDMDL
MODEL 2
REMARK VINA RESULT: -7.138612632      1.413      1.879
REMARK  3 active torsions:
REMARK  status: ('A' for Active; 'I' for Inactive)
REMARK    1  A    between atoms: C2_2  and  N1_3 
REMARK    2  A    between atoms: C2_2  and  C4_8 
REMARK       I    between atoms: N1_3  and  C3_5 
REMARK       I    between atoms: C4_8  and  N3_10 
REMARK    3  A    between atoms: N3_10  and  C5_12 
ROOT
HETATM    1  C5  UNL     1      26.437  -1.515  10.474  1.00  0.00     0.102 C 
HETATM    2  C6  UNL     1      25.850  -2.531  11.379  1.00  0.00    -0.017 C 
HETATM    3  C7  UNL     1      25.048  -3.612  10.739  1.00  0.00     0.018 C 
HETATM    4  C8  UNL     1      26.706  -3.099  12.481  1.00  0.00     0.031 C 
HETATM    5  C9  UNL     1      26.002  -2.889  13.742  1.00  0.00     0.050 C 
HETATM    6  C10 UNL     1      25.217  -1.617  13.561  1.00  0.00     0.026 C 
HETATM    7  C11 UNL     1      25.093  -1.403  12.069  1.00  0.00     0.007 C 
HETATM    8  C12 UNL     1      26.154  -0.503  11.530  1.00  0.00    -0.015 A 
HETATM    9  C13 UNL     1      26.099   0.926  11.508  1.00  0.00     0.013 A 
HETATM   10  C14 UNL     1      27.162   0.180  12.327  1.00  0.00     0.013 A 
HETATM   11  C15 UNL     1      24.942  -3.896  14.118  1.00  0.00     0.227 C 
HETATM   12  O3  UNL     1      24.471  -4.902  13.615  1.00  0.00    -0.273 OA
HETATM   13  N4  UNL     1      24.528  -3.350  15.406  1.00  0.00    -0.360 N 
ATOM     14  H4  UNL     1      23.605  -3.453  15.829  1.00  0.00     0.162 HD
HETATM   15  C16 UNL     1      25.676  -2.618  15.995  1.00  0.00     0.132 C 
HETATM   16  C17 UNL     1      26.774  -3.003  15.005  1.00  0.00    -0.015 C 
HETATM   17  C18 UNL     1      26.981  -4.494  15.252  1.00  0.00     0.018 C 
HETATM   18  C19 UNL     1      28.048  -2.325  15.163  1.00  0.00     0.018 C 
ENDROOT
BRANCH   1  19
HETATM   19  N3  UNL     1      25.811  -1.287   9.207  1.00  0.00    -0.353 N 
HETATM   20  C4  UNL     1      26.283  -0.441   8.175  1.00  0.00     0.240 C 
HETATM   21  O2  UNL     1      27.270   0.269   8.230  1.00  0.00    -0.271 OA
ATOM     22  H3  UNL     1      24.938  -1.782   9.030  1.00  0.00     0.163 HD
BRANCH  20  23
HETATM   23  C2  UNL     1      25.486  -0.394   6.878  1.00  0.00     0.173 C 
HETATM   24  C1  UNL     1      26.510   0.206   5.863  1.00  0.00     0.042 C 
BRANCH  23  25
HETATM   25  N1  UNL     1      24.376   0.488   6.899  1.00  0.00    -0.333 N 
HETATM   26  C3  UNL     1      23.111   0.098   7.393  1.00  0.00     0.329 C 
HETATM   27  N2  UNL     1      21.968   0.891   7.450  1.00  0.00    -0.040 NA
HETATM   28  O1  UNL     1      23.058  -1.111   7.828  1.00  0.00    -0.251 OA
ATOM     29  H1  UNL     1      24.496   1.438   6.546  1.00  0.00     0.164 HD
ENDBRANCH  23  25
ENDBRANCH  20  23
ENDBRANCH   1  19
TORSDOF 3
ENDMDL
MODEL 3
REMARK VINA RESULT: -6.814317599      1.947      7.051
REMARK  3 active torsions:
REMARK  status: ('A' for Active; 'I' for Inactive)
REMARK    1  A    between atoms: C2_2  and  N1_3 
REMARK    2  A    between atoms: C2_2  and  C4_8 
REMARK       I    between atoms: N1_3  and  C3_5 
REMARK       I    between atoms: C4_8  and  N3_10 
REMARK    3  A    between atoms: N3_10  and  C5_12 
ROOT
HETATM    1  C5  UNL     1      25.319  -1.636  12.128  1.00  0.00     0.102 C 
HETATM    2  C6  UNL     1      25.033  -1.953  10.709  1.00  0.00    -0.017 C 
HETATM    3  C7  UNL     1      24.904  -3.395  10.359  1.00  0.00     0.018 C 
HETATM    4  C8  UNL     1      23.988  -1.144   9.984  1.00  0.00     0.031 C 
HETATM    5  C9  UNL     1      24.612  -0.584   8.788  1.00  0.00     0.050 C 
HETATM    6  C10 UNL     1      26.057  -0.365   9.150  1.00  0.00     0.026 C 
HETATM    7  C11 UNL     1      26.335  -1.250  10.344  1.00  0.00     0.007 C 
HETATM    8  C12 UNL     1      26.185  -0.526  11.640  1.00  0.00    -0.015 A 
HETATM    9  C13 UNL     1      27.196   0.259  12.276  1.00  0.00     0.013 A 
HETATM   10  C14 UNL     1      25.888   0.891  11.782  1.00  0.00     0.013 A 
HETATM   11  C15 UNL     1      24.694  -1.474   7.571  1.00  0.00     0.227 C 
HETATM   12  O3  UNL     1      24.369  -2.616   7.297  1.00  0.00    -0.273 OA
HETATM   13  N4  UNL     1      25.332  -0.554   6.636  1.00  0.00    -0.360 N 
ATOM     14  H4  UNL     1      25.926  -0.819   5.850  1.00  0.00     0.162 HD
HETATM   15  C16 UNL     1      24.972   0.833   7.023  1.00  0.00     0.132 C 
HETATM   16  C17 UNL     1      23.933   0.545   8.106  1.00  0.00    -0.015 C 
HETATM   17  C18 UNL     1      22.761  -0.055   7.337  1.00  0.00     0.018 C 
HETATM   18  C19 UNL     1      23.456   1.692   8.859  1.00  0.00     0.018 C 
ENDROOT
BRANCH   1  19
HETATM   19  N3  UNL     1      25.969  -2.628  12.931  1.00  0.00    -0.353 N 
HETATM   20  C4  UNL     1      25.553  -3.085  14.203  1.00  0.00     0.240 C 
HETATM   21  O2  UNL     1      24.605  -2.661  14.839  1.00  0.00    -0.271 OA
ATOM     22  H3  UNL     1      26.815  -3.047  12.547  1.00  0.00     0.163 HD
BRANCH  20  23
HETATM   23  C2  UNL     1      26.363  -4.198  14.856  1.00  0.00     0.173 C 
HETATM   24  C1  UNL     1      27.830  -3.834  14.468  1.00  0.00     0.042 C 
BRANCH  23  25
HETATM   25  N1  UNL     1      26.116  -5.492  14.331  1.00  0.00    -0.333 N 
HETATM   26  C3  UNL     1      25.434  -6.488  15.066  1.00  0.00     0.329 C 
HETATM   27  N2  UNL     1      25.152  -7.782  14.636  1.00  0.00    -0.040 NA
HETATM   28  O1  UNL     1      25.050  -6.117  16.236  1.00  0.00    -0.251 OA
ATOM     29  H1  UNL     1      26.443  -5.711  13.390  1.00  0.00     0.164 HD
ENDBRANCH  23  25
ENDBRANCH  20  23
ENDBRANCH   1  19
TORSDOF 3
ENDMDL
MODEL 4
REMARK VINA RESULT: -6.713210749      2.173      2.770
REMARK  3 active torsions:
REMARK  status: ('A' for Active; 'I' for Inactive)
REMARK    1  A    between atoms: C2_2  and  N1_3 
REMARK    2  A    between atoms: C2_2  and  C4_8 
REMARK       I    between atoms: N1_3  and  C3_5 
REMARK       I    between atoms: C4_8  and  N3_10 
REMARK    3  A    between atoms: N3_10  and  C5_12 
ROOT
HETATM    1  C5  UNL     1      26.773  -0.988  10.136  1.00  0.00     0.102 C 
HETATM    2  C6  UNL     1      26.083  -1.428  11.372  1.00  0.00    -0.017 C 
HETATM    3  C7  UNL     1      24.633  -1.751  11.249  1.00  0.00     0.018 C 
HETATM    4  C8  UNL     1      26.767  -2.433  12.263  1.00  0.00     0.031 C 
HETATM    5  C9  UNL     1      26.849  -1.854  13.601  1.00  0.00     0.050 C 
HETATM    6  C10 UNL     1      26.971  -0.368  13.393  1.00  0.00     0.026 C 
HETATM    7  C11 UNL     1      26.460  -0.092  11.997  1.00  0.00     0.007 C 
HETATM    8  C12 UNL     1      27.556  -0.047  10.985  1.00  0.00    -0.015 A 
HETATM    9  C13 UNL     1      28.353   1.098  10.673  1.00  0.00     0.013 A 
HETATM   10  C14 UNL     1      28.976  -0.167  11.278  1.00  0.00     0.013 A 
HETATM   11  C15 UNL     1      25.630  -1.979  14.483  1.00  0.00     0.227 C 
HETATM   12  O3  UNL     1      24.513  -2.453  14.373  1.00  0.00    -0.273 OA
HETATM   13  N4  UNL     1      26.129  -1.322  15.687  1.00  0.00    -0.360 N 
ATOM     14  H4  UNL     1      25.561  -0.832  16.378  1.00  0.00     0.162 HD
HETATM   15  C16 UNL     1      27.603  -1.488  15.734  1.00  0.00     0.132 C 
HETATM   16  C17 UNL     1      27.800  -2.456  14.569  1.00  0.00    -0.015 C 
HETATM   17  C18 UNL     1      27.158  -3.750  15.058  1.00  0.00     0.018 C 
HETATM   18  C19 UNL     1      29.173  -2.734  14.189  1.00  0.00     0.018 C 
ENDROOT
BRANCH   1  19
HETATM   19  N3  UNL     1      25.992  -0.389   9.096  1.00  0.00    -0.353 N 
HETATM   20  C4  UNL     1      25.294  -1.069   8.071  1.00  0.00     0.240 C 
HETATM   21  O2  UNL     1      25.296  -2.271   7.882  1.00  0.00    -0.271 OA
ATOM     22  H3  UNL     1      25.934   0.629   9.093  1.00  0.00     0.163 HD
BRANCH  20  23
HETATM   23  C2  UNL     1      24.472  -0.233   7.098  1.00  0.00     0.173 C 
HETATM   24  C1  UNL     1      25.563   0.547   6.301  1.00  0.00     0.042 C 
BRANCH  23  25
HETATM   25  N1  UNL     1      23.646   0.743   7.712  1.00  0.00    -0.333 N 
HETATM   26  C3  UNL     1      22.278   0.514   7.982  1.00  0.00     0.329 C 
HETATM   27  N2  UNL     1      21.393   1.410   8.576  1.00  0.00    -0.040 NA
HETATM   28  O1  UNL     1      21.855  -0.651   7.637  1.00  0.00    -0.251 OA
ATOM     29  H1  UNL     1      24.055   1.643   7.968  1.00  0.00     0.164 HD
ENDBRANCH  23  25
ENDBRANCH  20  23
ENDBRANCH   1  19
TORSDOF 3
ENDMDL
MODEL 5
REMARK VINA RESULT: -6.629517611      2.053      7.021
REMARK  3 active torsions:
REMARK  status: ('A' for Active; 'I' for Inactive)
REMARK    1  A    between atoms: C2_2  and  N1_3 
REMARK    2  A    between atoms: C2_2  and  C4_8 
REMARK       I    between atoms: N1_3  and  C3_5 
REMARK       I    between atoms: C4_8  and  N3_10 
REMARK    3  A    between atoms: N3_10  and  C5_12 
ROOT
HETATM    1  C5  UNL     1      25.303  -1.703  12.073  1.00  0.00     0.102 C 
HETATM    2  C6  UNL     1      25.001  -1.970  10.647  1.00  0.00    -0.017 C 
HETATM    3  C7  UNL     1      24.928  -3.401  10.236  1.00  0.00     0.018 C 
HETATM    4  C8  UNL     1      23.905  -1.179   9.980  1.00  0.00     0.031 C 
HETATM    5  C9  UNL     1      24.477  -0.541   8.798  1.00  0.00     0.050 C 
HETATM    6  C10 UNL     1      25.918  -0.272   9.140  1.00  0.00     0.026 C 
HETATM    7  C11 UNL     1      26.261  -1.194  10.288  1.00  0.00     0.007 C 
HETATM    8  C12 UNL     1      26.108  -0.534  11.618  1.00  0.00    -0.015 A 
HETATM    9  C13 UNL     1      27.097   0.268  12.267  1.00  0.00     0.013 A 
HETATM   10  C14 UNL     1      25.751   0.860  11.828  1.00  0.00     0.013 A 
HETATM   11  C15 UNL     1      24.572  -1.372   7.541  1.00  0.00     0.227 C 
HETATM   12  O3  UNL     1      24.293  -2.516   7.223  1.00  0.00    -0.273 OA
HETATM   13  N4  UNL     1      25.148  -0.385   6.635  1.00  0.00    -0.360 N 
ATOM     14  H4  UNL     1      25.735  -0.588   5.826  1.00  0.00     0.162 HD
HETATM   15  C16 UNL     1      24.735   0.966   7.090  1.00  0.00     0.132 C 
HETATM   16  C17 UNL     1      23.734   0.585   8.180  1.00  0.00    -0.015 C 
HETATM   17  C18 UNL     1      22.573  -0.035   7.408  1.00  0.00     0.018 C 
HETATM   18  C19 UNL     1      23.222   1.675   8.992  1.00  0.00     0.018 C 
ENDROOT
BRANCH   1  19
HETATM   19  N3  UNL     1      26.014  -2.698  12.818  1.00  0.00    -0.353 N 
HETATM   20  C4  UNL     1      25.444  -3.738  13.589  1.00  0.00     0.240 C 
HETATM   21  O2  UNL     1      24.255  -3.913  13.783  1.00  0.00    -0.271 OA
ATOM     22  H3  UNL     1      27.032  -2.652  12.791  1.00  0.00     0.163 HD
BRANCH  20  23
HETATM   23  C2  UNL     1      26.392  -4.729  14.253  1.00  0.00     0.173 C 
HETATM   24  C1  UNL     1      25.416  -5.734  14.943  1.00  0.00     0.042 C 
BRANCH  23  25
HETATM   25  N1  UNL     1      27.195  -4.176  15.283  1.00  0.00    -0.333 N 
HETATM   26  C3  UNL     1      28.494  -3.674  15.041  1.00  0.00     0.329 C 
HETATM   27  N2  UNL     1      29.353  -3.119  15.986  1.00  0.00    -0.040 NA
HETATM   28  O1  UNL     1      28.874  -3.751  13.815  1.00  0.00    -0.251 OA
ATOM     29  H1  UNL     1      26.822  -4.139  16.232  1.00  0.00     0.164 HD
ENDBRANCH  23  25
ENDBRANCH  20  23
ENDBRANCH   1  19
TORSDOF 3
ENDMDL
