MODEL 1
REMARK VINA RESULT: -7.929164315      0.000      0.000
REMARK  9 active torsions:
REMARK  status: ('A' for Active; 'I' for Inactive)
REMARK    1  A    between atoms: C2_2  and  C3_3 
REMARK    2  A    between atoms: C3_3  and  C4_4 
REMARK    3  A    between atoms: C4_4  and  N1_5 
REMARK    4  A    between atoms: C11_12  and  N2_13 
REMARK    5  A    between atoms: N2_13  and  C12_15 
REMARK    6  A    between atoms: C12_15  and  N3_17 
REMARK    7  A    between atoms: N3_17  and  C13_19 
REMARK    8  A    between atoms: C16_22  and  C17_23 
REMARK    9  A    between atoms: C17_23  and  C18_25 
ROOT
HETATM    1  N3  UNL     1     -13.960  -2.848 -19.283  1.00  0.00    -0.363 N 
ATOM      2  H3  UNL     1     -13.916  -3.843 -19.067  1.00  0.00     0.162 HD
ENDROOT
BRANCH   1   3
HETATM    3  C12 UNL     1     -15.214  -2.270 -19.522  1.00  0.00     0.168 C 
HETATM    4  S1  UNL     1     -15.897  -2.423 -20.991  1.00  0.00    -0.041 SA
BRANCH   3   5
HETATM    5  N2  UNL     1     -15.887  -1.548 -18.503  1.00  0.00    -0.363 N 
ATOM      6  H2  UNL     1     -15.730  -1.823 -17.534  1.00  0.00     0.162 HD
BRANCH   5   7
HETATM    7  C11 UNL     1     -16.782  -0.446 -18.761  1.00  0.00     0.088 C 
HETATM    8  C10 UNL     1     -16.116   0.826 -19.117  1.00  0.00     0.061 C 
HETATM    9  C9  UNL     1     -17.144   1.932 -19.262  1.00  0.00     0.225 C 
HETATM   10  N1  UNL     1     -17.856   2.175 -18.063  1.00  0.00     0.098 N 
HETATM   11  C8  UNL     1     -18.047   1.670 -20.430  1.00  0.00     0.036 C 
HETATM   12  C5  UNL     1     -18.557   0.955 -17.719  1.00  0.00     0.225 C 
HETATM   13  C6  UNL     1     -19.656   0.784 -18.705  1.00  0.00     0.036 C 
HETATM   14  C26 UNL     1     -17.672  -0.228 -17.561  1.00  0.00     0.061 C 
HETATM   15  C7  UNL     1     -19.320   0.999 -20.129  1.00  0.00     0.004 C 
BRANCH  10  16
HETATM   16  C4  UNL     1     -17.098   2.695 -16.963  1.00  0.00     0.273 C 
BRANCH  16  17
HETATM   17  C3  UNL     1     -18.036   3.100 -15.857  1.00  0.00     0.030 C 
BRANCH  17  18
HETATM   18  C2  UNL     1     -17.334   4.150 -14.976  1.00  0.00    -0.003 C 
HETATM   19  C1  UNL     1     -15.849   3.994 -15.310  1.00  0.00     0.005 C 
ENDBRANCH  17  18
ENDBRANCH  16  17
ENDBRANCH  10  16
ENDBRANCH   5   7
ENDBRANCH   3   5
ENDBRANCH   1   3
BRANCH   1  20
HETATM   20  C13 UNL     1     -12.726  -2.099 -19.329  1.00  0.00     0.083 C 
HETATM   21  C14 UNL     1     -12.970  -0.661 -19.711  1.00  0.00     0.026 C 
HETATM   22  C15 UNL     1     -12.023   0.310 -19.024  1.00  0.00     0.014 C 
HETATM   23  C16 UNL     1     -12.194   0.344 -17.532  1.00  0.00     0.061 C 
HETATM   24  C24 UNL     1     -12.899  -0.977 -17.175  1.00  0.00     0.014 C 
HETATM   25  C25 UNL     1     -12.093  -2.042 -17.936  1.00  0.00     0.026 C 
BRANCH  23  26
HETATM   26  C17 UNL     1     -13.031   1.456 -17.038  1.00  0.00     0.166 C 
HETATM   27  O1  UNL     1     -14.043   1.175 -16.289  1.00  0.00    -0.292 OA
BRANCH  26  28
HETATM   28  C18 UNL     1     -12.824   2.866 -17.322  1.00  0.00     0.049 A 
HETATM   29  C19 UNL     1     -13.652   3.459 -18.291  1.00  0.00     0.021 A 
HETATM   30  C20 UNL     1     -13.480   4.780 -18.630  1.00  0.00     0.043 A 
HETATM   31  C21 UNL     1     -12.509   5.539 -18.035  1.00  0.00     0.119 A 
HETATM   32  F1  UNL     1     -12.409   6.835 -18.426  1.00  0.00    -0.206 F 
HETATM   33  C22 UNL     1     -11.711   4.965 -17.098  1.00  0.00     0.085 A 
HETATM   34  C23 UNL     1     -11.863   3.640 -16.739  1.00  0.00     0.133 A 
HETATM   35  F2  UNL     1     -11.064   3.114 -15.783  1.00  0.00    -0.205 F 
ENDBRANCH  26  28
ENDBRANCH  23  26
ENDBRANCH   1  20
TORSDOF 9
ENDMDL
MODEL 2
REMARK VINA RESULT: -7.928393965      2.962      5.876
REMARK  9 active torsions:
REMARK  status: ('A' for Active; 'I' for Inactive)
REMARK    1  A    between atoms: C2_2  and  C3_3 
REMARK    2  A    between atoms: C3_3  and  C4_4 
REMARK    3  A    between atoms: C4_4  and  N1_5 
REMARK    4  A    between atoms: C11_12  and  N2_13 
REMARK    5  A    between atoms: N2_13  and  C12_15 
REMARK    6  A    between atoms: C12_15  and  N3_17 
REMARK    7  A    between atoms: N3_17  and  C13_19 
REMARK    8  A    between atoms: C16_22  and  C17_23 
REMARK    9  A    between atoms: C17_23  and  C18_25 
ROOT
HETATM    1  N3  UNL     1     -15.351  -1.779 -16.415  1.00  0.00    -0.363 N 
ATOM      2  H3  UNL     1     -14.841  -2.107 -17.234  1.00  0.00     0.162 HD
ENDROOT
BRANCH   1   3
HETATM    3  C12 UNL     1     -14.625  -1.215 -15.356  1.00  0.00     0.168 C 
HETATM    4  S1  UNL     1     -14.300  -2.117 -14.041  1.00  0.00    -0.041 SA
BRANCH   3   5
HETATM    5  N2  UNL     1     -14.180   0.131 -15.416  1.00  0.00    -0.363 N 
ATOM      6  H2  UNL     1     -14.532   0.785 -14.717  1.00  0.00     0.162 HD
BRANCH   5   7
HETATM    7  C11 UNL     1     -13.259   0.626 -16.409  1.00  0.00     0.088 C 
HETATM    8  C10 UNL     1     -12.746   1.990 -16.157  1.00  0.00     0.061 C 
HETATM    9  C9  UNL     1     -11.873   2.442 -17.311  1.00  0.00     0.225 C 
HETATM   10  N1  UNL     1     -12.579   2.500 -18.538  1.00  0.00     0.098 N 
HETATM   11  C8  UNL     1     -10.629   1.610 -17.398  1.00  0.00     0.036 C 
HETATM   12  C5  UNL     1     -13.050   1.163 -18.831  1.00  0.00     0.225 C 
HETATM   13  C6  UNL     1     -11.863   0.345 -19.193  1.00  0.00     0.036 C 
HETATM   14  C26 UNL     1     -13.910   0.578 -17.770  1.00  0.00     0.061 C 
HETATM   15  C7  UNL     1     -10.672   0.472 -18.327  1.00  0.00     0.004 C 
BRANCH  10  16
HETATM   16  C4  UNL     1     -13.623   3.478 -18.629  1.00  0.00     0.273 C 
BRANCH  16  17
HETATM   17  C3  UNL     1     -13.071   4.746 -19.224  1.00  0.00     0.030 C 
BRANCH  17  18
HETATM   18  C2  UNL     1     -13.105   5.849 -18.150  1.00  0.00    -0.003 C 
HETATM   19  C1  UNL     1     -11.631   6.156 -17.877  1.00  0.00     0.005 C 
ENDBRANCH  17  18
ENDBRANCH  16  17
ENDBRANCH  10  16
ENDBRANCH   5   7
ENDBRANCH   3   5
ENDBRANCH   1   3
BRANCH   1  20
HETATM   20  C13 UNL     1     -16.788  -1.916 -16.398  1.00  0.00     0.083 C 
HETATM   21  C14 UNL     1     -17.442  -0.771 -15.668  1.00  0.00     0.026 C 
HETATM   22  C15 UNL     1     -18.783  -0.372 -16.260  1.00  0.00     0.014 C 
HETATM   23  C16 UNL     1     -18.675   0.163 -17.660  1.00  0.00     0.061 C 
HETATM   24  C24 UNL     1     -17.326  -0.357 -18.189  1.00  0.00     0.014 C 
HETATM   25  C25 UNL     1     -17.340  -1.851 -17.825  1.00  0.00     0.026 C 
BRANCH  23  26
HETATM   26  C17 UNL     1     -18.663   1.637 -17.751  1.00  0.00     0.166 C 
HETATM   27  O1  UNL     1     -19.183   2.190 -18.795  1.00  0.00    -0.292 OA
BRANCH  26  28
HETATM   28  C18 UNL     1     -18.110   2.546 -16.763  1.00  0.00     0.049 A 
HETATM   29  C19 UNL     1     -16.720   2.758 -16.784  1.00  0.00     0.021 A 
HETATM   30  C20 UNL     1     -16.133   3.578 -15.850  1.00  0.00     0.043 A 
HETATM   31  C21 UNL     1     -16.881   4.200 -14.889  1.00  0.00     0.119 A 
HETATM   32  F1  UNL     1     -16.222   4.993 -14.007  1.00  0.00    -0.206 F 
HETATM   33  C22 UNL     1     -18.224   3.995 -14.870  1.00  0.00     0.085 A 
HETATM   34  C23 UNL     1     -18.840   3.177 -15.797  1.00  0.00     0.133 A 
HETATM   35  F2  UNL     1     -20.182   3.019 -15.758  1.00  0.00    -0.205 F 
ENDBRANCH  26  28
ENDBRANCH  23  26
ENDBRANCH   1  20
TORSDOF 9
ENDMDL
MODEL 3
REMARK VINA RESULT: -7.741919486      1.969      3.176
REMARK  9 active torsions:
REMARK  status: ('A' for Active; 'I' for Inactive)
REMARK    1  A    between atoms: C2_2  and  C3_3 
REMARK    2  A    between atoms: C3_3  and  C4_4 
REMARK    3  A    between atoms: C4_4  and  N1_5 
REMARK    4  A    between atoms: C11_12  and  N2_13 
REMARK    5  A    between atoms: N2_13  and  C12_15 
REMARK    6  A    between atoms: C12_15  and  N3_17 
REMARK    7  A    between atoms: N3_17  and  C13_19 
REMARK    8  A    between atoms: C16_22  and  C17_23 
REMARK    9  A    between atoms: C17_23  and  C18_25 
ROOT
HETATM    1  N3  UNL     1     -12.904  -1.027 -21.092  1.00  0.00    -0.363 N 
ATOM      2  H3  UNL     1     -12.927  -0.123 -21.562  1.00  0.00     0.162 HD
ENDROOT
BRANCH   1   3
HETATM    3  C12 UNL     1     -13.735  -2.051 -21.569  1.00  0.00     0.168 C 
HETATM    4  S1  UNL     1     -13.132  -3.552 -21.745  1.00  0.00    -0.041 SA
BRANCH   3   5
HETATM    5  N2  UNL     1     -15.088  -1.790 -21.906  1.00  0.00    -0.363 N 
ATOM      6  H2  UNL     1     -15.439  -2.146 -22.795  1.00  0.00     0.162 HD
BRANCH   5   7
HETATM    7  C11 UNL     1     -15.995  -1.051 -21.062  1.00  0.00     0.088 C 
HETATM    8  C10 UNL     1     -17.214  -1.786 -20.665  1.00  0.00     0.061 C 
HETATM    9  C9  UNL     1     -18.136  -0.880 -19.870  1.00  0.00     0.225 C 
HETATM   10  N1  UNL     1     -18.570   0.243 -20.615  1.00  0.00     0.098 N 
HETATM   11  C8  UNL     1     -17.512  -0.502 -18.560  1.00  0.00     0.036 C 
HETATM   12  C5  UNL     1     -17.394   1.007 -20.974  1.00  0.00     0.225 C 
HETATM   13  C6  UNL     1     -16.878   1.638 -19.731  1.00  0.00     0.036 C 
HETATM   14  C26 UNL     1     -16.385   0.237 -21.747  1.00  0.00     0.061 C 
HETATM   15  C7  UNL     1     -16.793   0.780 -18.530  1.00  0.00     0.004 C 
BRANCH  10  16
HETATM   16  C4  UNL     1     -19.412  -0.024 -21.744  1.00  0.00     0.273 C 
BRANCH  16  17
HETATM   17  C3  UNL     1     -20.188   1.218 -22.094  1.00  0.00     0.030 C 
BRANCH  17  18
HETATM   18  C2  UNL     1     -21.087   1.590 -20.900  1.00  0.00    -0.003 C 
HETATM   19  C1  UNL     1     -20.681   3.023 -20.553  1.00  0.00     0.005 C 
ENDBRANCH  17  18
ENDBRANCH  16  17
ENDBRANCH  10  16
ENDBRANCH   5   7
ENDBRANCH   3   5
ENDBRANCH   1   3
BRANCH   1  20
HETATM   20  C13 UNL     1     -12.016  -1.194 -19.966  1.00  0.00     0.083 C 
HETATM   21  C14 UNL     1     -11.542   0.135 -19.438  1.00  0.00     0.026 C 
HETATM   22  C15 UNL     1     -11.354   0.147 -17.929  1.00  0.00     0.014 C 
HETATM   23  C16 UNL     1     -12.637  -0.056 -17.173  1.00  0.00     0.061 C 
HETATM   24  C24 UNL     1     -13.598  -0.716 -18.178  1.00  0.00     0.014 C 
HETATM   25  C25 UNL     1     -12.763  -1.848 -18.799  1.00  0.00     0.026 C 
BRANCH  23  26
HETATM   26  C17 UNL     1     -13.265   1.190 -16.690  1.00  0.00     0.166 C 
HETATM   27  O1  UNL     1     -14.160   1.104 -15.764  1.00  0.00    -0.292 OA
BRANCH  26  28
HETATM   28  C18 UNL     1     -12.971   2.530 -17.165  1.00  0.00     0.049 A 
HETATM   29  C19 UNL     1     -13.734   3.017 -18.241  1.00  0.00     0.021 A 
HETATM   30  C20 UNL     1     -13.478   4.264 -18.760  1.00  0.00     0.043 A 
HETATM   31  C21 UNL     1     -12.484   5.051 -18.244  1.00  0.00     0.119 A 
HETATM   32  F1  UNL     1     -12.300   6.268 -18.814  1.00  0.00    -0.206 F 
HETATM   33  C22 UNL     1     -11.749   4.579 -17.204  1.00  0.00     0.085 A 
HETATM   34  C23 UNL     1     -11.986   3.331 -16.663  1.00  0.00     0.133 A 
HETATM   35  F2  UNL     1     -11.248   2.909 -15.612  1.00  0.00    -0.205 F 
ENDBRANCH  26  28
ENDBRANCH  23  26
ENDBRANCH   1  20
TORSDOF 9
ENDMDL
MODEL 4
REMARK VINA RESULT: -7.713849383      2.757      5.826
REMARK  9 active torsions:
REMARK  status: ('A' for Active; 'I' for Inactive)
REMARK    1  A    between atoms: C2_2  and  C3_3 
REMARK    2  A    between atoms: C3_3  and  C4_4 
REMARK    3  A    between atoms: C4_4  and  N1_5 
REMARK    4  A    between atoms: C11_12  and  N2_13 
REMARK    5  A    between atoms: N2_13  and  C12_15 
REMARK    6  A    between atoms: C12_15  and  N3_17 
REMARK    7  A    between atoms: N3_17  and  C13_19 
REMARK    8  A    between atoms: C16_22  and  C17_23 
REMARK    9  A    between atoms: C17_23  and  C18_25 
ROOT
HETATM    1  N3  UNL     1     -15.234  -1.194 -22.172  1.00  0.00    -0.363 N 
ATOM      2  H3  UNL     1     -15.284  -0.397 -22.806  1.00  0.00     0.162 HD
ENDROOT
BRANCH   1   3
HETATM    3  C12 UNL     1     -13.979  -1.756 -21.901  1.00  0.00     0.168 C 
HETATM    4  S1  UNL     1     -13.633  -3.244 -22.462  1.00  0.00    -0.041 SA
BRANCH   3   5
HETATM    5  N2  UNL     1     -13.015  -1.048 -21.139  1.00  0.00    -0.363 N 
ATOM      6  H2  UNL     1     -12.226  -0.629 -21.631  1.00  0.00     0.162 HD
BRANCH   5   7
HETATM    7  C11 UNL     1     -13.087  -0.886 -19.707  1.00  0.00     0.088 C 
HETATM    8  C10 UNL     1     -13.716   0.373 -19.254  1.00  0.00     0.061 C 
HETATM    9  C9  UNL     1     -13.644   0.480 -17.743  1.00  0.00     0.225 C 
HETATM   10  N1  UNL     1     -12.312   0.502 -17.262  1.00  0.00     0.098 N 
HETATM   11  C8  UNL     1     -14.478  -0.582 -17.093  1.00  0.00     0.036 C 
HETATM   12  C5  UNL     1     -11.689  -0.746 -17.652  1.00  0.00     0.225 C 
HETATM   13  C6  UNL     1     -12.301  -1.822 -16.829  1.00  0.00     0.036 C 
HETATM   14  C26 UNL     1     -11.702  -0.997 -19.116  1.00  0.00     0.061 C 
HETATM   15  C7  UNL     1     -13.773  -1.809 -16.694  1.00  0.00     0.004 C 
BRANCH  10  16
HETATM   16  C4  UNL     1     -11.520   1.642 -17.621  1.00  0.00     0.273 C 
BRANCH  16  17
HETATM   17  C3  UNL     1     -11.634   2.689 -16.545  1.00  0.00     0.030 C 
BRANCH  17  18
HETATM   18  C2  UNL     1     -11.993   4.034 -17.203  1.00  0.00    -0.003 C 
HETATM   19  C1  UNL     1     -13.520   4.094 -17.132  1.00  0.00     0.005 C 
ENDBRANCH  17  18
ENDBRANCH  16  17
ENDBRANCH  10  16
ENDBRANCH   5   7
ENDBRANCH   3   5
ENDBRANCH   1   3
BRANCH   1  20
HETATM   20  C13 UNL     1     -16.460  -1.690 -21.593  1.00  0.00     0.083 C 
HETATM   21  C14 UNL     1     -16.713  -1.085 -20.236  1.00  0.00     0.026 C 
HETATM   22  C15 UNL     1     -18.188  -0.858 -19.947  1.00  0.00     0.014 C 
HETATM   23  C16 UNL     1     -18.822   0.147 -20.867  1.00  0.00     0.061 C 
HETATM   24  C24 UNL     1     -17.898   0.209 -22.096  1.00  0.00     0.014 C 
HETATM   25  C25 UNL     1     -17.656  -1.267 -22.451  1.00  0.00     0.026 C 
BRANCH  23  26
HETATM   26  C17 UNL     1     -18.928   1.508 -20.305  1.00  0.00     0.166 C 
HETATM   27  O1  UNL     1     -19.374   2.451 -21.064  1.00  0.00    -0.292 OA
BRANCH  26  28
HETATM   28  C18 UNL     1     -18.568   1.900 -18.953  1.00  0.00     0.049 A 
HETATM   29  C19 UNL     1     -19.595   1.932 -17.993  1.00  0.00     0.021 A 
HETATM   30  C20 UNL     1     -19.324   2.331 -16.706  1.00  0.00     0.043 A 
HETATM   31  C21 UNL     1     -18.061   2.702 -16.335  1.00  0.00     0.119 A 
HETATM   32  F1  UNL     1     -17.880   3.080 -15.044  1.00  0.00    -0.206 F 
HETATM   33  C22 UNL     1     -17.070   2.670 -17.263  1.00  0.00     0.085 A 
HETATM   34  C23 UNL     1     -17.314   2.272 -18.563  1.00  0.00     0.133 A 
HETATM   35  F2  UNL     1     -16.294   2.230 -19.449  1.00  0.00    -0.205 F 
ENDBRANCH  26  28
ENDBRANCH  23  26
ENDBRANCH   1  20
TORSDOF 9
ENDMDL
MODEL 5
REMARK VINA RESULT: -7.712201816      2.097      3.391
REMARK  9 active torsions:
REMARK  status: ('A' for Active; 'I' for Inactive)
REMARK    1  A    between atoms: C2_2  and  C3_3 
REMARK    2  A    between atoms: C3_3  and  C4_4 
REMARK    3  A    between atoms: C4_4  and  N1_5 
REMARK    4  A    between atoms: C11_12  and  N2_13 
REMARK    5  A    between atoms: N2_13  and  C12_15 
REMARK    6  A    between atoms: C12_15  and  N3_17 
REMARK    7  A    between atoms: N3_17  and  C13_19 
REMARK    8  A    between atoms: C16_22  and  C17_23 
REMARK    9  A    between atoms: C17_23  and  C18_25 
ROOT
HETATM    1  N3  UNL     1     -12.734  -0.952 -20.915  1.00  0.00    -0.363 N 
ATOM      2  H3  UNL     1     -12.737  -0.124 -21.509  1.00  0.00     0.162 HD
ENDROOT
BRANCH   1   3
HETATM    3  C12 UNL     1     -13.581  -2.018 -21.250  1.00  0.00     0.168 C 
HETATM    4  S1  UNL     1     -13.006  -3.540 -21.203  1.00  0.00    -0.041 SA
BRANCH   3   5
HETATM    5  N2  UNL     1     -14.926  -1.784 -21.636  1.00  0.00    -0.363 N 
ATOM      6  H2  UNL     1     -15.242  -2.159 -22.530  1.00  0.00     0.162 HD
BRANCH   5   7
HETATM    7  C11 UNL     1     -15.871  -1.045 -20.835  1.00  0.00     0.088 C 
HETATM    8  C10 UNL     1     -17.041  -1.824 -20.377  1.00  0.00     0.061 C 
HETATM    9  C9  UNL     1     -18.012  -0.923 -19.637  1.00  0.00     0.225 C 
HETATM   10  N1  UNL     1     -18.518   0.118 -20.452  1.00  0.00     0.098 N 
HETATM   11  C8  UNL     1     -17.406  -0.419 -18.362  1.00  0.00     0.036 C 
HETATM   12  C5  UNL     1     -17.393   0.926 -20.874  1.00  0.00     0.225 C 
HETATM   13  C6  UNL     1     -16.910   1.670 -19.681  1.00  0.00     0.036 C 
HETATM   14  C26 UNL     1     -16.343   0.167 -21.602  1.00  0.00     0.061 C 
HETATM   15  C7  UNL     1     -16.765   0.903 -18.426  1.00  0.00     0.004 C 
BRANCH  10  16
HETATM   16  C4  UNL     1     -19.348  -0.276 -21.552  1.00  0.00     0.273 C 
BRANCH  16  17
HETATM   17  C3  UNL     1     -20.014   0.941 -22.137  1.00  0.00     0.030 C 
BRANCH  17  18
HETATM   18  C2  UNL     1     -21.103   1.424 -21.161  1.00  0.00    -0.003 C 
HETATM   19  C1  UNL     1     -20.670   2.842 -20.783  1.00  0.00     0.005 C 
ENDBRANCH  17  18
ENDBRANCH  16  17
ENDBRANCH  10  16
ENDBRANCH   5   7
ENDBRANCH   3   5
ENDBRANCH   1   3
BRANCH   1  20
HETATM   20  C13 UNL     1     -11.859  -0.974 -19.767  1.00  0.00     0.083 C 
HETATM   21  C14 UNL     1     -11.401   0.415 -19.398  1.00  0.00     0.026 C 
HETATM   22  C15 UNL     1     -11.232   0.611 -17.901  1.00  0.00     0.014 C 
HETATM   23  C16 UNL     1     -12.522   0.488 -17.139  1.00  0.00     0.061 C 
HETATM   24  C24 UNL     1     -13.465  -0.297 -18.068  1.00  0.00     0.014 C 
HETATM   25  C25 UNL     1     -12.614  -1.488 -18.538  1.00  0.00     0.026 C 
BRANCH  23  26
HETATM   26  C17 UNL     1     -13.166   1.777 -16.817  1.00  0.00     0.166 C 
HETATM   27  O1  UNL     1     -14.120   1.784 -15.948  1.00  0.00    -0.292 OA
BRANCH  26  28
HETATM   28  C18 UNL     1     -12.826   3.065 -17.396  1.00  0.00     0.049 A 
HETATM   29  C19 UNL     1     -11.981   3.907 -16.652  1.00  0.00     0.021 A 
HETATM   30  C20 UNL     1     -11.654   5.153 -17.129  1.00  0.00     0.043 A 
HETATM   31  C21 UNL     1     -12.140   5.598 -18.329  1.00  0.00     0.119 A 
HETATM   32  F1  UNL     1     -11.766   6.840 -18.727  1.00  0.00    -0.206 F 
HETATM   33  C22 UNL     1     -12.956   4.783 -19.047  1.00  0.00     0.085 A 
HETATM   34  C23 UNL     1     -13.299   3.526 -18.590  1.00  0.00     0.133 A 
HETATM   35  F2  UNL     1     -14.095   2.737 -19.348  1.00  0.00    -0.205 F 
ENDBRANCH  26  28
ENDBRANCH  23  26
ENDBRANCH   1  20
TORSDOF 9
ENDMDL
