MODEL 1
REMARK VINA RESULT: -8.214780157      0.000      0.000
REMARK  7 active torsions:
REMARK  status: ('A' for Active; 'I' for Inactive)
REMARK    1  A    between atoms: C5_6  and  N1_7 
REMARK    2  A    between atoms: N2_10  and  C8_11 
REMARK    3  A    between atoms: C8_11  and  C9_12 
REMARK    4  A    between atoms: C9_12  and  C10_13 
REMARK    5  A    between atoms: C10_13  and  C11_14 
REMARK    6  A    between atoms: C11_14  and  N3_15 
REMARK       I    between atoms: N3_15  and  C12_17 
REMARK       I    between atoms: C12_17  and  N4_19 
REMARK    7  A    between atoms: N4_19  and  C13_21 
ROOT
HETATM    1  C9  UNL     1     -10.698   0.926 -18.211  1.00  0.00     0.032 C 
ENDROOT
BRANCH   1   2
HETATM    2  C8  UNL     1     -11.993   1.679 -18.292  1.00  0.00     0.272 C 
BRANCH   2   3
HETATM    3  N2  UNL     1     -11.982   2.793 -17.371  1.00  0.00     0.091 N 
HETATM    4  C7  UNL     1     -12.749   3.910 -17.898  1.00  0.00     0.292 C 
HETATM    5  C6  UNL     1     -13.912   4.292 -17.065  1.00  0.00     0.153 C 
HETATM    6  N1  UNL     1     -14.630   3.126 -16.618  1.00  0.00    -0.377 N 
HETATM    7  C23 UNL     1     -13.844   2.086 -15.954  1.00  0.00     0.153 C 
HETATM    8  C22 UNL     1     -12.382   2.464 -16.030  1.00  0.00     0.292 C 
BRANCH   6   9
HETATM    9  C5  UNL     1     -16.024   2.930 -16.753  1.00  0.00     0.041 A 
HETATM   10  C4  UNL     1     -16.796   3.323 -15.663  1.00  0.00     0.054 A 
HETATM   11  C3  UNL     1     -18.162   3.171 -15.738  1.00  0.00     0.045 A 
HETATM   12  C2  UNL     1     -18.745   2.640 -16.871  1.00  0.00    -0.001 A 
HETATM   13 CL1  UNL     1     -19.177   3.653 -14.393  1.00  0.00    -0.084 Cl
HETATM   14  C1  UNL     1     -20.221   2.471 -16.962  1.00  0.00     0.053 C 
HETATM   15  C26 UNL     1     -17.950   2.262 -17.929  1.00  0.00     0.132 A 
HETATM   16  C24 UNL     1     -16.558   2.399 -17.898  1.00  0.00     0.004 A 
HETATM   17  F1  UNL     1     -18.494   1.734 -19.063  1.00  0.00    -0.205 F 
HETATM   18  C25 UNL     1     -15.763   1.966 -19.059  1.00  0.00     0.054 C 
ENDBRANCH   6   9
ENDBRANCH   2   3
ENDBRANCH   1   2
BRANCH   1  19
HETATM   19  C10 UNL     1     -10.569  -0.041 -19.388  1.00  0.00     0.021 C 
BRANCH  19  20
HETATM   20  C11 UNL     1     -11.703  -1.016 -19.396  1.00  0.00     0.124 C 
BRANCH  20  21
HETATM   21  N3  UNL     1     -12.344  -1.021 -20.683  1.00  0.00    -0.343 N 
HETATM   22  C12 UNL     1     -13.721  -1.283 -20.856  1.00  0.00     0.316 C 
HETATM   23  O1  UNL     1     -14.484  -1.511 -19.875  1.00  0.00    -0.247 OA
HETATM   24  N4  UNL     1     -14.274  -1.292 -22.178  1.00  0.00    -0.339 N 
ATOM     25  H4  UNL     1     -13.672  -1.113 -22.982  1.00  0.00     0.164 HD
ATOM     26  H3  UNL     1     -11.778  -0.826 -21.509  1.00  0.00     0.164 HD
BRANCH  24  27
HETATM   27  C13 UNL     1     -15.687  -1.554 -22.380  1.00  0.00     0.086 C 
HETATM   28  C14 UNL     1     -15.923  -2.683 -23.321  1.00  0.00     0.025 C 
HETATM   29  C15 UNL     1     -17.279  -2.802 -23.914  1.00  0.00     0.002 C 
HETATM   30  C16 UNL     1     -18.300  -3.275 -22.956  1.00  0.00     0.000 C 
HETATM   31  C17 UNL     1     -19.071  -2.275 -22.186  1.00  0.00     0.000 C 
HETATM   32  C18 UNL     1     -19.366  -0.974 -22.831  1.00  0.00     0.000 C 
HETATM   33  C19 UNL     1     -18.802   0.227 -22.144  1.00  0.00     0.000 C 
HETATM   34  C20 UNL     1     -17.411   0.089 -21.609  1.00  0.00     0.002 C 
HETATM   35  C21 UNL     1     -16.404  -0.280 -22.669  1.00  0.00     0.025 C 
ENDBRANCH  24  27
ENDBRANCH  20  21
ENDBRANCH  19  20
ENDBRANCH   1  19
TORSDOF 7
ENDMDL
MODEL 2
REMARK VINA RESULT: -8.165465436      1.440      1.860
REMARK  7 active torsions:
REMARK  status: ('A' for Active; 'I' for Inactive)
REMARK    1  A    between atoms: C5_6  and  N1_7 
REMARK    2  A    between atoms: N2_10  and  C8_11 
REMARK    3  A    between atoms: C8_11  and  C9_12 
REMARK    4  A    between atoms: C9_12  and  C10_13 
REMARK    5  A    between atoms: C10_13  and  C11_14 
REMARK    6  A    between atoms: C11_14  and  N3_15 
REMARK       I    between atoms: N3_15  and  C12_17 
REMARK       I    between atoms: C12_17  and  N4_19 
REMARK    7  A    between atoms: N4_19  and  C13_21 
ROOT
HETATM    1  C9  UNL     1     -10.873   0.826 -18.104  1.00  0.00     0.032 C 
ENDROOT
BRANCH   1   2
HETATM    2  C8  UNL     1     -12.150   1.586 -18.316  1.00  0.00     0.272 C 
BRANCH   2   3
HETATM    3  N2  UNL     1     -12.098   2.852 -17.620  1.00  0.00     0.091 N 
HETATM    4  C7  UNL     1     -13.051   3.794 -18.185  1.00  0.00     0.292 C 
HETATM    5  C6  UNL     1     -14.093   4.245 -17.235  1.00  0.00     0.153 C 
HETATM    6  N1  UNL     1     -14.606   3.138 -16.470  1.00  0.00    -0.377 N 
HETATM    7  C23 UNL     1     -13.620   2.299 -15.788  1.00  0.00     0.153 C 
HETATM    8  C22 UNL     1     -12.236   2.755 -16.192  1.00  0.00     0.292 C 
BRANCH   6   9
HETATM    9  C5  UNL     1     -15.976   2.825 -16.314  1.00  0.00     0.041 A 
HETATM   10  C4  UNL     1     -16.442   1.757 -17.076  1.00  0.00     0.054 A 
HETATM   11  C3  UNL     1     -17.764   1.394 -16.959  1.00  0.00     0.045 A 
HETATM   12  C2  UNL     1     -18.603   2.078 -16.103  1.00  0.00    -0.001 A 
HETATM   13 CL1  UNL     1     -18.397   0.055 -17.896  1.00  0.00    -0.084 Cl
HETATM   14  C1  UNL     1     -20.035   1.694 -15.969  1.00  0.00     0.053 C 
HETATM   15  C26 UNL     1     -18.108   3.130 -15.365  1.00  0.00     0.132 A 
HETATM   16  C24 UNL     1     -16.771   3.533 -15.451  1.00  0.00     0.004 A 
HETATM   17  F1  UNL     1     -18.911   3.826 -14.510  1.00  0.00    -0.205 F 
HETATM   18  C25 UNL     1     -16.307   4.672 -14.642  1.00  0.00     0.054 C 
ENDBRANCH   6   9
ENDBRANCH   2   3
ENDBRANCH   1   2
BRANCH   1  19
HETATM   19  C10 UNL     1     -10.536  -0.004 -19.342  1.00  0.00     0.021 C 
BRANCH  19  20
HETATM   20  C11 UNL     1     -11.441  -1.191 -19.444  1.00  0.00     0.124 C 
BRANCH  20  21
HETATM   21  N3  UNL     1     -12.201  -1.131 -20.663  1.00  0.00    -0.343 N 
HETATM   22  C12 UNL     1     -13.612  -1.176 -20.692  1.00  0.00     0.316 C 
HETATM   23  O1  UNL     1     -14.299  -1.252 -19.633  1.00  0.00    -0.247 OA
HETATM   24  N4  UNL     1     -14.291  -1.135 -21.953  1.00  0.00    -0.339 N 
ATOM     25  H4  UNL     1     -13.753  -1.077 -22.818  1.00  0.00     0.164 HD
ATOM     26  H3  UNL     1     -11.698  -1.052 -21.547  1.00  0.00     0.164 HD
BRANCH  24  27
HETATM   27  C13 UNL     1     -15.741  -1.175 -22.008  1.00  0.00     0.086 C 
HETATM   28  C14 UNL     1     -16.242  -2.253 -22.903  1.00  0.00     0.025 C 
HETATM   29  C15 UNL     1     -17.654  -2.159 -23.354  1.00  0.00     0.002 C 
HETATM   30  C16 UNL     1     -18.632  -2.471 -22.292  1.00  0.00     0.000 C 
HETATM   31  C17 UNL     1     -19.158  -1.365 -21.462  1.00  0.00     0.000 C 
HETATM   32  C18 UNL     1     -19.313  -0.033 -22.093  1.00  0.00     0.000 C 
HETATM   33  C19 UNL     1     -18.503   1.066 -21.484  1.00  0.00     0.000 C 
HETATM   34  C20 UNL     1     -17.104   0.714 -21.090  1.00  0.00     0.002 C 
HETATM   35  C21 UNL     1     -16.279   0.195 -22.241  1.00  0.00     0.025 C 
ENDBRANCH  24  27
ENDBRANCH  20  21
ENDBRANCH  19  20
ENDBRANCH   1  19
TORSDOF 7
ENDMDL
MODEL 3
REMARK VINA RESULT: -7.827742120      2.820      5.332
REMARK  7 active torsions:
REMARK  status: ('A' for Active; 'I' for Inactive)
REMARK    1  A    between atoms: C5_6  and  N1_7 
REMARK    2  A    between atoms: N2_10  and  C8_11 
REMARK    3  A    between atoms: C8_11  and  C9_12 
REMARK    4  A    between atoms: C9_12  and  C10_13 
REMARK    5  A    between atoms: C10_13  and  C11_14 
REMARK    6  A    between atoms: C11_14  and  N3_15 
REMARK       I    between atoms: N3_15  and  C12_17 
REMARK       I    between atoms: C12_17  and  N4_19 
REMARK    7  A    between atoms: N4_19  and  C13_21 
ROOT
HETATM    1  C9  UNL     1     -14.518   3.432 -15.726  1.00  0.00     0.032 C 
ENDROOT
BRANCH   1   2
HETATM    2  C8  UNL     1     -14.417   4.306 -16.941  1.00  0.00     0.272 C 
BRANCH   2   3
HETATM    3  N2  UNL     1     -13.042   4.403 -17.374  1.00  0.00     0.091 N 
HETATM    4  C7  UNL     1     -12.150   3.764 -16.418  1.00  0.00     0.292 C 
HETATM    5  C6  UNL     1     -11.387   2.623 -16.972  1.00  0.00     0.153 C 
HETATM    6  N1  UNL     1     -12.232   1.781 -17.779  1.00  0.00    -0.377 N 
HETATM    7  C23 UNL     1     -13.002   2.442 -18.834  1.00  0.00     0.153 C 
HETATM    8  C22 UNL     1     -12.802   3.936 -18.713  1.00  0.00     0.292 C 
BRANCH   6   9
HETATM    9  C5  UNL     1     -12.350   0.379 -17.641  1.00  0.00     0.041 A 
HETATM   10  C4  UNL     1     -13.187  -0.059 -16.618  1.00  0.00     0.054 A 
HETATM   11  C3  UNL     1     -13.354  -1.413 -16.441  1.00  0.00     0.045 A 
HETATM   12  C2  UNL     1     -12.703  -2.311 -17.263  1.00  0.00    -0.001 A 
HETATM   13 CL1  UNL     1     -14.398  -2.014 -15.168  1.00  0.00    -0.084 Cl
HETATM   14  C1  UNL     1     -12.876  -3.778 -17.080  1.00  0.00     0.053 C 
HETATM   15  C26 UNL     1     -11.883  -1.842 -18.264  1.00  0.00     0.132 A 
HETATM   16  C24 UNL     1     -11.684  -0.474 -18.482  1.00  0.00     0.004 A 
HETATM   17  F1  UNL     1     -11.225  -2.702 -19.094  1.00  0.00    -0.205 F 
HETATM   18  C25 UNL     1     -10.786  -0.038 -19.563  1.00  0.00     0.054 C 
ENDBRANCH   6   9
ENDBRANCH   2   3
ENDBRANCH   1   2
BRANCH   1  19
HETATM   19  C10 UNL     1     -15.822   3.706 -14.978  1.00  0.00     0.021 C 
BRANCH  19  20
HETATM   20  C11 UNL     1     -16.996   3.224 -15.771  1.00  0.00     0.124 C 
BRANCH  20  21
HETATM   21  N3  UNL     1     -16.776   1.873 -16.211  1.00  0.00    -0.343 N 
HETATM   22  C12 UNL     1     -16.784   1.497 -17.572  1.00  0.00     0.316 C 
HETATM   23  O1  UNL     1     -16.967   2.339 -18.496  1.00  0.00    -0.247 OA
HETATM   24  N4  UNL     1     -16.579   0.122 -17.923  1.00  0.00    -0.339 N 
ATOM     25  H4  UNL     1     -16.433  -0.572 -17.190  1.00  0.00     0.164 HD
ATOM     26  H3  UNL     1     -16.605   1.154 -15.509  1.00  0.00     0.164 HD
BRANCH  24  27
HETATM   27  C13 UNL     1     -16.578  -0.287 -19.316  1.00  0.00     0.086 C 
HETATM   28  C14 UNL     1     -17.898  -0.823 -19.746  1.00  0.00     0.025 C 
HETATM   29  C15 UNL     1     -17.930  -1.627 -20.995  1.00  0.00     0.002 C 
HETATM   30  C16 UNL     1     -17.765  -0.817 -22.219  1.00  0.00     0.000 C 
HETATM   31  C17 UNL     1     -16.403  -0.616 -22.760  1.00  0.00     0.000 C 
HETATM   32  C18 UNL     1     -15.416  -1.706 -22.588  1.00  0.00     0.000 C 
HETATM   33  C19 UNL     1     -14.200  -1.354 -21.792  1.00  0.00     0.000 C 
HETATM   34  C20 UNL     1     -14.428  -0.511 -20.578  1.00  0.00     0.002 C 
HETATM   35  C21 UNL     1     -15.386  -1.136 -19.595  1.00  0.00     0.025 C 
ENDBRANCH  24  27
ENDBRANCH  20  21
ENDBRANCH  19  20
ENDBRANCH   1  19
TORSDOF 7
ENDMDL
MODEL 4
REMARK VINA RESULT: -7.811950007      3.832      5.398
REMARK  7 active torsions:
REMARK  status: ('A' for Active; 'I' for Inactive)
REMARK    1  A    between atoms: C5_6  and  N1_7 
REMARK    2  A    between atoms: N2_10  and  C8_11 
REMARK    3  A    between atoms: C8_11  and  C9_12 
REMARK    4  A    between atoms: C9_12  and  C10_13 
REMARK    5  A    between atoms: C10_13  and  C11_14 
REMARK    6  A    between atoms: C11_14  and  N3_15 
REMARK       I    between atoms: N3_15  and  C12_17 
REMARK       I    between atoms: C12_17  and  N4_19 
REMARK    7  A    between atoms: N4_19  and  C13_21 
ROOT
HETATM    1  C9  UNL     1     -10.728   0.709 -18.323  1.00  0.00     0.032 C 
ENDROOT
BRANCH   1   2
HETATM    2  C8  UNL     1     -11.991   1.512 -18.435  1.00  0.00     0.272 C 
BRANCH   2   3
HETATM    3  N2  UNL     1     -11.895   2.709 -17.632  1.00  0.00     0.091 N 
HETATM    4  C7  UNL     1     -12.691   3.784 -18.205  1.00  0.00     0.292 C 
HETATM    5  C6  UNL     1     -13.780   4.265 -17.325  1.00  0.00     0.153 C 
HETATM    6  N1  UNL     1     -14.473   3.161 -16.712  1.00  0.00    -0.377 N 
HETATM    7  C23 UNL     1     -13.647   2.176 -16.012  1.00  0.00     0.153 C 
HETATM    8  C22 UNL     1     -12.191   2.519 -16.238  1.00  0.00     0.292 C 
BRANCH   6   9
HETATM    9  C5  UNL     1     -15.874   2.978 -16.718  1.00  0.00     0.041 A 
HETATM   10  C4  UNL     1     -16.377   2.198 -17.755  1.00  0.00     0.054 A 
HETATM   11  C3  UNL     1     -17.733   1.972 -17.809  1.00  0.00     0.045 A 
HETATM   12  C2  UNL     1     -18.570   2.510 -16.852  1.00  0.00    -0.001 A 
HETATM   13 CL1  UNL     1     -18.414   0.996 -19.095  1.00  0.00    -0.084 Cl
HETATM   14  C1  UNL     1     -20.038   2.271 -16.900  1.00  0.00     0.053 C 
HETATM   15  C26 UNL     1     -18.038   3.276 -15.840  1.00  0.00     0.132 A 
HETATM   16  C24 UNL     1     -16.665   3.532 -15.745  1.00  0.00     0.004 A 
HETATM   17  F1  UNL     1     -18.836   3.822 -14.878  1.00  0.00    -0.205 F 
HETATM   18  C25 UNL     1     -16.161   4.368 -14.644  1.00  0.00     0.054 C 
ENDBRANCH   6   9
ENDBRANCH   2   3
ENDBRANCH   1   2
BRANCH   1  19
HETATM   19  C10 UNL     1     -10.574  -0.214 -19.531  1.00  0.00     0.021 C 
BRANCH  19  20
HETATM   20  C11 UNL     1     -11.868  -0.898 -19.841  1.00  0.00     0.124 C 
BRANCH  20  21
HETATM   21  N3  UNL     1     -11.862  -2.234 -19.310  1.00  0.00    -0.343 N 
HETATM   22  C12 UNL     1     -12.454  -2.574 -18.074  1.00  0.00     0.316 C 
HETATM   23  O1  UNL     1     -13.050  -1.716 -17.363  1.00  0.00    -0.247 OA
HETATM   24  N4  UNL     1     -12.382  -3.927 -17.608  1.00  0.00    -0.339 N 
ATOM     25  H4  UNL     1     -11.902  -4.632 -18.168  1.00  0.00     0.164 HD
ATOM     26  H3  UNL     1     -11.409  -2.971 -19.851  1.00  0.00     0.164 HD
BRANCH  24  27
HETATM   27  C13 UNL     1     -12.989  -4.301 -16.344  1.00  0.00     0.086 C 
HETATM   28  C14 UNL     1     -12.009  -4.922 -15.410  1.00  0.00     0.025 C 
HETATM   29  C15 UNL     1     -12.557  -5.694 -14.266  1.00  0.00     0.002 C 
HETATM   30  C16 UNL     1     -13.149  -4.843 -13.213  1.00  0.00     0.000 C 
HETATM   31  C17 UNL     1     -14.593  -4.530 -13.281  1.00  0.00     0.000 C 
HETATM   32  C18 UNL     1     -15.503  -5.549 -13.855  1.00  0.00     0.000 C 
HETATM   33  C19 UNL     1     -16.251  -5.128 -15.078  1.00  0.00     0.000 C 
HETATM   34  C20 UNL     1     -15.478  -4.334 -16.084  1.00  0.00     0.002 C 
HETATM   35  C21 UNL     1     -14.251  -5.053 -16.588  1.00  0.00     0.025 C 
ENDBRANCH  24  27
ENDBRANCH  20  21
ENDBRANCH  19  20
ENDBRANCH   1  19
TORSDOF 7
ENDMDL
MODEL 5
REMARK VINA RESULT: -7.743932769      3.805      7.368
REMARK  7 active torsions:
REMARK  status: ('A' for Active; 'I' for Inactive)
REMARK    1  A    between atoms: C5_6  and  N1_7 
REMARK    2  A    between atoms: N2_10  and  C8_11 
REMARK    3  A    between atoms: C8_11  and  C9_12 
REMARK    4  A    between atoms: C9_12  and  C10_13 
REMARK    5  A    between atoms: C10_13  and  C11_14 
REMARK    6  A    between atoms: C11_14  and  N3_15 
REMARK       I    between atoms: N3_15  and  C12_17 
REMARK       I    between atoms: C12_17  and  N4_19 
REMARK    7  A    between atoms: N4_19  and  C13_21 
ROOT
HETATM    1  C9  UNL     1     -18.357   2.299 -18.371  1.00  0.00     0.032 C 
ENDROOT
BRANCH   1   2
HETATM    2  C8  UNL     1     -18.433   0.802 -18.422  1.00  0.00     0.272 C 
BRANCH   2   3
HETATM    3  N2  UNL     1     -18.197   0.335 -19.769  1.00  0.00     0.091 N 
HETATM    4  C7  UNL     1     -17.378   1.281 -20.510  1.00  0.00     0.292 C 
HETATM    5  C6  UNL     1     -16.081   0.730 -20.967  1.00  0.00     0.153 C 
HETATM    6  N1  UNL     1     -15.454  -0.042 -19.925  1.00  0.00    -0.377 N 
HETATM    7  C23 UNL     1     -16.266  -1.090 -19.306  1.00  0.00     0.153 C 
HETATM    8  C22 UNL     1     -17.671  -1.000 -19.856  1.00  0.00     0.292 C 
BRANCH   6   9
HETATM    9  C5  UNL     1     -14.121   0.124 -19.484  1.00  0.00     0.041 A 
HETATM   10  C4  UNL     1     -13.925   1.096 -18.507  1.00  0.00     0.054 A 
HETATM   11  C3  UNL     1     -12.652   1.296 -18.025  1.00  0.00     0.045 A 
HETATM   12  C2  UNL     1     -11.597   0.546 -18.506  1.00  0.00    -0.001 A 
HETATM   13 CL1  UNL     1     -12.355   2.507 -16.794  1.00  0.00    -0.084 Cl
HETATM   14  C1  UNL     1     -10.216   0.754 -17.992  1.00  0.00     0.053 C 
HETATM   15  C26 UNL     1     -11.828  -0.407 -19.472  1.00  0.00     0.132 A 
HETATM   16  C24 UNL     1     -13.106  -0.645 -19.990  1.00  0.00     0.004 A 
HETATM   17  F1  UNL     1     -10.808  -1.165 -19.968  1.00  0.00    -0.205 F 
HETATM   18  C25 UNL     1     -13.284  -1.672 -21.030  1.00  0.00     0.054 C 
ENDBRANCH   6   9
ENDBRANCH   2   3
ENDBRANCH   1   2
BRANCH   1  19
HETATM   19  C10 UNL     1     -17.271   2.745 -17.392  1.00  0.00     0.021 C 
BRANCH  19  20
HETATM   20  C11 UNL     1     -17.387   2.001 -16.100  1.00  0.00     0.124 C 
BRANCH  20  21
HETATM   21  N3  UNL     1     -16.107   1.473 -15.714  1.00  0.00    -0.343 N 
HETATM   22  C12 UNL     1     -15.835   0.089 -15.644  1.00  0.00     0.316 C 
HETATM   23  O1  UNL     1     -16.706  -0.778 -15.940  1.00  0.00    -0.247 OA
HETATM   24  N4  UNL     1     -14.536  -0.352 -15.227  1.00  0.00    -0.339 N 
ATOM     25  H4  UNL     1     -13.822   0.333 -14.981  1.00  0.00     0.164 HD
ATOM     26  H3  UNL     1     -15.361   2.128 -15.481  1.00  0.00     0.164 HD
BRANCH  24  27
HETATM   27  C13 UNL     1     -14.232  -1.769 -15.153  1.00  0.00     0.086 C 
HETATM   28  C14 UNL     1     -14.226  -2.272 -13.751  1.00  0.00     0.025 C 
HETATM   29  C15 UNL     1     -13.558  -3.574 -13.500  1.00  0.00     0.002 C 
HETATM   30  C16 UNL     1     -14.324  -4.734 -14.002  1.00  0.00     0.000 C 
HETATM   31  C17 UNL     1     -14.056  -5.223 -15.372  1.00  0.00     0.000 C 
HETATM   32  C18 UNL     1     -12.678  -5.101 -15.900  1.00  0.00     0.000 C 
HETATM   33  C19 UNL     1     -12.529  -4.250 -17.121  1.00  0.00     0.000 C 
HETATM   34  C20 UNL     1     -13.329  -2.986 -17.145  1.00  0.00     0.002 C 
HETATM   35  C21 UNL     1     -13.032  -2.076 -15.980  1.00  0.00     0.025 C 
ENDBRANCH  24  27
ENDBRANCH  20  21
ENDBRANCH  19  20
ENDBRANCH   1  19
TORSDOF 7
ENDMDL
