MODEL 1
REMARK VINA RESULT: -8.399929345      0.000      0.000
REMARK  8 active torsions:
REMARK  status: ('A' for Active; 'I' for Inactive)
REMARK    1  A    between atoms: C6_9  and  N2_10 
REMARK    2  A    between atoms: N2_10  and  C7_12 
REMARK    3  A    between atoms: C7_12  and  C8_13 
REMARK    4  A    between atoms: C8_13  and  C9_14 
REMARK    5  A    between atoms: C9_14  and  N3_15 
REMARK    6  A    between atoms: N3_15  and  C10_16 
REMARK    7  A    between atoms: N3_15  and  C18_28 
REMARK    8  A    between atoms: C10_16  and  C11_17 
ROOT
HETATM    1  N3  UNL     1     -14.318   2.613 -16.629  1.00  0.00     0.097 N 
ENDROOT
BRANCH   1   2
HETATM    2  C9  UNL     1     -15.055   3.112 -15.421  1.00  0.00     0.275 C 
BRANCH   2   3
HETATM    3  C8  UNL     1     -16.264   3.887 -15.757  1.00  0.00     0.050 C 
BRANCH   3   4
HETATM    4  C7  UNL     1     -17.544   3.123 -15.450  1.00  0.00     0.121 C 
BRANCH   4   5
HETATM    5  N2  UNL     1     -17.732   1.947 -16.235  1.00  0.00    -0.389 N 
ATOM      6  H2  UNL     1     -17.292   1.073 -15.948  1.00  0.00     0.159 HD
BRANCH   5   7
HETATM    7  C6  UNL     1     -18.466   1.979 -17.323  1.00  0.00     0.042 A 
HETATM    8  C5  UNL     1     -19.773   2.404 -17.286  1.00  0.00     0.047 A 
HETATM    9  C4  UNL     1     -20.526   2.409 -18.453  1.00  0.00     0.090 A 
HETATM   10  N1  UNL     1     -20.025   2.012 -19.630  1.00  0.00    -0.365 N 
HETATM   11  C3  UNL     1     -18.752   1.594 -19.693  1.00  0.00     0.046 A 
ATOM     12  H1  UNL     1     -20.605   2.027 -20.468  1.00  0.00     0.165 HD
HETATM   13  C2  UNL     1     -18.243   1.181 -20.917  1.00  0.00     0.056 A 
HETATM   14  C24 UNL     1     -17.973   1.577 -18.539  1.00  0.00     0.019 A 
HETATM   15  C1  UNL     1     -16.943   0.750 -20.976  1.00  0.00     0.058 A 
HETATM   16 CL1  UNL     1     -16.263   0.223 -22.516  1.00  0.00    -0.082 Cl
HETATM   17  C26 UNL     1     -16.156   0.726 -19.844  1.00  0.00     0.056 A 
HETATM   18  C25 UNL     1     -16.676   1.140 -18.634  1.00  0.00     0.041 A 
HETATM   19 CL2  UNL     1     -14.486   0.165 -19.922  1.00  0.00    -0.083 Cl
ENDBRANCH   5   7
ENDBRANCH   4   5
ENDBRANCH   3   4
ENDBRANCH   2   3
ENDBRANCH   1   2
BRANCH   1  20
HETATM   20  C10 UNL     1     -13.299   1.778 -15.990  1.00  0.00     0.315 C 
BRANCH  20  21
HETATM   21  C11 UNL     1     -13.109   0.428 -16.491  1.00  0.00     0.012 A 
HETATM   22  C12 UNL     1     -13.755  -0.671 -16.035  1.00  0.00     0.098 A 
HETATM   23  N4  UNL     1     -13.430  -1.883 -16.520  1.00  0.00    -0.374 N 
HETATM   24  C13 UNL     1     -12.489  -2.096 -17.444  1.00  0.00     0.097 A 
ATOM     25  H4  UNL     1     -13.935  -2.691 -16.158  1.00  0.00     0.164 HD
HETATM   26  C14 UNL     1     -11.822  -0.989 -17.916  1.00  0.00    -0.014 A 
HETATM   27  C15 UNL     1     -12.112   0.272 -17.460  1.00  0.00     0.045 A 
HETATM   28  C17 UNL     1     -10.729  -0.897 -18.949  1.00  0.00     0.062 C 
HETATM   29  N5  UNL     1     -11.250   1.178 -18.156  1.00  0.00    -0.389 N 
HETATM   30  C16 UNL     1     -10.956   0.523 -19.437  1.00  0.00     0.124 C 
ATOM     31  H5  UNL     1     -10.912   2.084 -17.832  1.00  0.00     0.159 HD
ENDBRANCH  20  21
ENDBRANCH   1  20
BRANCH   1  32
HETATM   32  C18 UNL     1     -13.696   3.771 -17.244  1.00  0.00     0.223 C 
HETATM   33  C19 UNL     1     -12.354   4.153 -16.725  1.00  0.00     0.036 C 
HETATM   34  C20 UNL     1     -11.810   5.346 -17.484  1.00  0.00     0.002 C 
HETATM   35  C21 UNL     1     -12.889   6.150 -18.168  1.00  0.00     0.000 C 
HETATM   36  C22 UNL     1     -13.679   5.320 -19.148  1.00  0.00     0.002 C 
HETATM   37  C23 UNL     1     -13.685   3.844 -18.736  1.00  0.00     0.036 C 
ENDBRANCH   1  32
TORSDOF 8
ENDMDL
MODEL 2
REMARK VINA RESULT: -8.303428583      1.860      2.602
REMARK  8 active torsions:
REMARK  status: ('A' for Active; 'I' for Inactive)
REMARK    1  A    between atoms: C6_9  and  N2_10 
REMARK    2  A    between atoms: N2_10  and  C7_12 
REMARK    3  A    between atoms: C7_12  and  C8_13 
REMARK    4  A    between atoms: C8_13  and  C9_14 
REMARK    5  A    between atoms: C9_14  and  N3_15 
REMARK    6  A    between atoms: N3_15  and  C10_16 
REMARK    7  A    between atoms: N3_15  and  C18_28 
REMARK    8  A    between atoms: C10_16  and  C11_17 
ROOT
HETATM    1  N3  UNL     1     -14.280   2.725 -16.763  1.00  0.00     0.097 N 
ENDROOT
BRANCH   1   2
HETATM    2  C9  UNL     1     -15.195   3.206 -15.674  1.00  0.00     0.275 C 
BRANCH   2   3
HETATM    3  C8  UNL     1     -16.602   3.311 -16.103  1.00  0.00     0.050 C 
BRANCH   3   4
HETATM    4  C7  UNL     1     -17.002   2.192 -17.054  1.00  0.00     0.121 C 
BRANCH   4   5
HETATM    5  N2  UNL     1     -16.899   2.529 -18.437  1.00  0.00    -0.389 N 
ATOM      6  H2  UNL     1     -17.030   3.496 -18.732  1.00  0.00     0.159 HD
BRANCH   5   7
HETATM    7  C6  UNL     1     -16.635   1.605 -19.332  1.00  0.00     0.042 A 
HETATM    8  C5  UNL     1     -15.421   0.962 -19.353  1.00  0.00     0.047 A 
HETATM    9  C4  UNL     1     -15.169   0.003 -20.325  1.00  0.00     0.090 A 
HETATM   10  N1  UNL     1     -16.075  -0.328 -21.255  1.00  0.00    -0.365 N 
HETATM   11  C3  UNL     1     -17.268   0.284 -21.256  1.00  0.00     0.046 A 
ATOM     12  H1  UNL     1     -15.859  -1.037 -21.956  1.00  0.00     0.165 HD
HETATM   13  C2  UNL     1     -18.198  -0.064 -22.226  1.00  0.00     0.056 A 
HETATM   14  C24 UNL     1     -17.548   1.251 -20.294  1.00  0.00     0.019 A 
HETATM   15  C1  UNL     1     -19.415   0.568 -22.225  1.00  0.00     0.058 A 
HETATM   16 CL1  UNL     1     -20.622   0.147 -23.441  1.00  0.00    -0.082 Cl
HETATM   17  C26 UNL     1     -19.710   1.528 -21.282  1.00  0.00     0.056 A 
HETATM   18  C25 UNL     1     -18.775   1.863 -20.322  1.00  0.00     0.041 A 
HETATM   19 CL2  UNL     1     -21.275   2.343 -21.286  1.00  0.00    -0.083 Cl
ENDBRANCH   5   7
ENDBRANCH   4   5
ENDBRANCH   3   4
ENDBRANCH   2   3
ENDBRANCH   1   2
BRANCH   1  20
HETATM   20  C10 UNL     1     -13.354   1.901 -15.983  1.00  0.00     0.315 C 
BRANCH  20  21
HETATM   21  C11 UNL     1     -13.234   0.495 -16.329  1.00  0.00     0.012 A 
HETATM   22  C12 UNL     1     -13.832  -0.524 -15.668  1.00  0.00     0.098 A 
HETATM   23  N4  UNL     1     -13.575  -1.794 -16.030  1.00  0.00    -0.374 N 
HETATM   24  C13 UNL     1     -12.749  -2.141 -17.022  1.00  0.00     0.097 A 
ATOM     25  H4  UNL     1     -14.041  -2.540 -15.514  1.00  0.00     0.164 HD
HETATM   26  C14 UNL     1     -12.134  -1.117 -17.703  1.00  0.00    -0.014 A 
HETATM   27  C15 UNL     1     -12.358   0.198 -17.379  1.00  0.00     0.045 A 
HETATM   28  C17 UNL     1     -11.168  -1.178 -18.858  1.00  0.00     0.062 C 
HETATM   29  N5  UNL     1     -11.576   0.990 -18.278  1.00  0.00    -0.389 N 
HETATM   30  C16 UNL     1     -11.439   0.175 -19.491  1.00  0.00     0.124 C 
ATOM     31  H5  UNL     1     -11.196   1.922 -18.111  1.00  0.00     0.159 HD
ENDBRANCH  20  21
ENDBRANCH   1  20
BRANCH   1  32
HETATM   32  C18 UNL     1     -13.592   3.896 -17.273  1.00  0.00     0.223 C 
HETATM   33  C19 UNL     1     -12.221   4.139 -16.746  1.00  0.00     0.036 C 
HETATM   34  C20 UNL     1     -11.611   5.364 -17.396  1.00  0.00     0.002 C 
HETATM   35  C21 UNL     1     -12.643   6.298 -17.977  1.00  0.00     0.000 C 
HETATM   36  C22 UNL     1     -13.499   5.621 -19.017  1.00  0.00     0.002 C 
HETATM   37  C23 UNL     1     -13.596   4.115 -18.751  1.00  0.00     0.036 C 
ENDBRANCH   1  32
TORSDOF 8
ENDMDL
MODEL 3
REMARK VINA RESULT: -8.204412922      0.745      1.708
REMARK  8 active torsions:
REMARK  status: ('A' for Active; 'I' for Inactive)
REMARK    1  A    between atoms: C6_9  and  N2_10 
REMARK    2  A    between atoms: N2_10  and  C7_12 
REMARK    3  A    between atoms: C7_12  and  C8_13 
REMARK    4  A    between atoms: C8_13  and  C9_14 
REMARK    5  A    between atoms: C9_14  and  N3_15 
REMARK    6  A    between atoms: N3_15  and  C10_16 
REMARK    7  A    between atoms: N3_15  and  C18_28 
REMARK    8  A    between atoms: C10_16  and  C11_17 
ROOT
HETATM    1  N3  UNL     1     -13.776   2.369 -16.993  1.00  0.00     0.097 N 
ENDROOT
BRANCH   1   2
HETATM    2  C9  UNL     1     -14.452   2.579 -15.669  1.00  0.00     0.275 C 
BRANCH   2   3
HETATM    3  C8  UNL     1     -15.431   3.682 -15.685  1.00  0.00     0.050 C 
BRANCH   3   4
HETATM    4  C7  UNL     1     -16.838   3.211 -15.347  1.00  0.00     0.121 C 
BRANCH   4   5
HETATM    5  N2  UNL     1     -17.224   1.997 -15.990  1.00  0.00    -0.389 N 
ATOM      6  H2  UNL     1     -16.802   1.116 -15.700  1.00  0.00     0.159 HD
BRANCH   5   7
HETATM    7  C6  UNL     1     -18.117   2.005 -16.953  1.00  0.00     0.042 A 
HETATM    8  C5  UNL     1     -19.405   2.426 -16.723  1.00  0.00     0.047 A 
HETATM    9  C4  UNL     1     -20.330   2.404 -17.759  1.00  0.00     0.090 A 
HETATM   10  N1  UNL     1     -20.013   1.985 -18.991  1.00  0.00    -0.365 N 
HETATM   11  C3  UNL     1     -18.763   1.570 -19.242  1.00  0.00     0.046 A 
ATOM     12  H1  UNL     1     -20.716   1.981 -19.730  1.00  0.00     0.165 HD
HETATM   13  C2  UNL     1     -18.446   1.134 -20.522  1.00  0.00     0.056 A 
HETATM   14  C24 UNL     1     -17.816   1.579 -18.222  1.00  0.00     0.019 A 
HETATM   15  C1  UNL     1     -17.169   0.706 -20.771  1.00  0.00     0.058 A 
HETATM   16 CL1  UNL     1     -16.731   0.150 -22.388  1.00  0.00    -0.082 Cl
HETATM   17  C26 UNL     1     -16.217   0.707 -19.775  1.00  0.00     0.056 A 
HETATM   18  C25 UNL     1     -16.546   1.145 -18.507  1.00  0.00     0.041 A 
HETATM   19 CL2  UNL     1     -14.574   0.151 -20.099  1.00  0.00    -0.083 Cl
ENDBRANCH   5   7
ENDBRANCH   4   5
ENDBRANCH   3   4
ENDBRANCH   2   3
ENDBRANCH   1   2
BRANCH   1  20
HETATM   20  C10 UNL     1     -12.616   1.580 -16.574  1.00  0.00     0.315 C 
BRANCH  20  21
HETATM   21  C11 UNL     1     -12.096   0.587 -17.499  1.00  0.00     0.012 A 
HETATM   22  C12 UNL     1     -11.362   0.860 -18.603  1.00  0.00     0.098 A 
HETATM   23  N4  UNL     1     -11.011  -0.139 -19.432  1.00  0.00    -0.374 N 
HETATM   24  C13 UNL     1     -11.340  -1.422 -19.246  1.00  0.00     0.097 A 
ATOM     25  H4  UNL     1     -10.458   0.097 -20.255  1.00  0.00     0.164 HD
HETATM   26  C14 UNL     1     -12.086  -1.714 -18.129  1.00  0.00    -0.014 A 
HETATM   27  C15 UNL     1     -12.473  -0.736 -17.247  1.00  0.00     0.045 A 
HETATM   28  C17 UNL     1     -12.602  -3.043 -17.643  1.00  0.00     0.062 C 
HETATM   29  N5  UNL     1     -13.219  -1.379 -16.209  1.00  0.00    -0.389 N 
HETATM   30  C16 UNL     1     -12.701  -2.752 -16.156  1.00  0.00     0.124 C 
ATOM     31  H5  UNL     1     -13.953  -0.971 -15.630  1.00  0.00     0.159 HD
ENDBRANCH  20  21
ENDBRANCH   1  20
BRANCH   1  32
HETATM   32  C18 UNL     1     -13.346   3.677 -17.450  1.00  0.00     0.223 C 
HETATM   33  C19 UNL     1     -12.032   4.157 -16.941  1.00  0.00     0.036 C 
HETATM   34  C20 UNL     1     -11.693   5.509 -17.533  1.00  0.00     0.002 C 
HETATM   35  C21 UNL     1     -12.906   6.252 -18.036  1.00  0.00     0.000 C 
HETATM   36  C22 UNL     1     -13.648   5.476 -19.094  1.00  0.00     0.002 C 
HETATM   37  C23 UNL     1     -13.442   3.968 -18.913  1.00  0.00     0.036 C 
ENDBRANCH   1  32
TORSDOF 8
ENDMDL
MODEL 4
REMARK VINA RESULT: -8.126100484      2.041      3.078
REMARK  8 active torsions:
REMARK  status: ('A' for Active; 'I' for Inactive)
REMARK    1  A    between atoms: C6_9  and  N2_10 
REMARK    2  A    between atoms: N2_10  and  C7_12 
REMARK    3  A    between atoms: C7_12  and  C8_13 
REMARK    4  A    between atoms: C8_13  and  C9_14 
REMARK    5  A    between atoms: C9_14  and  N3_15 
REMARK    6  A    between atoms: N3_15  and  C10_16 
REMARK    7  A    between atoms: N3_15  and  C18_28 
REMARK    8  A    between atoms: C10_16  and  C11_17 
ROOT
HETATM    1  N3  UNL     1     -13.601   2.521 -17.172  1.00  0.00     0.097 N 
ENDROOT
BRANCH   1   2
HETATM    2  C9  UNL     1     -14.339   2.662 -15.872  1.00  0.00     0.275 C 
BRANCH   2   3
HETATM    3  C8  UNL     1     -15.735   3.106 -16.042  1.00  0.00     0.050 C 
BRANCH   3   4
HETATM    4  C7  UNL     1     -16.544   2.152 -16.909  1.00  0.00     0.121 C 
BRANCH   4   5
HETATM    5  N2  UNL     1     -16.572   2.493 -18.294  1.00  0.00    -0.389 N 
ATOM      6  H2  UNL     1     -16.717   3.463 -18.573  1.00  0.00     0.159 HD
BRANCH   5   7
HETATM    7  C6  UNL     1     -16.410   1.569 -19.213  1.00  0.00     0.042 A 
HETATM    8  C5  UNL     1     -15.251   0.835 -19.287  1.00  0.00     0.047 A 
HETATM    9  C4  UNL     1     -15.106  -0.122 -20.283  1.00  0.00     0.090 A 
HETATM   10  N1  UNL     1     -16.065  -0.364 -21.187  1.00  0.00    -0.365 N 
HETATM   11  C3  UNL     1     -17.206   0.337 -21.136  1.00  0.00     0.046 A 
ATOM     12  H1  UNL     1     -15.928  -1.074 -21.906  1.00  0.00     0.165 HD
HETATM   13  C2  UNL     1     -18.192   0.081 -22.080  1.00  0.00     0.056 A 
HETATM   14  C24 UNL     1     -17.378   1.304 -20.149  1.00  0.00     0.019 A 
HETATM   15  C1  UNL     1     -19.355   0.805 -22.027  1.00  0.00     0.058 A 
HETATM   16 CL1  UNL     1     -20.631   0.501 -23.208  1.00  0.00    -0.082 Cl
HETATM   17  C26 UNL     1     -19.544   1.767 -21.058  1.00  0.00     0.056 A 
HETATM   18  C25 UNL     1     -18.555   2.009 -20.125  1.00  0.00     0.041 A 
HETATM   19 CL2  UNL     1     -21.040   2.700 -20.996  1.00  0.00    -0.083 Cl
ENDBRANCH   5   7
ENDBRANCH   4   5
ENDBRANCH   3   4
ENDBRANCH   2   3
ENDBRANCH   1   2
BRANCH   1  20
HETATM   20  C10 UNL     1     -12.451   1.727 -16.736  1.00  0.00     0.315 C 
BRANCH  20  21
HETATM   21  C11 UNL     1     -11.989   0.659 -17.607  1.00  0.00     0.012 A 
HETATM   22  C12 UNL     1     -11.222   0.830 -18.710  1.00  0.00     0.098 A 
HETATM   23  N4  UNL     1     -10.931  -0.228 -19.487  1.00  0.00    -0.374 N 
HETATM   24  C13 UNL     1     -11.352  -1.475 -19.251  1.00  0.00     0.097 A 
ATOM     25  H4  UNL     1     -10.351  -0.069 -20.310  1.00  0.00     0.164 HD
HETATM   26  C14 UNL     1     -12.133  -1.664 -18.134  1.00  0.00    -0.014 A 
HETATM   27  C15 UNL     1     -12.462  -0.622 -17.303  1.00  0.00     0.045 A 
HETATM   28  C17 UNL     1     -12.749  -2.930 -17.599  1.00  0.00     0.062 C 
HETATM   29  N5  UNL     1     -13.266  -1.163 -16.251  1.00  0.00    -0.389 N 
HETATM   30  C16 UNL     1     -12.848  -2.566 -16.128  1.00  0.00     0.124 C 
ATOM     31  H5  UNL     1     -13.978  -0.679 -15.704  1.00  0.00     0.159 HD
ENDBRANCH  20  21
ENDBRANCH   1  20
BRANCH   1  32
HETATM   32  C18 UNL     1     -13.169   3.853 -17.550  1.00  0.00     0.223 C 
HETATM   33  C19 UNL     1     -11.846   4.293 -17.027  1.00  0.00     0.036 C 
HETATM   34  C20 UNL     1     -11.507   5.678 -17.535  1.00  0.00     0.002 C 
HETATM   35  C21 UNL     1     -12.721   6.458 -17.975  1.00  0.00     0.000 C 
HETATM   36  C22 UNL     1     -13.479   5.754 -19.072  1.00  0.00     0.002 C 
HETATM   37  C23 UNL     1     -13.280   4.237 -18.990  1.00  0.00     0.036 C 
ENDBRANCH   1  32
TORSDOF 8
ENDMDL
MODEL 5
REMARK VINA RESULT: -7.961721966      2.363      3.924
REMARK  8 active torsions:
REMARK  status: ('A' for Active; 'I' for Inactive)
REMARK    1  A    between atoms: C6_9  and  N2_10 
REMARK    2  A    between atoms: N2_10  and  C7_12 
REMARK    3  A    between atoms: C7_12  and  C8_13 
REMARK    4  A    between atoms: C8_13  and  C9_14 
REMARK    5  A    between atoms: C9_14  and  N3_15 
REMARK    6  A    between atoms: N3_15  and  C10_16 
REMARK    7  A    between atoms: N3_15  and  C18_28 
REMARK    8  A    between atoms: C10_16  and  C11_17 
ROOT
HETATM    1  N3  UNL     1     -12.960   1.707 -18.444  1.00  0.00     0.097 N 
ENDROOT
BRANCH   1   2
HETATM    2  C9  UNL     1     -14.430   1.460 -18.620  1.00  0.00     0.275 C 
BRANCH   2   3
HETATM    3  C8  UNL     1     -14.739   0.584 -19.766  1.00  0.00     0.050 C 
BRANCH   3   4
HETATM    4  C7  UNL     1     -16.076   0.923 -20.409  1.00  0.00     0.121 C 
BRANCH   4   5
HETATM    5  N2  UNL     1     -16.785   1.983 -19.771  1.00  0.00    -0.389 N 
ATOM      6  H2  UNL     1     -16.307   2.862 -19.570  1.00  0.00     0.159 HD
BRANCH   5   7
HETATM    7  C6  UNL     1     -18.048   1.839 -19.439  1.00  0.00     0.042 A 
HETATM    8  C5  UNL     1     -18.957   1.308 -20.322  1.00  0.00     0.047 A 
HETATM    9  C4  UNL     1     -20.288   1.187 -19.945  1.00  0.00     0.090 A 
HETATM   10  N1  UNL     1     -20.728   1.569 -18.739  1.00  0.00    -0.365 N 
HETATM   11  C3  UNL     1     -19.861   2.090 -17.859  1.00  0.00     0.046 A 
ATOM     12  H1  UNL     1     -21.713   1.467 -18.494  1.00  0.00     0.165 HD
HETATM   13  C2  UNL     1     -20.328   2.487 -16.613  1.00  0.00     0.056 A 
HETATM   14  C24 UNL     1     -18.520   2.225 -18.210  1.00  0.00     0.019 A 
HETATM   15  C1  UNL     1     -19.437   3.022 -15.719  1.00  0.00     0.058 A 
HETATM   16 CL1  UNL     1     -19.996   3.532 -14.124  1.00  0.00    -0.082 Cl
HETATM   17  C26 UNL     1     -18.106   3.164 -16.048  1.00  0.00     0.056 A 
HETATM   18  C25 UNL     1     -17.656   2.764 -17.290  1.00  0.00     0.041 A 
HETATM   19 CL2  UNL     1     -16.964   3.859 -14.897  1.00  0.00    -0.083 Cl
ENDBRANCH   5   7
ENDBRANCH   4   5
ENDBRANCH   3   4
ENDBRANCH   2   3
ENDBRANCH   1   2
BRANCH   1  20
HETATM   20  C10 UNL     1     -12.728   1.021 -17.171  1.00  0.00     0.315 C 
BRANCH  20  21
HETATM   21  C11 UNL     1     -12.614  -0.427 -17.186  1.00  0.00     0.012 A 
HETATM   22  C12 UNL     1     -11.883  -1.142 -18.073  1.00  0.00     0.098 A 
HETATM   23  N4  UNL     1     -11.925  -2.486 -18.040  1.00  0.00    -0.374 N 
HETATM   24  C13 UNL     1     -12.657  -3.195 -17.174  1.00  0.00     0.097 A 
ATOM     25  H4  UNL     1     -11.363  -2.997 -18.720  1.00  0.00     0.164 HD
HETATM   26  C14 UNL     1     -13.406  -2.482 -16.267  1.00  0.00    -0.014 A 
HETATM   27  C15 UNL     1     -13.402  -1.110 -16.253  1.00  0.00     0.045 A 
HETATM   28  C17 UNL     1     -14.316  -2.980 -15.175  1.00  0.00     0.062 C 
HETATM   29  N5  UNL     1     -14.272  -0.700 -15.194  1.00  0.00    -0.389 N 
HETATM   30  C16 UNL     1     -14.244  -1.800 -14.222  1.00  0.00     0.124 C 
ATOM     31  H5  UNL     1     -14.800   0.171 -15.128  1.00  0.00     0.159 HD
ENDBRANCH  20  21
ENDBRANCH   1  20
BRANCH   1  32
HETATM   32  C18 UNL     1     -12.797   3.138 -18.273  1.00  0.00     0.223 C 
HETATM   33  C19 UNL     1     -13.839   4.001 -18.895  1.00  0.00     0.036 C 
HETATM   34  C20 UNL     1     -13.566   5.461 -18.600  1.00  0.00     0.002 C 
HETATM   35  C21 UNL     1     -12.126   5.729 -18.236  1.00  0.00     0.000 C 
HETATM   36  C22 UNL     1     -11.691   4.941 -17.027  1.00  0.00     0.002 C 
HETATM   37  C23 UNL     1     -12.497   3.644 -16.899  1.00  0.00     0.036 C 
ENDBRANCH   1  32
TORSDOF 8
ENDMDL
