MODEL 1
REMARK VINA RESULT: -7.148772972      0.000      0.000
REMARK  8 active torsions:
REMARK  status: ('A' for Active; 'I' for Inactive)
REMARK    1  A    between atoms: C5_9  and  N2_10 
REMARK    2  A    between atoms: N2_10  and  C6_12 
REMARK    3  A    between atoms: C6_12  and  C7_13 
REMARK    4  A    between atoms: C7_13  and  C8_14 
REMARK    5  A    between atoms: C8_14  and  C9_15 
REMARK    6  A    between atoms: C9_15  and  N3_16 
REMARK    7  A    between atoms: N3_16  and  C10_19 
REMARK    8  A    between atoms: C10_19  and  C11_20 
ROOT
HETATM    1  C7  UNL     1     -10.477   0.292 -18.314  1.00  0.00     0.021 C 
ENDROOT
BRANCH   1   2
HETATM    2  C6  UNL     1     -10.891  -0.161 -19.734  1.00  0.00     0.121 C 
BRANCH   2   3
HETATM    3  N2  UNL     1     -11.984  -1.005 -19.722  1.00  0.00    -0.375 N 
ATOM      4  H2  UNL     1     -11.799  -1.827 -19.147  1.00  0.00     0.161 HD
BRANCH   3   5
HETATM    5  C5  UNL     1     -13.145  -1.056 -20.214  1.00  0.00     0.119 A 
HETATM    6  N1  UNL     1     -13.221  -1.153 -21.603  1.00  0.00    -0.350 N 
HETATM    7  C4  UNL     1     -14.419  -1.210 -22.169  1.00  0.00     0.109 A 
ATOM      8  H1  UNL     1     -12.375  -1.179 -22.171  1.00  0.00     0.166 HD
HETATM    9  C3  UNL     1     -15.594  -1.174 -21.403  1.00  0.00     0.033 A 
HETATM   10  S1  UNL     1     -17.260  -1.225 -21.759  1.00  0.00    -0.098 SA
HETATM   11  C22 UNL     1     -15.571  -1.079 -20.040  1.00  0.00     0.026 A 
HETATM   12  C2  UNL     1     -17.889  -1.125 -20.182  1.00  0.00     0.075 A 
HETATM   13  C1  UNL     1     -16.761  -1.054 -19.405  1.00  0.00     0.053 A 
HETATM   14 CL1  UNL     1     -16.996  -0.935 -17.625  1.00  0.00    -0.083 Cl
HETATM   15  C21 UNL     1     -14.286  -1.021 -19.462  1.00  0.00     0.068 A 
HETATM   16 BR1  UNL     1     -14.131  -0.884 -17.544  1.00  0.00    -0.046 Br
ENDBRANCH   3   5
ENDBRANCH   2   3
ENDBRANCH   1   2
BRANCH   1  17
HETATM   17  C8  UNL     1     -11.332   1.456 -17.919  1.00  0.00     0.029 C 
BRANCH  17  18
HETATM   18  C9  UNL     1     -10.691   2.471 -17.055  1.00  0.00     0.232 C 
BRANCH  18  19
HETATM   19  N3  UNL     1     -11.588   2.898 -16.013  1.00  0.00    -0.074 N 
ATOM     20  H32 UNL     1     -11.304   2.546 -15.099  1.00  0.00     0.277 HD
ATOM     21  H31 UNL     1     -11.503   3.896 -15.822  1.00  0.00     0.277 HD
BRANCH  19  22
HETATM   22  C10 UNL     1     -12.940   2.526 -16.337  1.00  0.00     0.241 C 
BRANCH  22  23
HETATM   23  C11 UNL     1     -13.826   3.761 -16.487  1.00  0.00     0.045 C 
HETATM   24  C12 UNL     1     -13.437   4.569 -17.695  1.00  0.00     0.011 C 
HETATM   25  C13 UNL     1     -13.864   3.983 -18.999  1.00  0.00     0.005 C 
HETATM   26  C14 UNL     1     -14.895   2.909 -18.928  1.00  0.00     0.039 C 
HETATM   27  C15 UNL     1     -15.764   2.937 -17.744  1.00  0.00    -0.051 A 
HETATM   28  C16 UNL     1     -17.102   2.538 -17.861  1.00  0.00     0.007 A 
HETATM   29  C20 UNL     1     -15.248   3.349 -16.542  1.00  0.00    -0.046 A 
HETATM   30  C17 UNL     1     -17.868   2.580 -16.725  1.00  0.00     0.001 A 
HETATM   31  C18 UNL     1     -17.361   2.992 -15.512  1.00  0.00     0.001 A 
HETATM   32  C19 UNL     1     -16.023   3.384 -15.426  1.00  0.00     0.008 A 
ENDBRANCH  22  23
ENDBRANCH  19  22
ENDBRANCH  18  19
ENDBRANCH  17  18
ENDBRANCH   1  17
TORSDOF 8
ENDMDL
MODEL 2
REMARK VINA RESULT: -6.997317016      2.835      5.612
REMARK  8 active torsions:
REMARK  status: ('A' for Active; 'I' for Inactive)
REMARK    1  A    between atoms: C5_9  and  N2_10 
REMARK    2  A    between atoms: N2_10  and  C6_12 
REMARK    3  A    between atoms: C6_12  and  C7_13 
REMARK    4  A    between atoms: C7_13  and  C8_14 
REMARK    5  A    between atoms: C8_14  and  C9_15 
REMARK    6  A    between atoms: C9_15  and  N3_16 
REMARK    7  A    between atoms: N3_16  and  C10_19 
REMARK    8  A    between atoms: C10_19  and  C11_20 
ROOT
HETATM    1  C7  UNL     1     -15.452   0.061 -22.279  1.00  0.00     0.021 C 
ENDROOT
BRANCH   1   2
HETATM    2  C6  UNL     1     -16.831   0.488 -21.725  1.00  0.00     0.121 C 
BRANCH   2   3
HETATM    3  N2  UNL     1     -16.724   1.359 -20.658  1.00  0.00    -0.375 N 
ATOM      4  H2  UNL     1     -15.922   1.978 -20.777  1.00  0.00     0.161 HD
BRANCH   3   5
HETATM    5  C5  UNL     1     -17.329   1.613 -19.580  1.00  0.00     0.119 A 
HETATM    6  N1  UNL     1     -18.629   1.121 -19.472  1.00  0.00    -0.350 N 
HETATM    7  C4  UNL     1     -19.307   1.362 -18.358  1.00  0.00     0.109 A 
ATOM      8  H1  UNL     1     -19.049   0.587 -20.233  1.00  0.00     0.166 HD
HETATM    9  C3  UNL     1     -18.745   2.095 -17.302  1.00  0.00     0.033 A 
HETATM   10  S1  UNL     1     -19.288   2.592 -15.764  1.00  0.00    -0.098 SA
HETATM   11  C22 UNL     1     -17.476   2.599 -17.361  1.00  0.00     0.026 A 
HETATM   12  C2  UNL     1     -17.903   3.422 -15.232  1.00  0.00     0.075 A 
HETATM   13  C1  UNL     1     -17.038   3.287 -16.287  1.00  0.00     0.053 A 
HETATM   14 CL1  UNL     1     -15.414   4.043 -16.120  1.00  0.00    -0.083 Cl
HETATM   15  C21 UNL     1     -16.776   2.328 -18.555  1.00  0.00     0.068 A 
HETATM   16 BR1  UNL     1     -14.975   2.992 -18.750  1.00  0.00    -0.046 Br
ENDBRANCH   3   5
ENDBRANCH   2   3
ENDBRANCH   1   2
BRANCH   1  17
HETATM   17  C8  UNL     1     -14.644  -0.508 -21.154  1.00  0.00     0.029 C 
BRANCH  17  18
HETATM   18  C9  UNL     1     -14.991  -1.883 -20.732  1.00  0.00     0.232 C 
BRANCH  18  19
HETATM   19  N3  UNL     1     -14.822  -2.043 -19.312  1.00  0.00    -0.074 N 
ATOM     20  H32 UNL     1     -15.653  -2.438 -18.872  1.00  0.00     0.277 HD
ATOM     21  H31 UNL     1     -14.165  -2.789 -19.088  1.00  0.00     0.277 HD
BRANCH  19  22
HETATM   22  C10 UNL     1     -14.439  -0.791 -18.713  1.00  0.00     0.241 C 
BRANCH  22  23
HETATM   23  C11 UNL     1     -13.388  -1.003 -17.626  1.00  0.00     0.045 C 
HETATM   24  C12 UNL     1     -12.312  -1.951 -18.085  1.00  0.00     0.011 C 
HETATM   25  C13 UNL     1     -11.339  -1.364 -19.051  1.00  0.00     0.005 C 
HETATM   26  C14 UNL     1     -11.334   0.123 -19.155  1.00  0.00     0.039 C 
HETATM   27  C15 UNL     1     -11.815   0.846 -17.971  1.00  0.00    -0.051 A 
HETATM   28  C16 UNL     1     -11.238   2.078 -17.633  1.00  0.00     0.007 A 
HETATM   29  C20 UNL     1     -12.825   0.304 -17.217  1.00  0.00    -0.046 A 
HETATM   30  C17 UNL     1     -11.727   2.712 -16.520  1.00  0.00     0.001 A 
HETATM   31  C18 UNL     1     -12.741   2.177 -15.756  1.00  0.00     0.001 A 
HETATM   32  C19 UNL     1     -13.296   0.948 -16.117  1.00  0.00     0.008 A 
ENDBRANCH  22  23
ENDBRANCH  19  22
ENDBRANCH  18  19
ENDBRANCH  17  18
ENDBRANCH   1  17
TORSDOF 8
ENDMDL
MODEL 3
REMARK VINA RESULT: -6.936262485      2.300      4.671
REMARK  8 active torsions:
REMARK  status: ('A' for Active; 'I' for Inactive)
REMARK    1  A    between atoms: C5_9  and  N2_10 
REMARK    2  A    between atoms: N2_10  and  C6_12 
REMARK    3  A    between atoms: C6_12  and  C7_13 
REMARK    4  A    between atoms: C7_13  and  C8_14 
REMARK    5  A    between atoms: C8_14  and  C9_15 
REMARK    6  A    between atoms: C9_15  and  N3_16 
REMARK    7  A    between atoms: N3_16  and  C10_19 
REMARK    8  A    between atoms: C10_19  and  C11_20 
ROOT
HETATM    1  C7  UNL     1     -17.597   1.113 -20.737  1.00  0.00     0.021 C 
ENDROOT
BRANCH   1   2
HETATM    2  C6  UNL     1     -18.022  -0.374 -20.772  1.00  0.00     0.121 C 
BRANCH   2   3
HETATM    3  N2  UNL     1     -17.003  -1.223 -20.387  1.00  0.00    -0.375 N 
ATOM      4  H2  UNL     1     -17.362  -2.164 -20.222  1.00  0.00     0.161 HD
BRANCH   3   5
HETATM    5  C5  UNL     1     -15.760  -1.177 -20.179  1.00  0.00     0.119 A 
HETATM    6  N1  UNL     1     -14.949  -1.095 -21.311  1.00  0.00    -0.350 N 
HETATM    7  C4  UNL     1     -13.634  -1.044 -21.146  1.00  0.00     0.109 A 
ATOM      8  H1  UNL     1     -15.358  -1.076 -22.245  1.00  0.00     0.166 HD
HETATM    9  C3  UNL     1     -13.054  -1.071 -19.869  1.00  0.00     0.033 A 
HETATM   10  S1  UNL     1     -11.457  -1.025 -19.275  1.00  0.00    -0.098 SA
HETATM   11  C22 UNL     1     -13.806  -1.151 -18.730  1.00  0.00     0.026 A 
HETATM   12  C2  UNL     1     -11.774  -1.107 -17.607  1.00  0.00     0.075 A 
HETATM   13  C1  UNL     1     -13.143  -1.169 -17.556  1.00  0.00     0.053 A 
HETATM   14 CL1  UNL     1     -13.901  -1.268 -15.927  1.00  0.00    -0.083 Cl
HETATM   15  C21 UNL     1     -15.201  -1.204 -18.933  1.00  0.00     0.068 A 
HETATM   16 BR1  UNL     1     -16.362  -1.319 -17.396  1.00  0.00    -0.046 Br
ENDBRANCH   3   5
ENDBRANCH   2   3
ENDBRANCH   1   2
BRANCH   1  17
HETATM   17  C8  UNL     1     -17.997   1.690 -19.414  1.00  0.00     0.029 C 
BRANCH  17  18
HETATM   18  C9  UNL     1     -16.942   2.417 -18.675  1.00  0.00     0.232 C 
BRANCH  18  19
HETATM   19  N3  UNL     1     -15.706   2.419 -19.413  1.00  0.00    -0.074 N 
ATOM     20  H32 UNL     1     -15.703   1.716 -20.153  1.00  0.00     0.277 HD
ATOM     21  H31 UNL     1     -15.611   3.250 -19.996  1.00  0.00     0.277 HD
BRANCH  19  22
HETATM   22  C10 UNL     1     -14.591   2.260 -18.516  1.00  0.00     0.241 C 
BRANCH  22  23
HETATM   23  C11 UNL     1     -14.650   3.283 -17.385  1.00  0.00     0.045 C 
HETATM   24  C12 UNL     1     -14.546   2.617 -16.040  1.00  0.00     0.011 C 
HETATM   25  C13 UNL     1     -13.174   2.152 -15.682  1.00  0.00     0.005 C 
HETATM   26  C14 UNL     1     -12.059   2.708 -16.500  1.00  0.00     0.039 C 
HETATM   27  C15 UNL     1     -12.320   4.006 -17.134  1.00  0.00    -0.051 A 
HETATM   28  C16 UNL     1     -11.272   4.925 -17.282  1.00  0.00     0.007 A 
HETATM   29  C20 UNL     1     -13.586   4.297 -17.575  1.00  0.00    -0.046 A 
HETATM   30  C17 UNL     1     -11.569   6.120 -17.883  1.00  0.00     0.001 A 
HETATM   31  C18 UNL     1     -12.836   6.422 -18.330  1.00  0.00     0.001 A 
HETATM   32  C19 UNL     1     -13.861   5.488 -18.169  1.00  0.00     0.008 A 
ENDBRANCH  22  23
ENDBRANCH  19  22
ENDBRANCH  18  19
ENDBRANCH  17  18
ENDBRANCH   1  17
TORSDOF 8
ENDMDL
MODEL 4
REMARK VINA RESULT: -6.933530008      2.983      5.624
REMARK  8 active torsions:
REMARK  status: ('A' for Active; 'I' for Inactive)
REMARK    1  A    between atoms: C5_9  and  N2_10 
REMARK    2  A    between atoms: N2_10  and  C6_12 
REMARK    3  A    between atoms: C6_12  and  C7_13 
REMARK    4  A    between atoms: C7_13  and  C8_14 
REMARK    5  A    between atoms: C8_14  and  C9_15 
REMARK    6  A    between atoms: C9_15  and  N3_16 
REMARK    7  A    between atoms: N3_16  and  C10_19 
REMARK    8  A    between atoms: C10_19  and  C11_20 
ROOT
HETATM    1  C7  UNL     1     -15.408  -0.483 -19.325  1.00  0.00     0.021 C 
ENDROOT
BRANCH   1   2
HETATM    2  C6  UNL     1     -15.435   0.736 -20.276  1.00  0.00     0.121 C 
BRANCH   2   3
HETATM    3  N2  UNL     1     -16.179   1.784 -19.771  1.00  0.00    -0.375 N 
ATOM      4  H2  UNL     1     -15.892   2.667 -20.195  1.00  0.00     0.161 HD
BRANCH   3   5
HETATM    5  C5  UNL     1     -17.108   1.970 -18.938  1.00  0.00     0.119 A 
HETATM    6  N1  UNL     1     -18.362   1.475 -19.295  1.00  0.00    -0.350 N 
HETATM    7  C4  UNL     1     -19.373   1.645 -18.453  1.00  0.00     0.109 A 
ATOM      8  H1  UNL     1     -18.499   0.993 -20.183  1.00  0.00     0.166 HD
HETATM    9  C3  UNL     1     -19.203   2.307 -17.228  1.00  0.00     0.033 A 
HETATM   10  S1  UNL     1     -20.230   2.705 -15.927  1.00  0.00    -0.098 SA
HETATM   11  C22 UNL     1     -17.995   2.810 -16.834  1.00  0.00     0.026 A 
HETATM   12  C2  UNL     1     -19.113   3.495 -14.918  1.00  0.00     0.075 A 
HETATM   13  C1  UNL     1     -17.946   3.426 -15.636  1.00  0.00     0.053 A 
HETATM   14 CL1  UNL     1     -16.482   4.166 -14.897  1.00  0.00    -0.083 Cl
HETATM   15  C21 UNL     1     -16.936   2.615 -17.746  1.00  0.00     0.068 A 
HETATM   16 BR1  UNL     1     -15.184   3.285 -17.296  1.00  0.00    -0.046 Br
ENDBRANCH   3   5
ENDBRANCH   2   3
ENDBRANCH   1   2
BRANCH   1  17
HETATM   17  C8  UNL     1     -14.833  -1.651 -20.065  1.00  0.00     0.029 C 
BRANCH  17  18
HETATM   18  C9  UNL     1     -13.704  -1.354 -20.974  1.00  0.00     0.232 C 
BRANCH  18  19
HETATM   19  N3  UNL     1     -12.449  -1.707 -20.366  1.00  0.00    -0.074 N 
ATOM     20  H32 UNL     1     -12.571  -2.358 -19.590  1.00  0.00     0.277 HD
ATOM     21  H31 UNL     1     -11.885  -2.301 -20.973  1.00  0.00     0.277 HD
BRANCH  19  22
HETATM   22  C10 UNL     1     -11.739  -0.520 -19.966  1.00  0.00     0.241 C 
BRANCH  22  23
HETATM   23  C11 UNL     1     -11.067  -0.716 -18.609  1.00  0.00     0.045 C 
HETATM   24  C12 UNL     1     -10.171   0.446 -18.272  1.00  0.00     0.011 C 
HETATM   25  C13 UNL     1     -10.889   1.682 -17.848  1.00  0.00     0.005 C 
HETATM   26  C14 UNL     1     -12.322   1.512 -17.474  1.00  0.00     0.039 C 
HETATM   27  C15 UNL     1     -12.706   0.170 -17.015  1.00  0.00    -0.051 A 
HETATM   28  C16 UNL     1     -13.687   0.035 -16.023  1.00  0.00     0.007 A 
HETATM   29  C20 UNL     1     -12.098  -0.928 -17.568  1.00  0.00    -0.046 A 
HETATM   30  C17 UNL     1     -14.009  -1.240 -15.634  1.00  0.00     0.001 A 
HETATM   31  C18 UNL     1     -13.406  -2.350 -16.183  1.00  0.00     0.001 A 
HETATM   32  C19 UNL     1     -12.432  -2.184 -17.169  1.00  0.00     0.008 A 
ENDBRANCH  22  23
ENDBRANCH  19  22
ENDBRANCH  18  19
ENDBRANCH  17  18
ENDBRANCH   1  17
TORSDOF 8
ENDMDL
MODEL 5
REMARK VINA RESULT: -6.876317479      2.747      5.591
REMARK  8 active torsions:
REMARK  status: ('A' for Active; 'I' for Inactive)
REMARK    1  A    between atoms: C5_9  and  N2_10 
REMARK    2  A    between atoms: N2_10  and  C6_12 
REMARK    3  A    between atoms: C6_12  and  C7_13 
REMARK    4  A    between atoms: C7_13  and  C8_14 
REMARK    5  A    between atoms: C8_14  and  C9_15 
REMARK    6  A    between atoms: C9_15  and  N3_16 
REMARK    7  A    between atoms: N3_16  and  C10_19 
REMARK    8  A    between atoms: C10_19  and  C11_20 
ROOT
HETATM    1  C7  UNL     1     -15.794   0.180 -22.397  1.00  0.00     0.021 C 
ENDROOT
BRANCH   1   2
HETATM    2  C6  UNL     1     -17.060   0.140 -21.510  1.00  0.00     0.121 C 
BRANCH   2   3
HETATM    3  N2  UNL     1     -17.276   1.331 -20.844  1.00  0.00    -0.375 N 
ATOM      4  H2  UNL     1     -17.697   2.021 -21.466  1.00  0.00     0.161 HD
BRANCH   3   5
HETATM    5  C5  UNL     1     -17.104   1.815 -19.691  1.00  0.00     0.119 A 
HETATM    6  N1  UNL     1     -15.819   2.270 -19.400  1.00  0.00    -0.350 N 
HETATM    7  C4  UNL     1     -15.587   2.788 -18.201  1.00  0.00     0.109 A 
ATOM      8  H1  UNL     1     -15.073   2.207 -20.093  1.00  0.00     0.166 HD
HETATM    9  C3  UNL     1     -16.599   2.882 -17.235  1.00  0.00     0.033 A 
HETATM   10  S1  UNL     1     -16.682   3.466 -15.636  1.00  0.00    -0.098 SA
HETATM   11  C22 UNL     1     -17.874   2.448 -17.473  1.00  0.00     0.026 A 
HETATM   12  C2  UNL     1     -18.319   3.152 -15.305  1.00  0.00     0.075 A 
HETATM   13  C1  UNL     1     -18.767   2.589 -16.472  1.00  0.00     0.053 A 
HETATM   14 CL1  UNL     1     -20.498   2.100 -16.538  1.00  0.00    -0.083 Cl
HETATM   15  C21 UNL     1     -18.095   1.904 -18.754  1.00  0.00     0.068 A 
HETATM   16 BR1  UNL     1     -19.857   1.258 -19.201  1.00  0.00    -0.046 Br
ENDBRANCH   3   5
ENDBRANCH   2   3
ENDBRANCH   1   2
BRANCH   1  17
HETATM   17  C8  UNL     1     -14.712  -0.598 -21.715  1.00  0.00     0.029 C 
BRANCH  17  18
HETATM   18  C9  UNL     1     -15.150  -1.776 -20.935  1.00  0.00     0.232 C 
BRANCH  18  19
HETATM   19  N3  UNL     1     -14.291  -1.987 -19.799  1.00  0.00    -0.074 N 
ATOM     20  H32 UNL     1     -14.690  -2.655 -19.139  1.00  0.00     0.277 HD
ATOM     21  H31 UNL     1     -13.450  -2.506 -20.048  1.00  0.00     0.277 HD
BRANCH  19  22
HETATM   22  C10 UNL     1     -13.981  -0.730 -19.170  1.00  0.00     0.241 C 
BRANCH  22  23
HETATM   23  C11 UNL     1     -13.018  -0.925 -18.002  1.00  0.00     0.045 C 
HETATM   24  C12 UNL     1     -11.756  -1.617 -18.444  1.00  0.00     0.011 C 
HETATM   25  C13 UNL     1     -10.810  -0.754 -19.208  1.00  0.00     0.005 C 
HETATM   26  C14 UNL     1     -11.050   0.715 -19.126  1.00  0.00     0.039 C 
HETATM   27  C15 UNL     1     -11.760   1.179 -17.927  1.00  0.00    -0.051 A 
HETATM   28  C16 UNL     1     -11.439   2.426 -17.374  1.00  0.00     0.007 A 
HETATM   29  C20 UNL     1     -12.729   0.383 -17.370  1.00  0.00    -0.046 A 
HETATM   30  C17 UNL     1     -12.133   2.811 -16.257  1.00  0.00     0.001 A 
HETATM   31  C18 UNL     1     -13.108   2.021 -15.689  1.00  0.00     0.001 A 
HETATM   32  C19 UNL     1     -13.407   0.783 -16.262  1.00  0.00     0.008 A 
ENDBRANCH  22  23
ENDBRANCH  19  22
ENDBRANCH  18  19
ENDBRANCH  17  18
ENDBRANCH   1  17
TORSDOF 8
ENDMDL
