MODEL 1
REMARK VINA RESULT: -8.528413493      0.000      0.000
REMARK  10 active torsions:
REMARK  status: ('A' for Active; 'I' for Inactive)
REMARK    1  A    between atoms: C2_2  and  N1_4 
REMARK    2  A    between atoms: C2_2  and  C22_31 
REMARK    3  A    between atoms: N1_4  and  C4_5 
REMARK    4  A    between atoms: C8_13  and  N4_14 
REMARK    5  A    between atoms: N4_14  and  C9_16 
REMARK    6  A    between atoms: C9_16  and  C10_17 
REMARK    7  A    between atoms: C10_17  and  C11_18 
REMARK    8  A    between atoms: C11_18  and  C12_19 
REMARK    9  A    between atoms: C12_19  and  C13_20 
REMARK   10  A    between atoms: C13_20  and  C14_21 
ROOT
HETATM    1  C4  UNL     1     -13.836   0.088 -19.919  1.00  0.00     0.189 A 
HETATM    2  N2  UNL     1     -13.272  -0.946 -20.635  1.00  0.00    -0.327 N 
ATOM      3  H2  UNL     1     -12.318  -1.230 -20.413  1.00  0.00     0.169 HD
HETATM    4  C5  UNL     1     -13.920  -1.588 -21.606  1.00  0.00     0.183 A 
HETATM    5  N3  UNL     1     -15.163  -1.299 -21.977  1.00  0.00    -0.351 N 
ATOM      6  H3  UNL     1     -15.627  -1.814 -22.725  1.00  0.00     0.166 HD
HETATM    7  C6  UNL     1     -15.787  -0.293 -21.319  1.00  0.00     0.053 A 
HETATM    8  C7  UNL     1     -17.077   0.042 -21.656  1.00  0.00     0.078 A 
HETATM    9  C8  UNL     1     -17.734   1.070 -20.981  1.00  0.00     0.102 A 
HETATM   10  N5  UNL     1     -17.086   1.716 -20.006  1.00  0.00    -0.351 N 
ATOM     11  H5  UNL     1     -17.556   2.470 -19.505  1.00  0.00     0.166 HD
HETATM   12  C20 UNL     1     -15.835   1.392 -19.677  1.00  0.00     0.108 A 
HETATM   13  C21 UNL     1     -15.154   0.395 -20.311  1.00  0.00     0.064 A 
ENDROOT
BRANCH   9  14
HETATM   14  N4  UNL     1     -18.934   1.321 -21.350  1.00  0.00    -0.376 N 
ATOM     15  H4  UNL     1     -19.271   0.821 -22.172  1.00  0.00     0.161 HD
BRANCH  14  16
HETATM   16  C9  UNL     1     -19.854   2.227 -20.735  1.00  0.00     0.121 C 
BRANCH  16  17
HETATM   17  C10 UNL     1     -20.466   1.580 -19.520  1.00  0.00     0.020 C 
BRANCH  17  18
HETATM   18  C11 UNL     1     -20.334   2.422 -18.288  1.00  0.00     0.002 C 
BRANCH  18  19
HETATM   19  C12 UNL     1     -19.380   1.783 -17.316  1.00  0.00     0.000 C 
BRANCH  19  20
HETATM   20  C13 UNL     1     -19.458   2.600 -16.039  1.00  0.00     0.004 C 
BRANCH  20  21
HETATM   21  C14 UNL     1     -18.096   2.744 -15.400  1.00  0.00    -0.014 C 
HETATM   22  C15 UNL     1     -17.066   2.130 -16.271  1.00  0.00     0.004 C 
HETATM   23  C16 UNL     1     -16.100   3.206 -16.737  1.00  0.00     0.000 C 
HETATM   24  C17 UNL     1     -15.470   3.807 -15.501  1.00  0.00     0.000 C 
HETATM   25  C18 UNL     1     -16.498   4.520 -14.648  1.00  0.00     0.000 C 
HETATM   26  C19 UNL     1     -17.905   4.212 -15.104  1.00  0.00     0.004 C 
ENDBRANCH  20  21
ENDBRANCH  19  20
ENDBRANCH  18  19
ENDBRANCH  17  18
ENDBRANCH  16  17
ENDBRANCH  14  16
ENDBRANCH   9  14
BRANCH   1  27
HETATM   27  N1  UNL     1     -13.260   0.657 -19.044  1.00  0.00    -0.414 NA
BRANCH  27  28
HETATM   28  C2  UNL     1     -12.615   1.293 -18.066  1.00  0.00     0.117 C 
HETATM   29  C1  UNL     1     -13.203   0.931 -16.686  1.00  0.00     0.060 C 
HETATM   30  C3  UNL     1     -11.120   0.993 -17.925  1.00  0.00     0.060 C 
BRANCH  28  31
HETATM   31  C22 UNL     1     -12.694   2.805 -18.138  1.00  0.00     0.004 A 
HETATM   32  C23 UNL     1     -13.453   3.450 -19.101  1.00  0.00     0.015 A 
HETATM   33  C24 UNL     1     -13.500   4.830 -19.073  1.00  0.00     0.043 A 
HETATM   34  C25 UNL     1     -12.832   5.581 -18.145  1.00  0.00     0.118 A 
HETATM   35  F1  UNL     1     -12.889   6.934 -18.132  1.00  0.00    -0.206 F 
HETATM   36  C26 UNL     1     -12.087   4.908 -17.204  1.00  0.00     0.066 A 
HETATM   37  C27 UNL     1     -12.010   3.513 -17.192  1.00  0.00     0.046 A 
HETATM   38 CL1  UNL     1     -11.010   2.774 -15.984  1.00  0.00    -0.084 Cl
ENDBRANCH  28  31
ENDBRANCH  27  28
ENDBRANCH   1  27
TORSDOF 10
ENDMDL
MODEL 2
REMARK VINA RESULT: -8.497036588      2.215      5.999
REMARK  10 active torsions:
REMARK  status: ('A' for Active; 'I' for Inactive)
REMARK    1  A    between atoms: C2_2  and  N1_4 
REMARK    2  A    between atoms: C2_2  and  C22_31 
REMARK    3  A    between atoms: N1_4  and  C4_5 
REMARK    4  A    between atoms: C8_13  and  N4_14 
REMARK    5  A    between atoms: N4_14  and  C9_16 
REMARK    6  A    between atoms: C9_16  and  C10_17 
REMARK    7  A    between atoms: C10_17  and  C11_18 
REMARK    8  A    between atoms: C11_18  and  C12_19 
REMARK    9  A    between atoms: C12_19  and  C13_20 
REMARK   10  A    between atoms: C13_20  and  C14_21 
ROOT
HETATM    1  C4  UNL     1     -17.279   0.749 -19.652  1.00  0.00     0.189 A 
HETATM    2  N2  UNL     1     -17.696   1.063 -20.927  1.00  0.00    -0.327 N 
ATOM      3  H2  UNL     1     -18.579   1.560 -21.044  1.00  0.00     0.169 HD
HETATM    4  C5  UNL     1     -16.993   0.744 -22.014  1.00  0.00     0.183 A 
HETATM    5  N3  UNL     1     -15.833   0.098 -21.977  1.00  0.00    -0.351 N 
ATOM      6  H3  UNL     1     -15.323  -0.128 -22.831  1.00  0.00     0.166 HD
HETATM    7  C6  UNL     1     -15.355  -0.246 -20.757  1.00  0.00     0.053 A 
HETATM    8  C7  UNL     1     -14.154  -0.908 -20.660  1.00  0.00     0.078 A 
HETATM    9  C8  UNL     1     -13.646  -1.260 -19.410  1.00  0.00     0.102 A 
HETATM   10  N5  UNL     1     -14.348  -0.941 -18.317  1.00  0.00    -0.351 N 
ATOM     11  H5  UNL     1     -13.988  -1.193 -17.398  1.00  0.00     0.166 HD
HETATM   12  C20 UNL     1     -15.513  -0.298 -18.411  1.00  0.00     0.108 A 
HETATM   13  C21 UNL     1     -16.048   0.065 -19.611  1.00  0.00     0.064 A 
ENDROOT
BRANCH   9  14
HETATM   14  N4  UNL     1     -12.522  -1.871 -19.401  1.00  0.00    -0.376 N 
ATOM     15  H4  UNL     1     -12.469  -2.733 -19.944  1.00  0.00     0.161 HD
BRANCH  14  16
HETATM   16  C9  UNL     1     -11.331  -1.479 -18.712  1.00  0.00     0.121 C 
BRANCH  16  17
HETATM   17  C10 UNL     1     -10.791  -0.210 -19.318  1.00  0.00     0.020 C 
BRANCH  17  18
HETATM   18  C11 UNL     1     -10.486   0.836 -18.289  1.00  0.00     0.002 C 
BRANCH  18  19
HETATM   19  C12 UNL     1     -11.756   1.345 -17.666  1.00  0.00     0.000 C 
BRANCH  19  20
HETATM   20  C13 UNL     1     -11.381   2.595 -16.889  1.00  0.00     0.004 C 
BRANCH  20  21
HETATM   21  C14 UNL     1     -12.412   3.684 -17.077  1.00  0.00    -0.014 C 
HETATM   22  C15 UNL     1     -11.792   5.009 -16.849  1.00  0.00     0.004 C 
HETATM   23  C16 UNL     1     -11.844   5.814 -18.136  1.00  0.00     0.000 C 
HETATM   24  C17 UNL     1     -13.300   5.961 -18.513  1.00  0.00     0.000 C 
HETATM   25  C18 UNL     1     -13.924   4.621 -18.841  1.00  0.00     0.000 C 
HETATM   26  C19 UNL     1     -13.019   3.478 -18.444  1.00  0.00     0.004 C 
ENDBRANCH  20  21
ENDBRANCH  19  20
ENDBRANCH  18  19
ENDBRANCH  17  18
ENDBRANCH  16  17
ENDBRANCH  14  16
ENDBRANCH   9  14
BRANCH   1  27
HETATM   27  N1  UNL     1     -17.901   1.043 -18.679  1.00  0.00    -0.414 NA
BRANCH  27  28
HETATM   28  C2  UNL     1     -18.599   1.371 -17.591  1.00  0.00     0.117 C 
HETATM   29  C1  UNL     1     -19.921   2.069 -17.968  1.00  0.00     0.060 C 
HETATM   30  C3  UNL     1     -19.031   0.216 -16.682  1.00  0.00     0.060 C 
BRANCH  28  31
HETATM   31  C22 UNL     1     -17.896   2.341 -16.662  1.00  0.00     0.004 A 
HETATM   32  C23 UNL     1     -16.541   2.607 -16.773  1.00  0.00     0.015 A 
HETATM   33  C24 UNL     1     -15.988   3.532 -15.911  1.00  0.00     0.043 A 
HETATM   34  C25 UNL     1     -16.714   4.192 -14.957  1.00  0.00     0.118 A 
HETATM   35  F1  UNL     1     -16.156   5.097 -14.119  1.00  0.00    -0.206 F 
HETATM   36  C26 UNL     1     -18.057   3.903 -14.873  1.00  0.00     0.066 A 
HETATM   37  C27 UNL     1     -18.661   2.975 -15.725  1.00  0.00     0.046 A 
HETATM   38 CL1  UNL     1     -20.352   2.663 -15.503  1.00  0.00    -0.084 Cl
ENDBRANCH  28  31
ENDBRANCH  27  28
ENDBRANCH   1  27
TORSDOF 10
ENDMDL
MODEL 3
REMARK VINA RESULT: -8.095647899      3.006      6.081
REMARK  10 active torsions:
REMARK  status: ('A' for Active; 'I' for Inactive)
REMARK    1  A    between atoms: C2_2  and  N1_4 
REMARK    2  A    between atoms: C2_2  and  C22_31 
REMARK    3  A    between atoms: N1_4  and  C4_5 
REMARK    4  A    between atoms: C8_13  and  N4_14 
REMARK    5  A    between atoms: N4_14  and  C9_16 
REMARK    6  A    between atoms: C9_16  and  C10_17 
REMARK    7  A    between atoms: C10_17  and  C11_18 
REMARK    8  A    between atoms: C11_18  and  C12_19 
REMARK    9  A    between atoms: C12_19  and  C13_20 
REMARK   10  A    between atoms: C13_20  and  C14_21 
ROOT
HETATM    1  C4  UNL     1     -12.393   1.211 -18.238  1.00  0.00     0.189 A 
HETATM    2  N2  UNL     1     -11.462   1.021 -19.235  1.00  0.00    -0.327 N 
ATOM      3  H2  UNL     1     -11.204   1.815 -19.822  1.00  0.00     0.169 HD
HETATM    4  C5  UNL     1     -10.883  -0.158 -19.466  1.00  0.00     0.183 A 
HETATM    5  N3  UNL     1     -11.144  -1.255 -18.764  1.00  0.00    -0.351 N 
ATOM      6  H3  UNL     1     -10.681  -2.140 -18.970  1.00  0.00     0.166 HD
HETATM    7  C6  UNL     1     -12.051  -1.149 -17.763  1.00  0.00     0.053 A 
HETATM    8  C7  UNL     1     -12.353  -2.252 -17.000  1.00  0.00     0.078 A 
HETATM    9  C8  UNL     1     -13.278  -2.154 -15.961  1.00  0.00     0.102 A 
HETATM   10  N5  UNL     1     -13.860  -0.973 -15.727  1.00  0.00    -0.351 N 
ATOM     11  H5  UNL     1     -14.538  -0.889 -14.971  1.00  0.00     0.166 HD
HETATM   12  C20 UNL     1     -13.567   0.098 -16.467  1.00  0.00     0.108 A 
HETATM   13  C21 UNL     1     -12.670   0.048 -17.493  1.00  0.00     0.064 A 
ENDROOT
BRANCH   9  14
HETATM   14  N4  UNL     1     -13.503  -3.222 -15.294  1.00  0.00    -0.376 N 
ATOM     15  H4  UNL     1     -13.179  -3.231 -14.327  1.00  0.00     0.161 HD
BRANCH  14  16
HETATM   16  C9  UNL     1     -14.160  -4.406 -15.755  1.00  0.00     0.121 C 
BRANCH  16  17
HETATM   17  C10 UNL     1     -15.576  -4.077 -16.151  1.00  0.00     0.020 C 
BRANCH  17  18
HETATM   18  C11 UNL     1     -15.804  -4.194 -17.628  1.00  0.00     0.002 C 
BRANCH  18  19
HETATM   19  C12 UNL     1     -16.106  -2.845 -18.220  1.00  0.00     0.000 C 
BRANCH  19  20
HETATM   20  C13 UNL     1     -15.125  -2.650 -19.363  1.00  0.00     0.004 C 
BRANCH  20  21
HETATM   21  C14 UNL     1     -15.383  -1.348 -20.085  1.00  0.00    -0.014 C 
HETATM   22  C15 UNL     1     -14.190  -0.968 -20.878  1.00  0.00     0.004 C 
HETATM   23  C16 UNL     1     -14.552  -0.957 -22.353  1.00  0.00     0.000 C 
HETATM   24  C17 UNL     1     -15.661   0.054 -22.534  1.00  0.00     0.000 C 
HETATM   25  C18 UNL     1     -16.919  -0.369 -21.806  1.00  0.00     0.000 C 
HETATM   26  C19 UNL     1     -16.656  -1.531 -20.877  1.00  0.00     0.004 C 
ENDBRANCH  20  21
ENDBRANCH  19  20
ENDBRANCH  18  19
ENDBRANCH  17  18
ENDBRANCH  16  17
ENDBRANCH  14  16
ENDBRANCH   9  14
BRANCH   1  27
HETATM   27  N1  UNL     1     -12.904   2.267 -18.025  1.00  0.00    -0.414 NA
BRANCH  27  28
HETATM   28  C2  UNL     1     -13.475   3.448 -17.786  1.00  0.00     0.117 C 
HETATM   29  C1  UNL     1     -12.576   4.330 -16.896  1.00  0.00     0.060 C 
HETATM   30  C3  UNL     1     -13.769   4.324 -19.008  1.00  0.00     0.060 C 
BRANCH  28  31
HETATM   31  C22 UNL     1     -14.797   3.369 -17.049  1.00  0.00     0.004 A 
HETATM   32  C23 UNL     1     -14.959   3.907 -15.782  1.00  0.00     0.015 A 
HETATM   33  C24 UNL     1     -16.207   3.824 -15.197  1.00  0.00     0.043 A 
HETATM   34  C25 UNL     1     -17.282   3.238 -15.809  1.00  0.00     0.118 A 
HETATM   35  F1  UNL     1     -18.500   3.167 -15.220  1.00  0.00    -0.206 F 
HETATM   36  C26 UNL     1     -17.086   2.714 -17.065  1.00  0.00     0.066 A 
HETATM   37  C27 UNL     1     -15.841   2.774 -17.697  1.00  0.00     0.046 A 
HETATM   38 CL1  UNL     1     -15.702   2.047 -19.266  1.00  0.00    -0.084 Cl
ENDBRANCH  28  31
ENDBRANCH  27  28
ENDBRANCH   1  27
TORSDOF 10
ENDMDL
MODEL 4
REMARK VINA RESULT: -8.027577246      2.916      6.837
REMARK  10 active torsions:
REMARK  status: ('A' for Active; 'I' for Inactive)
REMARK    1  A    between atoms: C2_2  and  N1_4 
REMARK    2  A    between atoms: C2_2  and  C22_31 
REMARK    3  A    between atoms: N1_4  and  C4_5 
REMARK    4  A    between atoms: C8_13  and  N4_14 
REMARK    5  A    between atoms: N4_14  and  C9_16 
REMARK    6  A    between atoms: C9_16  and  C10_17 
REMARK    7  A    between atoms: C10_17  and  C11_18 
REMARK    8  A    between atoms: C11_18  and  C12_19 
REMARK    9  A    between atoms: C12_19  and  C13_20 
REMARK   10  A    between atoms: C13_20  and  C14_21 
ROOT
HETATM    1  C4  UNL     1     -17.723   1.639 -17.913  1.00  0.00     0.189 A 
HETATM    2  N2  UNL     1     -18.595   1.563 -16.848  1.00  0.00    -0.327 N 
ATOM      3  H2  UNL     1     -19.454   1.023 -16.958  1.00  0.00     0.169 HD
HETATM    4  C5  UNL     1     -18.364   2.165 -15.682  1.00  0.00     0.183 A 
HETATM    5  N3  UNL     1     -17.280   2.891 -15.431  1.00  0.00    -0.351 N 
ATOM      6  H3  UNL     1     -17.137   3.337 -14.525  1.00  0.00     0.166 HD
HETATM    7  C6  UNL     1     -16.372   3.014 -16.430  1.00  0.00     0.053 A 
HETATM    8  C7  UNL     1     -15.228   3.747 -16.222  1.00  0.00     0.078 A 
HETATM    9  C8  UNL     1     -14.282   3.874 -17.238  1.00  0.00     0.102 A 
HETATM   10  N5  UNL     1     -14.512   3.271 -18.409  1.00  0.00    -0.351 N 
ATOM     11  H5  UNL     1     -13.827   3.357 -19.160  1.00  0.00     0.166 HD
HETATM   12  C20 UNL     1     -15.621   2.559 -18.612  1.00  0.00     0.108 A 
HETATM   13  C21 UNL     1     -16.573   2.409 -17.647  1.00  0.00     0.064 A 
ENDROOT
BRANCH   9  14
HETATM   14  N4  UNL     1     -13.242   4.569 -16.968  1.00  0.00    -0.376 N 
ATOM     15  H4  UNL     1     -13.402   5.465 -16.507  1.00  0.00     0.161 HD
BRANCH  14  16
HETATM   16  C9  UNL     1     -11.880   4.228 -17.241  1.00  0.00     0.121 C 
BRANCH  16  17
HETATM   17  C10 UNL     1     -11.508   2.984 -16.477  1.00  0.00     0.020 C 
BRANCH  17  18
HETATM   18  C11 UNL     1     -10.857   1.948 -17.343  1.00  0.00     0.002 C 
BRANCH  18  19
HETATM   19  C12 UNL     1     -11.895   1.204 -18.139  1.00  0.00     0.000 C 
BRANCH  19  20
HETATM   20  C13 UNL     1     -11.844  -0.238 -17.667  1.00  0.00     0.004 C 
BRANCH  20  21
HETATM   21  C14 UNL     1     -13.215  -0.727 -17.260  1.00  0.00    -0.014 C 
HETATM   22  C15 UNL     1     -13.149  -2.161 -16.896  1.00  0.00     0.004 C 
HETATM   23  C16 UNL     1     -13.512  -2.322 -15.429  1.00  0.00     0.000 C 
HETATM   24  C17 UNL     1     -14.915  -1.787 -15.255  1.00  0.00     0.000 C 
HETATM   25  C18 UNL     1     -14.978  -0.300 -15.532  1.00  0.00     0.000 C 
HETATM   26  C19 UNL     1     -13.702   0.198 -16.170  1.00  0.00     0.004 C 
ENDBRANCH  20  21
ENDBRANCH  19  20
ENDBRANCH  18  19
ENDBRANCH  17  18
ENDBRANCH  16  17
ENDBRANCH  14  16
ENDBRANCH   9  14
BRANCH   1  27
HETATM   27  N1  UNL     1     -17.925   1.093 -18.952  1.00  0.00    -0.414 NA
BRANCH  27  28
HETATM   28  C2  UNL     1     -18.151   0.483 -20.116  1.00  0.00     0.117 C 
HETATM   29  C1  UNL     1     -19.040  -0.763 -19.927  1.00  0.00     0.060 C 
HETATM   30  C3  UNL     1     -18.878   1.302 -21.187  1.00  0.00     0.060 C 
BRANCH  28  31
HETATM   31  C22 UNL     1     -16.905  -0.029 -20.811  1.00  0.00     0.004 A 
HETATM   32  C23 UNL     1     -16.557   0.387 -22.086  1.00  0.00     0.015 A 
HETATM   33  C24 UNL     1     -15.386  -0.101 -22.630  1.00  0.00     0.043 A 
HETATM   34  C25 UNL     1     -14.560  -0.970 -21.971  1.00  0.00     0.118 A 
HETATM   35  F1  UNL     1     -13.414  -1.438 -22.520  1.00  0.00    -0.206 F 
HETATM   36  C26 UNL     1     -14.936  -1.363 -20.707  1.00  0.00     0.066 A 
HETATM   37  C27 UNL     1     -16.112  -0.896 -20.115  1.00  0.00     0.046 A 
HETATM   38 CL1  UNL     1     -16.504  -1.488 -18.533  1.00  0.00    -0.084 Cl
ENDBRANCH  28  31
ENDBRANCH  27  28
ENDBRANCH   1  27
TORSDOF 10
ENDMDL
MODEL 5
REMARK VINA RESULT: -7.989536553      2.521      5.841
REMARK  10 active torsions:
REMARK  status: ('A' for Active; 'I' for Inactive)
REMARK    1  A    between atoms: C2_2  and  N1_4 
REMARK    2  A    between atoms: C2_2  and  C22_31 
REMARK    3  A    between atoms: N1_4  and  C4_5 
REMARK    4  A    between atoms: C8_13  and  N4_14 
REMARK    5  A    between atoms: N4_14  and  C9_16 
REMARK    6  A    between atoms: C9_16  and  C10_17 
REMARK    7  A    between atoms: C10_17  and  C11_18 
REMARK    8  A    between atoms: C11_18  and  C12_19 
REMARK    9  A    between atoms: C12_19  and  C13_20 
REMARK   10  A    between atoms: C13_20  and  C14_21 
ROOT
HETATM    1  C4  UNL     1     -15.378   2.690 -16.918  1.00  0.00     0.189 A 
HETATM    2  N2  UNL     1     -15.957   3.061 -15.723  1.00  0.00    -0.327 N 
ATOM      3  H2  UNL     1     -15.349   3.311 -14.942  1.00  0.00     0.169 HD
HETATM    4  C5  UNL     1     -17.277   3.105 -15.545  1.00  0.00     0.183 A 
HETATM    5  N3  UNL     1     -18.158   2.800 -16.491  1.00  0.00    -0.351 N 
ATOM      6  H3  UNL     1     -19.162   2.846 -16.318  1.00  0.00     0.166 HD
HETATM    7  C6  UNL     1     -17.666   2.425 -17.697  1.00  0.00     0.053 A 
HETATM    8  C7  UNL     1     -18.533   2.107 -18.715  1.00  0.00     0.078 A 
HETATM    9  C8  UNL     1     -18.040   1.728 -19.963  1.00  0.00     0.102 A 
HETATM   10  N5  UNL     1     -16.716   1.682 -20.145  1.00  0.00    -0.351 N 
ATOM     11  H5  UNL     1     -16.344   1.406 -21.053  1.00  0.00     0.166 HD
HETATM   12  C20 UNL     1     -15.874   1.992 -19.158  1.00  0.00     0.108 A 
HETATM   13  C21 UNL     1     -16.311   2.367 -17.922  1.00  0.00     0.064 A 
ENDROOT
BRANCH   9  14
HETATM   14  N4  UNL     1     -18.909   1.450 -20.861  1.00  0.00    -0.376 N 
ATOM     15  H4  UNL     1     -19.408   2.239 -21.270  1.00  0.00     0.161 HD
BRANCH  14  16
HETATM   16  C9  UNL     1     -19.258   0.152 -21.352  1.00  0.00     0.121 C 
BRANCH  16  17
HETATM   17  C10 UNL     1     -18.376  -0.197 -22.523  1.00  0.00     0.020 C 
BRANCH  17  18
HETATM   18  C11 UNL     1     -17.580  -1.446 -22.294  1.00  0.00     0.002 C 
BRANCH  18  19
HETATM   19  C12 UNL     1     -16.324  -1.426 -23.122  1.00  0.00     0.000 C 
BRANCH  19  20
HETATM   20  C13 UNL     1     -15.358  -0.493 -22.412  1.00  0.00     0.004 C 
BRANCH  20  21
HETATM   21  C14 UNL     1     -14.327  -1.271 -21.629  1.00  0.00    -0.014 C 
HETATM   22  C15 UNL     1     -14.782  -1.442 -20.229  1.00  0.00     0.004 C 
HETATM   23  C16 UNL     1     -14.977  -2.921 -19.944  1.00  0.00     0.000 C 
HETATM   24  C17 UNL     1     -13.643  -3.598 -20.161  1.00  0.00     0.000 C 
HETATM   25  C18 UNL     1     -13.209  -3.513 -21.609  1.00  0.00     0.000 C 
HETATM   26  C19 UNL     1     -14.074  -2.550 -22.390  1.00  0.00     0.004 C 
ENDBRANCH  20  21
ENDBRANCH  19  20
ENDBRANCH  18  19
ENDBRANCH  17  18
ENDBRANCH  16  17
ENDBRANCH  14  16
ENDBRANCH   9  14
BRANCH   1  27
HETATM   27  N1  UNL     1     -14.198   2.659 -17.080  1.00  0.00    -0.414 NA
BRANCH  27  28
HETATM   28  C2  UNL     1     -12.877   2.624 -17.263  1.00  0.00     0.117 C 
HETATM   29  C1  UNL     1     -12.422   3.729 -18.239  1.00  0.00     0.060 C 
HETATM   30  C3  UNL     1     -12.009   2.841 -16.020  1.00  0.00     0.060 C 
BRANCH  28  31
HETATM   31  C22 UNL     1     -12.360   1.333 -17.867  1.00  0.00     0.004 A 
HETATM   32  C23 UNL     1     -11.589   1.324 -19.019  1.00  0.00     0.015 A 
HETATM   33  C24 UNL     1     -11.127   0.108 -19.481  1.00  0.00     0.043 A 
HETATM   34  C25 UNL     1     -11.397  -1.080 -18.857  1.00  0.00     0.118 A 
HETATM   35  F1  UNL     1     -10.935  -2.264 -19.324  1.00  0.00    -0.206 F 
HETATM   36  C26 UNL     1     -12.166  -1.034 -17.717  1.00  0.00     0.066 A 
HETATM   37  C27 UNL     1     -12.655   0.173 -17.211  1.00  0.00     0.046 A 
HETATM   38 CL1  UNL     1     -13.645   0.105 -15.789  1.00  0.00    -0.084 Cl
ENDBRANCH  28  31
ENDBRANCH  27  28
ENDBRANCH   1  27
TORSDOF 10
ENDMDL
