MODEL 1
REMARK VINA RESULT: -3.747174667      0.000      0.000
REMARK  3 active torsions:
REMARK  status: ('A' for Active; 'I' for Inactive)
REMARK    1  A    between atoms: N1_2  and  C3_4 
REMARK    2  A    between atoms: C4_5  and  N2_6 
REMARK    3  A    between atoms: N2_6  and  N3_8 
ROOT
HETATM    1  C3  UNL     1       6.797 -13.251   8.767  1.00  0.00     0.107 C 
HETATM    2  C4  UNL     1       7.040 -13.636   9.999  1.00  0.00     0.123 C 
ENDROOT
BRANCH   2   3
HETATM    3  N2  UNL     1       8.309 -14.235  10.264  1.00  0.00    -0.317 N 
ATOM      4  H2  UNL     1       9.138 -13.981   9.726  1.00  0.00     0.185 HD
BRANCH   3   5
HETATM    5  N3  UNL     1       8.369 -15.176  11.284  1.00  0.00    -0.345 N 
ATOM      6  H32 UNL     1       7.930 -14.989  12.186  1.00  0.00     0.176 HD
ATOM      7  H31 UNL     1       8.865 -16.046  11.089  1.00  0.00     0.176 HD
ENDBRANCH   3   5
ENDBRANCH   2   3
BRANCH   1   8
HETATM    8  N1  UNL     1       5.541 -12.654   8.482  1.00  0.00    -0.379 N 
HETATM    9  C1  UNL     1       5.225 -12.234   7.312  1.00  0.00     0.120 C 
HETATM   10  C2  UNL     1       4.619 -12.547   9.615  1.00  0.00     0.154 C 
ENDBRANCH   1   8
TORSDOF 3
ENDMDL
MODEL 2
REMARK VINA RESULT: -3.640127097      0.096      1.287
REMARK  3 active torsions:
REMARK  status: ('A' for Active; 'I' for Inactive)
REMARK    1  A    between atoms: N1_2  and  C3_4 
REMARK    2  A    between atoms: C4_5  and  N2_6 
REMARK    3  A    between atoms: N2_6  and  N3_8 
ROOT
HETATM    1  C3  UNL     1       6.760 -13.252   8.845  1.00  0.00     0.107 C 
HETATM    2  C4  UNL     1       7.021 -13.644  10.071  1.00  0.00     0.123 C 
ENDROOT
BRANCH   2   3
HETATM    3  N2  UNL     1       8.298 -14.234  10.317  1.00  0.00    -0.317 N 
ATOM      4  H2  UNL     1       9.123 -13.952   9.788  1.00  0.00     0.185 HD
BRANCH   3   5
HETATM    5  N3  UNL     1       8.371 -15.207  11.306  1.00  0.00    -0.345 N 
ATOM      6  H32 UNL     1       8.522 -14.944  12.280  1.00  0.00     0.176 HD
ATOM      7  H31 UNL     1       8.267 -16.179  11.014  1.00  0.00     0.176 HD
ENDBRANCH   3   5
ENDBRANCH   2   3
BRANCH   1   8
HETATM    8  N1  UNL     1       5.497 -12.664   8.579  1.00  0.00    -0.379 N 
HETATM    9  C1  UNL     1       4.605 -12.502   9.487  1.00  0.00     0.120 C 
HETATM   10  C2  UNL     1       5.271 -12.246   7.194  1.00  0.00     0.154 C 
ENDBRANCH   1   8
TORSDOF 3
ENDMDL
MODEL 3
REMARK VINA RESULT: -3.553416486      8.941      9.578
REMARK  3 active torsions:
REMARK  status: ('A' for Active; 'I' for Inactive)
REMARK    1  A    between atoms: N1_2  and  C3_4 
REMARK    2  A    between atoms: C4_5  and  N2_6 
REMARK    3  A    between atoms: N2_6  and  N3_8 
ROOT
HETATM    1  C3  UNL     1      12.250 -19.553   6.676  1.00  0.00     0.107 C 
HETATM    2  C4  UNL     1      12.940 -20.012   7.695  1.00  0.00     0.123 C 
ENDROOT
BRANCH   2   3
HETATM    3  N2  UNL     1      12.341 -19.926   8.988  1.00  0.00    -0.317 N 
ATOM      4  H2  UNL     1      11.451 -19.448   9.130  1.00  0.00     0.185 HD
BRANCH   3   5
HETATM    5  N3  UNL     1      13.020 -20.519  10.046  1.00  0.00    -0.345 N 
ATOM      6  H32 UNL     1      14.037 -20.464  10.103  1.00  0.00     0.176 HD
ATOM      7  H31 UNL     1      12.461 -21.003  10.748  1.00  0.00     0.176 HD
ENDBRANCH   3   5
ENDBRANCH   2   3
BRANCH   1   8
HETATM    8  N1  UNL     1      12.826 -19.630   5.381  1.00  0.00    -0.379 N 
HETATM    9  C1  UNL     1      12.121 -19.653   4.310  1.00  0.00     0.120 C 
HETATM   10  C2  UNL     1      14.290 -19.678   5.341  1.00  0.00     0.154 C 
ENDBRANCH   1   8
TORSDOF 3
ENDMDL
MODEL 4
REMARK VINA RESULT: -3.533461278      9.081      9.981
REMARK  3 active torsions:
REMARK  status: ('A' for Active; 'I' for Inactive)
REMARK    1  A    between atoms: N1_2  and  C3_4 
REMARK    2  A    between atoms: C4_5  and  N2_6 
REMARK    3  A    between atoms: N2_6  and  N3_8 
ROOT
HETATM    1  C3  UNL     1      12.604 -19.342   5.633  1.00  0.00     0.107 C 
HETATM    2  C4  UNL     1      12.911 -19.848   6.805  1.00  0.00     0.123 C 
ENDROOT
BRANCH   2   3
HETATM    3  N2  UNL     1      12.255 -19.304   7.950  1.00  0.00    -0.317 N 
ATOM      4  H2  UNL     1      11.774 -18.405   7.909  1.00  0.00     0.185 HD
BRANCH   3   5
HETATM    5  N3  UNL     1      12.297 -20.048   9.123  1.00  0.00    -0.345 N 
ATOM      6  H32 UNL     1      12.993 -20.783   9.244  1.00  0.00     0.176 HD
ATOM      7  H31 UNL     1      11.608 -19.827   9.842  1.00  0.00     0.176 HD
ENDBRANCH   3   5
ENDBRANCH   2   3
BRANCH   1   8
HETATM    8  N1  UNL     1      13.246 -19.868   4.482  1.00  0.00    -0.379 N 
HETATM    9  C1  UNL     1      12.663 -19.948   3.342  1.00  0.00     0.120 C 
HETATM   10  C2  UNL     1      14.627 -20.316   4.675  1.00  0.00     0.154 C 
ENDBRANCH   1   8
TORSDOF 3
ENDMDL
MODEL 5
REMARK VINA RESULT: -3.531763320      9.109     10.029
REMARK  3 active torsions:
REMARK  status: ('A' for Active; 'I' for Inactive)
REMARK    1  A    between atoms: N1_2  and  C3_4 
REMARK    2  A    between atoms: C4_5  and  N2_6 
REMARK    3  A    between atoms: N2_6  and  N3_8 
ROOT
HETATM    1  C3  UNL     1      12.580 -19.468   5.617  1.00  0.00     0.107 C 
HETATM    2  C4  UNL     1      12.998 -19.775   6.824  1.00  0.00     0.123 C 
ENDROOT
BRANCH   2   3
HETATM    3  N2  UNL     1      12.220 -19.313   7.929  1.00  0.00    -0.317 N 
ATOM      4  H2  UNL     1      11.631 -18.484   7.853  1.00  0.00     0.185 HD
BRANCH   3   5
HETATM    5  N3  UNL     1      12.298 -20.040   9.111  1.00  0.00    -0.345 N 
ATOM      6  H32 UNL     1      13.081 -20.671   9.279  1.00  0.00     0.176 HD
ATOM      7  H31 UNL     1      11.546 -19.912   9.788  1.00  0.00     0.176 HD
ENDBRANCH   3   5
ENDBRANCH   2   3
BRANCH   1   8
HETATM    8  N1  UNL     1      13.339 -19.917   4.506  1.00  0.00    -0.379 N 
HETATM    9  C1  UNL     1      14.558 -20.301   4.611  1.00  0.00     0.120 C 
HETATM   10  C2  UNL     1      12.638 -19.918   3.219  1.00  0.00     0.154 C 
ENDBRANCH   1   8
TORSDOF 3
ENDMDL
