MODEL 1
REMARK VINA RESULT: -4.531671516      0.000      0.000
REMARK  3 active torsions:
REMARK  status: ('A' for Active; 'I' for Inactive)
REMARK    1  A    between atoms: N2_4  and  N3_6 
REMARK    2  A    between atoms: C1_8  and  N4_9 
REMARK    3  A    between atoms: N4_9  and  C2_11 
ROOT
HETATM    1  N3  UNL     1       7.510 -13.734   9.798  1.00  0.00    -0.283 N 
ATOM      2  H3  UNL     1       7.567 -13.539   8.799  1.00  0.00     0.189 HD
HETATM    3  C1  UNL     1       6.436 -13.375  10.452  1.00  0.00     0.196 C 
ENDROOT
BRANCH   3   4
HETATM    4  N4  UNL     1       5.377 -12.725   9.768  1.00  0.00    -0.356 N 
ATOM      5  H4  UNL     1       4.675 -12.194  10.283  1.00  0.00     0.162 HD
BRANCH   4   6
HETATM    6  C2  UNL     1       5.311 -12.829   8.327  1.00  0.00     0.310 A 
HETATM    7  C3  UNL     1       5.424 -11.634   7.481  1.00  0.00     0.289 A 
HETATM    8  N5  UNL     1       4.087 -12.109   7.808  1.00  0.00    -0.049 N 
ATOM      9  H52 UNL     1       3.259 -12.375   7.274  1.00  0.00     0.279 HD
ATOM     10  H51 UNL     1       3.253 -11.699   8.227  1.00  0.00     0.279 HD
ENDBRANCH   4   6
ENDBRANCH   3   4
BRANCH   1  11
HETATM   11  N2  UNL     1       8.565 -14.367  10.416  1.00  0.00    -0.248 N 
HETATM   12  N1  UNL     1       8.359 -15.225  11.329  1.00  0.00    -0.331 N 
ATOM     13  H12 UNL     1       7.398 -15.436  11.596  1.00  0.00     0.178 HD
ATOM     14  H11 UNL     1       9.141 -15.694  11.787  1.00  0.00     0.178 HD
ATOM     15  H2  UNL     1       9.520 -14.145  10.138  1.00  0.00     0.207 HD
ENDBRANCH   1  11
TORSDOF 3
ENDMDL
MODEL 2
REMARK VINA RESULT: -4.416162818      9.309      9.906
REMARK  3 active torsions:
REMARK  status: ('A' for Active; 'I' for Inactive)
REMARK    1  A    between atoms: N2_4  and  N3_6 
REMARK    2  A    between atoms: C1_8  and  N4_9 
REMARK    3  A    between atoms: N4_9  and  C2_11 
ROOT
HETATM    1  N3  UNL     1      12.234 -19.519   8.175  1.00  0.00    -0.283 N 
ATOM      2  H3  UNL     1      11.769 -18.625   8.018  1.00  0.00     0.189 HD
HETATM    3  C1  UNL     1      12.954 -20.035   7.214  1.00  0.00     0.196 C 
ENDROOT
BRANCH   3   4
HETATM    4  N4  UNL     1      13.077 -19.350   5.978  1.00  0.00    -0.356 N 
ATOM      5  H4  UNL     1      13.666 -18.520   5.901  1.00  0.00     0.162 HD
BRANCH   4   6
HETATM    6  C2  UNL     1      12.353 -19.848   4.831  1.00  0.00     0.310 A 
HETATM    7  C3  UNL     1      13.004 -20.734   3.856  1.00  0.00     0.289 A 
HETATM    8  N5  UNL     1      12.962 -19.310   3.555  1.00  0.00    -0.049 N 
ATOM      9  H52 UNL     1      12.632 -18.742   2.775  1.00  0.00     0.279 HD
ATOM     10  H51 UNL     1      13.653 -18.596   3.325  1.00  0.00     0.279 HD
ENDBRANCH   4   6
ENDBRANCH   3   4
BRANCH   1  11
HETATM   11  N2  UNL     1      12.083 -20.144   9.393  1.00  0.00    -0.248 N 
HETATM   12  N1  UNL     1      13.098 -20.483  10.076  1.00  0.00    -0.331 N 
ATOM     13  H12 UNL     1      14.027 -20.283   9.706  1.00  0.00     0.178 HD
ATOM     14  H11 UNL     1      12.986 -20.946  10.978  1.00  0.00     0.178 HD
ATOM     15  H2  UNL     1      11.147 -20.337   9.749  1.00  0.00     0.207 HD
ENDBRANCH   1  11
TORSDOF 3
ENDMDL
MODEL 3
REMARK VINA RESULT: -4.247033084      9.280     10.108
REMARK  3 active torsions:
REMARK  status: ('A' for Active; 'I' for Inactive)
REMARK    1  A    between atoms: N2_4  and  N3_6 
REMARK    2  A    between atoms: C1_8  and  N4_9 
REMARK    3  A    between atoms: N4_9  and  C2_11 
ROOT
HETATM    1  N3  UNL     1      12.485 -19.575   6.847  1.00  0.00    -0.283 N 
ATOM      2  H3  UNL     1      12.087 -20.427   6.452  1.00  0.00     0.189 HD
HETATM    3  C1  UNL     1      13.257 -18.831   6.099  1.00  0.00     0.196 C 
ENDROOT
BRANCH   3   4
HETATM    4  N4  UNL     1      13.527 -19.217   4.761  1.00  0.00    -0.356 N 
ATOM      5  H4  UNL     1      14.454 -19.081   4.358  1.00  0.00     0.162 HD
BRANCH   4   6
HETATM    6  C2  UNL     1      12.463 -19.807   3.978  1.00  0.00     0.310 A 
HETATM    7  C3  UNL     1      12.746 -20.873   3.008  1.00  0.00     0.289 A 
HETATM    8  N5  UNL     1      12.669 -19.507   2.510  1.00  0.00    -0.049 N 
ATOM      9  H52 UNL     1      12.136 -19.026   1.785  1.00  0.00     0.279 HD
ATOM     10  H51 UNL     1      13.282 -18.894   1.973  1.00  0.00     0.279 HD
ENDBRANCH   4   6
ENDBRANCH   3   4
BRANCH   1  11
HETATM   11  N2  UNL     1      12.193 -19.244   8.152  1.00  0.00    -0.248 N 
HETATM   12  N1  UNL     1      12.358 -20.089   9.085  1.00  0.00    -0.331 N 
ATOM     13  H12 UNL     1      12.711 -21.016   8.851  1.00  0.00     0.178 HD
ATOM     14  H11 UNL     1      12.141 -19.844  10.052  1.00  0.00     0.178 HD
ATOM     15  H2  UNL     1      11.840 -18.313   8.370  1.00  0.00     0.207 HD
ENDBRANCH   1  11
TORSDOF 3
ENDMDL
MODEL 4
REMARK VINA RESULT: -4.163794827      8.805      9.141
REMARK  3 active torsions:
REMARK  status: ('A' for Active; 'I' for Inactive)
REMARK    1  A    between atoms: N2_4  and  N3_6 
REMARK    2  A    between atoms: C1_8  and  N4_9 
REMARK    3  A    between atoms: N4_9  and  C2_11 
ROOT
HETATM    1  N3  UNL     1      12.016 -19.355   6.860  1.00  0.00    -0.283 N 
ATOM      2  H3  UNL     1      11.114 -19.752   6.598  1.00  0.00     0.189 HD
HETATM    3  C1  UNL     1      12.858 -19.020   5.918  1.00  0.00     0.196 C 
ENDROOT
BRANCH   3   4
HETATM    4  N4  UNL     1      12.507 -19.214   4.557  1.00  0.00    -0.356 N 
ATOM      5  H4  UNL     1      13.230 -19.314   3.844  1.00  0.00     0.162 HD
BRANCH   4   6
HETATM    6  C2  UNL     1      11.108 -19.265   4.199  1.00  0.00     0.310 A 
HETATM    7  C3  UNL     1      10.694 -19.545   2.818  1.00  0.00     0.289 A 
HETATM    8  N5  UNL     1      10.775 -18.152   3.231  1.00  0.00    -0.049 N 
ATOM      9  H52 UNL     1      10.138 -17.355   3.232  1.00  0.00     0.279 HD
ATOM     10  H51 UNL     1      11.255 -17.319   2.890  1.00  0.00     0.279 HD
ENDBRANCH   4   6
ENDBRANCH   3   4
BRANCH   1  11
HETATM   11  N2  UNL     1      12.308 -19.188   8.196  1.00  0.00    -0.248 N 
HETATM   12  N1  UNL     1      12.308 -20.180   8.987  1.00  0.00    -0.331 N 
ATOM     13  H12 UNL     1      12.087 -21.104   8.614  1.00  0.00     0.178 HD
ATOM     14  H11 UNL     1      12.525 -20.057   9.976  1.00  0.00     0.178 HD
ATOM     15  H2  UNL     1      12.527 -18.258   8.552  1.00  0.00     0.207 HD
ENDBRANCH   1  11
TORSDOF 3
ENDMDL
MODEL 5
REMARK VINA RESULT: -4.056116502      9.190     10.378
REMARK  3 active torsions:
REMARK  status: ('A' for Active; 'I' for Inactive)
REMARK    1  A    between atoms: N2_4  and  N3_6 
REMARK    2  A    between atoms: C1_8  and  N4_9 
REMARK    3  A    between atoms: N4_9  and  C2_11 
ROOT
HETATM    1  N3  UNL     1      12.639 -19.358   3.919  1.00  0.00    -0.283 N 
ATOM      2  H3  UNL     1      13.490 -19.352   4.480  1.00  0.00     0.189 HD
HETATM    3  C1  UNL     1      11.480 -19.363   4.525  1.00  0.00     0.196 C 
ENDROOT
BRANCH   3   4
HETATM    4  N4  UNL     1      11.426 -19.362   5.942  1.00  0.00    -0.356 N 
ATOM      5  H4  UNL     1      10.534 -19.461   6.427  1.00  0.00     0.162 HD
BRANCH   4   6
HETATM    6  C2  UNL     1      12.657 -19.218   6.686  1.00  0.00     0.310 A 
HETATM    7  C3  UNL     1      13.248 -20.363   7.392  1.00  0.00     0.289 A 
HETATM    8  N5  UNL     1      12.407 -19.456   8.159  1.00  0.00    -0.049 N 
ATOM      9  H52 UNL     1      12.518 -18.908   9.012  1.00  0.00     0.279 HD
ATOM     10  H51 UNL     1      11.581 -19.554   8.749  1.00  0.00     0.279 HD
ENDBRANCH   4   6
ENDBRANCH   3   4
BRANCH   1  11
HETATM   11  N2  UNL     1      12.746 -19.359   2.546  1.00  0.00    -0.248 N 
HETATM   12  N1  UNL     1      12.043 -18.571   1.841  1.00  0.00    -0.331 N 
ATOM     13  H12 UNL     1      11.397 -17.937   2.312  1.00  0.00     0.178 HD
ATOM     14  H11 UNL     1      12.122 -18.572   0.824  1.00  0.00     0.178 HD
ATOM     15  H2  UNL     1      13.396 -19.999   2.090  1.00  0.00     0.207 HD
ENDBRANCH   1  11
TORSDOF 3
ENDMDL
