MODEL 1
REMARK VINA RESULT: -4.556429515      0.000      0.000
REMARK  2 active torsions:
REMARK  status: ('A' for Active; 'I' for Inactive)
REMARK    1  A    between atoms: C1_4  and  N2_5 
REMARK    2  A    between atoms: C2_7  and  C3_8 
ROOT
HETATM    1  N2  UNL     1       7.276 -13.517   9.830  1.00  0.00    -0.364 N 
ATOM      2  H2  UNL     1       6.900 -13.021  10.638  1.00  0.00     0.165 HD
HETATM    3  C2  UNL     1       6.838 -13.222   8.653  1.00  0.00     0.096 C 
ENDROOT
BRANCH   1   4
HETATM    4  C1  UNL     1       8.267 -14.514  10.033  1.00  0.00     0.172 C 
HETATM    5  N1  UNL     1       8.333 -15.046  11.203  1.00  0.00    -0.395 N 
ATOM      6  H12 UNL     1       7.694 -14.753  11.942  1.00  0.00     0.156 HD
ATOM      7  H11 UNL     1       9.045 -15.762  11.349  1.00  0.00     0.156 HD
ENDBRANCH   1   4
BRANCH   3   8
HETATM    8  C3  UNL     1       5.807 -12.182   8.465  1.00  0.00     0.249 A 
HETATM    9  C4  UNL     1       4.734 -12.407   7.529  1.00  0.00     0.271 A 
HETATM   10  N3  UNL     1       4.485 -12.414   9.032  1.00  0.00    -0.062 N 
ATOM     11  H32 UNL     1       4.076 -13.058   9.709  1.00  0.00     0.278 HD
ATOM     12  H31 UNL     1       3.864 -11.928   9.680  1.00  0.00     0.278 HD
ENDBRANCH   3   8
TORSDOF 2
ENDMDL
MODEL 2
REMARK VINA RESULT: -4.337446970      1.087      1.087
REMARK  2 active torsions:
REMARK  status: ('A' for Active; 'I' for Inactive)
REMARK    1  A    between atoms: C1_4  and  N2_5 
REMARK    2  A    between atoms: C2_7  and  C3_8 
ROOT
HETATM    1  N2  UNL     1       6.854 -13.195   9.460  1.00  0.00    -0.364 N 
ATOM      2  H2  UNL     1       7.424 -12.833   8.696  1.00  0.00     0.165 HD
HETATM    3  C2  UNL     1       5.608 -12.867   9.522  1.00  0.00     0.096 C 
ENDROOT
BRANCH   1   4
HETATM    4  C1  UNL     1       7.454 -14.046  10.424  1.00  0.00     0.172 C 
HETATM    5  N1  UNL     1       8.640 -14.477  10.170  1.00  0.00    -0.395 N 
ATOM      6  H12 UNL     1       9.114 -14.210   9.308  1.00  0.00     0.156 HD
ATOM      7  H11 UNL     1       9.071 -15.088  10.864  1.00  0.00     0.156 HD
ENDBRANCH   1   4
BRANCH   3   8
HETATM    8  C3  UNL     1       5.003 -11.980   8.508  1.00  0.00     0.249 A 
HETATM    9  C4  UNL     1       5.124 -12.312   7.111  1.00  0.00     0.271 A 
HETATM   10  N3  UNL     1       3.789 -12.428   7.838  1.00  0.00    -0.062 N 
ATOM     11  H32 UNL     1       3.092 -13.156   7.986  1.00  0.00     0.278 HD
ATOM     12  H31 UNL     1       2.843 -12.069   7.706  1.00  0.00     0.278 HD
ENDBRANCH   3   8
TORSDOF 2
ENDMDL
MODEL 3
REMARK VINA RESULT: -3.692988916      9.025      9.437
REMARK  2 active torsions:
REMARK  status: ('A' for Active; 'I' for Inactive)
REMARK    1  A    between atoms: C1_4  and  N2_5 
REMARK    2  A    between atoms: C2_7  and  C3_8 
ROOT
HETATM    1  N2  UNL     1      12.395 -19.751   8.426  1.00  0.00    -0.364 N 
ATOM      2  H2  UNL     1      11.934 -18.857   8.593  1.00  0.00     0.165 HD
HETATM    3  C2  UNL     1      12.863 -20.005   7.251  1.00  0.00     0.096 C 
ENDROOT
BRANCH   1   4
HETATM    4  C1  UNL     1      12.504 -20.680   9.494  1.00  0.00     0.172 C 
HETATM    5  N1  UNL     1      13.206 -20.326  10.512  1.00  0.00    -0.395 N 
ATOM      6  H12 UNL     1      13.659 -19.412  10.535  1.00  0.00     0.156 HD
ATOM      7  H11 UNL     1      13.285 -20.993  11.279  1.00  0.00     0.156 HD
ENDBRANCH   1   4
BRANCH   3   8
HETATM    8  C3  UNL     1      12.738 -19.024   6.155  1.00  0.00     0.249 A 
HETATM    9  C4  UNL     1      13.849 -18.161   5.844  1.00  0.00     0.271 A 
HETATM   10  N3  UNL     1      13.443 -19.293   4.908  1.00  0.00    -0.062 N 
ATOM     11  H32 UNL     1      13.902 -20.096   4.479  1.00  0.00     0.278 HD
ATOM     12  H31 UNL     1      13.192 -19.382   3.923  1.00  0.00     0.278 HD
ENDBRANCH   3   8
TORSDOF 2
ENDMDL
MODEL 4
REMARK VINA RESULT: -3.692070330      8.849      9.813
REMARK  2 active torsions:
REMARK  status: ('A' for Active; 'I' for Inactive)
REMARK    1  A    between atoms: C1_4  and  N2_5 
REMARK    2  A    between atoms: C2_7  and  C3_8 
ROOT
HETATM    1  N2  UNL     1      11.713 -18.895   4.002  1.00  0.00    -0.364 N 
ATOM      2  H2  UNL     1      12.573 -18.522   3.600  1.00  0.00     0.165 HD
HETATM    3  C2  UNL     1      11.707 -19.265   5.237  1.00  0.00     0.096 C 
ENDROOT
BRANCH   1   4
HETATM    4  C1  UNL     1      10.556 -18.991   3.184  1.00  0.00     0.172 C 
HETATM    5  N1  UNL     1       9.438 -18.621   3.703  1.00  0.00    -0.395 N 
ATOM      6  H12 UNL     1       9.402 -18.276   4.662  1.00  0.00     0.156 HD
ATOM      7  H11 UNL     1       8.607 -18.690   3.115  1.00  0.00     0.156 HD
ENDBRANCH   1   4
BRANCH   3   8
HETATM    8  C3  UNL     1      12.922 -19.157   6.070  1.00  0.00     0.249 A 
HETATM    9  C4  UNL     1      14.208 -19.452   5.491  1.00  0.00     0.271 A 
HETATM   10  N3  UNL     1      13.811 -18.024   5.845  1.00  0.00    -0.062 N 
ATOM     11  H32 UNL     1      13.757 -17.131   5.356  1.00  0.00     0.278 HD
ATOM     12  H31 UNL     1      14.199 -17.268   6.409  1.00  0.00     0.278 HD
ENDBRANCH   3   8
TORSDOF 2
ENDMDL
MODEL 5
REMARK VINA RESULT: -3.614268285      9.588     10.751
REMARK  2 active torsions:
REMARK  status: ('A' for Active; 'I' for Inactive)
REMARK    1  A    between atoms: C1_4  and  N2_5 
REMARK    2  A    between atoms: C2_7  and  C3_8 
ROOT
HETATM    1  N2  UNL     1      12.732 -19.332   3.331  1.00  0.00    -0.364 N 
ATOM      2  H2  UNL     1      13.674 -18.942   3.336  1.00  0.00     0.165 HD
HETATM    3  C2  UNL     1      12.156 -19.594   4.455  1.00  0.00     0.096 C 
ENDROOT
BRANCH   1   4
HETATM    4  C1  UNL     1      12.091 -19.569   2.086  1.00  0.00     0.172 C 
HETATM    5  N1  UNL     1      12.378 -18.774   1.116  1.00  0.00    -0.395 N 
ATOM      6  H12 UNL     1      13.039 -18.009   1.253  1.00  0.00     0.156 HD
ATOM      7  H11 UNL     1      11.917 -18.945   0.222  1.00  0.00     0.156 HD
ENDBRANCH   1   4
BRANCH   3   8
HETATM    8  C3  UNL     1      12.841 -19.340   5.738  1.00  0.00     0.249 A 
HETATM    9  C4  UNL     1      14.255 -19.588   5.849  1.00  0.00     0.271 A 
HETATM   10  N3  UNL     1      13.702 -18.168   5.837  1.00  0.00    -0.062 N 
ATOM     11  H32 UNL     1      13.859 -17.321   5.292  1.00  0.00     0.278 HD
ATOM     12  H31 UNL     1      13.764 -17.347   6.438  1.00  0.00     0.278 HD
ENDBRANCH   3   8
TORSDOF 2
ENDMDL
