MODEL 1
REMARK VINA RESULT: -6.272328494      0.000      0.000
REMARK  15 active torsions:
REMARK  status: ('A' for Active; 'I' for Inactive)
REMARK    1  A    between atoms: N1_2  and  C2_4 
REMARK    2  A    between atoms: C2_4  and  C3_5 
REMARK    3  A    between atoms: C2_4  and  N8_24 
REMARK    4  A    between atoms: C3_5  and  N2_6 
REMARK    5  A    between atoms: C6_11  and  N4_12 
REMARK    6  A    between atoms: C7_17  and  N6_18 
REMARK    7  A    between atoms: N8_24  and  C9_26 
REMARK    8  A    between atoms: C9_26  and  C10_27 
REMARK    9  A    between atoms: C10_27  and  S1_28 
REMARK   10  A    between atoms: S1_28  and  C11_29 
REMARK   11  A    between atoms: C11_29  and  C12_30 
REMARK   12  A    between atoms: C12_30  and  C13_31 
REMARK   13  A    between atoms: C13_31  and  N9_32 
REMARK   14  A    between atoms: C13_31  and  N10_36 
REMARK   15  A    between atoms: N10_36  and  N11_38 
ROOT
HETATM    1  C2  UNL     1      11.347  23.695  15.770  1.00  0.00     0.091 C 
ENDROOT
BRANCH   1   2
HETATM    2  N1  UNL     1      12.012  23.936  14.693  1.00  0.00    -0.383 N 
HETATM    3  C1  UNL     1      12.912  23.025  14.057  1.00  0.00     0.147 C 
ATOM      4  H1  UNL     1      11.887  24.851  14.259  1.00  0.00     0.160 HD
ENDBRANCH   1   2
BRANCH   1   5
HETATM    5  C3  UNL     1       9.863  23.774  15.686  1.00  0.00     0.207 C 
BRANCH   5   6
HETATM    6  N2  UNL     1       9.350  23.004  14.586  1.00  0.00    -0.320 N 
HETATM    7  C4  UNL     1       8.778  23.559  13.487  1.00  0.00     0.185 A 
HETATM    8  N3  UNL     1       8.431  22.536  12.698  1.00  0.00    -0.346 N 
HETATM    9  C5  UNL     1       8.780  21.362  13.288  1.00  0.00     0.123 A 
ATOM     10  H3  UNL     1       7.974  22.624  11.790  1.00  0.00     0.167 HD
HETATM   11  C6  UNL     1       8.630  20.059  12.868  1.00  0.00     0.145 A 
HETATM   12  C8  UNL     1       9.367  21.674  14.496  1.00  0.00     0.155 A 
HETATM   13  N5  UNL     1       9.085  19.082  13.688  1.00  0.00    -0.175 N 
HETATM   14  C7  UNL     1       9.664  19.360  14.877  1.00  0.00     0.679 A 
ATOM     15  H5  UNL     1       8.988  18.108  13.401  1.00  0.00     0.186 HD
HETATM   16  N7  UNL     1       9.797  20.641  15.263  1.00  0.00    -0.174 N 
ATOM     17  H7  UNL     1      10.236  20.842  16.162  1.00  0.00     0.186 HD
BRANCH  11  18
HETATM   18  N4  UNL     1       8.081  19.822  11.742  1.00  0.00    -0.383 N 
ATOM     19  H42 UNL     1       7.676  20.552  11.156  1.00  0.00     0.157 HD
ATOM     20  H41 UNL     1       8.034  18.863  11.399  1.00  0.00     0.157 HD
ENDBRANCH  11  18
BRANCH  14  21
HETATM   21  N6  UNL     1      10.067  18.364  15.594  1.00  0.00    -0.234 N 
ATOM     22  H62 UNL     1      10.009  17.395  15.281  1.00  0.00     0.174 HD
ATOM     23  H61 UNL     1      10.459  18.572  16.512  1.00  0.00     0.174 HD
ENDBRANCH  14  21
ENDBRANCH   5   6
ENDBRANCH   1   5
BRANCH   1  24
HETATM   24  N8  UNL     1      12.005  23.367  16.978  1.00  0.00    -0.378 N 
ATOM     25  H8  UNL     1      13.025  23.378  17.003  1.00  0.00     0.160 HD
BRANCH  24  26
HETATM   26  C9  UNL     1      11.286  23.018  18.175  1.00  0.00     0.131 C 
BRANCH  26  27
HETATM   27  C10 UNL     1      11.923  21.804  18.855  1.00  0.00     0.093 C 
BRANCH  27  28
HETATM   28  S1  UNL     1      10.844  20.390  18.860  1.00  0.00    -0.167 SA
BRANCH  28  29
HETATM   29  C11 UNL     1      11.611  18.799  18.868  1.00  0.00     0.077 C 
BRANCH  29  30
HETATM   30  C12 UNL     1      13.093  18.738  18.746  1.00  0.00     0.066 C 
BRANCH  30  31
HETATM   31  C13 UNL     1      13.762  18.079  19.929  1.00  0.00     0.296 C 
BRANCH  31  32
HETATM   32  N9  UNL     1      13.471  16.661  20.020  1.00  0.00    -0.057 N 
ATOM     33  H93 UNL     1      12.477  16.501  20.180  1.00  0.00     0.276 HD
ATOM     34  H92 UNL     1      13.567  16.210  19.110  1.00  0.00     0.276 HD
ATOM     35  H91 UNL     1      14.036  16.187  20.725  1.00  0.00     0.276 HD
ENDBRANCH  31  32
BRANCH  31  36
HETATM   36  N10 UNL     1      13.500  18.802  21.123  1.00  0.00    -0.313 N 
ATOM     37  H10 UNL     1      12.584  19.201  21.329  1.00  0.00     0.182 HD
BRANCH  36  38
HETATM   38  N11 UNL     1      14.580  18.930  21.992  1.00  0.00    -0.348 N 
ATOM     39 2H11 UNL     1      15.447  18.413  21.842  1.00  0.00     0.176 HD
ATOM     40 1H11 UNL     1      14.438  19.569  22.773  1.00  0.00     0.176 HD
ENDBRANCH  36  38
ENDBRANCH  31  36
ENDBRANCH  30  31
ENDBRANCH  29  30
ENDBRANCH  28  29
ENDBRANCH  27  28
ENDBRANCH  26  27
ENDBRANCH  24  26
ENDBRANCH   1  24
TORSDOF 15
ENDMDL
MODEL 2
REMARK VINA RESULT: -6.250277382      1.104      1.343
REMARK  15 active torsions:
REMARK  status: ('A' for Active; 'I' for Inactive)
REMARK    1  A    between atoms: N1_2  and  C2_4 
REMARK    2  A    between atoms: C2_4  and  C3_5 
REMARK    3  A    between atoms: C2_4  and  N8_24 
REMARK    4  A    between atoms: C3_5  and  N2_6 
REMARK    5  A    between atoms: C6_11  and  N4_12 
REMARK    6  A    between atoms: C7_17  and  N6_18 
REMARK    7  A    between atoms: N8_24  and  C9_26 
REMARK    8  A    between atoms: C9_26  and  C10_27 
REMARK    9  A    between atoms: C10_27  and  S1_28 
REMARK   10  A    between atoms: S1_28  and  C11_29 
REMARK   11  A    between atoms: C11_29  and  C12_30 
REMARK   12  A    between atoms: C12_30  and  C13_31 
REMARK   13  A    between atoms: C13_31  and  N9_32 
REMARK   14  A    between atoms: C13_31  and  N10_36 
REMARK   15  A    between atoms: N10_36  and  N11_38 
ROOT
HETATM    1  C2  UNL     1      11.258  23.898  15.125  1.00  0.00     0.091 C 
ENDROOT
BRANCH   1   2
HETATM    2  N1  UNL     1      11.923  24.166  14.054  1.00  0.00    -0.383 N 
HETATM    3  C1  UNL     1      12.710  23.229  13.314  1.00  0.00     0.147 C 
ATOM      4  H1  UNL     1      11.886  25.125  13.706  1.00  0.00     0.160 HD
ENDBRANCH   1   2
BRANCH   1   5
HETATM    5  C3  UNL     1       9.778  24.038  15.059  1.00  0.00     0.207 C 
BRANCH   5   6
HETATM    6  N2  UNL     1       9.209  23.206  14.034  1.00  0.00    -0.320 N 
HETATM    7  C4  UNL     1       8.597  23.697  12.925  1.00  0.00     0.185 A 
HETATM    8  N3  UNL     1       8.204  22.632  12.220  1.00  0.00    -0.346 N 
HETATM    9  C5  UNL     1       8.563  21.492  12.869  1.00  0.00     0.123 A 
ATOM     10  H3  UNL     1       7.710  22.668  11.328  1.00  0.00     0.167 HD
HETATM   11  C6  UNL     1       8.380  20.168  12.542  1.00  0.00     0.145 A 
HETATM   12  C8  UNL     1       9.205  21.873  14.030  1.00  0.00     0.155 A 
HETATM   13  N5  UNL     1       8.857  19.239  13.404  1.00  0.00    -0.175 N 
HETATM   14  C7  UNL     1       9.489  19.584  14.547  1.00  0.00     0.679 A 
ATOM     15  H5  UNL     1       8.735  18.250  13.185  1.00  0.00     0.186 HD
HETATM   16  N7  UNL     1       9.655  20.885  14.843  1.00  0.00    -0.174 N 
ATOM     17  H7  UNL     1      10.134  21.137  15.708  1.00  0.00     0.186 HD
BRANCH  11  18
HETATM   18  N4  UNL     1       7.780  19.867  11.458  1.00  0.00    -0.383 N 
ATOM     19  H42 UNL     1       7.705  20.508  10.668  1.00  0.00     0.157 HD
ATOM     20  H41 UNL     1       7.349  18.948  11.361  1.00  0.00     0.157 HD
ENDBRANCH  11  18
BRANCH  14  21
HETATM   21  N6  UNL     1       9.910  18.631  15.309  1.00  0.00    -0.234 N 
ATOM     22  H62 UNL     1      10.557  17.909  14.990  1.00  0.00     0.174 HD
ATOM     23  H61 UNL     1       9.572  18.611  16.271  1.00  0.00     0.174 HD
ENDBRANCH  14  21
ENDBRANCH   5   6
ENDBRANCH   1   5
BRANCH   1  24
HETATM   24  N8  UNL     1      11.913  23.486  16.308  1.00  0.00    -0.378 N 
ATOM     25  H8  UNL     1      12.882  23.171  16.252  1.00  0.00     0.160 HD
BRANCH  24  26
HETATM   26  C9  UNL     1      11.259  23.496  17.590  1.00  0.00     0.131 C 
BRANCH  26  27
HETATM   27  C10 UNL     1      11.326  22.112  18.242  1.00  0.00     0.093 C 
BRANCH  27  28
HETATM   28  S1  UNL     1      12.427  22.077  19.640  1.00  0.00    -0.167 SA
BRANCH  28  29
HETATM   29  C11 UNL     1      13.245  20.549  19.975  1.00  0.00     0.077 C 
BRANCH  29  30
HETATM   30  C12 UNL     1      13.242  19.507  18.912  1.00  0.00     0.066 C 
BRANCH  30  31
HETATM   31  C13 UNL     1      12.321  18.348  19.214  1.00  0.00     0.296 C 
BRANCH  31  32
HETATM   32  N9  UNL     1      10.924  18.739  19.257  1.00  0.00    -0.057 N 
ATOM     33  H93 UNL     1      10.762  19.440  19.980  1.00  0.00     0.276 HD
ATOM     34  H92 UNL     1      10.673  19.287  18.435  1.00  0.00     0.276 HD
ATOM     35  H91 UNL     1      10.296  17.943  19.372  1.00  0.00     0.276 HD
ENDBRANCH  31  32
BRANCH  31  36
HETATM   36  N10 UNL     1      12.761  17.643  20.366  1.00  0.00    -0.313 N 
ATOM     37  H10 UNL     1      12.314  17.751  21.276  1.00  0.00     0.182 HD
BRANCH  36  38
HETATM   38  N11 UNL     1      13.847  16.794  20.165  1.00  0.00    -0.348 N 
ATOM     39 2H11 UNL     1      13.900  16.181  19.350  1.00  0.00     0.176 HD
ATOM     40 1H11 UNL     1      14.570  16.834  20.883  1.00  0.00     0.176 HD
ENDBRANCH  36  38
ENDBRANCH  31  36
ENDBRANCH  30  31
ENDBRANCH  29  30
ENDBRANCH  28  29
ENDBRANCH  27  28
ENDBRANCH  26  27
ENDBRANCH  24  26
ENDBRANCH   1  24
TORSDOF 15
ENDMDL
MODEL 3
REMARK VINA RESULT: -6.151622395      1.239      1.670
REMARK  15 active torsions:
REMARK  status: ('A' for Active; 'I' for Inactive)
REMARK    1  A    between atoms: N1_2  and  C2_4 
REMARK    2  A    between atoms: C2_4  and  C3_5 
REMARK    3  A    between atoms: C2_4  and  N8_24 
REMARK    4  A    between atoms: C3_5  and  N2_6 
REMARK    5  A    between atoms: C6_11  and  N4_12 
REMARK    6  A    between atoms: C7_17  and  N6_18 
REMARK    7  A    between atoms: N8_24  and  C9_26 
REMARK    8  A    between atoms: C9_26  and  C10_27 
REMARK    9  A    between atoms: C10_27  and  S1_28 
REMARK   10  A    between atoms: S1_28  and  C11_29 
REMARK   11  A    between atoms: C11_29  and  C12_30 
REMARK   12  A    between atoms: C12_30  and  C13_31 
REMARK   13  A    between atoms: C13_31  and  N9_32 
REMARK   14  A    between atoms: C13_31  and  N10_36 
REMARK   15  A    between atoms: N10_36  and  N11_38 
ROOT
HETATM    1  C2  UNL     1      11.366  23.453  16.022  1.00  0.00     0.091 C 
ENDROOT
BRANCH   1   2
HETATM    2  N1  UNL     1      12.118  23.859  15.057  1.00  0.00    -0.383 N 
HETATM    3  C1  UNL     1      12.942  23.020  14.244  1.00  0.00     0.147 C 
ATOM      4  H1  UNL     1      12.126  24.859  14.857  1.00  0.00     0.160 HD
ENDBRANCH   1   2
BRANCH   1   5
HETATM    5  C3  UNL     1       9.898  23.639  15.865  1.00  0.00     0.207 C 
BRANCH   5   6
HETATM    6  N2  UNL     1       9.387  22.912  14.735  1.00  0.00    -0.320 N 
HETATM    7  C4  UNL     1       8.820  23.510  13.655  1.00  0.00     0.185 A 
HETATM    8  N3  UNL     1       8.474  22.519  12.827  1.00  0.00    -0.346 N 
HETATM    9  C5  UNL     1       8.816  21.322  13.373  1.00  0.00     0.123 A 
ATOM     10  H3  UNL     1       8.021  22.642  11.921  1.00  0.00     0.167 HD
HETATM   11  C6  UNL     1       8.664  20.036  12.904  1.00  0.00     0.145 A 
HETATM   12  C8  UNL     1       9.399  21.586  14.595  1.00  0.00     0.155 A 
HETATM   13  N5  UNL     1       9.113  19.027  13.689  1.00  0.00    -0.175 N 
HETATM   14  C7  UNL     1       9.688  19.259  14.890  1.00  0.00     0.679 A 
ATOM     15  H5  UNL     1       9.014  18.066  13.365  1.00  0.00     0.186 HD
HETATM   16  N7  UNL     1       9.824  20.524  15.324  1.00  0.00    -0.174 N 
ATOM     17  H7  UNL     1      10.260  20.690  16.231  1.00  0.00     0.186 HD
BRANCH  11  18
HETATM   18  N4  UNL     1       8.119  19.843  11.768  1.00  0.00    -0.383 N 
ATOM     19  H42 UNL     1       8.617  19.958  10.885  1.00  0.00     0.157 HD
ATOM     20  H41 UNL     1       7.140  19.562  11.723  1.00  0.00     0.157 HD
ENDBRANCH  11  18
BRANCH  14  21
HETATM   21  N6  UNL     1      10.085  18.236  15.570  1.00  0.00    -0.234 N 
ATOM     22  H62 UNL     1      11.069  17.982  15.668  1.00  0.00     0.174 HD
ATOM     23  H61 UNL     1       9.373  17.664  16.023  1.00  0.00     0.174 HD
ENDBRANCH  14  21
ENDBRANCH   5   6
ENDBRANCH   1   5
BRANCH   1  24
HETATM   24  N8  UNL     1      11.919  22.855  17.179  1.00  0.00    -0.378 N 
ATOM     25  H8  UNL     1      12.934  22.817  17.276  1.00  0.00     0.160 HD
BRANCH  24  26
HETATM   26  C9  UNL     1      11.099  22.299  18.222  1.00  0.00     0.131 C 
BRANCH  26  27
HETATM   27  C10 UNL     1      11.894  21.290  19.055  1.00  0.00     0.093 C 
BRANCH  27  28
HETATM   28  S1  UNL     1      13.599  21.764  19.242  1.00  0.00    -0.167 SA
BRANCH  28  29
HETATM   29  C11 UNL     1      14.325  21.524  20.833  1.00  0.00     0.077 C 
BRANCH  29  30
HETATM   30  C12 UNL     1      15.241  20.365  21.016  1.00  0.00     0.066 C 
BRANCH  30  31
HETATM   31  C13 UNL     1      14.581  19.181  21.682  1.00  0.00     0.296 C 
BRANCH  31  32
HETATM   32  N9  UNL     1      15.345  18.671  22.805  1.00  0.00    -0.057 N 
ATOM     33  H93 UNL     1      15.532  17.674  22.698  1.00  0.00     0.276 HD
ATOM     34  H92 UNL     1      16.302  19.023  22.784  1.00  0.00     0.276 HD
ATOM     35  H91 UNL     1      14.903  18.866  23.703  1.00  0.00     0.276 HD
ENDBRANCH  31  32
BRANCH  31  36
HETATM   36  N10 UNL     1      14.231  18.194  20.723  1.00  0.00    -0.313 N 
ATOM     37  H10 UNL     1      14.931  17.634  20.237  1.00  0.00     0.182 HD
BRANCH  36  38
HETATM   38  N11 UNL     1      12.866  18.045  20.492  1.00  0.00    -0.348 N 
ATOM     39 2H11 UNL     1      12.184  18.156  21.243  1.00  0.00     0.176 HD
ATOM     40 1H11 UNL     1      12.608  17.820  19.532  1.00  0.00     0.176 HD
ENDBRANCH  36  38
ENDBRANCH  31  36
ENDBRANCH  30  31
ENDBRANCH  29  30
ENDBRANCH  28  29
ENDBRANCH  27  28
ENDBRANCH  26  27
ENDBRANCH  24  26
ENDBRANCH   1  24
TORSDOF 15
ENDMDL
MODEL 4
REMARK VINA RESULT: -6.126592012      2.536      5.425
REMARK  15 active torsions:
REMARK  status: ('A' for Active; 'I' for Inactive)
REMARK    1  A    between atoms: N1_2  and  C2_4 
REMARK    2  A    between atoms: C2_4  and  C3_5 
REMARK    3  A    between atoms: C2_4  and  N8_24 
REMARK    4  A    between atoms: C3_5  and  N2_6 
REMARK    5  A    between atoms: C6_11  and  N4_12 
REMARK    6  A    between atoms: C7_17  and  N6_18 
REMARK    7  A    between atoms: N8_24  and  C9_26 
REMARK    8  A    between atoms: C9_26  and  C10_27 
REMARK    9  A    between atoms: C10_27  and  S1_28 
REMARK   10  A    between atoms: S1_28  and  C11_29 
REMARK   11  A    between atoms: C11_29  and  C12_30 
REMARK   12  A    between atoms: C12_30  and  C13_31 
REMARK   13  A    between atoms: C13_31  and  N9_32 
REMARK   14  A    between atoms: C13_31  and  N10_36 
REMARK   15  A    between atoms: N10_36  and  N11_38 
ROOT
HETATM    1  C2  UNL     1      10.668  21.022  16.741  1.00  0.00     0.091 C 
ENDROOT
BRANCH   1   2
HETATM    2  N1  UNL     1      10.372  20.044  17.527  1.00  0.00    -0.383 N 
HETATM    3  C1  UNL     1      11.168  18.873  17.723  1.00  0.00     0.147 C 
ATOM      4  H1  UNL     1       9.500  20.112  18.051  1.00  0.00     0.160 HD
ENDBRANCH   1   2
BRANCH   1   5
HETATM    5  C3  UNL     1      11.179  20.675  15.386  1.00  0.00     0.207 C 
BRANCH   5   6
HETATM    6  N2  UNL     1      10.113  20.555  14.430  1.00  0.00    -0.320 N 
HETATM    7  C4  UNL     1       9.556  19.369  14.074  1.00  0.00     0.185 A 
HETATM    8  N3  UNL     1       8.611  19.661  13.175  1.00  0.00    -0.346 N 
HETATM    9  C5  UNL     1       8.573  21.005  12.969  1.00  0.00     0.123 A 
ATOM     10  H3  UNL     1       8.010  18.979  12.713  1.00  0.00     0.167 HD
HETATM   11  C6  UNL     1       7.778  21.772  12.146  1.00  0.00     0.145 A 
HETATM   12  C8  UNL     1       9.539  21.566  13.777  1.00  0.00     0.155 A 
HETATM   13  N5  UNL     1       7.977  23.111  12.157  1.00  0.00    -0.175 N 
HETATM   14  C7  UNL     1       8.916  23.687  12.940  1.00  0.00     0.679 A 
ATOM     15  H5  UNL     1       7.401  23.703  11.559  1.00  0.00     0.186 HD
HETATM   16  N7  UNL     1       9.679  22.915  13.733  1.00  0.00    -0.174 N 
ATOM     17  H7  UNL     1      10.385  23.358  14.321  1.00  0.00     0.186 HD
BRANCH  11  18
HETATM   18  N4  UNL     1       6.899  21.205  11.418  1.00  0.00    -0.383 N 
ATOM     19  H42 UNL     1       6.990  20.247  11.080  1.00  0.00     0.157 HD
ATOM     20  H41 UNL     1       6.061  21.721  11.150  1.00  0.00     0.157 HD
ENDBRANCH  11  18
BRANCH  14  21
HETATM   21  N6  UNL     1       9.035  24.972  12.885  1.00  0.00    -0.234 N 
ATOM     22  H62 UNL     1       8.841  25.512  12.042  1.00  0.00     0.174 HD
ATOM     23  H61 UNL     1       9.338  25.454  13.731  1.00  0.00     0.174 HD
ENDBRANCH  14  21
ENDBRANCH   5   6
ENDBRANCH   1   5
BRANCH   1  24
HETATM   24  N8  UNL     1      10.511  22.365  17.153  1.00  0.00    -0.378 N 
ATOM     25  H8  UNL     1       9.689  22.619  17.702  1.00  0.00     0.160 HD
BRANCH  24  26
HETATM   26  C9  UNL     1      11.470  23.386  16.825  1.00  0.00     0.131 C 
BRANCH  26  27
HETATM   27  C10 UNL     1      12.687  23.302  17.749  1.00  0.00     0.093 C 
BRANCH  27  28
HETATM   28  S1  UNL     1      14.119  22.645  16.922  1.00  0.00    -0.167 SA
BRANCH  28  29
HETATM   29  C11 UNL     1      14.507  23.322  15.338  1.00  0.00     0.077 C 
BRANCH  29  30
HETATM   30  C12 UNL     1      14.201  22.503  14.134  1.00  0.00     0.066 C 
BRANCH  30  31
HETATM   31  C13 UNL     1      13.406  23.251  13.089  1.00  0.00     0.296 C 
BRANCH  31  32
HETATM   32  N9  UNL     1      14.161  23.486  11.873  1.00  0.00    -0.057 N 
ATOM     33  H93 UNL     1      15.151  23.626  12.078  1.00  0.00     0.276 HD
ATOM     34  H92 UNL     1      14.227  22.636  11.313  1.00  0.00     0.276 HD
ATOM     35  H91 UNL     1      13.789  24.260  11.322  1.00  0.00     0.276 HD
ENDBRANCH  31  32
BRANCH  31  36
HETATM   36  N10 UNL     1      12.821  24.420  13.643  1.00  0.00    -0.313 N 
ATOM     37  H10 UNL     1      12.323  24.411  14.534  1.00  0.00     0.182 HD
BRANCH  36  38
HETATM   38  N11 UNL     1      12.972  25.578  12.886  1.00  0.00    -0.348 N 
ATOM     39 2H11 UNL     1      12.721  25.604  11.897  1.00  0.00     0.176 HD
ATOM     40 1H11 UNL     1      13.346  26.382  13.389  1.00  0.00     0.176 HD
ENDBRANCH  36  38
ENDBRANCH  31  36
ENDBRANCH  30  31
ENDBRANCH  29  30
ENDBRANCH  28  29
ENDBRANCH  27  28
ENDBRANCH  26  27
ENDBRANCH  24  26
ENDBRANCH   1  24
TORSDOF 15
ENDMDL
MODEL 5
REMARK VINA RESULT: -6.100647606     11.235     12.922
REMARK  15 active torsions:
REMARK  status: ('A' for Active; 'I' for Inactive)
REMARK    1  A    between atoms: N1_2  and  C2_4 
REMARK    2  A    between atoms: C2_4  and  C3_5 
REMARK    3  A    between atoms: C2_4  and  N8_24 
REMARK    4  A    between atoms: C3_5  and  N2_6 
REMARK    5  A    between atoms: C6_11  and  N4_12 
REMARK    6  A    between atoms: C7_17  and  N6_18 
REMARK    7  A    between atoms: N8_24  and  C9_26 
REMARK    8  A    between atoms: C9_26  and  C10_27 
REMARK    9  A    between atoms: C10_27  and  S1_28 
REMARK   10  A    between atoms: S1_28  and  C11_29 
REMARK   11  A    between atoms: C11_29  and  C12_30 
REMARK   12  A    between atoms: C12_30  and  C13_31 
REMARK   13  A    between atoms: C13_31  and  N9_32 
REMARK   14  A    between atoms: C13_31  and  N10_36 
REMARK   15  A    between atoms: N10_36  and  N11_38 
ROOT
HETATM    1  C2  UNL     1      22.321  20.500  20.627  1.00  0.00     0.091 C 
ENDROOT
BRANCH   1   2
HETATM    2  N1  UNL     1      21.953  21.314  19.698  1.00  0.00    -0.383 N 
HETATM    3  C1  UNL     1      20.900  22.274  19.812  1.00  0.00     0.147 C 
ATOM      4  H1  UNL     1      22.453  21.269  18.810  1.00  0.00     0.160 HD
ENDBRANCH   1   2
BRANCH   1   5
HETATM    5  C3  UNL     1      23.718  19.987  20.569  1.00  0.00     0.207 C 
BRANCH   5   6
HETATM    6  N2  UNL     1      24.040  19.469  19.268  1.00  0.00    -0.320 N 
HETATM    7  C4  UNL     1      24.582  20.221  18.276  1.00  0.00     0.185 A 
HETATM    8  N3  UNL     1      24.736  19.398  17.233  1.00  0.00    -0.346 N 
HETATM    9  C5  UNL     1      24.301  18.152  17.563  1.00  0.00     0.123 A 
ATOM     10  H3  UNL     1      25.121  19.664  16.327  1.00  0.00     0.167 HD
HETATM   11  C6  UNL     1      24.258  16.986  16.832  1.00  0.00     0.145 A 
HETATM   12  C8  UNL     1      23.857  18.210  18.868  1.00  0.00     0.155 A 
HETATM   13  N5  UNL     1      23.761  15.884  17.442  1.00  0.00    -0.175 N 
HETATM   14  C7  UNL     1      23.320  15.913  18.719  1.00  0.00     0.679 A 
ATOM     15  H5  UNL     1      23.719  15.006  16.924  1.00  0.00     0.186 HD
HETATM   16  N7  UNL     1      23.374  17.065  19.411  1.00  0.00    -0.174 N 
ATOM     17  H7  UNL     1      23.039  17.078  20.374  1.00  0.00     0.186 HD
BRANCH  11  18
HETATM   18  N4  UNL     1      24.680  16.983  15.629  1.00  0.00    -0.383 N 
ATOM     19  H42 UNL     1      25.354  16.303  15.277  1.00  0.00     0.157 HD
ATOM     20  H41 UNL     1      24.338  17.688  14.976  1.00  0.00     0.157 HD
ENDBRANCH  11  18
BRANCH  14  21
HETATM   21  N6  UNL     1      22.863  14.814  19.220  1.00  0.00    -0.234 N 
ATOM     22  H62 UNL     1      21.946  14.435  18.983  1.00  0.00     0.174 HD
ATOM     23  H61 UNL     1      23.457  14.313  19.881  1.00  0.00     0.174 HD
ENDBRANCH  14  21
ENDBRANCH   5   6
ENDBRANCH   1   5
BRANCH   1  24
HETATM   24  N8  UNL     1      21.431  20.115  21.657  1.00  0.00    -0.378 N 
ATOM     25  H8  UNL     1      21.424  20.648  22.527  1.00  0.00     0.160 HD
BRANCH  24  26
HETATM   26  C9  UNL     1      20.537  18.996  21.520  1.00  0.00     0.131 C 
BRANCH  26  27
HETATM   27  C10 UNL     1      19.081  19.446  21.665  1.00  0.00     0.093 C 
BRANCH  27  28
HETATM   28  S1  UNL     1      18.093  18.261  22.551  1.00  0.00    -0.167 SA
BRANCH  28  29
HETATM   29  C11 UNL     1      18.246  18.251  24.310  1.00  0.00     0.077 C 
BRANCH  29  30
HETATM   30  C12 UNL     1      19.563  17.879  24.895  1.00  0.00     0.066 C 
BRANCH  30  31
HETATM   31  C13 UNL     1      19.551  16.537  25.588  1.00  0.00     0.296 C 
BRANCH  31  32
HETATM   32  N9  UNL     1      18.214  15.995  25.737  1.00  0.00    -0.057 N 
ATOM     33  H93 UNL     1      18.160  15.369  26.541  1.00  0.00     0.276 HD
ATOM     34  H92 UNL     1      17.560  16.715  26.044  1.00  0.00     0.276 HD
ATOM     35  H91 UNL     1      17.879  15.533  24.891  1.00  0.00     0.276 HD
ENDBRANCH  31  32
BRANCH  31  36
HETATM   36  N10 UNL     1      20.294  16.588  26.797  1.00  0.00    -0.313 N 
ATOM     37  H10 UNL     1      20.527  15.751  27.330  1.00  0.00     0.182 HD
BRANCH  36  38
HETATM   38  N11 UNL     1      20.683  17.862  27.203  1.00  0.00    -0.348 N 
ATOM     39 2H11 UNL     1      20.176  18.695  26.902  1.00  0.00     0.176 HD
ATOM     40 1H11 UNL     1      21.499  17.895  27.814  1.00  0.00     0.176 HD
ENDBRANCH  36  38
ENDBRANCH  31  36
ENDBRANCH  30  31
ENDBRANCH  29  30
ENDBRANCH  28  29
ENDBRANCH  27  28
ENDBRANCH  26  27
ENDBRANCH  24  26
ENDBRANCH   1  24
TORSDOF 15
ENDMDL
