MODEL 1
REMARK VINA RESULT: -6.984245272      0.000      0.000
REMARK  12 active torsions:
REMARK  status: ('A' for Active; 'I' for Inactive)
REMARK    1  A    between atoms: N1_1  and  C1_4 
REMARK    2  A    between atoms: C4_12  and  N4_13 
REMARK    3  A    between atoms: N5_16  and  C5_17 
REMARK    4  A    between atoms: C6_19  and  C7_20 
REMARK    5  A    between atoms: C7_20  and  O3_21 
REMARK    6  A    between atoms: C8_23  and  C9_24 
REMARK    7  A    between atoms: C9_24  and  N6_25 
REMARK    8  A    between atoms: N6_25  and  C10_28 
REMARK    9  A    between atoms: C10_28  and  C11_29 
REMARK   10  A    between atoms: C11_29  and  C12_30 
REMARK   11  A    between atoms: C12_30  and  C13_31 
REMARK   12  A    between atoms: C13_31  and  N7_32 
ROOT
HETATM    1  C5  UNL     1      11.119  20.818  15.987  1.00  0.00     0.397 C 
HETATM    2  O2  UNL     1      10.729  20.270  17.229  1.00  0.00    -0.333 OA
HETATM    3  C6  UNL     1      11.867  20.661  17.978  1.00  0.00     0.180 C 
HETATM    4  C8  UNL     1      11.948  22.117  17.523  1.00  0.00     0.183 C 
HETATM    5  O4  UNL     1      11.338  22.119  16.281  1.00  0.00    -0.333 OA
ENDROOT
BRANCH   1   6
HETATM    6  N5  UNL     1      10.211  20.506  14.948  1.00  0.00    -0.114 N 
HETATM    7  C4  UNL     1       9.825  19.261  14.622  1.00  0.00     0.684 A 
HETATM    8  N3  UNL     1       8.958  19.288  13.600  1.00  0.00    -0.182 N 
HETATM    9  C3  UNL     1       8.791  20.588  13.270  1.00  0.00     0.163 A 
ATOM     10  H3  UNL     1       8.511  18.485  13.158  1.00  0.00     0.184 HD
HETATM   11  C2  UNL     1       8.038  21.244  12.316  1.00  0.00     0.290 A 
HETATM   12  C14 UNL     1       9.579  21.345  14.118  1.00  0.00     0.176 A 
HETATM   13  N2  UNL     1       8.093  22.585  12.243  1.00  0.00    -0.154 N 
HETATM   14  O1  UNL     1       7.319  20.555  11.541  1.00  0.00    -0.265 OA
HETATM   15  C1  UNL     1       8.855  23.335  13.062  1.00  0.00     0.680 A 
ATOM     16  H2  UNL     1       7.531  23.056  11.534  1.00  0.00     0.187 HD
HETATM   17  N8  UNL     1       9.581  22.683  13.983  1.00  0.00    -0.173 N 
ATOM     18  H8  UNL     1      10.166  23.231  14.615  1.00  0.00     0.186 HD
BRANCH   7  19
HETATM   19  N4  UNL     1      10.224  18.161  15.204  1.00  0.00    -0.234 N 
ATOM     20  H42 UNL     1      10.551  17.320  14.729  1.00  0.00     0.174 HD
ATOM     21  H41 UNL     1      10.248  18.035  16.216  1.00  0.00     0.174 HD
ENDBRANCH   7  19
BRANCH  15  22
HETATM   22  N1  UNL     1       8.859  24.628  12.935  1.00  0.00    -0.234 N 
ATOM     23  H12 UNL     1       8.160  25.235  13.364  1.00  0.00     0.174 HD
ATOM     24  H11 UNL     1       9.588  25.081  12.382  1.00  0.00     0.174 HD
ENDBRANCH  15  22
ENDBRANCH   1   6
BRANCH   3  25
HETATM   25  C7  UNL     1      11.660  20.533  19.446  1.00  0.00     0.198 C 
BRANCH  25  26
HETATM   26  O3  UNL     1      10.358  20.081  19.675  1.00  0.00    -0.398 OA
ATOM     27  H3  UNL     1      10.397  19.326  20.251  1.00  0.00     0.209 HD
ENDBRANCH  25  26
ENDBRANCH   3  25
BRANCH   4  28
HETATM   28  C9  UNL     1      13.381  22.567  17.347  1.00  0.00     0.266 C 
BRANCH  28  29
HETATM   29  N6  UNL     1      13.426  23.586  16.350  1.00  0.00    -0.073 N 
ATOM     30  H62 UNL     1      12.588  23.581  15.770  1.00  0.00     0.277 HD
ATOM     31  H61 UNL     1      13.328  24.515  16.759  1.00  0.00     0.277 HD
BRANCH  29  32
HETATM   32  C10 UNL     1      14.615  23.482  15.559  1.00  0.00     0.232 C 
BRANCH  32  33
HETATM   33  C11 UNL     1      14.566  22.353  14.568  1.00  0.00     0.029 C 
BRANCH  33  34
HETATM   34  C12 UNL     1      13.535  22.664  13.522  1.00  0.00     0.029 C 
BRANCH  34  35
HETATM   35  C13 UNL     1      13.929  23.826  12.662  1.00  0.00     0.229 C 
BRANCH  35  36
HETATM   36  N7  UNL     1      14.013  23.318  11.274  1.00  0.00    -0.079 N 
ATOM     37  H73 UNL     1      14.344  22.355  11.216  1.00  0.00     0.274 HD
ATOM     38  H72 UNL     1      13.101  23.166  10.844  1.00  0.00     0.274 HD
ATOM     39  H71 UNL     1      14.597  23.975  10.756  1.00  0.00     0.274 HD
ENDBRANCH  35  36
ENDBRANCH  34  35
ENDBRANCH  33  34
ENDBRANCH  32  33
ENDBRANCH  29  32
ENDBRANCH  28  29
ENDBRANCH   4  28
TORSDOF 12
ENDMDL
MODEL 2
REMARK VINA RESULT: -6.861114607      1.973      3.553
REMARK  12 active torsions:
REMARK  status: ('A' for Active; 'I' for Inactive)
REMARK    1  A    between atoms: N1_1  and  C1_4 
REMARK    2  A    between atoms: C4_12  and  N4_13 
REMARK    3  A    between atoms: N5_16  and  C5_17 
REMARK    4  A    between atoms: C6_19  and  C7_20 
REMARK    5  A    between atoms: C7_20  and  O3_21 
REMARK    6  A    between atoms: C8_23  and  C9_24 
REMARK    7  A    between atoms: C9_24  and  N6_25 
REMARK    8  A    between atoms: N6_25  and  C10_28 
REMARK    9  A    between atoms: C10_28  and  C11_29 
REMARK   10  A    between atoms: C11_29  and  C12_30 
REMARK   11  A    between atoms: C12_30  and  C13_31 
REMARK   12  A    between atoms: C13_31  and  N7_32 
ROOT
HETATM    1  C5  UNL     1      11.002  20.812  16.139  1.00  0.00     0.397 C 
HETATM    2  O2  UNL     1      10.629  20.177  17.343  1.00  0.00    -0.333 OA
HETATM    3  C6  UNL     1      11.712  20.625  18.141  1.00  0.00     0.180 C 
HETATM    4  C8  UNL     1      11.685  22.101  17.752  1.00  0.00     0.183 C 
HETATM    5  O4  UNL     1      11.107  22.111  16.494  1.00  0.00    -0.333 OA
ENDROOT
BRANCH   1   6
HETATM    6  N5  UNL     1      10.148  20.476  15.062  1.00  0.00    -0.114 N 
HETATM    7  C4  UNL     1       9.807  19.221  14.724  1.00  0.00     0.684 A 
HETATM    8  N3  UNL     1       8.984  19.224  13.665  1.00  0.00    -0.182 N 
HETATM    9  C3  UNL     1       8.801  20.519  13.324  1.00  0.00     0.163 A 
ATOM     10  H3  UNL     1       8.576  18.409  13.206  1.00  0.00     0.184 HD
HETATM   11  C2  UNL     1       8.075  21.154  12.336  1.00  0.00     0.290 A 
HETATM   12  C14 UNL     1       9.533  21.297  14.203  1.00  0.00     0.176 A 
HETATM   13  N2  UNL     1       8.100  22.496  12.260  1.00  0.00    -0.154 N 
HETATM   14  O1  UNL     1       7.406  20.446  11.532  1.00  0.00    -0.265 OA
HETATM   15  C1  UNL     1       8.807  23.266  13.109  1.00  0.00     0.680 A 
ATOM     16  H2  UNL     1       7.558  22.952  11.526  1.00  0.00     0.187 HD
HETATM   17  N8  UNL     1       9.509  22.634  14.063  1.00  0.00    -0.173 N 
ATOM     18  H8  UNL     1      10.052  23.198  14.718  1.00  0.00     0.186 HD
BRANCH   7  19
HETATM   19  N4  UNL     1      10.206  18.132  15.326  1.00  0.00    -0.234 N 
ATOM     20  H42 UNL     1       9.601  17.418  15.730  1.00  0.00     0.174 HD
ATOM     21  H41 UNL     1      11.188  17.885  15.452  1.00  0.00     0.174 HD
ENDBRANCH   7  19
BRANCH  15  22
HETATM   22  N1  UNL     1       8.786  24.559  12.978  1.00  0.00    -0.234 N 
ATOM     23  H12 UNL     1       8.338  25.035  12.195  1.00  0.00     0.174 HD
ATOM     24  H11 UNL     1       9.234  25.147  13.681  1.00  0.00     0.174 HD
ENDBRANCH  15  22
ENDBRANCH   1   6
BRANCH   3  25
HETATM   25  C7  UNL     1      11.482  20.413  19.595  1.00  0.00     0.198 C 
BRANCH  25  26
HETATM   26  O3  UNL     1      12.568  19.708  20.120  1.00  0.00    -0.398 OA
ATOM     27  H3  UNL     1      12.398  18.778  20.028  1.00  0.00     0.209 HD
ENDBRANCH  25  26
ENDBRANCH   3  25
BRANCH   4  28
HETATM   28  C9  UNL     1      13.080  22.673  17.636  1.00  0.00     0.266 C 
BRANCH  28  29
HETATM   29  N6  UNL     1      13.134  23.907  18.350  1.00  0.00    -0.073 N 
ATOM     30  H62 UNL     1      14.049  24.054  18.775  1.00  0.00     0.277 HD
ATOM     31  H61 UNL     1      13.125  24.707  17.718  1.00  0.00     0.277 HD
BRANCH  29  32
HETATM   32  C10 UNL     1      12.083  23.990  19.318  1.00  0.00     0.232 C 
BRANCH  32  33
HETATM   33  C11 UNL     1      12.506  24.672  20.589  1.00  0.00     0.029 C 
BRANCH  33  34
HETATM   34  C12 UNL     1      12.807  23.631  21.628  1.00  0.00     0.029 C 
BRANCH  34  35
HETATM   35  C13 UNL     1      14.267  23.308  21.703  1.00  0.00     0.229 C 
BRANCH  35  36
HETATM   36  N7  UNL     1      14.414  21.898  21.274  1.00  0.00    -0.079 N 
ATOM     37  H73 UNL     1      14.066  21.230  21.962  1.00  0.00     0.274 HD
ATOM     38  H72 UNL     1      13.784  21.640  20.515  1.00  0.00     0.274 HD
ATOM     39  H71 UNL     1      15.399  21.762  21.044  1.00  0.00     0.274 HD
ENDBRANCH  35  36
ENDBRANCH  34  35
ENDBRANCH  33  34
ENDBRANCH  32  33
ENDBRANCH  29  32
ENDBRANCH  28  29
ENDBRANCH   4  28
TORSDOF 12
ENDMDL
MODEL 3
REMARK VINA RESULT: -6.781389538      2.702      4.537
REMARK  12 active torsions:
REMARK  status: ('A' for Active; 'I' for Inactive)
REMARK    1  A    between atoms: N1_1  and  C1_4 
REMARK    2  A    between atoms: C4_12  and  N4_13 
REMARK    3  A    between atoms: N5_16  and  C5_17 
REMARK    4  A    between atoms: C6_19  and  C7_20 
REMARK    5  A    between atoms: C7_20  and  O3_21 
REMARK    6  A    between atoms: C8_23  and  C9_24 
REMARK    7  A    between atoms: C9_24  and  N6_25 
REMARK    8  A    between atoms: N6_25  and  C10_28 
REMARK    9  A    between atoms: C10_28  and  C11_29 
REMARK   10  A    between atoms: C11_29  and  C12_30 
REMARK   11  A    between atoms: C12_30  and  C13_31 
REMARK   12  A    between atoms: C13_31  and  N7_32 
ROOT
HETATM    1  C5  UNL     1      10.447  20.870  16.631  1.00  0.00     0.397 C 
HETATM    2  O2  UNL     1      11.050  22.140  16.492  1.00  0.00    -0.333 OA
HETATM    3  C6  UNL     1      11.402  22.335  17.851  1.00  0.00     0.180 C 
HETATM    4  C8  UNL     1      12.028  20.968  18.121  1.00  0.00     0.183 C 
HETATM    5  O4  UNL     1      11.419  20.129  17.205  1.00  0.00    -0.333 OA
ENDROOT
BRANCH   1   6
HETATM    6  N5  UNL     1       9.873  20.408  15.423  1.00  0.00    -0.114 N 
HETATM    7  C4  UNL     1       9.745  19.114  15.087  1.00  0.00     0.684 A 
HETATM    8  N3  UNL     1       9.160  18.992  13.886  1.00  0.00    -0.182 N 
HETATM    9  C3  UNL     1       8.912  20.248  13.451  1.00  0.00     0.163 A 
ATOM     10  H3  UNL     1       8.945  18.124  13.397  1.00  0.00     0.184 HD
HETATM   11  C2  UNL     1       8.338  20.767  12.308  1.00  0.00     0.290 A 
HETATM   12  C14 UNL     1       9.360  21.128  14.418  1.00  0.00     0.176 A 
HETATM   13  N2  UNL     1       8.233  22.100  12.172  1.00  0.00    -0.154 N 
HETATM   14  O1  UNL     1       7.928  19.965  11.423  1.00  0.00    -0.265 OA
HETATM   15  C1  UNL     1       8.665  22.970  13.105  1.00  0.00     0.680 A 
ATOM     16  H2  UNL     1       7.807  22.470  11.322  1.00  0.00     0.187 HD
HETATM   17  N8  UNL     1       9.221  22.450  14.210  1.00  0.00    -0.173 N 
ATOM     18  H8  UNL     1       9.555  23.090  14.931  1.00  0.00     0.186 HD
BRANCH   7  19
HETATM   19  N4  UNL     1      10.129  18.095  15.811  1.00  0.00    -0.234 N 
ATOM     20  H42 UNL     1      10.097  18.041  16.828  1.00  0.00     0.174 HD
ATOM     21  H41 UNL     1      10.506  17.233  15.416  1.00  0.00     0.174 HD
ENDBRANCH   7  19
BRANCH  15  22
HETATM   22  N1  UNL     1       8.532  24.248  12.908  1.00  0.00    -0.234 N 
ATOM     23  H12 UNL     1       7.641  24.688  12.676  1.00  0.00     0.174 HD
ATOM     24  H11 UNL     1       9.345  24.860  12.982  1.00  0.00     0.174 HD
ENDBRANCH  15  22
ENDBRANCH   1   6
BRANCH   3  25
HETATM   25  C7  UNL     1      12.366  23.452  18.040  1.00  0.00     0.198 C 
BRANCH  25  26
HETATM   26  O3  UNL     1      12.962  23.740  16.809  1.00  0.00    -0.398 OA
ATOM     27  H3  UNL     1      12.834  24.662  16.620  1.00  0.00     0.209 HD
ENDBRANCH  25  26
ENDBRANCH   3  25
BRANCH   4  28
HETATM   28  C9  UNL     1      11.699  20.470  19.511  1.00  0.00     0.266 C 
BRANCH  28  29
HETATM   29  N6  UNL     1      12.771  19.649  19.973  1.00  0.00    -0.073 N 
ATOM     30  H62 UNL     1      12.676  19.431  20.964  1.00  0.00     0.277 HD
ATOM     31  H61 UNL     1      12.708  18.703  19.597  1.00  0.00     0.277 HD
BRANCH  29  32
HETATM   32  C10 UNL     1      14.039  20.246  19.685  1.00  0.00     0.232 C 
BRANCH  32  33
HETATM   33  C11 UNL     1      14.811  20.615  20.921  1.00  0.00     0.029 C 
BRANCH  33  34
HETATM   34  C12 UNL     1      14.810  19.448  21.865  1.00  0.00     0.029 C 
BRANCH  34  35
HETATM   35  C13 UNL     1      16.054  18.622  21.751  1.00  0.00     0.229 C 
BRANCH  35  36
HETATM   36  N7  UNL     1      15.982  17.594  22.814  1.00  0.00    -0.079 N 
ATOM     37  H73 UNL     1      16.633  16.822  22.672  1.00  0.00     0.274 HD
ATOM     38  H72 UNL     1      16.353  17.912  23.708  1.00  0.00     0.274 HD
ATOM     39  H71 UNL     1      15.008  17.294  22.866  1.00  0.00     0.274 HD
ENDBRANCH  35  36
ENDBRANCH  34  35
ENDBRANCH  33  34
ENDBRANCH  32  33
ENDBRANCH  29  32
ENDBRANCH  28  29
ENDBRANCH   4  28
TORSDOF 12
ENDMDL
MODEL 4
REMARK VINA RESULT: -6.731620876      2.183      3.782
REMARK  12 active torsions:
REMARK  status: ('A' for Active; 'I' for Inactive)
REMARK    1  A    between atoms: N1_1  and  C1_4 
REMARK    2  A    between atoms: C4_12  and  N4_13 
REMARK    3  A    between atoms: N5_16  and  C5_17 
REMARK    4  A    between atoms: C6_19  and  C7_20 
REMARK    5  A    between atoms: C7_20  and  O3_21 
REMARK    6  A    between atoms: C8_23  and  C9_24 
REMARK    7  A    between atoms: C9_24  and  N6_25 
REMARK    8  A    between atoms: N6_25  and  C10_28 
REMARK    9  A    between atoms: C10_28  and  C11_29 
REMARK   10  A    between atoms: C11_29  and  C12_30 
REMARK   11  A    between atoms: C12_30  and  C13_31 
REMARK   12  A    between atoms: C13_31  and  N7_32 
ROOT
HETATM    1  C5  UNL     1      10.644  20.702  15.597  1.00  0.00     0.397 C 
HETATM    2  O2  UNL     1      10.142  19.787  16.547  1.00  0.00    -0.333 OA
HETATM    3  C6  UNL     1      11.280  19.739  17.390  1.00  0.00     0.180 C 
HETATM    4  C8  UNL     1      11.541  21.239  17.504  1.00  0.00     0.183 C 
HETATM    5  O4  UNL     1      10.992  21.769  16.350  1.00  0.00    -0.333 OA
ENDROOT
BRANCH   1   6
HETATM    6  N5  UNL     1       9.756  20.903  14.514  1.00  0.00    -0.114 N 
HETATM    7  C4  UNL     1       9.132  19.917  13.849  1.00  0.00     0.684 A 
HETATM    8  N3  UNL     1       8.353  20.420  12.879  1.00  0.00    -0.182 N 
HETATM    9  C3  UNL     1       8.491  21.764  12.934  1.00  0.00     0.163 A 
ATOM     10  H3  UNL     1       7.772  19.893  12.228  1.00  0.00     0.184 HD
HETATM   11  C2  UNL     1       7.956  22.810  12.209  1.00  0.00     0.290 A 
HETATM   12  C14 UNL     1       9.370  22.058  13.960  1.00  0.00     0.176 A 
HETATM   13  N2  UNL     1       8.302  24.071  12.521  1.00  0.00    -0.154 N 
HETATM   14  O1  UNL     1       7.154  22.544  11.272  1.00  0.00    -0.265 OA
HETATM   15  C1  UNL     1       9.156  24.373  13.517  1.00  0.00     0.680 A 
ATOM     16  H2  UNL     1       7.899  24.834  11.977  1.00  0.00     0.187 HD
HETATM   17  N8  UNL     1       9.668  23.346  14.212  1.00  0.00    -0.173 N 
ATOM     18  H8  UNL     1      10.318  23.551  14.971  1.00  0.00     0.186 HD
BRANCH   7  19
HETATM   19  N4  UNL     1       9.248  18.638  14.091  1.00  0.00    -0.234 N 
ATOM     20  H42 UNL     1       8.696  18.106  14.763  1.00  0.00     0.174 HD
ATOM     21  H41 UNL     1       9.921  18.034  13.619  1.00  0.00     0.174 HD
ENDBRANCH   7  19
BRANCH  15  22
HETATM   22  N1  UNL     1       9.447  25.616  13.764  1.00  0.00    -0.234 N 
ATOM     23  H12 UNL     1       9.309  26.052  14.676  1.00  0.00     0.174 HD
ATOM     24  H11 UNL     1       9.831  26.203  13.023  1.00  0.00     0.174 HD
ENDBRANCH  15  22
ENDBRANCH   1   6
BRANCH   3  25
HETATM   25  C7  UNL     1      10.995  19.107  18.706  1.00  0.00     0.198 C 
BRANCH  25  26
HETATM   26  O3  UNL     1      11.147  20.072  19.706  1.00  0.00    -0.398 OA
ATOM     27  H3  UNL     1      11.974  19.922  20.147  1.00  0.00     0.209 HD
ENDBRANCH  25  26
ENDBRANCH   3  25
BRANCH   4  28
HETATM   28  C9  UNL     1      13.021  21.549  17.509  1.00  0.00     0.266 C 
BRANCH  28  29
HETATM   29  N6  UNL     1      13.387  22.037  18.799  1.00  0.00    -0.073 N 
ATOM     30  H62 UNL     1      13.517  23.048  18.794  1.00  0.00     0.277 HD
ATOM     31  H61 UNL     1      12.608  21.982  19.455  1.00  0.00     0.277 HD
BRANCH  29  32
HETATM   32  C10 UNL     1      14.545  21.359  19.298  1.00  0.00     0.232 C 
BRANCH  32  33
HETATM   33  C11 UNL     1      14.687  21.458  20.791  1.00  0.00     0.029 C 
BRANCH  33  34
HETATM   34  C12 UNL     1      15.056  20.110  21.338  1.00  0.00     0.029 C 
BRANCH  34  35
HETATM   35  C13 UNL     1      14.606  18.992  20.448  1.00  0.00     0.229 C 
BRANCH  35  36
HETATM   36  N7  UNL     1      13.402  18.404  21.078  1.00  0.00    -0.079 N 
ATOM     37  H73 UNL     1      13.008  17.628  20.546  1.00  0.00     0.274 HD
ATOM     38  H72 UNL     1      13.607  17.883  21.931  1.00  0.00     0.274 HD
ATOM     39  H71 UNL     1      12.743  19.169  21.222  1.00  0.00     0.274 HD
ENDBRANCH  35  36
ENDBRANCH  34  35
ENDBRANCH  33  34
ENDBRANCH  32  33
ENDBRANCH  29  32
ENDBRANCH  28  29
ENDBRANCH   4  28
TORSDOF 12
ENDMDL
MODEL 5
REMARK VINA RESULT: -6.718419112      2.762      4.649
REMARK  12 active torsions:
REMARK  status: ('A' for Active; 'I' for Inactive)
REMARK    1  A    between atoms: N1_1  and  C1_4 
REMARK    2  A    between atoms: C4_12  and  N4_13 
REMARK    3  A    between atoms: N5_16  and  C5_17 
REMARK    4  A    between atoms: C6_19  and  C7_20 
REMARK    5  A    between atoms: C7_20  and  O3_21 
REMARK    6  A    between atoms: C8_23  and  C9_24 
REMARK    7  A    between atoms: C9_24  and  N6_25 
REMARK    8  A    between atoms: N6_25  and  C10_28 
REMARK    9  A    between atoms: C10_28  and  C11_29 
REMARK   10  A    between atoms: C11_29  and  C12_30 
REMARK   11  A    between atoms: C12_30  and  C13_31 
REMARK   12  A    between atoms: C13_31  and  N7_32 
ROOT
HETATM    1  C5  UNL     1      10.189  22.010  15.414  1.00  0.00     0.397 C 
HETATM    2  O2  UNL     1       9.948  20.621  15.332  1.00  0.00    -0.333 OA
HETATM    3  C6  UNL     1      10.838  20.210  16.355  1.00  0.00     0.180 C 
HETATM    4  C8  UNL     1      10.434  21.221  17.426  1.00  0.00     0.183 C 
HETATM    5  O4  UNL     1       9.928  22.291  16.710  1.00  0.00    -0.333 OA
ENDROOT
BRANCH   1   6
HETATM    6  N5  UNL     1       9.502  22.740  14.416  1.00  0.00    -0.114 N 
HETATM    7  C4  UNL     1       9.448  24.081  14.354  1.00  0.00     0.684 A 
HETATM    8  N3  UNL     1       8.727  24.477  13.295  1.00  0.00    -0.182 N 
HETATM    9  C3  UNL     1       8.313  23.352  12.669  1.00  0.00     0.163 A 
ATOM     10  H3  UNL     1       8.530  25.438  13.015  1.00  0.00     0.184 HD
HETATM   11  C2  UNL     1       7.551  23.110  11.544  1.00  0.00     0.290 A 
HETATM   12  C14 UNL     1       8.802  22.269  13.377  1.00  0.00     0.176 A 
HETATM   13  N2  UNL     1       7.311  21.840  11.173  1.00  0.00    -0.154 N 
HETATM   14  O1  UNL     1       7.103  24.097  10.896  1.00  0.00    -0.265 OA
HETATM   15  C1  UNL     1       7.781  20.776  11.852  1.00  0.00     0.680 A 
ATOM     16  H2  UNL     1       6.748  21.675  10.339  1.00  0.00     0.187 HD
HETATM   17  N8  UNL     1       8.519  21.028  12.944  1.00  0.00    -0.173 N 
ATOM     18  H8  UNL     1       8.885  20.237  13.473  1.00  0.00     0.186 HD
BRANCH   7  19
HETATM   19  N4  UNL     1      10.011  24.908  15.195  1.00  0.00    -0.234 N 
ATOM     20  H42 UNL     1      10.863  24.731  15.726  1.00  0.00     0.174 HD
ATOM     21  H41 UNL     1       9.641  25.834  15.408  1.00  0.00     0.174 HD
ENDBRANCH   7  19
BRANCH  15  22
HETATM   22  N1  UNL     1       7.510  19.574  11.436  1.00  0.00    -0.234 N 
ATOM     23  H12 UNL     1       6.762  19.002  11.827  1.00  0.00     0.174 HD
ATOM     24  H11 UNL     1       8.061  19.163  10.682  1.00  0.00     0.174 HD
ENDBRANCH  15  22
ENDBRANCH   1   6
BRANCH   3  25
HETATM   25  C7  UNL     1      10.612  18.804  16.783  1.00  0.00     0.198 C 
BRANCH  25  26
HETATM   26  O3  UNL     1      11.558  18.476  17.758  1.00  0.00    -0.398 OA
ATOM     27  H3  UNL     1      11.482  17.550  17.954  1.00  0.00     0.209 HD
ENDBRANCH  25  26
ENDBRANCH   3  25
BRANCH   4  28
HETATM   28  C9  UNL     1      11.630  21.703  18.216  1.00  0.00     0.266 C 
BRANCH  28  29
HETATM   29  N6  UNL     1      11.675  21.004  19.459  1.00  0.00    -0.073 N 
ATOM     30  H62 UNL     1      10.890  21.256  20.060  1.00  0.00     0.277 HD
ATOM     31  H61 UNL     1      11.468  20.013  19.339  1.00  0.00     0.277 HD
BRANCH  29  32
HETATM   32  C10 UNL     1      12.929  21.204  20.119  1.00  0.00     0.232 C 
BRANCH  32  33
HETATM   33  C11 UNL     1      14.030  20.346  19.562  1.00  0.00     0.029 C 
BRANCH  33  34
HETATM   34  C12 UNL     1      14.400  19.303  20.577  1.00  0.00     0.029 C 
BRANCH  34  35
HETATM   35  C13 UNL     1      14.193  17.911  20.065  1.00  0.00     0.229 C 
BRANCH  35  36
HETATM   36  N7  UNL     1      12.793  17.544  20.383  1.00  0.00    -0.079 N 
ATOM     37  H73 UNL     1      12.228  18.338  20.685  1.00  0.00     0.274 HD
ATOM     38  H72 UNL     1      12.243  17.302  19.559  1.00  0.00     0.274 HD
ATOM     39  H71 UNL     1      12.837  16.795  21.073  1.00  0.00     0.274 HD
ENDBRANCH  35  36
ENDBRANCH  34  35
ENDBRANCH  33  34
ENDBRANCH  32  33
ENDBRANCH  29  32
ENDBRANCH  28  29
ENDBRANCH   4  28
TORSDOF 12
ENDMDL
