MODEL 1
REMARK VINA RESULT: -5.415737790      0.000      0.000
REMARK  5 active torsions:
REMARK  status: ('A' for Active; 'I' for Inactive)
REMARK    1  A    between atoms: N1_1  and  C1_5 
REMARK    2  A    between atoms: C1_5  and  C2_6 
REMARK    3  A    between atoms: C5_9  and  C6_10 
REMARK    4  A    between atoms: C6_10  and  N2_11 
REMARK    5  A    between atoms: N2_11  and  C7_13 
ROOT
HETATM    1  C2  UNL     1     -40.611   3.408  -1.998  1.00  0.00    -0.033 A 
HETATM    2  C3  UNL     1     -40.714   3.678  -3.346  1.00  0.00     0.009 A 
HETATM    3  C4  UNL     1     -41.279   4.871  -3.767  1.00  0.00     0.009 A 
HETATM    4  C5  UNL     1     -41.741   5.793  -2.856  1.00  0.00    -0.040 A 
HETATM    5  C11 UNL     1     -41.640   5.526  -1.507  1.00  0.00     0.009 A 
HETATM    6  C12 UNL     1     -41.078   4.338  -1.083  1.00  0.00     0.009 A 
ENDROOT
BRANCH   4   7
HETATM    7  C6  UNL     1     -42.332   7.044  -3.384  1.00  0.00     0.176 C 
BRANCH   7   8
HETATM    8  N2  UNL     1     -42.286   8.106  -2.401  1.00  0.00    -0.222 N 
ATOM      9  H2  UNL     1     -41.395   8.510  -2.114  1.00  0.00     0.178 HD
BRANCH   8  10
HETATM   10  C7  UNL     1     -43.385   8.528  -1.901  1.00  0.00     0.677 A 
HETATM   11  N3  UNL     1     -43.419   9.124  -0.706  1.00  0.00    -0.202 N 
HETATM   12  C8  UNL     1     -44.597   9.569  -0.183  1.00  0.00     0.107 A 
ATOM     13  H3  UNL     1     -42.555   9.247  -0.178  1.00  0.00     0.183 HD
HETATM   14  C9  UNL     1     -45.765   9.399  -0.905  1.00  0.00     0.035 A 
HETATM   15  C10 UNL     1     -45.720   8.786  -2.133  1.00  0.00     0.107 A 
HETATM   16  N4  UNL     1     -44.519   8.368  -2.591  1.00  0.00    -0.202 N 
ATOM     17  H4  UNL     1     -44.475   7.910  -3.502  1.00  0.00     0.183 HD
ENDBRANCH   8  10
ENDBRANCH   7   8
ENDBRANCH   4   7
BRANCH   1  18
HETATM   18  C1  UNL     1     -40.007   2.128  -1.503  1.00  0.00     0.268 C 
BRANCH  18  19
HETATM   19  N1  UNL     1     -39.192   1.595  -2.567  1.00  0.00    -0.075 N 
ATOM     20  H13 UNL     1     -38.910   2.302  -3.245  1.00  0.00     0.274 HD
ATOM     21  H12 UNL     1     -38.257   1.328  -2.258  1.00  0.00     0.274 HD
ATOM     22  H11 UNL     1     -39.706   0.822  -2.989  1.00  0.00     0.274 HD
ENDBRANCH  18  19
ENDBRANCH   1  18
TORSDOF 5
ENDMDL
MODEL 2
REMARK VINA RESULT: -5.405395629      0.053      1.175
REMARK  5 active torsions:
REMARK  status: ('A' for Active; 'I' for Inactive)
REMARK    1  A    between atoms: N1_1  and  C1_5 
REMARK    2  A    between atoms: C1_5  and  C2_6 
REMARK    3  A    between atoms: C5_9  and  C6_10 
REMARK    4  A    between atoms: C6_10  and  N2_11 
REMARK    5  A    between atoms: N2_11  and  C7_13 
ROOT
HETATM    1  C2  UNL     1     -40.650   3.418  -1.969  1.00  0.00    -0.033 A 
HETATM    2  C3  UNL     1     -40.752   3.682  -3.318  1.00  0.00     0.009 A 
HETATM    3  C4  UNL     1     -41.286   4.888  -3.744  1.00  0.00     0.009 A 
HETATM    4  C5  UNL     1     -41.716   5.829  -2.837  1.00  0.00    -0.040 A 
HETATM    5  C11 UNL     1     -41.616   5.567  -1.486  1.00  0.00     0.009 A 
HETATM    6  C12 UNL     1     -41.085   4.367  -1.058  1.00  0.00     0.009 A 
ENDROOT
BRANCH   4   7
HETATM    7  C6  UNL     1     -42.275   7.092  -3.370  1.00  0.00     0.176 C 
BRANCH   7   8
HETATM    8  N2  UNL     1     -42.295   8.129  -2.359  1.00  0.00    -0.222 N 
ATOM      9  H2  UNL     1     -41.426   8.537  -2.015  1.00  0.00     0.178 HD
BRANCH   8  10
HETATM   10  C7  UNL     1     -43.425   8.523  -1.906  1.00  0.00     0.677 A 
HETATM   11  N3  UNL     1     -44.550   8.353  -2.608  1.00  0.00    -0.202 N 
HETATM   12  C8  UNL     1     -45.748   8.777  -2.116  1.00  0.00     0.107 A 
ATOM     13  H3  UNL     1     -44.512   7.901  -3.521  1.00  0.00     0.183 HD
HETATM   14  C9  UNL     1     -45.792   9.389  -0.875  1.00  0.00     0.035 A 
HETATM   15  C10 UNL     1     -44.631   9.559  -0.161  1.00  0.00     0.107 A 
HETATM   16  N4  UNL     1     -43.477   9.115  -0.710  1.00  0.00    -0.202 N 
ATOM     17  H4  UNL     1     -42.609   9.238  -0.188  1.00  0.00     0.183 HD
ENDBRANCH   8  10
ENDBRANCH   7   8
ENDBRANCH   4   7
BRANCH   1  18
HETATM   18  C1  UNL     1     -40.079   2.125  -1.468  1.00  0.00     0.268 C 
BRANCH  18  19
HETATM   19  N1  UNL     1     -39.255   1.580  -2.520  1.00  0.00    -0.075 N 
ATOM     20  H13 UNL     1     -39.301   2.123  -3.383  1.00  0.00     0.274 HD
ATOM     21  H12 UNL     1     -38.257   1.695  -2.344  1.00  0.00     0.274 HD
ATOM     22  H11 UNL     1     -39.527   0.606  -2.648  1.00  0.00     0.274 HD
ENDBRANCH  18  19
ENDBRANCH   1  18
TORSDOF 5
ENDMDL
MODEL 3
REMARK VINA RESULT: -5.391461633      0.084      1.194
REMARK  5 active torsions:
REMARK  status: ('A' for Active; 'I' for Inactive)
REMARK    1  A    between atoms: N1_1  and  C1_5 
REMARK    2  A    between atoms: C1_5  and  C2_6 
REMARK    3  A    between atoms: C5_9  and  C6_10 
REMARK    4  A    between atoms: C6_10  and  N2_11 
REMARK    5  A    between atoms: N2_11  and  C7_13 
ROOT
HETATM    1  C2  UNL     1     -40.645   3.426  -1.963  1.00  0.00    -0.033 A 
HETATM    2  C3  UNL     1     -41.107   4.384  -1.085  1.00  0.00     0.009 A 
HETATM    3  C4  UNL     1     -41.644   5.563  -1.577  1.00  0.00     0.009 A 
HETATM    4  C5  UNL     1     -41.723   5.793  -2.930  1.00  0.00    -0.040 A 
HETATM    5  C11 UNL     1     -41.261   4.837  -3.811  1.00  0.00     0.009 A 
HETATM    6  C12 UNL     1     -40.726   3.660  -3.326  1.00  0.00     0.009 A 
ENDROOT
BRANCH   4   7
HETATM    7  C6  UNL     1     -42.309   7.077  -3.377  1.00  0.00     0.176 C 
BRANCH   7   8
HETATM    8  N2  UNL     1     -42.303   8.060  -2.313  1.00  0.00    -0.222 N 
ATOM      9  H2  UNL     1     -41.424   8.388  -1.914  1.00  0.00     0.178 HD
BRANCH   8  10
HETATM   10  C7  UNL     1     -43.422   8.507  -1.883  1.00  0.00     0.677 A 
HETATM   11  N3  UNL     1     -43.506   9.164  -0.722  1.00  0.00    -0.202 N 
HETATM   12  C8  UNL     1     -44.703   9.636  -0.274  1.00  0.00     0.107 A 
ATOM     13  H3  UNL     1     -42.665   9.314  -0.165  1.00  0.00     0.183 HD
HETATM   14  C9  UNL     1     -45.840   9.428  -1.036  1.00  0.00     0.035 A 
HETATM   15  C10 UNL     1     -45.744   8.752  -2.228  1.00  0.00     0.107 A 
HETATM   16  N4  UNL     1     -44.525   8.311  -2.612  1.00  0.00    -0.202 N 
ATOM     17  H4  UNL     1     -44.443   7.807  -3.495  1.00  0.00     0.183 HD
ENDBRANCH   8  10
ENDBRANCH   7   8
ENDBRANCH   4   7
BRANCH   1  18
HETATM   18  C1  UNL     1     -40.057   2.137  -1.471  1.00  0.00     0.268 C 
BRANCH  18  19
HETATM   19  N1  UNL     1     -39.219   1.614  -2.524  1.00  0.00    -0.075 N 
ATOM     20  H13 UNL     1     -38.760   2.345  -3.066  1.00  0.00     0.274 HD
ATOM     21  H12 UNL     1     -38.377   1.159  -2.173  1.00  0.00     0.274 HD
ATOM     22  H11 UNL     1     -39.796   0.998  -3.096  1.00  0.00     0.274 HD
ENDBRANCH  18  19
ENDBRANCH   1  18
TORSDOF 5
ENDMDL
MODEL 4
REMARK VINA RESULT: -5.381948280      1.991      7.139
REMARK  5 active torsions:
REMARK  status: ('A' for Active; 'I' for Inactive)
REMARK    1  A    between atoms: N1_1  and  C1_5 
REMARK    2  A    between atoms: C1_5  and  C2_6 
REMARK    3  A    between atoms: C5_9  and  C6_10 
REMARK    4  A    between atoms: C6_10  and  N2_11 
REMARK    5  A    between atoms: N2_11  and  C7_13 
ROOT
HETATM    1  C2  UNL     1     -47.505   9.887  -2.442  1.00  0.00    -0.033 A 
HETATM    2  C3  UNL     1     -46.938  10.492  -1.340  1.00  0.00     0.009 A 
HETATM    3  C4  UNL     1     -45.692  10.079  -0.895  1.00  0.00     0.009 A 
HETATM    4  C5  UNL     1     -45.011   9.071  -1.538  1.00  0.00    -0.040 A 
HETATM    5  C11 UNL     1     -45.577   8.464  -2.640  1.00  0.00     0.009 A 
HETATM    6  C12 UNL     1     -46.818   8.872  -3.087  1.00  0.00     0.009 A 
ENDROOT
BRANCH   4   7
HETATM    7  C6  UNL     1     -43.686   8.686  -1.002  1.00  0.00     0.176 C 
BRANCH   7   8
HETATM    8  N2  UNL     1     -42.724   8.486  -2.065  1.00  0.00    -0.222 N 
ATOM      9  H2  UNL     1     -42.416   9.268  -2.641  1.00  0.00     0.178 HD
BRANCH   8  10
HETATM   10  C7  UNL     1     -42.268   7.308  -2.266  1.00  0.00     0.677 A 
HETATM   11  N3  UNL     1     -41.980   6.877  -3.498  1.00  0.00    -0.202 N 
HETATM   12  C8  UNL     1     -41.495   5.620  -3.701  1.00  0.00     0.107 A 
ATOM     13  H3  UNL     1     -42.125   7.496  -4.296  1.00  0.00     0.183 HD
HETATM   14  C9  UNL     1     -41.301   4.786  -2.614  1.00  0.00     0.035 A 
HETATM   15  C10 UNL     1     -41.598   5.238  -1.351  1.00  0.00     0.107 A 
HETATM   16  N4  UNL     1     -42.077   6.496  -1.222  1.00  0.00    -0.202 N 
ATOM     17  H4  UNL     1     -42.302   6.840  -0.289  1.00  0.00     0.183 HD
ENDBRANCH   8  10
ENDBRANCH   7   8
ENDBRANCH   4   7
BRANCH   1  18
HETATM   18  C1  UNL     1     -48.851  10.305  -2.954  1.00  0.00     0.268 C 
BRANCH  18  19
HETATM   19  N1  UNL     1     -48.680  10.737  -4.320  1.00  0.00    -0.075 N 
ATOM     20  H13 UNL     1     -49.553  10.750  -4.846  1.00  0.00     0.274 HD
ATOM     21  H12 UNL     1     -48.462  11.730  -4.400  1.00  0.00     0.274 HD
ATOM     22  H11 UNL     1     -47.970  10.139  -4.743  1.00  0.00     0.274 HD
ENDBRANCH  18  19
ENDBRANCH   1  18
TORSDOF 5
ENDMDL
MODEL 5
REMARK VINA RESULT: -5.317917626      1.853      6.866
REMARK  5 active torsions:
REMARK  status: ('A' for Active; 'I' for Inactive)
REMARK    1  A    between atoms: N1_1  and  C1_5 
REMARK    2  A    between atoms: C1_5  and  C2_6 
REMARK    3  A    between atoms: C5_9  and  C6_10 
REMARK    4  A    between atoms: C6_10  and  N2_11 
REMARK    5  A    between atoms: N2_11  and  C7_13 
ROOT
HETATM    1  C2  UNL     1     -45.877   9.653  -1.391  1.00  0.00    -0.033 A 
HETATM    2  C3  UNL     1     -45.615   8.785  -2.430  1.00  0.00     0.009 A 
HETATM    3  C4  UNL     1     -44.435   8.058  -2.437  1.00  0.00     0.009 A 
HETATM    4  C5  UNL     1     -43.519   8.190  -1.420  1.00  0.00    -0.040 A 
HETATM    5  C11 UNL     1     -43.778   9.058  -0.379  1.00  0.00     0.009 A 
HETATM    6  C12 UNL     1     -44.952   9.784  -0.368  1.00  0.00     0.009 A 
ENDROOT
BRANCH   4   7
HETATM    7  C6  UNL     1     -42.283   7.379  -1.500  1.00  0.00     0.176 C 
BRANCH   7   8
HETATM    8  N2  UNL     1     -42.043   6.912  -2.849  1.00  0.00    -0.222 N 
ATOM      9  H2  UNL     1     -42.247   7.508  -3.650  1.00  0.00     0.178 HD
BRANCH   8  10
HETATM   10  C7  UNL     1     -41.569   5.735  -3.016  1.00  0.00     0.677 A 
HETATM   11  N3  UNL     1     -41.279   5.272  -4.235  1.00  0.00    -0.202 N 
HETATM   12  C8  UNL     1     -40.774   4.016  -4.401  1.00  0.00     0.107 A 
ATOM     13  H3  UNL     1     -41.437   5.863  -5.051  1.00  0.00     0.183 HD
HETATM   14  C9  UNL     1     -40.563   3.220  -3.289  1.00  0.00     0.035 A 
HETATM   15  C10 UNL     1     -40.863   3.705  -2.040  1.00  0.00     0.107 A 
HETATM   16  N4  UNL     1     -41.361   4.959  -1.948  1.00  0.00    -0.202 N 
ATOM     17  H4  UNL     1     -41.588   5.328  -1.024  1.00  0.00     0.183 HD
ENDBRANCH   8  10
ENDBRANCH   7   8
ENDBRANCH   4   7
BRANCH   1  18
HETATM   18  C1  UNL     1     -47.141  10.458  -1.347  1.00  0.00     0.268 C 
BRANCH  18  19
HETATM   19  N1  UNL     1     -46.772  11.831  -1.098  1.00  0.00    -0.075 N 
ATOM     20  H13 UNL     1     -46.590  12.355  -1.954  1.00  0.00     0.274 HD
ATOM     21  H12 UNL     1     -47.550  12.397  -0.758  1.00  0.00     0.274 HD
ATOM     22  H11 UNL     1     -45.977  11.823  -0.460  1.00  0.00     0.274 HD
ENDBRANCH  18  19
ENDBRANCH   1  18
TORSDOF 5
ENDMDL
