MODEL 1
REMARK VINA RESULT: -5.887506105      0.000      0.000
REMARK  5 active torsions:
REMARK  status: ('A' for Active; 'I' for Inactive)
REMARK    1  A    between atoms: O1_1  and  C1_3 
REMARK    2  A    between atoms: C1_3  and  C2_4 
REMARK    3  A    between atoms: C5_9  and  N2_10 
REMARK    4  A    between atoms: N2_10  and  C6_12 
REMARK    5  A    between atoms: C6_12  and  C7_13 
ROOT
HETATM    1  C2  UNL     1     -43.202   8.061  -1.328  1.00  0.00     0.106 A 
HETATM    2  N1  UNL     1     -42.721   8.250  -2.566  1.00  0.00    -0.354 N 
ATOM      3  H1  UNL     1     -42.944   9.108  -3.070  1.00  0.00     0.166 HD
HETATM    4  C3  UNL     1     -41.940   7.306  -3.152  1.00  0.00     0.093 A 
HETATM    5  C4  UNL     1     -41.619   6.129  -2.495  1.00  0.00     0.065 A 
HETATM    6  C5  UNL     1     -42.124   5.953  -1.223  1.00  0.00     0.103 A 
HETATM    7  N3  UNL     1     -42.905   6.931  -0.675  1.00  0.00    -0.331 N 
ATOM      8  H3  UNL     1     -43.275   6.794   0.265  1.00  0.00     0.168 HD
ENDROOT
BRANCH   6   9
HETATM    9  N2  UNL     1     -41.876   4.898  -0.552  1.00  0.00    -0.372 N 
ATOM     10  H2  UNL     1     -41.094   4.902   0.102  1.00  0.00     0.161 HD
BRANCH   9  11
HETATM   11  C6  UNL     1     -42.657   3.709  -0.687  1.00  0.00     0.159 C 
BRANCH  11  12
HETATM   12  C7  UNL     1     -43.414   3.393   0.543  1.00  0.00    -0.041 A 
HETATM   13  C8  UNL     1     -43.511   4.239   1.627  1.00  0.00     0.009 A 
HETATM   14  C9  UNL     1     -44.232   3.897   2.763  1.00  0.00     0.001 A 
HETATM   15  C10 UNL     1     -44.884   2.679   2.837  1.00  0.00     0.000 A 
HETATM   16  C11 UNL     1     -44.795   1.827   1.766  1.00  0.00     0.001 A 
HETATM   17  C12 UNL     1     -44.066   2.180   0.630  1.00  0.00     0.009 A 
ENDBRANCH  11  12
ENDBRANCH   9  11
ENDBRANCH   6   9
BRANCH   1  18
HETATM   18  C1  UNL     1     -44.056   9.130  -0.727  1.00  0.00     0.240 C 
BRANCH  18  19
HETATM   19  O1  UNL     1     -43.306   9.981   0.047  1.00  0.00    -0.393 OA
ATOM     20  H1  UNL     1     -43.644  10.868   0.002  1.00  0.00     0.209 HD
ENDBRANCH  18  19
ENDBRANCH   1  18
TORSDOF 5
ENDMDL
MODEL 2
REMARK VINA RESULT: -5.853048910      0.060      1.181
REMARK  5 active torsions:
REMARK  status: ('A' for Active; 'I' for Inactive)
REMARK    1  A    between atoms: O1_1  and  C1_3 
REMARK    2  A    between atoms: C1_3  and  C2_4 
REMARK    3  A    between atoms: C5_9  and  N2_10 
REMARK    4  A    between atoms: N2_10  and  C6_12 
REMARK    5  A    between atoms: C6_12  and  C7_13 
ROOT
HETATM    1  C2  UNL     1     -43.212   8.059  -1.328  1.00  0.00     0.106 A 
HETATM    2  N1  UNL     1     -42.717   8.226  -2.564  1.00  0.00    -0.354 N 
ATOM      3  H1  UNL     1     -42.923   9.081  -3.081  1.00  0.00     0.166 HD
HETATM    4  C3  UNL     1     -41.945   7.264  -3.131  1.00  0.00     0.093 A 
HETATM    5  C4  UNL     1     -41.647   6.091  -2.458  1.00  0.00     0.065 A 
HETATM    6  C5  UNL     1     -42.166   5.938  -1.189  1.00  0.00     0.103 A 
HETATM    7  N3  UNL     1     -42.938   6.933  -0.659  1.00  0.00    -0.331 N 
ATOM      8  H3  UNL     1     -43.318   6.813   0.279  1.00  0.00     0.168 HD
ENDROOT
BRANCH   6   9
HETATM    9  N2  UNL     1     -41.939   4.887  -0.503  1.00  0.00    -0.372 N 
ATOM     10  H2  UNL     1     -41.194   4.904   0.194  1.00  0.00     0.161 HD
BRANCH   9  11
HETATM   11  C6  UNL     1     -42.693   3.686  -0.678  1.00  0.00     0.159 C 
BRANCH  11  12
HETATM   12  C7  UNL     1     -43.453   3.319   0.536  1.00  0.00    -0.041 A 
HETATM   13  C8  UNL     1     -44.141   2.134   0.685  1.00  0.00     0.009 A 
HETATM   14  C9  UNL     1     -44.843   1.833   1.844  1.00  0.00     0.001 A 
HETATM   15  C10 UNL     1     -44.871   2.730   2.898  1.00  0.00     0.000 A 
HETATM   16  C11 UNL     1     -44.190   3.914   2.763  1.00  0.00     0.001 A 
HETATM   17  C12 UNL     1     -43.489   4.206   1.592  1.00  0.00     0.009 A 
ENDBRANCH  11  12
ENDBRANCH   9  11
ENDBRANCH   6   9
BRANCH   1  18
HETATM   18  C1  UNL     1     -44.056   9.147  -0.748  1.00  0.00     0.240 C 
BRANCH  18  19
HETATM   19  O1  UNL     1     -43.305   9.986   0.037  1.00  0.00    -0.393 OA
ATOM     20  H1  UNL     1     -43.807  10.750   0.295  1.00  0.00     0.209 HD
ENDBRANCH  18  19
ENDBRANCH   1  18
TORSDOF 5
ENDMDL
MODEL 3
REMARK VINA RESULT: -5.850123987      1.615      1.905
REMARK  5 active torsions:
REMARK  status: ('A' for Active; 'I' for Inactive)
REMARK    1  A    between atoms: O1_1  and  C1_3 
REMARK    2  A    between atoms: C1_3  and  C2_4 
REMARK    3  A    between atoms: C5_9  and  N2_10 
REMARK    4  A    between atoms: N2_10  and  C6_12 
REMARK    5  A    between atoms: C6_12  and  C7_13 
ROOT
HETATM    1  C2  UNL     1     -42.010   6.516  -2.647  1.00  0.00     0.106 A 
HETATM    2  N1  UNL     1     -41.523   6.149  -3.842  1.00  0.00    -0.354 N 
ATOM      3  H1  UNL     1     -41.491   6.826  -4.604  1.00  0.00     0.166 HD
HETATM    4  C3  UNL     1     -41.073   4.884  -4.043  1.00  0.00     0.093 A 
HETATM    5  C4  UNL     1     -41.103   3.940  -3.029  1.00  0.00     0.065 A 
HETATM    6  C5  UNL     1     -41.608   4.336  -1.808  1.00  0.00     0.103 A 
HETATM    7  N3  UNL     1     -42.049   5.620  -1.653  1.00  0.00    -0.331 N 
ATOM      8  H3  UNL     1     -42.420   5.905  -0.747  1.00  0.00     0.168 HD
ENDROOT
BRANCH   6   9
HETATM    9  N2  UNL     1     -41.670   3.528  -0.824  1.00  0.00    -0.372 N 
ATOM     10  H2  UNL     1     -40.928   3.544  -0.124  1.00  0.00     0.161 HD
BRANCH   9  11
HETATM   11  C6  UNL     1     -42.745   2.599  -0.669  1.00  0.00     0.159 C 
BRANCH  11  12
HETATM   12  C7  UNL     1     -43.476   2.794   0.601  1.00  0.00    -0.041 A 
HETATM   13  C8  UNL     1     -43.407   3.942   1.361  1.00  0.00     0.009 A 
HETATM   14  C9  UNL     1     -44.112   4.079   2.550  1.00  0.00     0.001 A 
HETATM   15  C10 UNL     1     -44.914   3.049   3.009  1.00  0.00     0.000 A 
HETATM   16  C11 UNL     1     -44.992   1.901   2.263  1.00  0.00     0.001 A 
HETATM   17  C12 UNL     1     -44.278   1.774   1.070  1.00  0.00     0.009 A 
ENDBRANCH  11  12
ENDBRANCH   9  11
ENDBRANCH   6   9
BRANCH   1  18
HETATM   18  C1  UNL     1     -42.492   7.919  -2.476  1.00  0.00     0.240 C 
BRANCH  18  19
HETATM   19  O1  UNL     1     -41.644   8.808  -3.089  1.00  0.00    -0.393 OA
ATOM     20  H1  UNL     1     -42.084   9.264  -3.798  1.00  0.00     0.209 HD
ENDBRANCH  18  19
ENDBRANCH   1  18
TORSDOF 5
ENDMDL
MODEL 4
REMARK VINA RESULT: -5.804308617      1.728      2.329
REMARK  5 active torsions:
REMARK  status: ('A' for Active; 'I' for Inactive)
REMARK    1  A    between atoms: O1_1  and  C1_3 
REMARK    2  A    between atoms: C1_3  and  C2_4 
REMARK    3  A    between atoms: C5_9  and  N2_10 
REMARK    4  A    between atoms: N2_10  and  C6_12 
REMARK    5  A    between atoms: C6_12  and  C7_13 
ROOT
HETATM    1  C2  UNL     1     -41.997   6.396  -2.856  1.00  0.00     0.106 A 
HETATM    2  N1  UNL     1     -41.419   5.987  -3.996  1.00  0.00    -0.354 N 
ATOM      3  H1  UNL     1     -41.340   6.631  -4.783  1.00  0.00     0.166 HD
HETATM    4  C3  UNL     1     -40.939   4.721  -4.108  1.00  0.00     0.093 A 
HETATM    5  C4  UNL     1     -41.031   3.822  -3.058  1.00  0.00     0.065 A 
HETATM    6  C5  UNL     1     -41.629   4.261  -1.895  1.00  0.00     0.103 A 
HETATM    7  N3  UNL     1     -42.097   5.543  -1.829  1.00  0.00    -0.331 N 
ATOM      8  H3  UNL     1     -42.539   5.861  -0.967  1.00  0.00     0.168 HD
ENDROOT
BRANCH   6   9
HETATM    9  N2  UNL     1     -41.753   3.495  -0.884  1.00  0.00    -0.372 N 
ATOM     10  H2  UNL     1     -41.029   3.504  -0.167  1.00  0.00     0.161 HD
BRANCH   9  11
HETATM   11  C6  UNL     1     -42.874   2.623  -0.722  1.00  0.00     0.159 C 
BRANCH  11  12
HETATM   12  C7  UNL     1     -43.546   2.809   0.581  1.00  0.00    -0.041 A 
HETATM   13  C8  UNL     1     -44.369   1.869   1.165  1.00  0.00     0.009 A 
HETATM   14  C9  UNL     1     -44.980   2.089   2.391  1.00  0.00     0.001 A 
HETATM   15  C10 UNL     1     -44.776   3.277   3.071  1.00  0.00     0.000 A 
HETATM   16  C11 UNL     1     -43.960   4.222   2.502  1.00  0.00     0.001 A 
HETATM   17  C12 UNL     1     -43.351   3.989   1.268  1.00  0.00     0.009 A 
ENDBRANCH  11  12
ENDBRANCH   9  11
ENDBRANCH   6   9
BRANCH   1  18
HETATM   18  C1  UNL     1     -42.509   7.798  -2.783  1.00  0.00     0.240 C 
BRANCH  18  19
HETATM   19  O1  UNL     1     -41.543   8.694  -3.168  1.00  0.00    -0.393 OA
ATOM     20  H1  UNL     1     -41.633   9.514  -2.696  1.00  0.00     0.209 HD
ENDBRANCH  18  19
ENDBRANCH   1  18
TORSDOF 5
ENDMDL
MODEL 5
REMARK VINA RESULT: -5.762308269      3.505      5.656
REMARK  5 active torsions:
REMARK  status: ('A' for Active; 'I' for Inactive)
REMARK    1  A    between atoms: O1_1  and  C1_3 
REMARK    2  A    between atoms: C1_3  and  C2_4 
REMARK    3  A    between atoms: C5_9  and  N2_10 
REMARK    4  A    between atoms: N2_10  and  C6_12 
REMARK    5  A    between atoms: C6_12  and  C7_13 
ROOT
HETATM    1  C2  UNL     1     -41.252   4.388  -3.556  1.00  0.00     0.106 A 
HETATM    2  N1  UNL     1     -41.201   3.507  -2.546  1.00  0.00    -0.354 N 
ATOM      3  H1  UNL     1     -41.046   2.518  -2.745  1.00  0.00     0.166 HD
HETATM    4  C3  UNL     1     -41.355   3.922  -1.263  1.00  0.00     0.093 A 
HETATM    5  C4  UNL     1     -41.567   5.257  -0.959  1.00  0.00     0.065 A 
HETATM    6  C5  UNL     1     -41.617   6.148  -2.011  1.00  0.00     0.103 A 
HETATM    7  N3  UNL     1     -41.457   5.683  -3.286  1.00  0.00    -0.331 N 
ATOM      8  H3  UNL     1     -41.495   6.347  -4.059  1.00  0.00     0.168 HD
ENDROOT
BRANCH   6   9
HETATM    9  N2  UNL     1     -41.809   7.393  -1.816  1.00  0.00    -0.372 N 
ATOM     10  H2  UNL     1     -41.293   7.861  -1.072  1.00  0.00     0.161 HD
BRANCH   9  11
HETATM   11  C6  UNL     1     -42.725   8.154  -2.606  1.00  0.00     0.159 C 
BRANCH  11  12
HETATM   12  C7  UNL     1     -43.921   8.563  -1.840  1.00  0.00    -0.041 A 
HETATM   13  C8  UNL     1     -45.206   8.524  -2.339  1.00  0.00     0.009 A 
HETATM   14  C9  UNL     1     -46.299   8.921  -1.581  1.00  0.00     0.001 A 
HETATM   15  C10 UNL     1     -46.126   9.372  -0.285  1.00  0.00     0.000 A 
HETATM   16  C11 UNL     1     -44.853   9.416   0.224  1.00  0.00     0.001 A 
HETATM   17  C12 UNL     1     -43.761   9.017  -0.547  1.00  0.00     0.009 A 
ENDBRANCH  11  12
ENDBRANCH   9  11
ENDBRANCH   6   9
BRANCH   1  18
HETATM   18  C1  UNL     1     -41.076   3.882  -4.951  1.00  0.00     0.240 C 
BRANCH  18  19
HETATM   19  O1  UNL     1     -42.072   4.349  -5.773  1.00  0.00    -0.393 OA
ATOM     20  H1  UNL     1     -41.901   4.119  -6.679  1.00  0.00     0.209 HD
ENDBRANCH  18  19
ENDBRANCH   1  18
TORSDOF 5
ENDMDL
