MODEL 1
REMARK VINA RESULT: -5.983336012      0.000      0.000
REMARK  3 active torsions:
REMARK  status: ('A' for Active; 'I' for Inactive)
REMARK    1  A    between atoms: C4_4  and  C5_5 
REMARK    2  A    between atoms: N1_6  and  N2_8 
REMARK    3  A    between atoms: C9_15  and  N5_16 
ROOT
HETATM    1  C1  UNL     1     -46.926  12.009  -1.195  1.00  0.00     0.050 C 
HETATM    2  C2  UNL     1     -46.539  10.849  -0.348  1.00  0.00    -0.035 A 
HETATM    3  C3  UNL     1     -45.492  10.049  -0.764  1.00  0.00     0.022 A 
HETATM    4  C4  UNL     1     -45.060   8.957  -0.054  1.00  0.00    -0.019 A 
HETATM    5  C7  UNL     1     -45.731   8.679   1.129  1.00  0.00     0.015 A 
HETATM    6  C8  UNL     1     -46.780   9.471   1.559  1.00  0.00     0.031 A 
HETATM    7  C9  UNL     1     -47.179  10.551   0.820  1.00  0.00     0.035 A 
ENDROOT
BRANCH   4   8
HETATM    8  C5  UNL     1     -43.956   8.141  -0.525  1.00  0.00     0.118 C 
HETATM    9  N1  UNL     1     -43.185   8.587  -1.442  1.00  0.00    -0.309 N 
ATOM     10  H1  UNL     1     -43.359   9.514  -1.830  1.00  0.00     0.186 HD
BRANCH   9  11
HETATM   11  N2  UNL     1     -42.114   7.840  -1.925  1.00  0.00    -0.276 N 
HETATM   12  C6  UNL     1     -42.081   7.458  -3.156  1.00  0.00     0.215 C 
HETATM   13  N3  UNL     1     -43.146   7.803  -4.025  1.00  0.00    -0.065 NA
HETATM   14  N4  UNL     1     -40.983   6.698  -3.633  1.00  0.00    -0.065 NA
ATOM     15  H2  UNL     1     -41.349   7.591  -1.298  1.00  0.00     0.189 HD
ENDBRANCH   9  11
ENDBRANCH   4   8
BRANCH   7  16
HETATM   16  N5  UNL     1     -48.252  11.336   1.287  1.00  0.00    -0.389 N 
HETATM   17  C10 UNL     1     -47.973  12.564   2.005  1.00  0.00     0.149 C 
HETATM   18  C11 UNL     1     -49.591  10.890   1.034  1.00  0.00     0.149 C 
ENDBRANCH   7  16
TORSDOF 3
ENDMDL
MODEL 2
REMARK VINA RESULT: -5.592941022      0.408      1.941
REMARK  3 active torsions:
REMARK  status: ('A' for Active; 'I' for Inactive)
REMARK    1  A    between atoms: C4_4  and  C5_5 
REMARK    2  A    between atoms: N1_6  and  N2_8 
REMARK    3  A    between atoms: C9_15  and  N5_16 
ROOT
HETATM    1  C1  UNL     1     -47.540   8.854   2.632  1.00  0.00     0.050 C 
HETATM    2  C2  UNL     1     -46.854   9.307   1.392  1.00  0.00    -0.035 A 
HETATM    3  C3  UNL     1     -45.783   8.570   0.924  1.00  0.00     0.022 A 
HETATM    4  C4  UNL     1     -45.085   8.905  -0.209  1.00  0.00    -0.019 A 
HETATM    5  C7  UNL     1     -45.507  10.041  -0.886  1.00  0.00     0.015 A 
HETATM    6  C8  UNL     1     -46.577  10.789  -0.430  1.00  0.00     0.031 A 
HETATM    7  C9  UNL     1     -47.245  10.419   0.705  1.00  0.00     0.035 A 
ENDROOT
BRANCH   4   8
HETATM    8  C5  UNL     1     -43.965   8.104  -0.668  1.00  0.00     0.118 C 
HETATM    9  N1  UNL     1     -43.166   8.578  -1.546  1.00  0.00    -0.309 N 
ATOM     10  H1  UNL     1     -43.329   9.515  -1.912  1.00  0.00     0.186 HD
BRANCH   9  11
HETATM   11  N2  UNL     1     -42.079   7.846  -2.016  1.00  0.00    -0.276 N 
HETATM   12  C6  UNL     1     -42.037   7.441  -3.239  1.00  0.00     0.215 C 
HETATM   13  N3  UNL     1     -43.111   7.744  -4.113  1.00  0.00    -0.065 NA
HETATM   14  N4  UNL     1     -40.923   6.697  -3.703  1.00  0.00    -0.065 NA
ATOM     15  H2  UNL     1     -41.307   7.627  -1.386  1.00  0.00     0.189 HD
ENDBRANCH   9  11
ENDBRANCH   4   8
BRANCH   7  16
HETATM   16  N5  UNL     1     -48.332  11.204   1.141  1.00  0.00    -0.389 N 
HETATM   17  C10 UNL     1     -49.678  10.828   0.759  1.00  0.00     0.149 C 
HETATM   18  C11 UNL     1     -48.065  12.355   1.953  1.00  0.00     0.149 C 
ENDBRANCH   7  16
TORSDOF 3
ENDMDL
MODEL 3
REMARK VINA RESULT: -5.450531624      1.892      2.952
REMARK  3 active torsions:
REMARK  status: ('A' for Active; 'I' for Inactive)
REMARK    1  A    between atoms: C4_4  and  C5_5 
REMARK    2  A    between atoms: N1_6  and  N2_8 
REMARK    3  A    between atoms: C9_15  and  N5_16 
ROOT
HETATM    1  C1  UNL     1     -46.919   8.878  -3.091  1.00  0.00     0.050 C 
HETATM    2  C2  UNL     1     -45.723   8.891  -2.207  1.00  0.00    -0.035 A 
HETATM    3  C3  UNL     1     -44.614   8.159  -2.587  1.00  0.00     0.022 A 
HETATM    4  C4  UNL     1     -43.463   8.105  -1.841  1.00  0.00    -0.019 A 
HETATM    5  C7  UNL     1     -43.455   8.834  -0.659  1.00  0.00     0.015 A 
HETATM    6  C8  UNL     1     -44.557   9.571  -0.266  1.00  0.00     0.031 A 
HETATM    7  C9  UNL     1     -45.684   9.596  -1.040  1.00  0.00     0.035 A 
ENDROOT
BRANCH   4   8
HETATM    8  C5  UNL     1     -42.320   7.324  -2.275  1.00  0.00     0.118 C 
HETATM    9  N1  UNL     1     -42.259   6.909  -3.482  1.00  0.00    -0.309 N 
ATOM     10  H1  UNL     1     -43.018   7.133  -4.124  1.00  0.00     0.186 HD
BRANCH   9  11
HETATM   11  N2  UNL     1     -41.181   6.157  -3.942  1.00  0.00    -0.276 N 
HETATM   12  C6  UNL     1     -41.364   4.983  -4.443  1.00  0.00     0.215 C 
HETATM   13  N3  UNL     1     -42.677   4.453  -4.524  1.00  0.00    -0.065 NA
HETATM   14  N4  UNL     1     -40.258   4.229  -4.908  1.00  0.00    -0.065 NA
ATOM     15  H2  UNL     1     -40.237   6.538  -3.883  1.00  0.00     0.189 HD
ENDBRANCH   9  11
ENDBRANCH   4   8
BRANCH   7  16
HETATM   16  N5  UNL     1     -46.789  10.358  -0.608  1.00  0.00    -0.389 N 
HETATM   17  C10 UNL     1     -47.825   9.723   0.181  1.00  0.00     0.149 C 
HETATM   18  C11 UNL     1     -46.849  11.745  -0.967  1.00  0.00     0.149 C 
ENDBRANCH   7  16
TORSDOF 3
ENDMDL
MODEL 4
REMARK VINA RESULT: -5.418077922      5.270     10.275
REMARK  3 active torsions:
REMARK  status: ('A' for Active; 'I' for Inactive)
REMARK    1  A    between atoms: C4_4  and  C5_5 
REMARK    2  A    between atoms: N1_6  and  N2_8 
REMARK    3  A    between atoms: C9_15  and  N5_16 
ROOT
HETATM    1  C1  UNL     1     -38.595   0.684  -1.330  1.00  0.00     0.050 C 
HETATM    2  C2  UNL     1     -39.319   1.682  -2.163  1.00  0.00    -0.035 A 
HETATM    3  C3  UNL     1     -40.059   2.659  -1.526  1.00  0.00     0.022 A 
HETATM    4  C4  UNL     1     -40.762   3.624  -2.204  1.00  0.00    -0.019 A 
HETATM    5  C7  UNL     1     -40.697   3.580  -3.590  1.00  0.00     0.015 A 
HETATM    6  C8  UNL     1     -39.960   2.609  -4.242  1.00  0.00     0.031 A 
HETATM    7  C9  UNL     1     -39.275   1.665  -3.527  1.00  0.00     0.035 A 
ENDROOT
BRANCH   4   8
HETATM    8  C5  UNL     1     -41.528   4.634  -1.498  1.00  0.00     0.118 C 
HETATM    9  N1  UNL     1     -41.776   5.752  -2.066  1.00  0.00    -0.309 N 
ATOM     10  H1  UNL     1     -41.430   5.918  -3.010  1.00  0.00     0.186 HD
BRANCH   9  11
HETATM   11  N2  UNL     1     -42.507   6.750  -1.427  1.00  0.00    -0.276 N 
HETATM   12  C6  UNL     1     -42.674   7.901  -1.983  1.00  0.00     0.215 C 
HETATM   13  N3  UNL     1     -42.106   8.153  -3.256  1.00  0.00    -0.065 NA
HETATM   14  N4  UNL     1     -43.422   8.907  -1.320  1.00  0.00    -0.065 NA
ATOM     15  H2  UNL     1     -42.915   6.569  -0.510  1.00  0.00     0.189 HD
ENDBRANCH   9  11
ENDBRANCH   4   8
BRANCH   7  16
HETATM   16  N5  UNL     1     -38.533   0.689  -4.223  1.00  0.00    -0.389 N 
HETATM   17  C10 UNL     1     -37.133   0.930  -4.507  1.00  0.00     0.149 C 
HETATM   18  C11 UNL     1     -39.195  -0.517  -4.629  1.00  0.00     0.149 C 
ENDBRANCH   7  16
TORSDOF 3
ENDMDL
MODEL 5
REMARK VINA RESULT: -5.381440875      3.564      8.416
REMARK  3 active torsions:
REMARK  status: ('A' for Active; 'I' for Inactive)
REMARK    1  A    between atoms: C4_4  and  C5_5 
REMARK    2  A    between atoms: N1_6  and  N2_8 
REMARK    3  A    between atoms: C9_15  and  N5_16 
ROOT
HETATM    1  C1  UNL     1     -41.407   4.374  -5.208  1.00  0.00     0.050 C 
HETATM    2  C2  UNL     1     -41.306   4.459  -3.726  1.00  0.00    -0.035 A 
HETATM    3  C3  UNL     1     -41.724   5.621  -3.103  1.00  0.00     0.022 A 
HETATM    4  C4  UNL     1     -41.671   5.798  -1.743  1.00  0.00    -0.019 A 
HETATM    5  C7  UNL     1     -41.172   4.738  -0.997  1.00  0.00     0.015 A 
HETATM    6  C8  UNL     1     -40.752   3.570  -1.606  1.00  0.00     0.031 A 
HETATM    7  C9  UNL     1     -40.820   3.436  -2.965  1.00  0.00     0.035 A 
ENDROOT
BRANCH   4   8
HETATM    8  C5  UNL     1     -42.119   7.033  -1.126  1.00  0.00     0.118 C 
HETATM    9  N1  UNL     1     -43.031   7.728  -1.691  1.00  0.00    -0.309 N 
ATOM     10  H1  UNL     1     -43.432   7.401  -2.569  1.00  0.00     0.186 HD
BRANCH   9  11
HETATM   11  N2  UNL     1     -43.492   8.919  -1.136  1.00  0.00    -0.276 N 
HETATM   12  C6  UNL     1     -44.756   9.154  -1.039  1.00  0.00     0.215 C 
HETATM   13  N3  UNL     1     -45.685   8.190  -1.505  1.00  0.00    -0.065 NA
HETATM   14  N4  UNL     1     -45.209  10.371  -0.472  1.00  0.00    -0.065 NA
ATOM     15  H2  UNL     1     -42.822   9.612  -0.802  1.00  0.00     0.189 HD
ENDBRANCH   9  11
ENDBRANCH   4   8
BRANCH   7  16
HETATM   16  N5  UNL     1     -40.383   2.232  -3.554  1.00  0.00    -0.389 N 
HETATM   17  C10 UNL     1     -39.047   2.158  -4.111  1.00  0.00     0.149 C 
HETATM   18  C11 UNL     1     -41.281   1.114  -3.579  1.00  0.00     0.149 C 
ENDBRANCH   7  16
TORSDOF 3
ENDMDL
