MODEL 1
REMARK VINA RESULT: -6.963242337      0.000      0.000
REMARK  5 active torsions:
REMARK  status: ('A' for Active; 'I' for Inactive)
REMARK       I    between atoms: N1_2  and  C2_4 
REMARK       I    between atoms: C2_4  and  N2_6 
REMARK    1  A    between atoms: N2_6  and  C3_8 
REMARK    2  A    between atoms: C3_8  and  N3_10 
REMARK    3  A    between atoms: N3_10  and  C5_12 
REMARK    4  A    between atoms: C5_12  and  O2_13 
REMARK    5  A    between atoms: C5_12  and  C6_15 
ROOT
HETATM    1  N3  UNL     1      11.734   6.929  11.539  1.00  0.00    -0.308 N 
HETATM    2  C4  UNL     1      11.267   7.008  12.891  1.00  0.00     0.161 C 
ENDROOT
BRANCH   1   3
HETATM    3  C3  UNL     1      11.836   5.620  10.986  1.00  0.00     0.183 C 
HETATM    4  S1  UNL     1      13.210   4.782  11.191  1.00  0.00    -0.040 SA
BRANCH   3   5
HETATM    5  N2  UNL     1      10.784   5.016  10.291  1.00  0.00    -0.285 N 
HETATM    6  C2  UNL     1      10.689   5.099   8.850  1.00  0.00     0.322 C 
HETATM    7  N1  UNL     1       9.610   4.477   8.158  1.00  0.00    -0.347 N 
HETATM    8  O1  UNL     1      11.554   5.720   8.174  1.00  0.00    -0.247 OA
HETATM    9  C1  UNL     1       9.555   4.585   6.726  1.00  0.00     0.151 C 
ATOM     10  H1  UNL     1       8.892   3.965   8.668  1.00  0.00     0.163 HD
ATOM     11  H2  UNL     1      10.069   4.505  10.810  1.00  0.00     0.173 HD
ENDBRANCH   3   5
ENDBRANCH   1   3
BRANCH   1  12
HETATM   12  C5  UNL     1      11.974   8.048  10.747  1.00  0.00     0.154 C 
BRANCH  12  13
HETATM   13  O2  UNL     1      11.113   8.345   9.809  1.00  0.00    -0.345 OA
ATOM     14  H2  UNL     1      10.259   8.673  10.065  1.00  0.00     0.219 HD
ENDBRANCH  12  13
BRANCH  12  15
HETATM   15  C6  UNL     1      13.078   8.959  10.818  1.00  0.00     0.015 A 
HETATM   16  C7  UNL     1      14.358   8.628  11.173  1.00  0.00     0.016 A 
HETATM   17  C8  UNL     1      15.323   9.640  11.279  1.00  0.00     0.001 A 
HETATM   18  C9  UNL     1      15.034  10.962  11.039  1.00  0.00     0.000 A 
HETATM   19  C10 UNL     1      13.743  11.287  10.681  1.00  0.00     0.001 A 
HETATM   20  C11 UNL     1      12.784  10.321  10.570  1.00  0.00     0.016 A 
ENDBRANCH  12  15
ENDBRANCH   1  12
TORSDOF 5
ENDMDL
MODEL 2
REMARK VINA RESULT: -6.955526347      1.967      2.871
REMARK  5 active torsions:
REMARK  status: ('A' for Active; 'I' for Inactive)
REMARK       I    between atoms: N1_2  and  C2_4 
REMARK       I    between atoms: C2_4  and  N2_6 
REMARK    1  A    between atoms: N2_6  and  C3_8 
REMARK    2  A    between atoms: C3_8  and  N3_10 
REMARK    3  A    between atoms: N3_10  and  C5_12 
REMARK    4  A    between atoms: C5_12  and  O2_13 
REMARK    5  A    between atoms: C5_12  and  C6_15 
ROOT
HETATM    1  N3  UNL     1      12.986   8.816  10.468  1.00  0.00    -0.308 N 
HETATM    2  C4  UNL     1      12.400  10.046  10.024  1.00  0.00     0.161 C 
ENDROOT
BRANCH   1   3
HETATM    3  C3  UNL     1      12.077   7.771  10.799  1.00  0.00     0.183 C 
HETATM    4  S1  UNL     1      11.995   7.254  12.335  1.00  0.00    -0.040 SA
BRANCH   3   5
HETATM    5  N2  UNL     1      11.230   7.185   9.853  1.00  0.00    -0.285 N 
HETATM    6  C2  UNL     1      11.683   6.105   9.005  1.00  0.00     0.322 C 
HETATM    7  N1  UNL     1      10.807   5.520   8.046  1.00  0.00    -0.347 N 
HETATM    8  O1  UNL     1      12.858   5.656   9.092  1.00  0.00    -0.247 OA
HETATM    9  C1  UNL     1      11.298   4.449   7.225  1.00  0.00     0.151 C 
ATOM     10  H1  UNL     1       9.849   5.855   7.946  1.00  0.00     0.163 HD
ATOM     11  H2  UNL     1      10.273   7.527   9.759  1.00  0.00     0.173 HD
ENDBRANCH   3   5
ENDBRANCH   1   3
BRANCH   1  12
HETATM   12  C5  UNL     1      14.359   8.585  10.477  1.00  0.00     0.154 C 
BRANCH  12  13
HETATM   13  O2  UNL     1      14.848   7.695   9.654  1.00  0.00    -0.345 OA
ATOM     14  H2  UNL     1      15.300   7.998   8.875  1.00  0.00     0.219 HD
ENDBRANCH  12  13
BRANCH  12  15
HETATM   15  C6  UNL     1      15.353   9.211  11.298  1.00  0.00     0.015 A 
HETATM   16  C7  UNL     1      15.406  10.544  11.602  1.00  0.00     0.016 A 
HETATM   17  C8  UNL     1      16.485  11.034  12.352  1.00  0.00     0.001 A 
HETATM   18  C9  UNL     1      17.500  10.222  12.799  1.00  0.00     0.000 A 
HETATM   19  C10 UNL     1      17.439   8.880  12.489  1.00  0.00     0.001 A 
HETATM   20  C11 UNL     1      16.399   8.378  11.760  1.00  0.00     0.016 A 
ENDBRANCH  12  15
ENDBRANCH   1  12
TORSDOF 5
ENDMDL
MODEL 3
REMARK VINA RESULT: -6.926624694      0.150      1.160
REMARK  5 active torsions:
REMARK  status: ('A' for Active; 'I' for Inactive)
REMARK       I    between atoms: N1_2  and  C2_4 
REMARK       I    between atoms: C2_4  and  N2_6 
REMARK    1  A    between atoms: N2_6  and  C3_8 
REMARK    2  A    between atoms: C3_8  and  N3_10 
REMARK    3  A    between atoms: N3_10  and  C5_12 
REMARK    4  A    between atoms: C5_12  and  O2_13 
REMARK    5  A    between atoms: C5_12  and  C6_15 
ROOT
HETATM    1  N3  UNL     1      11.781   6.999  11.610  1.00  0.00    -0.308 N 
HETATM    2  C4  UNL     1      11.340   7.058  12.971  1.00  0.00     0.161 C 
ENDROOT
BRANCH   1   3
HETATM    3  C3  UNL     1      11.917   5.696  11.049  1.00  0.00     0.183 C 
HETATM    4  S1  UNL     1      13.335   4.921  11.190  1.00  0.00    -0.040 SA
BRANCH   3   5
HETATM    5  N2  UNL     1      10.863   5.046  10.400  1.00  0.00    -0.285 N 
HETATM    6  C2  UNL     1      10.718   5.099   8.963  1.00  0.00     0.322 C 
HETATM    7  N1  UNL     1       9.638   4.431   8.318  1.00  0.00    -0.347 N 
HETATM    8  O1  UNL     1      11.539   5.735   8.247  1.00  0.00    -0.247 OA
HETATM    9  C1  UNL     1       9.533   4.510   6.887  1.00  0.00     0.151 C 
ATOM     10  H1  UNL     1       8.954   3.905   8.861  1.00  0.00     0.163 HD
ATOM     11  H2  UNL     1      10.183   4.523  10.952  1.00  0.00     0.173 HD
ENDBRANCH   3   5
ENDBRANCH   1   3
BRANCH   1  12
HETATM   12  C5  UNL     1      11.967   8.129  10.817  1.00  0.00     0.154 C 
BRANCH  12  13
HETATM   13  O2  UNL     1      11.142   8.337   9.825  1.00  0.00    -0.345 OA
ATOM     14  H2  UNL     1      10.857   9.227   9.650  1.00  0.00     0.219 HD
ENDBRANCH  12  13
BRANCH  12  15
HETATM   15  C6  UNL     1      12.976   9.138  10.943  1.00  0.00     0.015 A 
HETATM   16  C7  UNL     1      12.800  10.472  10.698  1.00  0.00     0.016 A 
HETATM   17  C8  UNL     1      13.901  11.336  10.783  1.00  0.00     0.001 A 
HETATM   18  C9  UNL     1      15.162  10.894  11.106  1.00  0.00     0.000 A 
HETATM   19  C10 UNL     1      15.331   9.549  11.353  1.00  0.00     0.001 A 
HETATM   20  C11 UNL     1      14.276   8.686  11.277  1.00  0.00     0.016 A 
ENDBRANCH  12  15
ENDBRANCH   1  12
TORSDOF 5
ENDMDL
MODEL 4
REMARK VINA RESULT: -6.827623630      1.794      2.333
REMARK  5 active torsions:
REMARK  status: ('A' for Active; 'I' for Inactive)
REMARK       I    between atoms: N1_2  and  C2_4 
REMARK       I    between atoms: C2_4  and  N2_6 
REMARK    1  A    between atoms: N2_6  and  C3_8 
REMARK    2  A    between atoms: C3_8  and  N3_10 
REMARK    3  A    between atoms: N3_10  and  C5_12 
REMARK    4  A    between atoms: C5_12  and  O2_13 
REMARK    5  A    between atoms: C5_12  and  C6_15 
ROOT
HETATM    1  N3  UNL     1      13.393   7.835  10.196  1.00  0.00    -0.308 N 
HETATM    2  C4  UNL     1      14.297   6.937   9.541  1.00  0.00     0.161 C 
ENDROOT
BRANCH   1   3
HETATM    3  C3  UNL     1      12.203   7.255  10.723  1.00  0.00     0.183 C 
HETATM    4  S1  UNL     1      11.961   7.271  12.327  1.00  0.00    -0.040 SA
BRANCH   3   5
HETATM    5  N2  UNL     1      11.218   6.691   9.906  1.00  0.00    -0.285 N 
HETATM    6  C2  UNL     1      11.090   5.258   9.763  1.00  0.00     0.322 C 
HETATM    7  N1  UNL     1      10.080   4.701   8.926  1.00  0.00    -0.347 N 
HETATM    8  O1  UNL     1      11.864   4.470  10.371  1.00  0.00    -0.247 OA
HETATM    9  C1  UNL     1       9.989   3.271   8.813  1.00  0.00     0.151 C 
ATOM     10  H1  UNL     1       9.435   5.304   8.418  1.00  0.00     0.163 HD
ATOM     11  H2  UNL     1      10.576   7.304   9.401  1.00  0.00     0.173 HD
ENDBRANCH   3   5
ENDBRANCH   1   3
BRANCH   1  12
HETATM   12  C5  UNL     1      13.680   9.178  10.422  1.00  0.00     0.154 C 
BRANCH  12  13
HETATM   13  O2  UNL     1      12.851  10.080   9.967  1.00  0.00    -0.345 OA
ATOM     14  H2  UNL     1      12.970  10.399   9.080  1.00  0.00     0.219 HD
ENDBRANCH  12  13
BRANCH  12  15
HETATM   15  C6  UNL     1      14.805   9.734  11.114  1.00  0.00     0.015 A 
HETATM   16  C7  UNL     1      15.772   9.016  11.763  1.00  0.00     0.016 A 
HETATM   17  C8  UNL     1      16.774   9.697  12.469  1.00  0.00     0.001 A 
HETATM   18  C9  UNL     1      16.826  11.070  12.535  1.00  0.00     0.000 A 
HETATM   19  C10 UNL     1      15.851  11.786  11.877  1.00  0.00     0.001 A 
HETATM   20  C11 UNL     1      14.863  11.147  11.182  1.00  0.00     0.016 A 
ENDBRANCH  12  15
ENDBRANCH   1  12
TORSDOF 5
ENDMDL
MODEL 5
REMARK VINA RESULT: -6.768913462      1.230      1.658
REMARK  5 active torsions:
REMARK  status: ('A' for Active; 'I' for Inactive)
REMARK       I    between atoms: N1_2  and  C2_4 
REMARK       I    between atoms: C2_4  and  N2_6 
REMARK    1  A    between atoms: N2_6  and  C3_8 
REMARK    2  A    between atoms: C3_8  and  N3_10 
REMARK    3  A    between atoms: N3_10  and  C5_12 
REMARK    4  A    between atoms: C5_12  and  O2_13 
REMARK    5  A    between atoms: C5_12  and  C6_15 
ROOT
HETATM    1  N3  UNL     1      12.305   6.709  11.137  1.00  0.00    -0.308 N 
HETATM    2  C4  UNL     1      11.723   7.073  12.394  1.00  0.00     0.161 C 
ENDROOT
BRANCH   1   3
HETATM    3  C3  UNL     1      11.759   5.557  10.502  1.00  0.00     0.183 C 
HETATM    4  S1  UNL     1      12.227   4.085  11.001  1.00  0.00    -0.040 SA
BRANCH   3   5
HETATM    5  N2  UNL     1      10.812   5.643   9.477  1.00  0.00    -0.285 N 
HETATM    6  C2  UNL     1      11.194   5.522   8.088  1.00  0.00     0.322 C 
HETATM    7  N1  UNL     1      10.215   5.612   7.057  1.00  0.00    -0.347 N 
HETATM    8  O1  UNL     1      12.396   5.335   7.756  1.00  0.00    -0.247 OA
HETATM    9  C1  UNL     1      10.640   5.487   5.690  1.00  0.00     0.151 C 
ATOM     10  H1  UNL     1       9.233   5.763   7.284  1.00  0.00     0.163 HD
ATOM     11  H2  UNL     1       9.831   5.794   9.715  1.00  0.00     0.173 HD
ENDBRANCH   3   5
ENDBRANCH   1   3
BRANCH   1  12
HETATM   12  C5  UNL     1      13.269   7.478  10.490  1.00  0.00     0.154 C 
BRANCH  12  13
HETATM   13  O2  UNL     1      13.924   6.948   9.491  1.00  0.00    -0.345 OA
ATOM     14  H2  UNL     1      13.458   6.785   8.679  1.00  0.00     0.219 HD
ENDBRANCH  12  13
BRANCH  12  15
HETATM   15  C6  UNL     1      13.660   8.826  10.778  1.00  0.00     0.015 A 
HETATM   16  C7  UNL     1      12.948   9.947  10.448  1.00  0.00     0.016 A 
HETATM   17  C8  UNL     1      13.493  11.210  10.721  1.00  0.00     0.001 A 
HETATM   18  C9  UNL     1      14.723  11.370  11.314  1.00  0.00     0.000 A 
HETATM   19  C10 UNL     1      15.432  10.236  11.646  1.00  0.00     0.001 A 
HETATM   20  C11 UNL     1      14.926   8.994  11.390  1.00  0.00     0.016 A 
ENDBRANCH  12  15
ENDBRANCH   1  12
TORSDOF 5
ENDMDL
