MODEL 1
REMARK VINA RESULT: -7.090345696      0.000      0.000
REMARK  2 active torsions:
REMARK  status: ('A' for Active; 'I' for Inactive)
REMARK       I    between atoms: C1_2  and  N1_3 
REMARK       I    between atoms: C1_2  and  N2_17 
REMARK    1  A    between atoms: N1_3  and  C2_5 
REMARK    2  A    between atoms: C9_12  and  O2_13 
ROOT
HETATM    1  C2  UNL     1      12.131   6.719   9.477  1.00  0.00     0.094 C 
HETATM    2  C3  UNL     1      11.925   7.754  10.556  1.00  0.00     0.012 C 
HETATM    3  C4  UNL     1      12.906   8.888  10.343  1.00  0.00     0.011 C 
HETATM    4  C5  UNL     1      14.309   8.324  10.442  1.00  0.00    -0.011 C 
HETATM    5  C6  UNL     1      14.527   7.197   9.461  1.00  0.00     0.011 C 
HETATM    6  C7  UNL     1      13.501   6.112   9.677  1.00  0.00     0.012 C 
HETATM    7  C8  UNL     1      13.634   5.530  11.046  1.00  0.00     0.044 C 
HETATM    8  C9  UNL     1      13.528   6.634  12.061  1.00  0.00     0.059 C 
HETATM    9  C10 UNL     1      14.508   7.746  11.834  1.00  0.00     0.042 C 
HETATM   10  C11 UNL     1      12.131   7.219  11.939  1.00  0.00     0.044 C 
ENDROOT
BRANCH   1  11
HETATM   11  N1  UNL     1      11.089   5.753   9.406  1.00  0.00    -0.338 N 
HETATM   12  C1  UNL     1      10.598   5.288   8.162  1.00  0.00     0.318 C 
HETATM   13  O1  UNL     1      11.102   5.749   7.079  1.00  0.00    -0.247 OA
HETATM   14  N2  UNL     1       9.564   4.328   8.049  1.00  0.00    -0.334 N 
HETATM   15  C12 UNL     1       8.755   3.584   8.988  1.00  0.00     0.129 C 
HETATM   16  C14 UNL     1       8.858   3.667   6.976  1.00  0.00     0.129 C 
HETATM   17  C13 UNL     1       7.701   3.447   7.904  1.00  0.00     0.040 C 
ATOM     18  H1  UNL     1      10.688   5.386  10.269  1.00  0.00     0.164 HD
ENDBRANCH   1  11
BRANCH   8  19
HETATM   19  O2  UNL     1      13.728   6.104  13.322  1.00  0.00    -0.390 OA
ATOM     20  H2  UNL     1      13.599   6.788  13.968  1.00  0.00     0.210 HD
ENDBRANCH   8  19
TORSDOF 2
ENDMDL
MODEL 2
REMARK VINA RESULT: -6.727503911      1.631      2.737
REMARK  2 active torsions:
REMARK  status: ('A' for Active; 'I' for Inactive)
REMARK       I    between atoms: C1_2  and  N1_3 
REMARK       I    between atoms: C1_2  and  N2_17 
REMARK    1  A    between atoms: N1_3  and  C2_5 
REMARK    2  A    between atoms: C9_12  and  O2_13 
ROOT
HETATM    1  C2  UNL     1      12.075   5.628  10.004  1.00  0.00     0.094 C 
HETATM    2  C3  UNL     1      13.582   5.623  10.084  1.00  0.00     0.012 C 
HETATM    3  C4  UNL     1      13.996   5.408  11.525  1.00  0.00     0.011 C 
HETATM    4  C5  UNL     1      13.448   6.556  12.350  1.00  0.00    -0.011 C 
HETATM    5  C6  UNL     1      11.951   6.679  12.206  1.00  0.00     0.011 C 
HETATM    6  C7  UNL     1      11.578   6.843  10.753  1.00  0.00     0.012 C 
HETATM    7  C8  UNL     1      12.175   8.095  10.197  1.00  0.00     0.044 C 
HETATM    8  C9  UNL     1      13.663   8.068  10.412  1.00  0.00     0.059 C 
HETATM    9  C10 UNL     1      14.052   7.856  11.844  1.00  0.00     0.042 C 
HETATM   10  C11 UNL     1      14.207   6.898   9.609  1.00  0.00     0.044 C 
ENDROOT
BRANCH   1  11
HETATM   11  N1  UNL     1      11.573   5.538   8.676  1.00  0.00    -0.338 N 
HETATM   12  C1  UNL     1      10.386   4.824   8.382  1.00  0.00     0.318 C 
HETATM   13  O1  UNL     1       9.753   4.247   9.333  1.00  0.00    -0.247 OA
HETATM   14  N2  UNL     1       9.855   4.711   7.075  1.00  0.00    -0.334 N 
HETATM   15  C12 UNL     1      10.246   5.194   5.770  1.00  0.00     0.129 C 
HETATM   16  C14 UNL     1       8.712   4.081   6.457  1.00  0.00     0.129 C 
HETATM   17  C13 UNL     1       9.460   4.047   5.159  1.00  0.00     0.040 C 
ATOM     18  H1  UNL     1      12.079   5.998   7.918  1.00  0.00     0.164 HD
ENDBRANCH   1  11
BRANCH   8  19
HETATM   19  O2  UNL     1      14.201   9.260   9.966  1.00  0.00    -0.390 OA
ATOM     20  H2  UNL     1      13.754   9.520   9.169  1.00  0.00     0.210 HD
ENDBRANCH   8  19
TORSDOF 2
ENDMDL
MODEL 3
REMARK VINA RESULT: -6.652657126      1.119      1.294
REMARK  2 active torsions:
REMARK  status: ('A' for Active; 'I' for Inactive)
REMARK       I    between atoms: C1_2  and  N1_3 
REMARK       I    between atoms: C1_2  and  N2_17 
REMARK    1  A    between atoms: N1_3  and  C2_5 
REMARK    2  A    between atoms: C9_12  and  O2_13 
ROOT
HETATM    1  C2  UNL     1      12.301   6.177   9.114  1.00  0.00     0.094 C 
HETATM    2  C3  UNL     1      12.096   7.528   9.756  1.00  0.00     0.012 C 
HETATM    3  C4  UNL     1      13.440   8.207   9.911  1.00  0.00     0.011 C 
HETATM    4  C5  UNL     1      14.305   7.345  10.810  1.00  0.00    -0.011 C 
HETATM    5  C6  UNL     1      14.441   5.942  10.271  1.00  0.00     0.011 C 
HETATM    6  C7  UNL     1      13.079   5.319  10.086  1.00  0.00     0.012 C 
HETATM    7  C8  UNL     1      12.368   5.216  11.396  1.00  0.00     0.044 C 
HETATM    8  C9  UNL     1      12.299   6.580  12.026  1.00  0.00     0.059 C 
HETATM    9  C10 UNL     1      13.640   7.236  12.172  1.00  0.00     0.042 C 
HETATM   10  C11 UNL     1      11.458   7.452  11.109  1.00  0.00     0.044 C 
ENDROOT
BRANCH   1  11
HETATM   11  N1  UNL     1      11.097   5.570   8.663  1.00  0.00    -0.338 N 
HETATM   12  C1  UNL     1      10.896   5.254   7.297  1.00  0.00     0.318 C 
HETATM   13  O1  UNL     1      11.820   5.521   6.452  1.00  0.00    -0.247 OA
HETATM   14  N2  UNL     1       9.714   4.649   6.808  1.00  0.00    -0.334 N 
HETATM   15  C12 UNL     1       8.475   4.201   7.405  1.00  0.00     0.129 C 
HETATM   16  C14 UNL     1       9.209   4.214   5.527  1.00  0.00     0.129 C 
HETATM   17  C13 UNL     1       7.813   4.370   6.049  1.00  0.00     0.040 C 
ATOM     18  H1  UNL     1      10.361   5.357   9.337  1.00  0.00     0.164 HD
ENDBRANCH   1  11
BRANCH   8  19
HETATM   19  O2  UNL     1      11.710   6.469  13.271  1.00  0.00    -0.390 OA
ATOM     20  H2  UNL     1      12.002   7.191  13.815  1.00  0.00     0.210 HD
ENDBRANCH   8  19
TORSDOF 2
ENDMDL
MODEL 4
REMARK VINA RESULT: -6.606833702      3.008      6.387
REMARK  2 active torsions:
REMARK  status: ('A' for Active; 'I' for Inactive)
REMARK       I    between atoms: C1_2  and  N1_3 
REMARK       I    between atoms: C1_2  and  N2_17 
REMARK    1  A    between atoms: N1_3  and  C2_5 
REMARK    2  A    between atoms: C9_12  and  O2_13 
ROOT
HETATM    1  C2  UNL     1      13.761   7.436  10.158  1.00  0.00     0.094 C 
HETATM    2  C3  UNL     1      13.803   6.075   9.506  1.00  0.00     0.012 C 
HETATM    3  C4  UNL     1      12.788   6.037   8.383  1.00  0.00     0.011 C 
HETATM    4  C5  UNL     1      11.414   6.271   8.979  1.00  0.00    -0.011 C 
HETATM    5  C6  UNL     1      11.355   7.568   9.749  1.00  0.00     0.011 C 
HETATM    6  C7  UNL     1      12.412   7.585  10.826  1.00  0.00     0.012 C 
HETATM    7  C8  UNL     1      12.177   6.483  11.808  1.00  0.00     0.044 C 
HETATM    8  C9  UNL     1      12.123   5.173  11.072  1.00  0.00     0.059 C 
HETATM    9  C10 UNL     1      11.111   5.154   9.965  1.00  0.00     0.042 C 
HETATM   10  C11 UNL     1      13.492   4.955  10.449  1.00  0.00     0.044 C 
ENDROOT
BRANCH   1  11
HETATM   11  N1  UNL     1      14.855   7.686  11.032  1.00  0.00    -0.338 N 
HETATM   12  C1  UNL     1      15.362   8.993  11.226  1.00  0.00     0.318 C 
HETATM   13  O1  UNL     1      14.822   9.971  10.599  1.00  0.00    -0.247 OA
HETATM   14  N2  UNL     1      16.448   9.283  12.086  1.00  0.00    -0.334 N 
HETATM   15  C12 UNL     1      17.305   8.498  12.946  1.00  0.00     0.129 C 
HETATM   16  C14 UNL     1      17.181  10.459  12.492  1.00  0.00     0.129 C 
HETATM   17  C13 UNL     1      18.356   9.586  12.816  1.00  0.00     0.040 C 
ATOM     18  H1  UNL     1      15.284   6.905  11.531  1.00  0.00     0.164 HD
ENDBRANCH   1  11
BRANCH   8  19
HETATM   19  O2  UNL     1      11.829   4.167  11.973  1.00  0.00    -0.390 OA
ATOM     20  H2  UNL     1      11.952   4.497  12.855  1.00  0.00     0.210 HD
ENDBRANCH   8  19
TORSDOF 2
ENDMDL
MODEL 5
REMARK VINA RESULT: -6.572325495      2.884      5.379
REMARK  2 active torsions:
REMARK  status: ('A' for Active; 'I' for Inactive)
REMARK       I    between atoms: C1_2  and  N1_3 
REMARK       I    between atoms: C1_2  and  N2_17 
REMARK    1  A    between atoms: N1_3  and  C2_5 
REMARK    2  A    between atoms: C9_12  and  O2_13 
ROOT
HETATM    1  C2  UNL     1      13.767   6.185  11.869  1.00  0.00     0.094 C 
HETATM    2  C3  UNL     1      14.187   6.713  10.518  1.00  0.00     0.012 C 
HETATM    3  C4  UNL     1      14.233   8.226  10.574  1.00  0.00     0.011 C 
HETATM    4  C5  UNL     1      12.843   8.729  10.906  1.00  0.00    -0.011 C 
HETATM    5  C6  UNL     1      12.327   8.132  12.193  1.00  0.00     0.011 C 
HETATM    6  C7  UNL     1      12.342   6.626  12.112  1.00  0.00     0.012 C 
HETATM    7  C8  UNL     1      11.441   6.150  11.019  1.00  0.00     0.044 C 
HETATM    8  C9  UNL     1      11.851   6.802   9.727  1.00  0.00     0.059 C 
HETATM    9  C10 UNL     1      11.889   8.299   9.803  1.00  0.00     0.042 C 
HETATM   10  C11 UNL     1      13.257   6.320   9.412  1.00  0.00     0.044 C 
ENDROOT
BRANCH   1  11
HETATM   11  N1  UNL     1      13.960   4.784  12.020  1.00  0.00    -0.338 N 
HETATM   12  C1  UNL     1      15.161   4.258  12.557  1.00  0.00     0.318 C 
HETATM   13  O1  UNL     1      16.091   5.062  12.912  1.00  0.00    -0.247 OA
HETATM   14  N2  UNL     1      15.391   2.871  12.724  1.00  0.00    -0.334 N 
HETATM   15  C12 UNL     1      14.628   1.672  12.460  1.00  0.00     0.129 C 
HETATM   16  C14 UNL     1      16.460   2.037  13.219  1.00  0.00     0.129 C 
HETATM   17  C13 UNL     1      15.940   0.910  12.379  1.00  0.00     0.040 C 
ATOM     18  H1  UNL     1      13.218   4.144  11.737  1.00  0.00     0.164 HD
ENDBRANCH   1  11
BRANCH   8  19
HETATM   19  O2  UNL     1      10.969   6.419   8.734  1.00  0.00    -0.390 OA
ATOM     20  H2  UNL     1      11.453   5.978   8.046  1.00  0.00     0.210 HD
ENDBRANCH   8  19
TORSDOF 2
ENDMDL
