MODEL 1
REMARK VINA RESULT: -5.865371551      0.000      0.000
REMARK  4 active torsions:
REMARK  status: ('A' for Active; 'I' for Inactive)
REMARK    1  A    between atoms: C2_2  and  N1_3 
REMARK       I    between atoms: N1_3  and  C3_5 
REMARK       I    between atoms: C3_5  and  N2_6 
REMARK       I    between atoms: C3_5  and  N3_9 
REMARK    2  A    between atoms: N2_6  and  C4_7 
REMARK    3  A    between atoms: N3_9  and  C6_11 
REMARK    4  A    between atoms: C6_11  and  N4_13 
ROOT
HETATM    1  N1  UNL     1      11.833   4.197  11.437  1.00  0.00    -0.327 N 
ATOM      2  H1  UNL     1      11.760   4.671  12.337  1.00  0.00     0.169 HD
HETATM    3  C3  UNL     1      11.533   4.892  10.226  1.00  0.00     0.260 C 
HETATM    4  N2  UNL     1      11.655   4.357   9.173  1.00  0.00    -0.388 NA
HETATM    5  N3  UNL     1      11.073   6.252  10.389  1.00  0.00    -0.293 N 
ATOM      6  H3  UNL     1      10.162   6.523  10.022  1.00  0.00     0.172 HD
ENDROOT
BRANCH   5   7
HETATM    7  C6  UNL     1      11.867   7.202  11.046  1.00  0.00     0.177 C 
HETATM    8  S1  UNL     1      11.772   7.354  12.674  1.00  0.00    -0.041 SA
BRANCH   7   9
HETATM    9  N4  UNL     1      12.759   8.025  10.352  1.00  0.00    -0.355 N 
HETATM   10  C7  UNL     1      12.409   9.416  10.000  1.00  0.00     0.155 C 
HETATM   11  C8  UNL     1      13.223  10.286  10.935  1.00  0.00     0.291 C 
HETATM   12  N5  UNL     1      14.426   9.595  11.246  1.00  0.00     0.087 N 
HETATM   13  C9  UNL     1      15.328  10.439  11.978  1.00  0.00     0.310 C 
HETATM   14  C10 UNL     1      15.015   8.811  10.226  1.00  0.00     0.291 C 
HETATM   15  C11 UNL     1      14.086   7.626   9.923  1.00  0.00     0.155 C 
ENDBRANCH   7   9
ENDBRANCH   5   7
BRANCH   1  16
HETATM   16  C2  UNL     1      12.230   2.842  11.372  1.00  0.00     0.082 C 
HETATM   17  C1  UNL     1      13.440   2.450  11.777  1.00  0.00     0.030 C 
ENDBRANCH   1  16
BRANCH   4  18
HETATM   18  C4  UNL     1      11.718   3.959   7.900  1.00  0.00     0.155 C 
HETATM   19  C5  UNL     1      11.506   4.958   6.797  1.00  0.00     0.070 C 
ENDBRANCH   4  18
TORSDOF 4
ENDMDL
MODEL 2
REMARK VINA RESULT: -5.817956462      2.242      2.982
REMARK  4 active torsions:
REMARK  status: ('A' for Active; 'I' for Inactive)
REMARK    1  A    between atoms: C2_2  and  N1_3 
REMARK       I    between atoms: N1_3  and  C3_5 
REMARK       I    between atoms: C3_5  and  N2_6 
REMARK       I    between atoms: C3_5  and  N3_9 
REMARK    2  A    between atoms: N2_6  and  C4_7 
REMARK    3  A    between atoms: N3_9  and  C6_11 
REMARK    4  A    between atoms: C6_11  and  N4_13 
ROOT
HETATM    1  N1  UNL     1      10.038   4.506   9.677  1.00  0.00    -0.327 N 
ATOM      2  H1  UNL     1       9.899   4.743  10.659  1.00  0.00     0.169 HD
HETATM    3  C3  UNL     1      10.824   5.349   8.834  1.00  0.00     0.260 C 
HETATM    4  N2  UNL     1      11.024   5.058   7.700  1.00  0.00    -0.388 NA
HETATM    5  N3  UNL     1      11.328   6.552   9.455  1.00  0.00    -0.293 N 
ATOM      6  H3  UNL     1      11.085   7.461   9.063  1.00  0.00     0.172 HD
ENDROOT
BRANCH   5   7
HETATM    7  C6  UNL     1      12.146   6.482  10.591  1.00  0.00     0.177 C 
HETATM    8  S1  UNL     1      11.549   6.923  12.051  1.00  0.00    -0.041 SA
BRANCH   7   9
HETATM    9  N4  UNL     1      13.467   6.030  10.521  1.00  0.00    -0.355 N 
HETATM   10  C7  UNL     1      14.517   6.820   9.848  1.00  0.00     0.155 C 
HETATM   11  C8  UNL     1      15.371   7.389  10.962  1.00  0.00     0.291 C 
HETATM   12  N5  UNL     1      15.336   6.480  12.054  1.00  0.00     0.087 N 
HETATM   13  C9  UNL     1      16.271   6.865  13.073  1.00  0.00     0.310 C 
HETATM   14  C10 UNL     1      15.292   5.098  11.756  1.00  0.00     0.291 C 
HETATM   15  C11 UNL     1      13.943   4.784  11.091  1.00  0.00     0.155 C 
ENDBRANCH   7   9
ENDBRANCH   5   7
BRANCH   1  16
HETATM   16  C2  UNL     1       9.455   3.339   9.132  1.00  0.00     0.082 C 
HETATM   17  C1  UNL     1       8.134   3.225   8.980  1.00  0.00     0.030 C 
ENDBRANCH   1  16
BRANCH   4  18
HETATM   18  C4  UNL     1      11.371   4.928   6.417  1.00  0.00     0.155 C 
HETATM   19  C5  UNL     1      10.708   3.878   5.570  1.00  0.00     0.070 C 
ENDBRANCH   4  18
TORSDOF 4
ENDMDL
MODEL 3
REMARK VINA RESULT: -5.757388979      1.712      6.081
REMARK  4 active torsions:
REMARK  status: ('A' for Active; 'I' for Inactive)
REMARK    1  A    between atoms: C2_2  and  N1_3 
REMARK       I    between atoms: N1_3  and  C3_5 
REMARK       I    between atoms: C3_5  and  N2_6 
REMARK       I    between atoms: C3_5  and  N3_9 
REMARK    2  A    between atoms: N2_6  and  C4_7 
REMARK    3  A    between atoms: N3_9  and  C6_11 
REMARK    4  A    between atoms: C6_11  and  N4_13 
ROOT
HETATM    1  N1  UNL     1      15.884   8.801  11.775  1.00  0.00    -0.327 N 
ATOM      2  H1  UNL     1      16.004   7.800  11.622  1.00  0.00     0.169 HD
HETATM    3  C3  UNL     1      14.812   9.504  11.145  1.00  0.00     0.260 C 
HETATM    4  N2  UNL     1      14.642  10.661  11.350  1.00  0.00    -0.388 NA
HETATM    5  N3  UNL     1      13.990   8.716  10.256  1.00  0.00    -0.293 N 
ATOM      6  H3  UNL     1      13.899   8.990   9.279  1.00  0.00     0.172 HD
ENDROOT
BRANCH   5   7
HETATM    7  C6  UNL     1      13.316   7.580  10.725  1.00  0.00     0.177 C 
HETATM    8  S1  UNL     1      12.245   7.721  11.955  1.00  0.00    -0.041 SA
BRANCH   7   9
HETATM    9  N4  UNL     1      13.519   6.317  10.160  1.00  0.00    -0.355 N 
HETATM   10  C7  UNL     1      14.589   5.421  10.642  1.00  0.00     0.155 C 
HETATM   11  C8  UNL     1      13.882   4.331  11.420  1.00  0.00     0.291 C 
HETATM   12  N5  UNL     1      12.591   4.148  10.854  1.00  0.00     0.087 N 
HETATM   13  C9  UNL     1      11.937   3.004  11.423  1.00  0.00     0.310 C 
HETATM   14  C10 UNL     1      12.464   4.290   9.452  1.00  0.00     0.291 C 
HETATM   15  C11 UNL     1      12.724   5.758   9.083  1.00  0.00     0.155 C 
ENDBRANCH   7   9
ENDBRANCH   5   7
BRANCH   1  16
HETATM   16  C2  UNL     1      16.775   9.510  12.612  1.00  0.00     0.082 C 
HETATM   17  C1  UNL     1      18.079   9.226  12.643  1.00  0.00     0.030 C 
ENDBRANCH   1  16
BRANCH   4  18
HETATM   18  C4  UNL     1      14.271  11.941  11.435  1.00  0.00     0.155 C 
HETATM   19  C5  UNL     1      12.859  12.330  11.095  1.00  0.00     0.070 C 
ENDBRANCH   4  18
TORSDOF 4
ENDMDL
MODEL 4
REMARK VINA RESULT: -5.733213199      2.617      5.767
REMARK  4 active torsions:
REMARK  status: ('A' for Active; 'I' for Inactive)
REMARK    1  A    between atoms: C2_2  and  N1_3 
REMARK       I    between atoms: N1_3  and  C3_5 
REMARK       I    between atoms: C3_5  and  N2_6 
REMARK       I    between atoms: C3_5  and  N3_9 
REMARK    2  A    between atoms: N2_6  and  C4_7 
REMARK    3  A    between atoms: N3_9  and  C6_11 
REMARK    4  A    between atoms: C6_11  and  N4_13 
ROOT
HETATM    1  N1  UNL     1      13.305   6.360   9.060  1.00  0.00    -0.327 N 
ATOM      2  H1  UNL     1      13.555   6.224   8.081  1.00  0.00     0.169 HD
HETATM    3  C3  UNL     1      11.934   6.387   9.459  1.00  0.00     0.260 C 
HETATM    4  N2  UNL     1      11.637   6.504  10.603  1.00  0.00    -0.388 NA
HETATM    5  N3  UNL     1      10.972   6.278   8.386  1.00  0.00    -0.293 N 
ATOM      6  H3  UNL     1      10.286   7.018   8.247  1.00  0.00     0.172 HD
ENDROOT
BRANCH   5   7
HETATM    7  C6  UNL     1      10.974   5.164   7.535  1.00  0.00     0.177 C 
HETATM    8  S1  UNL     1      11.066   5.380   5.915  1.00  0.00    -0.041 SA
BRANCH   7   9
HETATM    9  N4  UNL     1      10.913   3.858   8.030  1.00  0.00    -0.355 N 
HETATM   10  C7  UNL     1      12.002   2.891   7.785  1.00  0.00     0.155 C 
HETATM   11  C8  UNL     1      12.724   2.752   9.110  1.00  0.00     0.291 C 
HETATM   12  N5  UNL     1      11.783   2.970  10.152  1.00  0.00     0.087 N 
HETATM   13  C9  UNL     1      12.357   2.671  11.434  1.00  0.00     0.310 C 
HETATM   14  C10 UNL     1      10.462   2.504   9.950  1.00  0.00     0.291 C 
HETATM   15  C11 UNL     1       9.821   3.326   8.822  1.00  0.00     0.155 C 
ENDBRANCH   7   9
ENDBRANCH   5   7
BRANCH   1  16
HETATM   16  C2  UNL     1      14.310   6.523  10.039  1.00  0.00     0.082 C 
HETATM   17  C1  UNL     1      14.933   7.691  10.212  1.00  0.00     0.030 C 
ENDBRANCH   1  16
BRANCH   4  18
HETATM   18  C4  UNL     1      11.083   6.625  11.812  1.00  0.00     0.155 C 
HETATM   19  C5  UNL     1      11.809   7.382  12.889  1.00  0.00     0.070 C 
ENDBRANCH   4  18
TORSDOF 4
ENDMDL
MODEL 5
REMARK VINA RESULT: -5.670030157      3.566      5.203
REMARK  4 active torsions:
REMARK  status: ('A' for Active; 'I' for Inactive)
REMARK    1  A    between atoms: C2_2  and  N1_3 
REMARK       I    between atoms: N1_3  and  C3_5 
REMARK       I    between atoms: C3_5  and  N2_6 
REMARK       I    between atoms: C3_5  and  N3_9 
REMARK    2  A    between atoms: N2_6  and  C4_7 
REMARK    3  A    between atoms: N3_9  and  C6_11 
REMARK    4  A    between atoms: C6_11  and  N4_13 
ROOT
HETATM    1  N1  UNL     1       7.894   3.596   8.244  1.00  0.00    -0.327 N 
ATOM      2  H1  UNL     1       8.160   3.567   9.228  1.00  0.00     0.169 HD
HETATM    3  C3  UNL     1       8.720   4.264   7.291  1.00  0.00     0.260 C 
HETATM    4  N2  UNL     1       8.437   4.267   6.138  1.00  0.00    -0.388 NA
HETATM    5  N3  UNL     1       9.884   4.926   7.834  1.00  0.00    -0.293 N 
ATOM      6  H3  UNL     1      10.006   5.928   7.692  1.00  0.00     0.172 HD
ENDROOT
BRANCH   5   7
HETATM    7  C6  UNL     1      10.847   4.205   8.553  1.00  0.00     0.177 C 
HETATM    8  S1  UNL     1      11.541   2.883   7.881  1.00  0.00    -0.041 SA
BRANCH   7   9
HETATM    9  N4  UNL     1      11.250   4.589   9.836  1.00  0.00    -0.355 N 
HETATM   10  C7  UNL     1      11.841   3.619  10.779  1.00  0.00     0.155 C 
HETATM   11  C8  UNL     1      13.317   3.956  10.833  1.00  0.00     0.291 C 
HETATM   12  N5  UNL     1      13.461   5.350  10.595  1.00  0.00     0.087 N 
HETATM   13  C9  UNL     1      14.817   5.771  10.814  1.00  0.00     0.310 C 
HETATM   14  C10 UNL     1      12.463   6.210  11.109  1.00  0.00     0.291 C 
HETATM   15  C11 UNL     1      11.149   5.936  10.362  1.00  0.00     0.155 C 
ENDBRANCH   7   9
ENDBRANCH   5   7
BRANCH   1  16
HETATM   16  C2  UNL     1       6.702   2.975   7.807  1.00  0.00     0.082 C 
HETATM   17  C1  UNL     1       5.524   3.599   7.875  1.00  0.00     0.030 C 
ENDBRANCH   1  16
BRANCH   4  18
HETATM   18  C4  UNL     1       8.312   4.395   4.814  1.00  0.00     0.155 C 
HETATM   19  C5  UNL     1       6.961   4.677   4.219  1.00  0.00     0.070 C 
ENDBRANCH   4  18
TORSDOF 4
ENDMDL
