MODEL 1
REMARK VINA RESULT: -6.587253446      0.000      0.000
REMARK  2 active torsions:
REMARK  status: ('A' for Active; 'I' for Inactive)
REMARK    1  A    between atoms: C2_2  and  N1_4 
REMARK       I    between atoms: N1_4  and  C4_6 
REMARK       I    between atoms: C4_6  and  N2_8 
REMARK    2  A    between atoms: N2_8  and  C5_10 
ROOT
HETATM    1  C5  UNL     1      15.535   7.214  11.852  1.00  0.00     0.162 C 
HETATM    2  C6  UNL     1      15.673   8.699  11.984  1.00  0.00     0.165 C 
HETATM    3  O2  UNL     1      16.411   9.229  12.796  1.00  0.00    -0.294 OA
HETATM    4  C7  UNL     1      14.762   9.318  10.969  1.00  0.00     0.081 C 
HETATM    5  C8  UNL     1      15.127  10.658  10.530  1.00  0.00     0.032 C 
HETATM    6  C9  UNL     1      14.868   8.241   9.871  1.00  0.00     0.033 C 
HETATM    7  C10 UNL     1      14.477   7.080  10.805  1.00  0.00     0.032 C 
HETATM    8  C11 UNL     1      13.131   7.642  11.297  1.00  0.00     0.020 C 
HETATM    9  C12 UNL     1      12.754   7.053  12.622  1.00  0.00     0.023 C 
HETATM   10  C13 UNL     1      12.104   7.272  10.245  1.00  0.00     0.023 C 
HETATM   11  C14 UNL     1      13.350   9.110  11.363  1.00  0.00     0.151 C 
HETATM   12  O3  UNL     1      12.551   9.951  11.672  1.00  0.00    -0.296 OA
ENDROOT
BRANCH   1  13
HETATM   13  N2  UNL     1      16.748   6.623  11.345  1.00  0.00    -0.331 N 
HETATM   14  C4  UNL     1      17.712   6.072  12.252  1.00  0.00     0.317 C 
HETATM   15  N1  UNL     1      18.911   5.485  11.812  1.00  0.00    -0.339 N 
HETATM   16  O1  UNL     1      17.490   6.108  13.497  1.00  0.00    -0.247 OA
ATOM     17  H1  UNL     1      19.101   5.450  10.811  1.00  0.00     0.164 HD
ATOM     18  H2  UNL     1      16.920   6.597  10.340  1.00  0.00     0.165 HD
BRANCH  15  19
HETATM   19  C2  UNL     1      19.874   4.934  12.712  1.00  0.00     0.078 C 
HETATM   20  C1  UNL     1      21.013   5.883  13.012  1.00  0.00     0.032 C 
HETATM   21  C3  UNL     1      20.480   3.674  12.133  1.00  0.00     0.032 C 
ENDBRANCH  15  19
ENDBRANCH   1  13
TORSDOF 2
ENDMDL
MODEL 2
REMARK VINA RESULT: -6.517006660      2.405      2.680
REMARK  2 active torsions:
REMARK  status: ('A' for Active; 'I' for Inactive)
REMARK    1  A    between atoms: C2_2  and  N1_4 
REMARK       I    between atoms: N1_4  and  C4_6 
REMARK       I    between atoms: C4_6  and  N2_8 
REMARK    2  A    between atoms: N2_8  and  C5_10 
ROOT
HETATM    1  C5  UNL     1      14.413   5.955  11.609  1.00  0.00     0.162 C 
HETATM    2  C6  UNL     1      15.120   7.203  12.038  1.00  0.00     0.165 C 
HETATM    3  O2  UNL     1      15.898   7.238  12.974  1.00  0.00    -0.294 OA
HETATM    4  C7  UNL     1      14.675   8.298  11.119  1.00  0.00     0.081 C 
HETATM    5  C8  UNL     1      15.603   9.412  10.972  1.00  0.00     0.032 C 
HETATM    6  C9  UNL     1      14.478   7.465   9.837  1.00  0.00     0.033 C 
HETATM    7  C10 UNL     1      13.536   6.445  10.503  1.00  0.00     0.032 C 
HETATM    8  C11 UNL     1      12.479   7.435  11.026  1.00  0.00     0.020 C 
HETATM    9  C12 UNL     1      11.730   6.858  12.188  1.00  0.00     0.023 C 
HETATM   10  C13 UNL     1      11.535   7.703   9.871  1.00  0.00     0.023 C 
HETATM   11  C14 UNL     1      13.261   8.644  11.392  1.00  0.00     0.151 C 
HETATM   12  O3  UNL     1      12.838   9.683  11.819  1.00  0.00    -0.296 OA
ENDROOT
BRANCH   1  13
HETATM   13  N2  UNL     1      15.338   4.997  11.058  1.00  0.00    -0.331 N 
HETATM   14  C4  UNL     1      15.644   3.796  11.779  1.00  0.00     0.317 C 
HETATM   15  N1  UNL     1      16.539   2.829  11.290  1.00  0.00    -0.339 N 
HETATM   16  O1  UNL     1      15.097   3.585  12.901  1.00  0.00    -0.247 OA
ATOM     17  H1  UNL     1      16.987   2.989  10.387  1.00  0.00     0.164 HD
ATOM     18  H2  UNL     1      15.775   5.173  10.154  1.00  0.00     0.165 HD
BRANCH  15  19
HETATM   19  C2  UNL     1      16.847   1.632  12.006  1.00  0.00     0.078 C 
HETATM   20  C1  UNL     1      18.329   1.337  12.056  1.00  0.00     0.032 C 
HETATM   21  C3  UNL     1      16.175   0.441  11.358  1.00  0.00     0.032 C 
ENDBRANCH  15  19
ENDBRANCH   1  13
TORSDOF 2
ENDMDL
MODEL 3
REMARK VINA RESULT: -6.302530682      2.841      5.828
REMARK  2 active torsions:
REMARK  status: ('A' for Active; 'I' for Inactive)
REMARK    1  A    between atoms: C2_2  and  N1_4 
REMARK       I    between atoms: N1_4  and  C4_6 
REMARK       I    between atoms: C4_6  and  N2_8 
REMARK    2  A    between atoms: N2_8  and  C5_10 
ROOT
HETATM    1  C5  UNL     1      13.514   7.041  11.148  1.00  0.00     0.162 C 
HETATM    2  C6  UNL     1      14.689   6.844  12.055  1.00  0.00     0.165 C 
HETATM    3  O2  UNL     1      14.673   6.088  13.009  1.00  0.00    -0.294 OA
HETATM    4  C7  UNL     1      15.789   7.725  11.548  1.00  0.00     0.081 C 
HETATM    5  C8  UNL     1      17.141   7.304  11.890  1.00  0.00     0.032 C 
HETATM    6  C9  UNL     1      15.467   7.658  10.041  1.00  0.00     0.033 C 
HETATM    7  C10 UNL     1      14.002   8.099  10.214  1.00  0.00     0.032 C 
HETATM    8  C11 UNL     1      14.259   9.424  10.955  1.00  0.00     0.020 C 
HETATM    9  C12 UNL     1      13.065   9.829  11.763  1.00  0.00     0.023 C 
HETATM   10  C13 UNL     1      14.550  10.461   9.888  1.00  0.00     0.023 C 
HETATM   11  C14 UNL     1      15.453   9.146  11.795  1.00  0.00     0.151 C 
HETATM   12  O3  UNL     1      16.025   9.910  12.522  1.00  0.00    -0.296 OA
ENDROOT
BRANCH   1  13
HETATM   13  N2  UNL     1      13.244   5.852  10.381  1.00  0.00    -0.331 N 
HETATM   14  C4  UNL     1      11.891   5.456  10.120  1.00  0.00     0.317 C 
HETATM   15  N1  UNL     1      11.571   4.306   9.379  1.00  0.00    -0.339 N 
HETATM   16  O1  UNL     1      10.938   6.157  10.568  1.00  0.00    -0.247 OA
ATOM     17  H1  UNL     1      12.331   3.732   9.013  1.00  0.00     0.164 HD
ATOM     18  H2  UNL     1      14.017   5.291  10.023  1.00  0.00     0.165 HD
BRANCH  15  19
HETATM   19  C2  UNL     1      10.224   3.908   9.117  1.00  0.00     0.078 C 
HETATM   20  C1  UNL     1      10.015   2.415   9.236  1.00  0.00     0.032 C 
HETATM   21  C3  UNL     1       9.818   4.307   7.715  1.00  0.00     0.032 C 
ENDBRANCH  15  19
ENDBRANCH   1  13
TORSDOF 2
ENDMDL
MODEL 4
REMARK VINA RESULT: -6.270748456      3.880      5.915
REMARK  2 active torsions:
REMARK  status: ('A' for Active; 'I' for Inactive)
REMARK    1  A    between atoms: C2_2  and  N1_4 
REMARK       I    between atoms: N1_4  and  C4_6 
REMARK       I    between atoms: C4_6  and  N2_8 
REMARK    2  A    between atoms: N2_8  and  C5_10 
ROOT
HETATM    1  C5  UNL     1      12.902   6.370   9.881  1.00  0.00     0.162 C 
HETATM    2  C6  UNL     1      13.692   5.215  10.415  1.00  0.00     0.165 C 
HETATM    3  O2  UNL     1      14.903   5.239  10.539  1.00  0.00    -0.294 OA
HETATM    4  C7  UNL     1      12.716   4.123  10.730  1.00  0.00     0.081 C 
HETATM    5  C8  UNL     1      13.146   3.169  11.744  1.00  0.00     0.032 C 
HETATM    6  C9  UNL     1      11.515   4.994  11.149  1.00  0.00     0.033 C 
HETATM    7  C10 UNL     1      11.512   5.823   9.851  1.00  0.00     0.032 C 
HETATM    8  C11 UNL     1      11.391   4.659   8.850  1.00  0.00     0.020 C 
HETATM    9  C12 UNL     1      11.921   5.049   7.504  1.00  0.00     0.023 C 
HETATM   10  C13 UNL     1       9.916   4.325   8.759  1.00  0.00     0.023 C 
HETATM   11  C14 UNL     1      12.169   3.558   9.476  1.00  0.00     0.151 C 
HETATM   12  O3  UNL     1      12.321   2.445   9.054  1.00  0.00    -0.296 OA
ENDROOT
BRANCH   1  13
HETATM   13  N2  UNL     1      12.928   7.484  10.794  1.00  0.00    -0.331 N 
HETATM   14  C4  UNL     1      13.911   8.516  10.640  1.00  0.00     0.317 C 
HETATM   15  N1  UNL     1      13.982   9.624  11.502  1.00  0.00    -0.339 N 
HETATM   16  O1  UNL     1      14.753   8.442   9.699  1.00  0.00    -0.247 OA
ATOM     17  H1  UNL     1      13.308   9.696  12.265  1.00  0.00     0.164 HD
ATOM     18  H2  UNL     1      12.246   7.538  11.550  1.00  0.00     0.165 HD
BRANCH  15  19
HETATM   19  C2  UNL     1      14.960  10.655  11.352  1.00  0.00     0.078 C 
HETATM   20  C1  UNL     1      16.090  10.548  12.351  1.00  0.00     0.032 C 
HETATM   21  C3  UNL     1      14.326  12.017  11.537  1.00  0.00     0.032 C 
ENDBRANCH  15  19
ENDBRANCH   1  13
TORSDOF 2
ENDMDL
MODEL 5
REMARK VINA RESULT: -6.201224010      4.284      6.554
REMARK  2 active torsions:
REMARK  status: ('A' for Active; 'I' for Inactive)
REMARK    1  A    between atoms: C2_2  and  N1_4 
REMARK       I    between atoms: N1_4  and  C4_6 
REMARK       I    between atoms: C4_6  and  N2_8 
REMARK    2  A    between atoms: N2_8  and  C5_10 
ROOT
HETATM    1  C5  UNL     1      12.299   5.501   8.717  1.00  0.00     0.162 C 
HETATM    2  C6  UNL     1      12.522   4.168   9.361  1.00  0.00     0.165 C 
HETATM    3  O2  UNL     1      13.604   3.810   9.791  1.00  0.00    -0.294 OA
HETATM    4  C7  UNL     1      11.209   3.447   9.345  1.00  0.00     0.081 C 
HETATM    5  C8  UNL     1      11.039   2.427  10.373  1.00  0.00     0.032 C 
HETATM    6  C9  UNL     1      10.272   4.662   9.498  1.00  0.00     0.033 C 
HETATM    7  C10 UNL     1      10.867   5.421   8.297  1.00  0.00     0.032 C 
HETATM    8  C11 UNL     1      10.658   4.334   7.228  1.00  0.00     0.020 C 
HETATM    9  C12 UNL     1      11.617   4.508   6.089  1.00  0.00     0.023 C 
HETATM   10  C13 UNL     1       9.230   4.482   6.741  1.00  0.00     0.023 C 
HETATM   11  C14 UNL     1      10.862   3.057   7.960  1.00  0.00     0.151 C 
HETATM   12  O3  UNL     1      10.767   1.944   7.522  1.00  0.00    -0.296 OA
ENDROOT
BRANCH   1  13
HETATM   13  N2  UNL     1      12.429   6.569   9.675  1.00  0.00    -0.331 N 
HETATM   14  C4  UNL     1      13.661   7.294   9.780  1.00  0.00     0.317 C 
HETATM   15  N1  UNL     1      13.843   8.344  10.696  1.00  0.00    -0.339 N 
HETATM   16  O1  UNL     1      14.631   6.990   9.026  1.00  0.00    -0.247 OA
ATOM     17  H1  UNL     1      13.069   8.599  11.310  1.00  0.00     0.164 HD
ATOM     18  H2  UNL     1      11.644   6.809  10.279  1.00  0.00     0.165 HD
BRANCH  15  19
HETATM   19  C2  UNL     1      15.069   9.069  10.804  1.00  0.00     0.078 C 
HETATM   20  C1  UNL     1      15.964   8.557  11.910  1.00  0.00     0.032 C 
HETATM   21  C3  UNL     1      14.797  10.530  11.087  1.00  0.00     0.032 C 
ENDBRANCH  15  19
ENDBRANCH   1  13
TORSDOF 2
ENDMDL
