MODEL 1
REMARK VINA RESULT: -6.152598248      0.000      0.000
REMARK  3 active torsions:
REMARK  status: ('A' for Active; 'I' for Inactive)
REMARK    1  A    between atoms: C2_2  and  C5_5 
REMARK    2  A    between atoms: C5_5  and  C6_6 
REMARK       I    between atoms: C6_6  and  N1_8 
REMARK    3  A    between atoms: N1_8  and  N2_10 
REMARK       I    between atoms: N2_10  and  C7_12 
REMARK       I    between atoms: C7_12  and  N3_14 
ROOT
HETATM    1  N2  UNL     1       9.980   4.602   9.288  1.00  0.00    -0.249 N 
ATOM      2  H2  UNL     1       9.788   5.358   8.632  1.00  0.00     0.192 HD
HETATM    3  C7  UNL     1       9.257   3.383   9.192  1.00  0.00     0.343 C 
HETATM    4  O2  UNL     1       9.501   2.468   9.995  1.00  0.00    -0.245 OA
HETATM    5  N3  UNL     1       8.286   3.228   8.200  1.00  0.00    -0.267 N 
HETATM    6  C8  UNL     1       7.389   2.153   7.819  1.00  0.00     0.155 C 
HETATM    7  C9  UNL     1       6.541   3.241   7.165  1.00  0.00     0.051 C 
HETATM    8  C10 UNL     1       6.140   2.875   5.783  1.00  0.00     0.027 C 
HETATM    9  C11 UNL     1       5.481   3.694   8.122  1.00  0.00     0.027 C 
HETATM   10  C12 UNL     1       7.782   4.069   7.171  1.00  0.00     0.237 C 
HETATM   11  O3  UNL     1       8.120   5.067   6.499  1.00  0.00    -0.272 OA
ENDROOT
BRANCH   1  12
HETATM   12  N1  UNL     1      10.955   4.772  10.278  1.00  0.00    -0.266 N 
HETATM   13  C6  UNL     1      12.304   5.085   9.945  1.00  0.00     0.236 C 
HETATM   14  O1  UNL     1      12.571   5.197   8.721  1.00  0.00    -0.272 OA
ATOM     15  H1  UNL     1      10.695   4.671  11.260  1.00  0.00     0.190 HD
BRANCH  13  16
HETATM   16  C5  UNL     1      13.265   5.248  11.041  1.00  0.00     0.112 C 
BRANCH  16  17
HETATM   17  C2  UNL     1      13.760   6.620  11.296  1.00  0.00    -0.043 C 
HETATM   18  C1  UNL     1      14.425   6.594  12.684  1.00  0.00     0.015 C 
HETATM   19  C3  UNL     1      14.856   6.989  10.308  1.00  0.00     0.015 C 
HETATM   20  C4  UNL     1      12.726   7.687  11.303  1.00  0.00     0.015 C 
ENDBRANCH  16  17
ENDBRANCH  13  16
ENDBRANCH   1  12
TORSDOF 3
ENDMDL
MODEL 2
REMARK VINA RESULT: -6.064333947      4.906      5.951
REMARK  3 active torsions:
REMARK  status: ('A' for Active; 'I' for Inactive)
REMARK    1  A    between atoms: C2_2  and  C5_5 
REMARK    2  A    between atoms: C5_5  and  C6_6 
REMARK       I    between atoms: C6_6  and  N1_8 
REMARK    3  A    between atoms: N1_8  and  N2_10 
REMARK       I    between atoms: N2_10  and  C7_12 
REMARK       I    between atoms: C7_12  and  N3_14 
ROOT
HETATM    1  N2  UNL     1      13.131   5.516  11.937  1.00  0.00    -0.249 N 
ATOM      2  H2  UNL     1      12.260   5.082  12.239  1.00  0.00     0.192 HD
HETATM    3  C7  UNL     1      14.097   4.745  11.237  1.00  0.00     0.343 C 
HETATM    4  O2  UNL     1      15.155   5.284  10.871  1.00  0.00    -0.245 OA
HETATM    5  N3  UNL     1      13.848   3.397  10.969  1.00  0.00    -0.267 N 
HETATM    6  C8  UNL     1      14.586   2.345  10.295  1.00  0.00     0.155 C 
HETATM    7  C9  UNL     1      13.724   1.376  11.102  1.00  0.00     0.051 C 
HETATM    8  C10 UNL     1      13.151   0.304  10.251  1.00  0.00     0.027 C 
HETATM    9  C11 UNL     1      14.447   0.986  12.355  1.00  0.00     0.027 C 
HETATM   10  C12 UNL     1      12.773   2.514  11.260  1.00  0.00     0.237 C 
HETATM   11  O3  UNL     1      11.554   2.548  11.535  1.00  0.00    -0.272 OA
ENDROOT
BRANCH   1  12
HETATM   12  N1  UNL     1      13.368   6.868  12.214  1.00  0.00    -0.266 N 
HETATM   13  C6  UNL     1      12.752   7.900  11.451  1.00  0.00     0.236 C 
HETATM   14  O1  UNL     1      11.991   7.535  10.518  1.00  0.00    -0.272 OA
ATOM     15  H1  UNL     1      13.994   7.119  12.979  1.00  0.00     0.190 HD
BRANCH  13  16
HETATM   16  C5  UNL     1      13.051   9.291  11.805  1.00  0.00     0.112 C 
BRANCH  16  17
HETATM   17  C2  UNL     1      14.115   9.965  11.027  1.00  0.00    -0.043 C 
HETATM   18  C1  UNL     1      13.423  11.061  10.196  1.00  0.00     0.015 C 
HETATM   19  C3  UNL     1      15.085  10.684  11.952  1.00  0.00     0.015 C 
HETATM   20  C4  UNL     1      14.879   9.096  10.095  1.00  0.00     0.015 C 
ENDBRANCH  16  17
ENDBRANCH  13  16
ENDBRANCH   1  12
TORSDOF 3
ENDMDL
MODEL 3
REMARK VINA RESULT: -6.007152176      3.276      4.371
REMARK  3 active torsions:
REMARK  status: ('A' for Active; 'I' for Inactive)
REMARK    1  A    between atoms: C2_2  and  C5_5 
REMARK    2  A    between atoms: C5_5  and  C6_6 
REMARK       I    between atoms: C6_6  and  N1_8 
REMARK    3  A    between atoms: N1_8  and  N2_10 
REMARK       I    between atoms: N2_10  and  C7_12 
REMARK       I    between atoms: C7_12  and  N3_14 
ROOT
HETATM    1  N2  UNL     1      11.286   5.504  10.400  1.00  0.00    -0.249 N 
ATOM      2  H2  UNL     1      10.598   4.998  10.957  1.00  0.00     0.192 HD
HETATM    3  C7  UNL     1      11.994   4.828   9.371  1.00  0.00     0.343 C 
HETATM    4  O2  UNL     1      12.829   5.455   8.697  1.00  0.00    -0.245 OA
HETATM    5  N3  UNL     1      11.745   3.476   9.128  1.00  0.00    -0.267 N 
HETATM    6  C8  UNL     1      12.264   2.503   8.186  1.00  0.00     0.155 C 
HETATM    7  C9  UNL     1      11.789   1.448   9.182  1.00  0.00     0.051 C 
HETATM    8  C10 UNL     1      11.020   0.365   8.519  1.00  0.00     0.027 C 
HETATM    9  C11 UNL     1      12.920   1.069  10.090  1.00  0.00     0.027 C 
HETATM   10  C12 UNL     1      10.887   2.508   9.718  1.00  0.00     0.237 C 
HETATM   11  O3  UNL     1       9.837   2.445  10.395  1.00  0.00    -0.272 OA
ENDROOT
BRANCH   1  12
HETATM   12  N1  UNL     1      11.526   6.859  10.655  1.00  0.00    -0.266 N 
HETATM   13  C6  UNL     1      12.479   7.273  11.628  1.00  0.00     0.236 C 
HETATM   14  O1  UNL     1      13.088   6.362  12.245  1.00  0.00    -0.272 OA
ATOM     15  H1  UNL     1      11.007   7.566  10.132  1.00  0.00     0.190 HD
BRANCH  13  16
HETATM   16  C5  UNL     1      12.672   8.712  11.836  1.00  0.00     0.112 C 
BRANCH  16  17
HETATM   17  C2  UNL     1      13.591   9.404  10.904  1.00  0.00    -0.043 C 
HETATM   18  C1  UNL     1      12.709  10.244   9.963  1.00  0.00     0.015 C 
HETATM   19  C3  UNL     1      14.474  10.392  11.652  1.00  0.00     0.015 C 
HETATM   20  C4  UNL     1      14.443   8.521  10.067  1.00  0.00     0.015 C 
ENDBRANCH  16  17
ENDBRANCH  13  16
ENDBRANCH   1  12
TORSDOF 3
ENDMDL
MODEL 4
REMARK VINA RESULT: -6.002600975      5.879      7.776
REMARK  3 active torsions:
REMARK  status: ('A' for Active; 'I' for Inactive)
REMARK    1  A    between atoms: C2_2  and  C5_5 
REMARK    2  A    between atoms: C5_5  and  C6_6 
REMARK       I    between atoms: C6_6  and  N1_8 
REMARK    3  A    between atoms: N1_8  and  N2_10 
REMARK       I    between atoms: N2_10  and  C7_12 
REMARK       I    between atoms: C7_12  and  N3_14 
ROOT
HETATM    1  N2  UNL     1      14.275   3.981  12.762  1.00  0.00    -0.249 N 
ATOM      2  H2  UNL     1      14.551   3.917  13.741  1.00  0.00     0.192 HD
HETATM    3  C7  UNL     1      14.560   2.906  11.878  1.00  0.00     0.343 C 
HETATM    4  O2  UNL     1      14.217   2.993  10.687  1.00  0.00    -0.245 OA
HETATM    5  N3  UNL     1      15.217   1.770  12.354  1.00  0.00    -0.267 N 
HETATM    6  C8  UNL     1      15.650   0.523  11.753  1.00  0.00     0.155 C 
HETATM    7  C9  UNL     1      16.638   0.434  12.914  1.00  0.00     0.051 C 
HETATM    8  C10 UNL     1      16.623  -0.905  13.554  1.00  0.00     0.027 C 
HETATM    9  C11 UNL     1      17.956   1.013  12.497  1.00  0.00     0.027 C 
HETATM   10  C12 UNL     1      15.735   1.387  13.621  1.00  0.00     0.237 C 
HETATM   11  O3  UNL     1      15.587   1.649  14.835  1.00  0.00    -0.272 OA
ENDROOT
BRANCH   1  12
HETATM   12  N1  UNL     1      13.618   5.127  12.298  1.00  0.00    -0.266 N 
HETATM   13  C6  UNL     1      14.167   6.426  12.490  1.00  0.00     0.236 C 
HETATM   14  O1  UNL     1      15.266   6.489  13.098  1.00  0.00    -0.272 OA
ATOM     15  H1  UNL     1      12.726   5.029  11.811  1.00  0.00     0.190 HD
BRANCH  13  16
HETATM   16  C5  UNL     1      13.417   7.575  11.974  1.00  0.00     0.112 C 
BRANCH  16  17
HETATM   17  C2  UNL     1      13.940   8.217  10.746  1.00  0.00    -0.043 C 
HETATM   18  C1  UNL     1      12.770   9.011  10.136  1.00  0.00     0.015 C 
HETATM   19  C3  UNL     1      15.013   9.240  11.089  1.00  0.00     0.015 C 
HETATM   20  C4  UNL     1      14.458   7.291   9.707  1.00  0.00     0.015 C 
ENDBRANCH  16  17
ENDBRANCH  13  16
ENDBRANCH   1  12
TORSDOF 3
ENDMDL
MODEL 5
REMARK VINA RESULT: -5.950816256      5.793      7.534
REMARK  3 active torsions:
REMARK  status: ('A' for Active; 'I' for Inactive)
REMARK    1  A    between atoms: C2_2  and  C5_5 
REMARK    2  A    between atoms: C5_5  and  C6_6 
REMARK       I    between atoms: C6_6  and  N1_8 
REMARK    3  A    between atoms: N1_8  and  N2_10 
REMARK       I    between atoms: N2_10  and  C7_12 
REMARK       I    between atoms: C7_12  and  N3_14 
ROOT
HETATM    1  N2  UNL     1      14.212   4.847  12.568  1.00  0.00    -0.249 N 
ATOM      2  H2  UNL     1      13.430   4.200  12.465  1.00  0.00     0.192 HD
HETATM    3  C7  UNL     1      15.538   4.345  12.641  1.00  0.00     0.343 C 
HETATM    4  O2  UNL     1      16.483   5.142  12.764  1.00  0.00    -0.245 OA
HETATM    5  N3  UNL     1      15.765   2.969  12.572  1.00  0.00    -0.267 N 
HETATM    6  C8  UNL     1      16.951   2.134  12.609  1.00  0.00     0.155 C 
HETATM    7  C9  UNL     1      16.013   1.010  13.043  1.00  0.00     0.051 C 
HETATM    8  C10 UNL     1      16.240  -0.233  12.265  1.00  0.00     0.027 C 
HETATM    9  C11 UNL     1      15.990   0.925  14.539  1.00  0.00     0.027 C 
HETATM   10  C12 UNL     1      14.919   1.833  12.449  1.00  0.00     0.237 C 
HETATM   11  O3  UNL     1      13.774   1.531  12.047  1.00  0.00    -0.272 OA
ENDROOT
BRANCH   1  12
HETATM   12  N1  UNL     1      13.969   6.224  12.636  1.00  0.00    -0.266 N 
HETATM   13  C6  UNL     1      13.099   6.871  11.713  1.00  0.00     0.236 C 
HETATM   14  O1  UNL     1      12.565   6.144  10.837  1.00  0.00    -0.272 OA
ATOM     15  H1  UNL     1      14.425   6.776  13.363  1.00  0.00     0.190 HD
BRANCH  13  16
HETATM   16  C5  UNL     1      12.897   8.316  11.853  1.00  0.00     0.112 C 
BRANCH  16  17
HETATM   17  C2  UNL     1      13.624   9.188  10.902  1.00  0.00    -0.043 C 
HETATM   18  C1  UNL     1      12.565   9.784   9.957  1.00  0.00     0.015 C 
HETATM   19  C3  UNL     1      14.256  10.366  11.627  1.00  0.00     0.015 C 
HETATM   20  C4  UNL     1      14.654   8.513  10.070  1.00  0.00     0.015 C 
ENDBRANCH  16  17
ENDBRANCH  13  16
ENDBRANCH   1  12
TORSDOF 3
ENDMDL
