MODEL 1
REMARK VINA RESULT: -8.211378612      0.000      0.000
REMARK  5 active torsions:
REMARK  status: ('A' for Active; 'I' for Inactive)
REMARK    1  A    between atoms: C3_3  and  C4_4 
REMARK    2  A    between atoms: C4_4  and  C5_5 
REMARK    3  A    between atoms: C5_5  and  C6_6 
REMARK    4  A    between atoms: C6_6  and  N1_7 
REMARK    5  A    between atoms: C11_18  and  N4_19 
ROOT
HETATM    1  C4  UNL     1       3.302   9.082  -1.465  1.00  0.00     0.073 C 
ENDROOT
BRANCH   1   2
HETATM    2  C3  UNL     1       2.013   8.686  -0.849  1.00  0.00     0.086 A 
HETATM    3  C2  UNL     1       1.562   9.247   0.361  1.00  0.00     0.015 A 
HETATM    4  C1  UNL     1       2.212  10.267   1.199  1.00  0.00     0.055 C 
HETATM    5  C11 UNL     1       0.342   8.675   0.668  1.00  0.00     0.127 A 
HETATM    6  N3  UNL     1       0.110   7.809  -0.344  1.00  0.00    -0.245 N 
HETATM    7  O2  UNL     1       1.084   7.852  -1.175  1.00  0.00    -0.240 OA
ATOM      8  H3  UNL     1      -0.713   7.213  -0.433  1.00  0.00     0.196 HD
BRANCH   5   9
HETATM    9  N4  UNL     1      -0.443   8.862   1.651  1.00  0.00    -0.384 N 
ATOM     10  H42 UNL     1      -0.280   9.532   2.402  1.00  0.00     0.157 HD
ATOM     11  H41 UNL     1      -1.334   8.425   1.889  1.00  0.00     0.157 HD
ENDBRANCH   5   9
ENDBRANCH   1   2
BRANCH   1  12
HETATM   12  C5  UNL     1       3.282   8.951  -2.962  1.00  0.00     0.051 C 
BRANCH  12  13
HETATM   13  C6  UNL     1       4.002   9.946  -3.732  1.00  0.00     0.069 C 
BRANCH  13  14
HETATM   14  N1  UNL     1       3.599  10.420  -4.982  1.00  0.00    -0.314 N 
HETATM   15  C7  UNL     1       3.540  11.850  -5.197  1.00  0.00     0.134 C 
HETATM   16  C8  UNL     1       3.986  12.199  -6.624  1.00  0.00     0.040 C 
HETATM   17  C9  UNL     1       2.961  11.679  -7.579  1.00  0.00     0.126 C 
HETATM   18  N2  UNL     1       2.729  10.276  -7.295  1.00  0.00    -0.343 N 
HETATM   19  C10 UNL     1       3.237   9.641  -6.115  1.00  0.00     0.322 C 
ATOM     20  H2  UNL     1       2.186   9.722  -7.957  1.00  0.00     0.164 HD
HETATM   21  O1  UNL     1       3.372   8.422  -6.050  1.00  0.00    -0.247 OA
ENDBRANCH  13  14
ENDBRANCH  12  13
ENDBRANCH   1  12
TORSDOF 5
ENDMDL
MODEL 2
REMARK VINA RESULT: -8.186669825      1.286      6.716
REMARK  5 active torsions:
REMARK  status: ('A' for Active; 'I' for Inactive)
REMARK    1  A    between atoms: C3_3  and  C4_4 
REMARK    2  A    between atoms: C4_4  and  C5_5 
REMARK    3  A    between atoms: C5_5  and  C6_6 
REMARK    4  A    between atoms: C6_6  and  N1_7 
REMARK    5  A    between atoms: C11_18  and  N4_19 
ROOT
HETATM    1  C4  UNL     1       4.323  10.022  -2.789  1.00  0.00     0.073 C 
ENDROOT
BRANCH   1   2
HETATM    2  C3  UNL     1       3.844   9.582  -4.122  1.00  0.00     0.086 A 
HETATM    3  C2  UNL     1       3.538  10.500  -5.145  1.00  0.00     0.015 A 
HETATM    4  C1  UNL     1       3.627  11.969  -5.117  1.00  0.00     0.055 C 
HETATM    5  C11 UNL     1       3.121   9.784  -6.250  1.00  0.00     0.127 A 
HETATM    6  N3  UNL     1       3.188   8.491  -5.861  1.00  0.00    -0.245 N 
HETATM    7  O2  UNL     1       3.602   8.431  -4.651  1.00  0.00    -0.240 OA
ATOM      8  H3  UNL     1       2.947   7.688  -6.442  1.00  0.00     0.196 HD
BRANCH   5   9
HETATM    9  N4  UNL     1       2.746  10.172  -7.402  1.00  0.00    -0.384 N 
ATOM     10  H42 UNL     1       3.220   9.939  -8.274  1.00  0.00     0.157 HD
ATOM     11  H41 UNL     1       1.956  10.751  -7.688  1.00  0.00     0.157 HD
ENDBRANCH   5   9
ENDBRANCH   1   2
BRANCH   1  12
HETATM   12  C5  UNL     1       3.942   9.059  -1.700  1.00  0.00     0.051 C 
BRANCH  12  13
HETATM   13  C6  UNL     1       2.530   8.875  -1.431  1.00  0.00     0.069 C 
BRANCH  13  14
HETATM   14  N1  UNL     1       1.972   8.821  -0.153  1.00  0.00    -0.314 N 
HETATM   15  C7  UNL     1       2.479   9.715   0.867  1.00  0.00     0.134 C 
HETATM   16  C8  UNL     1       1.339  10.202   1.773  1.00  0.00     0.040 C 
HETATM   17  C9  UNL     1       0.843   9.041   2.570  1.00  0.00     0.126 C 
HETATM   18  N2  UNL     1       0.534   7.951   1.665  1.00  0.00    -0.343 N 
HETATM   19  C10 UNL     1       0.918   7.973   0.284  1.00  0.00     0.322 C 
ATOM     20  H2  UNL     1       0.026   7.142   2.022  1.00  0.00     0.164 HD
HETATM   21  O1  UNL     1       0.355   7.267  -0.549  1.00  0.00    -0.247 OA
ENDBRANCH  13  14
ENDBRANCH  12  13
ENDBRANCH   1  12
TORSDOF 5
ENDMDL
MODEL 3
REMARK VINA RESULT: -7.855622358      1.066      1.190
REMARK  5 active torsions:
REMARK  status: ('A' for Active; 'I' for Inactive)
REMARK    1  A    between atoms: C3_3  and  C4_4 
REMARK    2  A    between atoms: C4_4  and  C5_5 
REMARK    3  A    between atoms: C5_5  and  C6_6 
REMARK    4  A    between atoms: C6_6  and  N1_7 
REMARK    5  A    between atoms: C11_18  and  N4_19 
ROOT
HETATM    1  C4  UNL     1       3.564   9.314  -0.947  1.00  0.00     0.073 C 
ENDROOT
BRANCH   1   2
HETATM    2  C3  UNL     1       2.226   8.839  -0.522  1.00  0.00     0.086 A 
HETATM    3  C2  UNL     1       1.578   9.356   0.616  1.00  0.00     0.015 A 
HETATM    4  C1  UNL     1       2.047  10.396   1.546  1.00  0.00     0.055 C 
HETATM    5  C11 UNL     1       0.362   8.714   0.743  1.00  0.00     0.127 A 
HETATM    6  N3  UNL     1       0.323   7.852  -0.298  1.00  0.00    -0.245 N 
HETATM    7  O2  UNL     1       1.399   7.961  -0.982  1.00  0.00    -0.240 OA
ATOM      8  H3  UNL     1      -0.445   7.214  -0.506  1.00  0.00     0.196 HD
BRANCH   5   9
HETATM    9  N4  UNL     1      -0.563   8.843   1.608  1.00  0.00    -0.384 N 
ATOM     10  H42 UNL     1      -0.683   9.658   2.208  1.00  0.00     0.157 HD
ATOM     11  H41 UNL     1      -1.325   8.217   1.871  1.00  0.00     0.157 HD
ENDBRANCH   5   9
ENDBRANCH   1   2
BRANCH   1  12
HETATM   12  C5  UNL     1       3.933   8.825  -2.320  1.00  0.00     0.051 C 
BRANCH  12  13
HETATM   13  C6  UNL     1       3.244   9.416  -3.450  1.00  0.00     0.069 C 
BRANCH  13  14
HETATM   14  N1  UNL     1       3.875  10.104  -4.486  1.00  0.00    -0.314 N 
HETATM   15  C7  UNL     1       4.647  11.288  -4.167  1.00  0.00     0.134 C 
HETATM   16  C8  UNL     1       5.896  11.372  -5.055  1.00  0.00     0.040 C 
HETATM   17  C9  UNL     1       5.459  11.633  -6.459  1.00  0.00     0.126 C 
HETATM   18  N2  UNL     1       4.464  10.645  -6.830  1.00  0.00    -0.343 N 
HETATM   19  C10 UNL     1       3.864   9.768  -5.868  1.00  0.00     0.322 C 
ATOM     20  H2  UNL     1       4.182  10.572  -7.807  1.00  0.00     0.164 HD
HETATM   21  O1  UNL     1       3.329   8.716  -6.206  1.00  0.00    -0.247 OA
ENDBRANCH  13  14
ENDBRANCH  12  13
ENDBRANCH   1  12
TORSDOF 5
ENDMDL
MODEL 4
REMARK VINA RESULT: -7.784612479      1.713      6.581
REMARK  5 active torsions:
REMARK  status: ('A' for Active; 'I' for Inactive)
REMARK    1  A    between atoms: C3_3  and  C4_4 
REMARK    2  A    between atoms: C4_4  and  C5_5 
REMARK    3  A    between atoms: C5_5  and  C6_6 
REMARK    4  A    between atoms: C6_6  and  N1_7 
REMARK    5  A    between atoms: C11_18  and  N4_19 
ROOT
HETATM    1  C4  UNL     1       4.531  10.305  -2.791  1.00  0.00     0.073 C 
ENDROOT
BRANCH   1   2
HETATM    2  C3  UNL     1       3.969   9.702  -4.023  1.00  0.00     0.086 A 
HETATM    3  C2  UNL     1       3.612  10.483  -5.139  1.00  0.00     0.015 A 
HETATM    4  C1  UNL     1       3.718  11.941  -5.312  1.00  0.00     0.055 C 
HETATM    5  C11 UNL     1       3.123   9.635  -6.114  1.00  0.00     0.127 A 
HETATM    6  N3  UNL     1       3.200   8.403  -5.562  1.00  0.00    -0.245 N 
HETATM    7  O2  UNL     1       3.684   8.495  -4.380  1.00  0.00    -0.240 OA
ATOM      8  H3  UNL     1       2.916   7.536  -6.016  1.00  0.00     0.196 HD
BRANCH   5   9
HETATM    9  N4  UNL     1       2.683   9.875  -7.284  1.00  0.00    -0.384 N 
ATOM     10  H42 UNL     1       3.043   9.446  -8.136  1.00  0.00     0.157 HD
ATOM     11  H41 UNL     1       1.938  10.493  -7.604  1.00  0.00     0.157 HD
ENDBRANCH   5   9
ENDBRANCH   1   2
BRANCH   1  12
HETATM   12  C5  UNL     1       4.574   9.330  -1.648  1.00  0.00     0.051 C 
BRANCH  12  13
HETATM   13  C6  UNL     1       4.025   9.762  -0.378  1.00  0.00     0.069 C 
BRANCH  13  14
HETATM   14  N1  UNL     1       2.692   9.599   0.001  1.00  0.00    -0.314 N 
HETATM   15  C7  UNL     1       1.832   8.770  -0.817  1.00  0.00     0.134 C 
HETATM   16  C8  UNL     1       0.851   7.980   0.060  1.00  0.00     0.040 C 
HETATM   17  C9  UNL     1      -0.110   8.942   0.678  1.00  0.00     0.126 C 
HETATM   18  N2  UNL     1       0.641   9.997   1.330  1.00  0.00    -0.343 N 
HETATM   19  C10 UNL     1       2.053  10.159   1.141  1.00  0.00     0.322 C 
ATOM     20  H2  UNL     1       0.149  10.646   1.944  1.00  0.00     0.164 HD
HETATM   21  O1  UNL     1       2.741  10.780   1.947  1.00  0.00    -0.247 OA
ENDBRANCH  13  14
ENDBRANCH  12  13
ENDBRANCH   1  12
TORSDOF 5
ENDMDL
MODEL 5
REMARK VINA RESULT: -7.736266985      1.432      1.674
REMARK  5 active torsions:
REMARK  status: ('A' for Active; 'I' for Inactive)
REMARK    1  A    between atoms: C3_3  and  C4_4 
REMARK    2  A    between atoms: C4_4  and  C5_5 
REMARK    3  A    between atoms: C5_5  and  C6_6 
REMARK    4  A    between atoms: C6_6  and  N1_7 
REMARK    5  A    between atoms: C11_18  and  N4_19 
ROOT
HETATM    1  C4  UNL     1       3.379   9.063  -1.385  1.00  0.00     0.073 C 
ENDROOT
BRANCH   1   2
HETATM    2  C3  UNL     1       2.048   8.711  -0.835  1.00  0.00     0.086 A 
HETATM    3  C2  UNL     1       1.562   9.277   0.359  1.00  0.00     0.015 A 
HETATM    4  C1  UNL     1       2.211  10.261   1.240  1.00  0.00     0.055 C 
HETATM    5  C11 UNL     1       0.307   8.750   0.601  1.00  0.00     0.127 A 
HETATM    6  N3  UNL     1       0.091   7.904  -0.431  1.00  0.00    -0.245 N 
HETATM    7  O2  UNL     1       1.103   7.918  -1.215  1.00  0.00    -0.240 OA
ATOM      8  H3  UNL     1      -0.750   7.342  -0.565  1.00  0.00     0.196 HD
BRANCH   5   9
HETATM    9  N4  UNL     1      -0.516   8.957   1.549  1.00  0.00    -0.384 N 
ATOM     10  H42 UNL     1      -1.247   9.668   1.534  1.00  0.00     0.157 HD
ATOM     11  H41 UNL     1      -0.621   8.501   2.455  1.00  0.00     0.157 HD
ENDBRANCH   5   9
ENDBRANCH   1   2
BRANCH   1  12
HETATM   12  C5  UNL     1       3.399   9.039  -2.888  1.00  0.00     0.051 C 
BRANCH  12  13
HETATM   13  C6  UNL     1       4.097  10.113  -3.566  1.00  0.00     0.069 C 
BRANCH  13  14
HETATM   14  N1  UNL     1       4.209  10.229  -4.952  1.00  0.00    -0.314 N 
HETATM   15  C7  UNL     1       3.483   9.296  -5.790  1.00  0.00     0.134 C 
HETATM   16  C8  UNL     1       2.958   9.999  -7.049  1.00  0.00     0.040 C 
HETATM   17  C9  UNL     1       4.125  10.370  -7.904  1.00  0.00     0.126 C 
HETATM   18  N2  UNL     1       5.078  11.108  -7.098  1.00  0.00    -0.343 N 
HETATM   19  C10 UNL     1       4.967  11.193  -5.671  1.00  0.00     0.322 C 
ATOM     20  H2  UNL     1       5.853  11.582  -7.561  1.00  0.00     0.164 HD
HETATM   21  O1  UNL     1       5.519  12.089  -5.038  1.00  0.00    -0.247 OA
ENDBRANCH  13  14
ENDBRANCH  12  13
ENDBRANCH   1  12
TORSDOF 5
ENDMDL
