MODEL 1
REMARK VINA RESULT: -4.968883486      0.000      0.000
REMARK  6 active torsions:
REMARK  status: ('A' for Active; 'I' for Inactive)
REMARK    1  A    between atoms: C2_2  and  C3_3 
REMARK    2  A    between atoms: C3_3  and  C4_4 
REMARK    3  A    between atoms: C5_5  and  N1_6 
REMARK    4  A    between atoms: N1_6  and  C7_8 
REMARK    5  A    between atoms: C10_13  and  N3_14 
REMARK    6  A    between atoms: C11_19  and  N5_20 
ROOT
HETATM    1  C4  UNL     1       5.164  11.665  -4.492  1.00  0.00     0.031 A 
HETATM    2  C5  UNL     1       4.844  11.601  -5.820  1.00  0.00     0.129 A 
HETATM    3  N2  UNL     1       4.140  10.530  -6.258  1.00  0.00    -0.176 N 
ATOM      4  H2  UNL     1       3.899  10.477  -7.247  1.00  0.00     0.186 HD
HETATM    5  C10 UNL     1       3.748   9.538  -5.450  1.00  0.00     0.679 A 
HETATM    6  N4  UNL     1       4.046   9.570  -4.143  1.00  0.00    -0.177 N 
ATOM      7  H4  UNL     1       3.751   8.818  -3.522  1.00  0.00     0.186 HD
HETATM    8  C11 UNL     1       4.741  10.616  -3.672  1.00  0.00     0.126 A 
ENDROOT
BRANCH   2   9
HETATM    9  N1  UNL     1       5.192  12.577  -6.786  1.00  0.00    -0.367 N 
HETATM   10  C6  UNL     1       4.154  13.482  -7.253  1.00  0.00     0.151 C 
BRANCH   9  11
HETATM   11  C7  UNL     1       6.536  12.721  -7.305  1.00  0.00     0.077 C 
HETATM   12  C8  UNL     1       6.696  11.800  -8.491  1.00  0.00     0.032 C 
HETATM   13  C9  UNL     1       6.771  14.130  -7.846  1.00  0.00     0.032 C 
ENDBRANCH   9  11
ENDBRANCH   2   9
BRANCH   1  14
HETATM   14  C3  UNL     1       5.924  12.780  -3.896  1.00  0.00     0.046 C 
BRANCH  14  15
HETATM   15  C2  UNL     1       5.122  13.989  -3.554  1.00  0.00     0.000 C 
HETATM   16  C1  UNL     1       5.772  15.167  -4.287  1.00  0.00     0.005 C 
ENDBRANCH  14  15
ENDBRANCH   1  14
BRANCH   8  17
HETATM   17  N5  UNL     1       5.014  10.615  -2.413  1.00  0.00    -0.380 N 
HETATM   18  C12 UNL     1       4.453   9.691  -1.471  1.00  0.00     0.147 C 
ATOM     19  H5  UNL     1       5.670  11.314  -2.065  1.00  0.00     0.160 HD
ENDBRANCH   8  17
BRANCH   5  20
HETATM   20  N3  UNL     1       3.070   8.531  -5.939  1.00  0.00    -0.234 N 
ATOM     21  H32 UNL     1       2.756   7.783  -5.321  1.00  0.00     0.174 HD
ATOM     22  H31 UNL     1       2.857   8.499  -6.936  1.00  0.00     0.174 HD
ENDBRANCH   5  20
TORSDOF 6
ENDMDL
MODEL 2
REMARK VINA RESULT: -4.965502271      0.607      1.398
REMARK  6 active torsions:
REMARK  status: ('A' for Active; 'I' for Inactive)
REMARK    1  A    between atoms: C2_2  and  C3_3 
REMARK    2  A    between atoms: C3_3  and  C4_4 
REMARK    3  A    between atoms: C5_5  and  N1_6 
REMARK    4  A    between atoms: N1_6  and  C7_8 
REMARK    5  A    between atoms: C10_13  and  N3_14 
REMARK    6  A    between atoms: C11_19  and  N5_20 
ROOT
HETATM    1  C4  UNL     1       5.290  11.406  -4.535  1.00  0.00     0.031 A 
HETATM    2  C5  UNL     1       4.994  11.355  -5.870  1.00  0.00     0.129 A 
HETATM    3  N2  UNL     1       4.201  10.350  -6.312  1.00  0.00    -0.176 N 
ATOM      4  H2  UNL     1       3.978  10.308  -7.306  1.00  0.00     0.186 HD
HETATM    5  C10 UNL     1       3.699   9.411  -5.503  1.00  0.00     0.679 A 
HETATM    6  N4  UNL     1       3.970   9.432  -4.189  1.00  0.00    -0.177 N 
ATOM      7  H4  UNL     1       3.590   8.719  -3.567  1.00  0.00     0.186 HD
HETATM    8  C11 UNL     1       4.751  10.412  -3.714  1.00  0.00     0.126 A 
ENDROOT
BRANCH   2   9
HETATM    9  N1  UNL     1       5.455  12.281  -6.838  1.00  0.00    -0.367 N 
HETATM   10  C6  UNL     1       6.666  11.959  -7.574  1.00  0.00     0.151 C 
BRANCH   9  11
HETATM   11  C7  UNL     1       4.759  13.515  -7.136  1.00  0.00     0.077 C 
HETATM   12  C8  UNL     1       5.777  14.623  -7.268  1.00  0.00     0.032 C 
HETATM   13  C9  UNL     1       4.056  13.440  -8.490  1.00  0.00     0.032 C 
ENDBRANCH   9  11
ENDBRANCH   2   9
BRANCH   1  14
HETATM   14  C3  UNL     1       6.140  12.451  -3.934  1.00  0.00     0.046 C 
BRANCH  14  15
HETATM   15  C2  UNL     1       5.434  13.705  -3.550  1.00  0.00     0.000 C 
HETATM   16  C1  UNL     1       6.490  14.816  -3.538  1.00  0.00     0.005 C 
ENDBRANCH  14  15
ENDBRANCH   1  14
BRANCH   8  17
HETATM   17  N5  UNL     1       4.995  10.401  -2.449  1.00  0.00    -0.380 N 
HETATM   18  C12 UNL     1       4.343   9.532  -1.514  1.00  0.00     0.147 C 
ATOM     19  H5  UNL     1       5.695  11.051  -2.091  1.00  0.00     0.160 HD
ENDBRANCH   8  17
BRANCH   5  20
HETATM   20  N3  UNL     1       2.938   8.467  -5.996  1.00  0.00    -0.234 N 
ATOM     21  H32 UNL     1       1.923   8.563  -5.960  1.00  0.00     0.174 HD
ATOM     22  H31 UNL     1       3.363   7.640  -6.415  1.00  0.00     0.174 HD
ENDBRANCH   5  20
TORSDOF 6
ENDMDL
MODEL 3
REMARK VINA RESULT: -4.697899030      1.520      3.779
REMARK  6 active torsions:
REMARK  status: ('A' for Active; 'I' for Inactive)
REMARK    1  A    between atoms: C2_2  and  C3_3 
REMARK    2  A    between atoms: C3_3  and  C4_4 
REMARK    3  A    between atoms: C5_5  and  N1_6 
REMARK    4  A    between atoms: N1_6  and  C7_8 
REMARK    5  A    between atoms: C10_13  and  N3_14 
REMARK    6  A    between atoms: C11_19  and  N5_20 
ROOT
HETATM    1  C4  UNL     1       4.749  10.871  -6.109  1.00  0.00     0.031 A 
HETATM    2  C5  UNL     1       5.051  11.128  -4.800  1.00  0.00     0.129 A 
HETATM    3  N2  UNL     1       4.396  10.429  -3.843  1.00  0.00    -0.176 N 
ATOM      4  H2  UNL     1       4.617  10.617  -2.866  1.00  0.00     0.186 HD
HETATM    5  C10 UNL     1       3.470   9.504  -4.123  1.00  0.00     0.679 A 
HETATM    6  N4  UNL     1       3.151   9.229  -5.396  1.00  0.00    -0.177 N 
ATOM      7  H4  UNL     1       2.446   8.526  -5.617  1.00  0.00     0.186 HD
HETATM    8  C11 UNL     1       3.779   9.900  -6.372  1.00  0.00     0.126 A 
ENDROOT
BRANCH   2   9
HETATM    9  N1  UNL     1       6.007  12.076  -4.360  1.00  0.00    -0.367 N 
HETATM   10  C6  UNL     1       7.412  11.801  -4.610  1.00  0.00     0.151 C 
BRANCH   9  11
HETATM   11  C7  UNL     1       5.640  13.309  -3.696  1.00  0.00     0.077 C 
HETATM   12  C8  UNL     1       6.728  14.328  -3.935  1.00  0.00     0.032 C 
HETATM   13  C9  UNL     1       4.374  13.909  -4.305  1.00  0.00     0.032 C 
ENDBRANCH   9  11
ENDBRANCH   2   9
BRANCH   1  14
HETATM   14  C3  UNL     1       5.396  11.564  -7.240  1.00  0.00     0.046 C 
BRANCH  14  15
HETATM   15  C2  UNL     1       4.780  12.864  -7.628  1.00  0.00     0.000 C 
HETATM   16  C1  UNL     1       5.920  13.885  -7.695  1.00  0.00     0.005 C 
ENDBRANCH  14  15
ENDBRANCH   1  14
BRANCH   8  17
HETATM   17  N5  UNL     1       3.446   9.615  -7.583  1.00  0.00    -0.380 N 
HETATM   18  C12 UNL     1       4.271   8.868  -8.487  1.00  0.00     0.147 C 
ATOM     19  H5  UNL     1       2.540   9.941  -7.920  1.00  0.00     0.160 HD
ENDBRANCH   8  17
BRANCH   5  20
HETATM   20  N3  UNL     1       2.875   8.865  -3.149  1.00  0.00    -0.234 N 
ATOM     21  H32 UNL     1       3.327   8.793  -2.237  1.00  0.00     0.174 HD
ATOM     22  H31 UNL     1       1.960   8.442  -3.305  1.00  0.00     0.174 HD
ENDBRANCH   5  20
TORSDOF 6
ENDMDL
MODEL 4
REMARK VINA RESULT: -4.661143748      1.889      3.594
REMARK  6 active torsions:
REMARK  status: ('A' for Active; 'I' for Inactive)
REMARK    1  A    between atoms: C2_2  and  C3_3 
REMARK    2  A    between atoms: C3_3  and  C4_4 
REMARK    3  A    between atoms: C5_5  and  N1_6 
REMARK    4  A    between atoms: N1_6  and  C7_8 
REMARK    5  A    between atoms: C10_13  and  N3_14 
REMARK    6  A    between atoms: C11_19  and  N5_20 
ROOT
HETATM    1  C4  UNL     1       4.757  11.744  -5.363  1.00  0.00     0.031 A 
HETATM    2  C5  UNL     1       5.555  12.616  -6.050  1.00  0.00     0.129 A 
HETATM    3  N2  UNL     1       6.835  12.772  -5.639  1.00  0.00    -0.176 N 
ATOM      4  H2  UNL     1       7.434  13.422  -6.148  1.00  0.00     0.186 HD
HETATM    5  C10 UNL     1       7.350  12.114  -4.595  1.00  0.00     0.679 A 
HETATM    6  N4  UNL     1       6.594  11.251  -3.899  1.00  0.00    -0.177 N 
ATOM      7  H4  UNL     1       6.979  10.745  -3.102  1.00  0.00     0.186 HD
HETATM    8  C11 UNL     1       5.320  11.069  -4.277  1.00  0.00     0.126 A 
ENDROOT
BRANCH   2   9
HETATM    9  N1  UNL     1       5.144  13.378  -7.172  1.00  0.00    -0.367 N 
HETATM   10  C6  UNL     1       5.690  13.031  -8.474  1.00  0.00     0.151 C 
BRANCH   9  11
HETATM   11  C7  UNL     1       4.193  14.465  -7.076  1.00  0.00     0.077 C 
HETATM   12  C8  UNL     1       4.701  15.462  -6.062  1.00  0.00     0.032 C 
HETATM   13  C9  UNL     1       4.096  15.233  -8.393  1.00  0.00     0.032 C 
ENDBRANCH   9  11
ENDBRANCH   2   9
BRANCH   1  14
HETATM   14  C3  UNL     1       3.348  11.487  -5.715  1.00  0.00     0.046 C 
BRANCH  14  15
HETATM   15  C2  UNL     1       3.130  10.452  -6.765  1.00  0.00     0.000 C 
HETATM   16  C1  UNL     1       2.538  11.178  -7.978  1.00  0.00     0.005 C 
ENDBRANCH  14  15
ENDBRANCH   1  14
BRANCH   8  17
HETATM   17  N5  UNL     1       4.621  10.236  -3.586  1.00  0.00    -0.380 N 
HETATM   18  C12 UNL     1       4.680  10.131  -2.157  1.00  0.00     0.147 C 
ATOM     19  H5  UNL     1       3.986   9.614  -4.086  1.00  0.00     0.160 HD
ENDBRANCH   8  17
BRANCH   5  20
HETATM   20  N3  UNL     1       8.596  12.311  -4.251  1.00  0.00    -0.234 N 
ATOM     21  H32 UNL     1       8.950  13.263  -4.148  1.00  0.00     0.174 HD
ATOM     22  H31 UNL     1       9.210  11.513  -4.085  1.00  0.00     0.174 HD
ENDBRANCH   5  20
TORSDOF 6
ENDMDL
MODEL 5
REMARK VINA RESULT: -4.634085327      1.704      2.735
REMARK  6 active torsions:
REMARK  status: ('A' for Active; 'I' for Inactive)
REMARK    1  A    between atoms: C2_2  and  C3_3 
REMARK    2  A    between atoms: C3_3  and  C4_4 
REMARK    3  A    between atoms: C5_5  and  N1_6 
REMARK    4  A    between atoms: N1_6  and  C7_8 
REMARK    5  A    between atoms: C10_13  and  N3_14 
REMARK    6  A    between atoms: C11_19  and  N5_20 
ROOT
HETATM    1  C4  UNL     1       4.839  12.075  -5.183  1.00  0.00     0.031 A 
HETATM    2  C5  UNL     1       4.511  12.929  -6.199  1.00  0.00     0.129 A 
HETATM    3  N2  UNL     1       3.562  12.539  -7.082  1.00  0.00    -0.176 N 
ATOM      4  H2  UNL     1       3.314  13.173  -7.842  1.00  0.00     0.186 HD
HETATM    5  C10 UNL     1       2.936  11.360  -7.003  1.00  0.00     0.679 A 
HETATM    6  N4  UNL     1       3.234  10.499  -6.019  1.00  0.00    -0.177 N 
ATOM      7  H4  UNL     1       2.761   9.598  -5.952  1.00  0.00     0.186 HD
HETATM    8  C11 UNL     1       4.169  10.851  -5.124  1.00  0.00     0.126 A 
ENDROOT
BRANCH   2   9
HETATM    9  N1  UNL     1       5.091  14.206  -6.404  1.00  0.00    -0.367 N 
HETATM   10  C6  UNL     1       6.143  14.331  -7.399  1.00  0.00     0.151 C 
BRANCH   9  11
HETATM   11  C7  UNL     1       4.664  15.385  -5.681  1.00  0.00     0.077 C 
HETATM   12  C8  UNL     1       5.889  16.137  -5.217  1.00  0.00     0.032 C 
HETATM   13  C9  UNL     1       3.912  16.351  -6.595  1.00  0.00     0.032 C 
ENDBRANCH   9  11
ENDBRANCH   2   9
BRANCH   1  14
HETATM   14  C3  UNL     1       5.854  12.387  -4.159  1.00  0.00     0.046 C 
BRANCH  14  15
HETATM   15  C2  UNL     1       7.233  11.907  -4.458  1.00  0.00     0.000 C 
HETATM   16  C1  UNL     1       8.112  13.155  -4.588  1.00  0.00     0.005 C 
ENDBRANCH  14  15
ENDBRANCH   1  14
BRANCH   8  17
HETATM   17  N5  UNL     1       4.435  10.000  -4.194  1.00  0.00    -0.380 N 
HETATM   18  C12 UNL     1       3.439   9.252  -3.483  1.00  0.00     0.147 C 
ATOM     19  H5  UNL     1       5.413   9.849  -3.948  1.00  0.00     0.160 HD
ENDBRANCH   8  17
BRANCH   5  20
HETATM   20  N3  UNL     1       2.028  11.045  -7.890  1.00  0.00    -0.234 N 
ATOM     21  H32 UNL     1       1.290  11.711  -8.120  1.00  0.00     0.174 HD
ATOM     22  H31 UNL     1       2.060  10.135  -8.350  1.00  0.00     0.174 HD
ENDBRANCH   5  20
TORSDOF 6
ENDMDL
