MODEL 1
REMARK VINA RESULT: -5.243936964      0.000      0.000
REMARK  6 active torsions:
REMARK  status: ('A' for Active; 'I' for Inactive)
REMARK    1  A    between atoms: O1_2  and  C2_3 
REMARK    2  A    between atoms: C3_5  and  C4_6 
REMARK    3  A    between atoms: C4_6  and  O3_7 
REMARK    4  A    between atoms: C5_9  and  O4_10 
REMARK    5  A    between atoms: C6_12  and  C7_13 
REMARK    6  A    between atoms: C7_13  and  O5_14 
ROOT
HETATM    1  C2  UNL     1       0.969  -6.097 -16.007  1.00  0.00     0.413 C 
HETATM    2  O2  UNL     1       2.209  -5.544 -15.702  1.00  0.00    -0.329 OA
HETATM    3  C3  UNL     1       2.261  -4.186 -15.906  1.00  0.00     0.181 C 
HETATM    4  C5  UNL     1       0.925  -3.662 -16.356  1.00  0.00     0.180 C 
HETATM    5  C6  UNL     1      -0.222  -4.232 -15.566  1.00  0.00     0.181 C 
HETATM    6  O6  UNL     1      -0.010  -5.563 -15.216  1.00  0.00    -0.329 OA
ENDROOT
BRANCH   3   7
HETATM    7  C4  UNL     1       2.741  -3.499 -14.647  1.00  0.00     0.199 C 
BRANCH   7   8
HETATM    8  O3  UNL     1       3.114  -4.399 -13.683  1.00  0.00    -0.398 OA
ATOM      9  H3  UNL     1       4.031  -4.312 -13.452  1.00  0.00     0.209 HD
ENDBRANCH   7   8
ENDBRANCH   3   7
BRANCH   4  10
HETATM   10  O4  UNL     1       0.909  -2.258 -16.226  1.00  0.00    -0.390 OA
ATOM     11  H4  UNL     1       0.196  -1.904 -16.745  1.00  0.00     0.210 HD
ENDBRANCH   4  10
BRANCH   1  12
HETATM   12  O1  UNL     1       1.096  -7.474 -15.897  1.00  0.00    -0.344 OA
HETATM   13  C1  UNL     1       0.702  -8.147 -17.043  1.00  0.00     0.207 C 
ENDBRANCH   1  12
BRANCH   5  14
HETATM   14  C7  UNL     1      -1.523  -4.169 -16.341  1.00  0.00     0.199 C 
BRANCH  14  15
HETATM   15  O5  UNL     1      -1.830  -2.887 -16.771  1.00  0.00    -0.398 OA
ATOM     16  H5  UNL     1      -1.691  -2.769 -17.703  1.00  0.00     0.209 HD
ENDBRANCH  14  15
ENDBRANCH   5  14
TORSDOF 6
ENDMDL
MODEL 2
REMARK VINA RESULT: -5.112516772      1.269      3.414
REMARK  6 active torsions:
REMARK  status: ('A' for Active; 'I' for Inactive)
REMARK    1  A    between atoms: O1_2  and  C2_3 
REMARK    2  A    between atoms: C3_5  and  C4_6 
REMARK    3  A    between atoms: C4_6  and  O3_7 
REMARK    4  A    between atoms: C5_9  and  O4_10 
REMARK    5  A    between atoms: C6_12  and  C7_13 
REMARK    6  A    between atoms: C7_13  and  O5_14 
ROOT
HETATM    1  C2  UNL     1       1.785  -4.219 -15.274  1.00  0.00     0.413 C 
HETATM    2  O2  UNL     1       2.091  -5.568 -15.427  1.00  0.00    -0.329 OA
HETATM    3  C3  UNL     1       0.985  -6.351 -15.659  1.00  0.00     0.181 C 
HETATM    4  C5  UNL     1      -0.258  -5.509 -15.739  1.00  0.00     0.180 C 
HETATM    5  C6  UNL     1      -0.069  -4.263 -16.560  1.00  0.00     0.181 C 
HETATM    6  O6  UNL     1       1.204  -3.719 -16.406  1.00  0.00    -0.329 OA
ENDROOT
BRANCH   3   7
HETATM    7  C4  UNL     1       1.193  -7.169 -16.915  1.00  0.00     0.199 C 
BRANCH   7   8
HETATM    8  O3  UNL     1       0.717  -8.447 -16.778  1.00  0.00    -0.398 OA
ATOM      9  H3  UNL     1       0.885  -8.972 -17.552  1.00  0.00     0.209 HD
ENDBRANCH   7   8
ENDBRANCH   3   7
BRANCH   4  10
HETATM   10  O4  UNL     1      -1.300  -6.270 -16.308  1.00  0.00    -0.390 OA
ATOM     11  H4  UNL     1      -1.689  -5.782 -17.024  1.00  0.00     0.210 HD
ENDBRANCH   4  10
BRANCH   1  12
HETATM   12  O1  UNL     1       2.955  -3.573 -14.905  1.00  0.00    -0.344 OA
HETATM   13  C1  UNL     1       3.983  -4.450 -14.592  1.00  0.00     0.207 C 
ENDBRANCH   1  12
BRANCH   5  14
HETATM   14  C7  UNL     1      -1.069  -3.186 -16.186  1.00  0.00     0.199 C 
BRANCH  14  15
HETATM   15  O5  UNL     1      -2.020  -3.630 -15.281  1.00  0.00    -0.398 OA
ATOM     16  H5  UNL     1      -2.759  -3.038 -15.206  1.00  0.00     0.209 HD
ENDBRANCH  14  15
ENDBRANCH   5  14
TORSDOF 6
ENDMDL
MODEL 3
REMARK VINA RESULT: -4.788458564      1.695      2.028
REMARK  6 active torsions:
REMARK  status: ('A' for Active; 'I' for Inactive)
REMARK    1  A    between atoms: O1_2  and  C2_3 
REMARK    2  A    between atoms: C3_5  and  C4_6 
REMARK    3  A    between atoms: C4_6  and  O3_7 
REMARK    4  A    between atoms: C5_9  and  O4_10 
REMARK    5  A    between atoms: C6_12  and  C7_13 
REMARK    6  A    between atoms: C7_13  and  O5_14 
ROOT
HETATM    1  C2  UNL     1      -1.136  -5.924 -16.405  1.00  0.00     0.413 C 
HETATM    2  O2  UNL     1       0.211  -6.241 -16.259  1.00  0.00    -0.329 OA
HETATM    3  C3  UNL     1       1.019  -5.135 -16.142  1.00  0.00     0.181 C 
HETATM    4  C5  UNL     1       0.200  -3.874 -16.150  1.00  0.00     0.180 C 
HETATM    5  C6  UNL     1      -1.028  -3.968 -15.286  1.00  0.00     0.181 C 
HETATM    6  O6  UNL     1      -1.597  -5.239 -15.316  1.00  0.00    -0.329 OA
ENDROOT
BRANCH   3   7
HETATM    7  C4  UNL     1       1.864  -5.250 -14.893  1.00  0.00     0.199 C 
BRANCH   7   8
HETATM    8  O3  UNL     1       1.423  -6.252 -14.067  1.00  0.00    -0.398 OA
ATOM      9  H3  UNL     1       1.474  -6.004 -13.152  1.00  0.00     0.209 HD
ENDBRANCH   7   8
ENDBRANCH   3   7
BRANCH   4  10
HETATM   10  O4  UNL     1       0.993  -2.802 -15.692  1.00  0.00    -0.390 OA
ATOM     11  H4  UNL     1       1.829  -2.815 -16.144  1.00  0.00     0.210 HD
ENDBRANCH   4  10
BRANCH   1  12
HETATM   12  O1  UNL     1      -1.811  -7.109 -16.655  1.00  0.00    -0.344 OA
HETATM   13  C1  UNL     1      -2.976  -6.926 -17.386  1.00  0.00     0.207 C 
ENDBRANCH   1  12
BRANCH   5  14
HETATM   14  C7  UNL     1      -2.096  -2.983 -15.719  1.00  0.00     0.199 C 
BRANCH  14  15
HETATM   15  O5  UNL     1      -1.913  -2.529 -17.015  1.00  0.00    -0.398 OA
ATOM     16  H5  UNL     1      -2.687  -2.637 -17.555  1.00  0.00     0.209 HD
ENDBRANCH  14  15
ENDBRANCH   5  14
TORSDOF 6
ENDMDL
MODEL 4
REMARK VINA RESULT: -4.741895271      1.182      3.481
REMARK  6 active torsions:
REMARK  status: ('A' for Active; 'I' for Inactive)
REMARK    1  A    between atoms: O1_2  and  C2_3 
REMARK    2  A    between atoms: C3_5  and  C4_6 
REMARK    3  A    between atoms: C4_6  and  O3_7 
REMARK    4  A    between atoms: C5_9  and  O4_10 
REMARK    5  A    between atoms: C6_12  and  C7_13 
REMARK    6  A    between atoms: C7_13  and  O5_14 
ROOT
HETATM    1  C2  UNL     1       1.486  -5.822 -15.407  1.00  0.00     0.413 C 
HETATM    2  O2  UNL     1       0.425  -5.082 -15.922  1.00  0.00    -0.329 OA
HETATM    3  C3  UNL     1       0.509  -3.741 -15.634  1.00  0.00     0.181 C 
HETATM    4  C5  UNL     1       1.773  -3.436 -14.877  1.00  0.00     0.180 C 
HETATM    5  C6  UNL     1       2.979  -4.130 -15.449  1.00  0.00     0.181 C 
HETATM    6  O6  UNL     1       2.675  -5.400 -15.933  1.00  0.00    -0.329 OA
ENDROOT
BRANCH   3   7
HETATM    7  C4  UNL     1       0.410  -2.937 -16.911  1.00  0.00     0.199 C 
BRANCH   7   8
HETATM    8  O3  UNL     1      -0.879  -2.869 -17.374  1.00  0.00    -0.398 OA
ATOM      9  H3  UNL     1      -0.911  -2.776 -18.319  1.00  0.00     0.209 HD
ENDBRANCH   7   8
ENDBRANCH   3   7
BRANCH   4  10
HETATM   10  O4  UNL     1       2.001  -2.045 -14.896  1.00  0.00    -0.390 OA
ATOM     11  H4  UNL     1       1.491  -1.634 -14.208  1.00  0.00     0.210 HD
ENDBRANCH   4  10
BRANCH   1  12
HETATM   12  O1  UNL     1       1.205  -7.159 -15.642  1.00  0.00    -0.344 OA
HETATM   13  C1  UNL     1       0.515  -7.368 -16.827  1.00  0.00     0.207 C 
ENDBRANCH   1  12
BRANCH   5  14
HETATM   14  C7  UNL     1       4.077  -4.290 -14.416  1.00  0.00     0.199 C 
BRANCH  14  15
HETATM   15  O5  UNL     1       4.321  -3.123 -13.708  1.00  0.00    -0.398 OA
ATOM     16  H5  UNL     1       5.217  -2.821 -13.795  1.00  0.00     0.209 HD
ENDBRANCH  14  15
ENDBRANCH   5  14
TORSDOF 6
ENDMDL
MODEL 5
REMARK VINA RESULT: -4.709164466      1.705      3.476
REMARK  6 active torsions:
REMARK  status: ('A' for Active; 'I' for Inactive)
REMARK    1  A    between atoms: O1_2  and  C2_3 
REMARK    2  A    between atoms: C3_5  and  C4_6 
REMARK    3  A    between atoms: C4_6  and  O3_7 
REMARK    4  A    between atoms: C5_9  and  O4_10 
REMARK    5  A    between atoms: C6_12  and  C7_13 
REMARK    6  A    between atoms: C7_13  and  O5_14 
ROOT
HETATM    1  C2  UNL     1      -0.811  -3.604 -16.307  1.00  0.00     0.413 C 
HETATM    2  O2  UNL     1       0.505  -3.253 -16.025  1.00  0.00    -0.329 OA
HETATM    3  C3  UNL     1       1.218  -4.262 -15.423  1.00  0.00     0.181 C 
HETATM    4  C5  UNL     1       0.378  -5.502 -15.287  1.00  0.00     0.180 C 
HETATM    5  C6  UNL     1      -0.410  -5.814 -16.531  1.00  0.00     0.181 C 
HETATM    6  O6  UNL     1      -0.859  -4.662 -17.172  1.00  0.00    -0.329 OA
ENDROOT
BRANCH   3   7
HETATM    7  C4  UNL     1       2.488  -4.525 -16.203  1.00  0.00     0.199 C 
BRANCH   7   8
HETATM    8  O3  UNL     1       3.503  -4.964 -15.393  1.00  0.00    -0.398 OA
ATOM      9  H3  UNL     1       4.189  -4.314 -15.301  1.00  0.00     0.209 HD
ENDBRANCH   7   8
ENDBRANCH   3   7
BRANCH   4  10
HETATM   10  O4  UNL     1       1.212  -6.600 -14.994  1.00  0.00    -0.390 OA
ATOM     11  H4  UNL     1       1.489  -6.549 -14.086  1.00  0.00     0.210 HD
ENDBRANCH   4  10
BRANCH   1  12
HETATM   12  O1  UNL     1      -1.449  -2.464 -16.772  1.00  0.00    -0.344 OA
HETATM   13  C1  UNL     1      -2.831  -2.549 -16.701  1.00  0.00     0.207 C 
ENDBRANCH   1  12
BRANCH   5  14
HETATM   14  C7  UNL     1      -1.626  -6.666 -16.226  1.00  0.00     0.199 C 
BRANCH  14  15
HETATM   15  O5  UNL     1      -2.599  -6.584 -17.211  1.00  0.00    -0.398 OA
ATOM     16  H5  UNL     1      -2.584  -7.325 -17.803  1.00  0.00     0.209 HD
ENDBRANCH  14  15
ENDBRANCH   5  14
TORSDOF 6
ENDMDL
