MODEL 1
REMARK VINA RESULT: -8.626528142      0.000      0.000
REMARK  5 active torsions:
REMARK  status: ('A' for Active; 'I' for Inactive)
REMARK    1  A    between atoms: C1_2  and  C2_4 
REMARK       I    between atoms: C2_4  and  N1_6 
REMARK    2  A    between atoms: N1_6  and  N2_8 
REMARK    3  A    between atoms: N2_8  and  S1_10 
REMARK    4  A    between atoms: S1_10  and  C3_13 
REMARK    5  A    between atoms: C6_16  and  C7_17 
ROOT
HETATM    1  S1  UNL     1       4.301 -17.723 -12.027  1.00  0.00     0.276 S 
HETATM    2  O4  UNL     1       3.324 -17.578 -10.871  1.00  0.00    -0.199 OA
HETATM    3  O5  UNL     1       4.449 -16.394 -12.760  1.00  0.00    -0.199 OA
ENDROOT
BRANCH   1   4
HETATM    4  N2  UNL     1       3.781 -18.940 -13.102  1.00  0.00    -0.220 N 
ATOM      5  H2  UNL     1       3.702 -18.849 -14.114  1.00  0.00     0.200 HD
BRANCH   4   6
HETATM    6  N1  UNL     1       3.481 -20.094 -12.354  1.00  0.00    -0.251 N 
HETATM    7  C2  UNL     1       3.717 -21.395 -12.843  1.00  0.00     0.337 C 
HETATM    8  O3  UNL     1       4.213 -21.535 -13.980  1.00  0.00    -0.259 OA
ATOM      9  H1  UNL     1       3.077 -19.985 -11.424  1.00  0.00     0.191 HD
BRANCH   7  10
HETATM   10  C1  UNL     1       3.388 -22.554 -12.044  1.00  0.00     0.271 C 
HETATM   11  O1  UNL     1       2.863 -22.500 -10.898  1.00  0.00    -0.640 OA
HETATM   12  O2  UNL     1       3.664 -23.827 -12.562  1.00  0.00    -0.640 OA
ENDBRANCH   7  10
ENDBRANCH   4   6
ENDBRANCH   1   4
BRANCH   1  13
HETATM   13  C3  UNL     1       5.867 -18.049 -11.311  1.00  0.00     0.081 A 
HETATM   14  C4  UNL     1       6.652 -19.067 -11.785  1.00  0.00     0.026 A 
HETATM   15  C5  UNL     1       7.908 -19.360 -11.244  1.00  0.00     0.020 A 
HETATM   16  C6  UNL     1       8.401 -18.615 -10.198  1.00  0.00     0.040 A 
HETATM   17  C8  UNL     1       7.598 -17.585  -9.726  1.00  0.00     0.020 A 
HETATM   18  C9  UNL     1       6.352 -17.288 -10.257  1.00  0.00     0.026 A 
BRANCH  16  19
HETATM   19  C7  UNL     1       9.702 -18.867  -9.588  1.00  0.00     0.209 C 
HETATM   20  O6  UNL     1       9.770 -19.085  -8.354  1.00  0.00    -0.644 OA
HETATM   21  O7  UNL     1      10.878 -18.878 -10.316  1.00  0.00    -0.644 OA
ENDBRANCH  16  19
ENDBRANCH   1  13
TORSDOF 5
ENDMDL
MODEL 2
REMARK VINA RESULT: -8.565157081      0.228      1.323
REMARK  5 active torsions:
REMARK  status: ('A' for Active; 'I' for Inactive)
REMARK    1  A    between atoms: C1_2  and  C2_4 
REMARK       I    between atoms: C2_4  and  N1_6 
REMARK    2  A    between atoms: N1_6  and  N2_8 
REMARK    3  A    between atoms: N2_8  and  S1_10 
REMARK    4  A    between atoms: S1_10  and  C3_13 
REMARK    5  A    between atoms: C6_16  and  C7_17 
ROOT
HETATM    1  S1  UNL     1       4.286 -17.683 -12.112  1.00  0.00     0.276 S 
HETATM    2  O4  UNL     1       3.298 -17.542 -10.965  1.00  0.00    -0.199 OA
HETATM    3  O5  UNL     1       4.463 -16.345 -12.821  1.00  0.00    -0.199 OA
ENDROOT
BRANCH   1   4
HETATM    4  N2  UNL     1       3.760 -18.874 -13.212  1.00  0.00    -0.220 N 
ATOM      5  H2  UNL     1       3.766 -18.792 -14.228  1.00  0.00     0.200 HD
BRANCH   4   6
HETATM    6  N1  UNL     1       3.317 -19.992 -12.480  1.00  0.00    -0.251 N 
HETATM    7  C2  UNL     1       3.583 -21.315 -12.884  1.00  0.00     0.337 C 
HETATM    8  O3  UNL     1       4.237 -21.510 -13.929  1.00  0.00    -0.259 OA
ATOM      9  H1  UNL     1       2.784 -19.837 -11.624  1.00  0.00     0.191 HD
BRANCH   7  10
HETATM   10  C1  UNL     1       3.105 -22.435 -12.105  1.00  0.00     0.271 C 
HETATM   11  O1  UNL     1       3.430 -23.635 -12.314  1.00  0.00    -0.640 OA
HETATM   12  O2  UNL     1       2.224 -22.185 -11.043  1.00  0.00    -0.640 OA
ENDBRANCH   7  10
ENDBRANCH   4   6
ENDBRANCH   1   4
BRANCH   1  13
HETATM   13  C3  UNL     1       5.838 -18.045 -11.384  1.00  0.00     0.081 A 
HETATM   14  C4  UNL     1       6.320 -17.282 -10.353  1.00  0.00     0.026 A 
HETATM   15  C5  UNL     1       7.552 -17.536  -9.742  1.00  0.00     0.020 A 
HETATM   16  C6  UNL     1       8.332 -18.585 -10.170  1.00  0.00     0.040 A 
HETATM   17  C8  UNL     1       7.834 -19.353 -11.215  1.00  0.00     0.020 A 
HETATM   18  C9  UNL     1       6.614 -19.107 -11.825  1.00  0.00     0.026 A 
BRANCH  16  19
HETATM   19  C7  UNL     1       9.626 -18.905  -9.578  1.00  0.00     0.209 C 
HETATM   20  O6  UNL     1       9.709 -19.072  -8.336  1.00  0.00    -0.644 OA
HETATM   21  O7  UNL     1      10.779 -19.036 -10.329  1.00  0.00    -0.644 OA
ENDBRANCH  16  19
ENDBRANCH   1  13
TORSDOF 5
ENDMDL
MODEL 3
REMARK VINA RESULT: -7.679819386      0.933      1.401
REMARK  5 active torsions:
REMARK  status: ('A' for Active; 'I' for Inactive)
REMARK    1  A    between atoms: C1_2  and  C2_4 
REMARK       I    between atoms: C2_4  and  N1_6 
REMARK    2  A    between atoms: N1_6  and  N2_8 
REMARK    3  A    between atoms: N2_8  and  S1_10 
REMARK    4  A    between atoms: S1_10  and  C3_13 
REMARK    5  A    between atoms: C6_16  and  C7_17 
ROOT
HETATM    1  S1  UNL     1       4.913 -17.814 -11.770  1.00  0.00     0.276 S 
HETATM    2  O4  UNL     1       4.561 -16.405 -11.320  1.00  0.00    -0.199 OA
HETATM    3  O5  UNL     1       5.059 -17.860 -13.287  1.00  0.00    -0.199 OA
ENDROOT
BRANCH   1   4
HETATM    4  N2  UNL     1       3.725 -18.923 -11.253  1.00  0.00    -0.220 N 
ATOM      5  H2  UNL     1       3.121 -18.815 -10.440  1.00  0.00     0.200 HD
BRANCH   4   6
HETATM    6  N1  UNL     1       3.720 -20.015 -12.142  1.00  0.00    -0.251 N 
HETATM    7  C2  UNL     1       3.577 -21.347 -11.704  1.00  0.00     0.337 C 
HETATM    8  O3  UNL     1       3.447 -21.573 -10.483  1.00  0.00    -0.259 OA
ATOM      9  H1  UNL     1       3.825 -19.835 -13.141  1.00  0.00     0.191 HD
BRANCH   7  10
HETATM   10  C1  UNL     1       3.583 -22.439 -12.650  1.00  0.00     0.271 C 
HETATM   11  O1  UNL     1       3.197 -23.610 -12.384  1.00  0.00    -0.640 OA
HETATM   12  O2  UNL     1       4.043 -22.197 -13.952  1.00  0.00    -0.640 OA
ENDBRANCH   7  10
ENDBRANCH   4   6
ENDBRANCH   1   4
BRANCH   1  13
HETATM   13  C3  UNL     1       6.507 -18.153 -11.128  1.00  0.00     0.081 A 
HETATM   14  C4  UNL     1       7.193 -19.273 -11.518  1.00  0.00     0.026 A 
HETATM   15  C5  UNL     1       8.468 -19.581 -11.033  1.00  0.00     0.020 A 
HETATM   16  C6  UNL     1       9.082 -18.746 -10.128  1.00  0.00     0.040 A 
HETATM   17  C8  UNL     1       8.380 -17.614  -9.739  1.00  0.00     0.020 A 
HETATM   18  C9  UNL     1       7.116 -17.302 -10.216  1.00  0.00     0.026 A 
BRANCH  16  19
HETATM   19  C7  UNL     1      10.410 -19.008  -9.582  1.00  0.00     0.209 C 
HETATM   20  O6  UNL     1      10.554 -19.107  -8.339  1.00  0.00    -0.644 OA
HETATM   21  O7  UNL     1      11.530 -19.154 -10.380  1.00  0.00    -0.644 OA
ENDBRANCH  16  19
ENDBRANCH   1  13
TORSDOF 5
ENDMDL
MODEL 4
REMARK VINA RESULT: -7.667929293      0.939      1.611
REMARK  5 active torsions:
REMARK  status: ('A' for Active; 'I' for Inactive)
REMARK    1  A    between atoms: C1_2  and  C2_4 
REMARK       I    between atoms: C2_4  and  N1_6 
REMARK    2  A    between atoms: N1_6  and  N2_8 
REMARK    3  A    between atoms: N2_8  and  S1_10 
REMARK    4  A    between atoms: S1_10  and  C3_13 
REMARK    5  A    between atoms: C6_16  and  C7_17 
ROOT
HETATM    1  S1  UNL     1       4.906 -17.774 -11.733  1.00  0.00     0.276 S 
HETATM    2  O4  UNL     1       4.552 -16.383 -11.232  1.00  0.00    -0.199 OA
HETATM    3  O5  UNL     1       5.039 -17.766 -13.253  1.00  0.00    -0.199 OA
ENDROOT
BRANCH   1   4
HETATM    4  N2  UNL     1       3.729 -18.906 -11.245  1.00  0.00    -0.220 N 
ATOM      5  H2  UNL     1       3.128 -18.826 -10.426  1.00  0.00     0.200 HD
BRANCH   4   6
HETATM    6  N1  UNL     1       3.727 -19.970 -12.167  1.00  0.00    -0.251 N 
HETATM    7  C2  UNL     1       3.613 -21.317 -11.767  1.00  0.00     0.337 C 
HETATM    8  O3  UNL     1       3.506 -21.581 -10.551  1.00  0.00    -0.259 OA
ATOM      9  H1  UNL     1       3.812 -19.758 -13.161  1.00  0.00     0.191 HD
BRANCH   7  10
HETATM   10  C1  UNL     1       3.620 -22.380 -12.746  1.00  0.00     0.271 C 
HETATM   11  O1  UNL     1       3.976 -22.235 -13.948  1.00  0.00    -0.640 OA
HETATM   12  O2  UNL     1       3.210 -23.660 -12.350  1.00  0.00    -0.640 OA
ENDBRANCH   7  10
ENDBRANCH   4   6
ENDBRANCH   1   4
BRANCH   1  13
HETATM   13  C3  UNL     1       6.509 -18.126 -11.117  1.00  0.00     0.081 A 
HETATM   14  C4  UNL     1       7.162 -19.271 -11.489  1.00  0.00     0.026 A 
HETATM   15  C5  UNL     1       8.442 -19.590 -11.023  1.00  0.00     0.020 A 
HETATM   16  C6  UNL     1       9.094 -18.743 -10.158  1.00  0.00     0.040 A 
HETATM   17  C8  UNL     1       8.423 -17.585  -9.788  1.00  0.00     0.020 A 
HETATM   18  C9  UNL     1       7.155 -17.261 -10.246  1.00  0.00     0.026 A 
BRANCH  16  19
HETATM   19  C7  UNL     1      10.428 -19.015  -9.635  1.00  0.00     0.209 C 
HETATM   20  O6  UNL     1      11.400 -19.065 -10.427  1.00  0.00    -0.644 OA
HETATM   21  O7  UNL     1      10.674 -19.223  -8.290  1.00  0.00    -0.644 OA
ENDBRANCH  16  19
ENDBRANCH   1  13
TORSDOF 5
ENDMDL
MODEL 5
REMARK VINA RESULT: -7.627961062      0.922      1.758
REMARK  5 active torsions:
REMARK  status: ('A' for Active; 'I' for Inactive)
REMARK    1  A    between atoms: C1_2  and  C2_4 
REMARK       I    between atoms: C2_4  and  N1_6 
REMARK    2  A    between atoms: N1_6  and  N2_8 
REMARK    3  A    between atoms: N2_8  and  S1_10 
REMARK    4  A    between atoms: S1_10  and  C3_13 
REMARK    5  A    between atoms: C6_16  and  C7_17 
ROOT
HETATM    1  S1  UNL     1       4.889 -17.819 -11.782  1.00  0.00     0.276 S 
HETATM    2  O4  UNL     1       4.552 -16.410 -11.322  1.00  0.00    -0.199 OA
HETATM    3  O5  UNL     1       5.027 -17.857 -13.300  1.00  0.00    -0.199 OA
ENDROOT
BRANCH   1   4
HETATM    4  N2  UNL     1       3.694 -18.920 -11.267  1.00  0.00    -0.220 N 
ATOM      5  H2  UNL     1       3.087 -18.806 -10.455  1.00  0.00     0.200 HD
BRANCH   4   6
HETATM    6  N1  UNL     1       3.686 -20.014 -12.152  1.00  0.00    -0.251 N 
HETATM    7  C2  UNL     1       3.584 -21.348 -11.706  1.00  0.00     0.337 C 
HETATM    8  O3  UNL     1       3.494 -21.572 -10.481  1.00  0.00    -0.259 OA
ATOM      9  H1  UNL     1       3.757 -19.835 -13.154  1.00  0.00     0.191 HD
BRANCH   7  10
HETATM   10  C1  UNL     1       3.585 -22.443 -12.650  1.00  0.00     0.271 C 
HETATM   11  O1  UNL     1       3.179 -23.607 -12.385  1.00  0.00    -0.640 OA
HETATM   12  O2  UNL     1       4.063 -22.210 -13.947  1.00  0.00    -0.640 OA
ENDBRANCH   7  10
ENDBRANCH   4   6
ENDBRANCH   1   4
BRANCH   1  13
HETATM   13  C3  UNL     1       6.484 -18.177 -11.150  1.00  0.00     0.081 A 
HETATM   14  C4  UNL     1       7.072 -17.347 -10.233  1.00  0.00     0.026 A 
HETATM   15  C5  UNL     1       8.342 -17.596  -9.701  1.00  0.00     0.020 A 
HETATM   16  C6  UNL     1       9.050 -18.707 -10.095  1.00  0.00     0.040 A 
HETATM   17  C8  UNL     1       8.445 -19.541 -11.024  1.00  0.00     0.020 A 
HETATM   18  C9  UNL     1       7.187 -19.302 -11.555  1.00  0.00     0.026 A 
BRANCH  16  19
HETATM   19  C7  UNL     1      10.378 -19.025  -9.580  1.00  0.00     0.209 C 
HETATM   20  O6  UNL     1      10.535 -19.190  -8.346  1.00  0.00    -0.644 OA
HETATM   21  O7  UNL     1      11.484 -19.156 -10.399  1.00  0.00    -0.644 OA
ENDBRANCH  16  19
ENDBRANCH   1  13
TORSDOF 5
ENDMDL
