MODEL 1
REMARK VINA RESULT: -8.144226953      0.000      0.000
REMARK  6 active torsions:
REMARK  status: ('A' for Active; 'I' for Inactive)
REMARK    1  A    between atoms: O1_2  and  C2_3 
REMARK       I    between atoms: C2_3  and  N1_5 
REMARK       I    between atoms: C3_7  and  N2_8 
REMARK       I    between atoms: C3_7  and  N4_14 
REMARK    2  A    between atoms: N2_8  and  N3_10 
REMARK    3  A    between atoms: N3_10  and  C4_12 
REMARK       I    between atoms: N4_14  and  C5_16 
REMARK    4  A    between atoms: C5_16  and  C6_18 
REMARK    5  A    between atoms: C6_18  and  O5_19 
REMARK    6  A    between atoms: C6_18  and  C7_21 
ROOT
HETATM    1  C2  UNL     1       8.192 -18.634  -9.818  1.00  0.00     0.378 C 
HETATM    2  O2  UNL     1       7.537 -19.644  -9.364  1.00  0.00    -0.238 OA
HETATM    3  N1  UNL     1       7.683 -17.677 -10.675  1.00  0.00    -0.134 N 
ATOM      4  H1  UNL     1       7.934 -16.706 -10.492  1.00  0.00     0.189 HD
HETATM    5  C3  UNL     1       6.925 -17.905 -11.678  1.00  0.00     0.704 C 
HETATM    6  N2  UNL     1       6.574 -16.668 -12.366  1.00  0.00    -0.130 N 
ATOM      7  H2  UNL     1       6.720 -16.577 -13.371  1.00  0.00     0.205 HD
HETATM    8  N4  UNL     1       6.479 -19.166 -12.105  1.00  0.00    -0.156 N 
ATOM      9  H4  UNL     1       6.788 -19.988 -11.586  1.00  0.00     0.187 HD
HETATM   10  C5  UNL     1       5.632 -19.359 -13.205  1.00  0.00     0.269 C 
HETATM   11  O4  UNL     1       5.239 -18.364 -13.854  1.00  0.00    -0.269 OA
ENDROOT
BRANCH   6  12
HETATM   12  N3  UNL     1       6.043 -15.621 -11.640  1.00  0.00    -0.263 N 
ATOM     13  H3  UNL     1       6.669 -15.012 -11.112  1.00  0.00     0.190 HD
BRANCH  12  14
HETATM   14  C4  UNL     1       4.647 -15.375 -11.612  1.00  0.00     0.369 C 
HETATM   15  O3  UNL     1       3.835 -16.224 -12.005  1.00  0.00    -0.282 OA
ENDBRANCH  12  14
ENDBRANCH   6  12
BRANCH   1  16
HETATM   16  O1  UNL     1       9.528 -18.577  -9.350  1.00  0.00    -0.308 OA
HETATM   17  C1  UNL     1      10.591 -18.579 -10.275  1.00  0.00     0.215 C 
ENDBRANCH   1  16
BRANCH  10  18
HETATM   18  C6  UNL     1       5.177 -20.681 -13.648  1.00  0.00     0.243 C 
BRANCH  18  19
HETATM   19  O5  UNL     1       4.609 -20.633 -14.939  1.00  0.00    -0.381 OA
ATOM     20  H5  UNL     1       5.232 -20.329 -15.588  1.00  0.00     0.211 HD
ENDBRANCH  18  19
BRANCH  18  21
HETATM   21  C7  UNL     1       4.183 -21.338 -12.787  1.00  0.00    -0.021 A 
HETATM   22  C8  UNL     1       3.588 -20.785 -11.685  1.00  0.00     0.010 A 
HETATM   23  C9  UNL     1       2.679 -21.556 -10.996  1.00  0.00     0.001 A 
HETATM   24  C10 UNL     1       2.349 -22.846 -11.366  1.00  0.00     0.000 A 
HETATM   25  C11 UNL     1       2.942 -23.409 -12.472  1.00  0.00     0.001 A 
HETATM   26  C12 UNL     1       3.853 -22.649 -13.172  1.00  0.00     0.010 A 
ENDBRANCH  18  21
ENDBRANCH  10  18
TORSDOF 6
ENDMDL
MODEL 2
REMARK VINA RESULT: -7.059787609      1.774      6.367
REMARK  6 active torsions:
REMARK  status: ('A' for Active; 'I' for Inactive)
REMARK    1  A    between atoms: O1_2  and  C2_3 
REMARK       I    between atoms: C2_3  and  N1_5 
REMARK       I    between atoms: C3_7  and  N2_8 
REMARK       I    between atoms: C3_7  and  N4_14 
REMARK    2  A    between atoms: N2_8  and  N3_10 
REMARK    3  A    between atoms: N3_10  and  C4_12 
REMARK       I    between atoms: N4_14  and  C5_16 
REMARK    4  A    between atoms: C5_16  and  C6_18 
REMARK    5  A    between atoms: C6_18  and  O5_19 
REMARK    6  A    between atoms: C6_18  and  C7_21 
ROOT
HETATM    1  C2  UNL     1       4.436 -19.982 -13.040  1.00  0.00     0.378 C 
HETATM    2  O2  UNL     1       5.516 -20.403 -13.598  1.00  0.00    -0.238 OA
HETATM    3  N1  UNL     1       4.361 -18.927 -12.150  1.00  0.00    -0.134 N 
ATOM      4  H1  UNL     1       3.574 -18.286 -12.252  1.00  0.00     0.189 HD
HETATM    5  C3  UNL     1       5.193 -18.685 -11.211  1.00  0.00     0.704 C 
HETATM    6  N2  UNL     1       4.811 -17.493 -10.463  1.00  0.00    -0.130 N 
ATOM      7  H2  UNL     1       4.728 -17.526  -9.447  1.00  0.00     0.205 HD
HETATM    8  N4  UNL     1       6.328 -19.450 -10.898  1.00  0.00    -0.156 N 
ATOM      9  H4  UNL     1       6.515 -20.285 -11.453  1.00  0.00     0.187 HD
HETATM   10  C5  UNL     1       7.219 -19.129  -9.865  1.00  0.00     0.269 C 
HETATM   11  O4  UNL     1       7.010 -18.107  -9.174  1.00  0.00    -0.269 OA
ENDROOT
BRANCH   6  12
HETATM   12  N3  UNL     1       4.563 -16.320 -11.146  1.00  0.00    -0.263 N 
ATOM     13  H3  UNL     1       3.657 -16.187 -11.597  1.00  0.00     0.190 HD
BRANCH  12  14
HETATM   14  C4  UNL     1       5.540 -15.295 -11.234  1.00  0.00     0.369 C 
HETATM   15  O3  UNL     1       6.484 -15.234 -10.434  1.00  0.00    -0.282 OA
ENDBRANCH  12  14
ENDBRANCH   6  12
BRANCH   1  16
HETATM   16  O1  UNL     1       3.286 -20.714 -13.423  1.00  0.00    -0.308 OA
HETATM   17  C1  UNL     1       2.963 -21.910 -12.751  1.00  0.00     0.215 C 
ENDBRANCH   1  16
BRANCH  10  18
HETATM   18  C6  UNL     1       8.399 -19.937  -9.540  1.00  0.00     0.243 C 
BRANCH  18  19
HETATM   19  O5  UNL     1       8.306 -20.505  -8.252  1.00  0.00    -0.381 OA
ATOM     20  H5  UNL     1       8.603 -21.408  -8.241  1.00  0.00     0.211 HD
ENDBRANCH  18  19
BRANCH  18  21
HETATM   21  C7  UNL     1       9.690 -19.236  -9.586  1.00  0.00    -0.021 A 
HETATM   22  C8  UNL     1      10.132 -18.442 -10.611  1.00  0.00     0.010 A 
HETATM   23  C9  UNL     1      11.376 -17.866 -10.480  1.00  0.00     0.001 A 
HETATM   24  C10 UNL     1      12.183 -18.054  -9.375  1.00  0.00     0.000 A 
HETATM   25  C11 UNL     1      11.747 -18.850  -8.341  1.00  0.00     0.001 A 
HETATM   26  C12 UNL     1      10.504 -19.433  -8.458  1.00  0.00     0.010 A 
ENDBRANCH  18  21
ENDBRANCH  10  18
TORSDOF 6
ENDMDL
MODEL 3
REMARK VINA RESULT: -6.854303099      1.773      6.351
REMARK  6 active torsions:
REMARK  status: ('A' for Active; 'I' for Inactive)
REMARK    1  A    between atoms: O1_2  and  C2_3 
REMARK       I    between atoms: C2_3  and  N1_5 
REMARK       I    between atoms: C3_7  and  N2_8 
REMARK       I    between atoms: C3_7  and  N4_14 
REMARK    2  A    between atoms: N2_8  and  N3_10 
REMARK    3  A    between atoms: N3_10  and  C4_12 
REMARK       I    between atoms: N4_14  and  C5_16 
REMARK    4  A    between atoms: C5_16  and  C6_18 
REMARK    5  A    between atoms: C6_18  and  O5_19 
REMARK    6  A    between atoms: C6_18  and  C7_21 
ROOT
HETATM    1  C2  UNL     1       4.495 -19.890 -13.001  1.00  0.00     0.378 C 
HETATM    2  O2  UNL     1       5.551 -20.338 -13.582  1.00  0.00    -0.238 OA
HETATM    3  N1  UNL     1       4.468 -18.843 -12.100  1.00  0.00    -0.134 N 
ATOM      4  H1  UNL     1       3.700 -18.176 -12.182  1.00  0.00     0.189 HD
HETATM    5  C3  UNL     1       5.322 -18.638 -11.172  1.00  0.00     0.704 C 
HETATM    6  N2  UNL     1       4.991 -17.442 -10.405  1.00  0.00    -0.130 N 
ATOM      7  H2  UNL     1       4.923 -17.485  -9.388  1.00  0.00     0.205 HD
HETATM    8  N4  UNL     1       6.437 -19.442 -10.885  1.00  0.00    -0.156 N 
ATOM      9  H4  UNL     1       6.588 -20.276 -11.452  1.00  0.00     0.187 HD
HETATM   10  C5  UNL     1       7.355 -19.161  -9.864  1.00  0.00     0.269 C 
HETATM   11  O4  UNL     1       7.190 -18.141  -9.159  1.00  0.00    -0.269 OA
ENDROOT
BRANCH   6  12
HETATM   12  N3  UNL     1       4.769 -16.255 -11.071  1.00  0.00    -0.263 N 
ATOM     13  H3  UNL     1       3.875 -16.104 -11.538  1.00  0.00     0.190 HD
BRANCH  12  14
HETATM   14  C4  UNL     1       5.759 -15.239 -11.121  1.00  0.00     0.369 C 
HETATM   15  O3  UNL     1       6.639 -15.154 -10.253  1.00  0.00    -0.282 OA
ENDBRANCH  12  14
ENDBRANCH   6  12
BRANCH   1  16
HETATM   16  O1  UNL     1       3.315 -20.580 -13.373  1.00  0.00    -0.308 OA
HETATM   17  C1  UNL     1       2.976 -21.783 -12.723  1.00  0.00     0.215 C 
ENDBRANCH   1  16
BRANCH  10  18
HETATM   18  C6  UNL     1       8.513 -20.010  -9.567  1.00  0.00     0.243 C 
BRANCH  18  19
HETATM   19  O5  UNL     1       8.326 -20.756  -8.385  1.00  0.00    -0.381 OA
ATOM     20  H5  UNL     1       9.150 -20.935  -7.946  1.00  0.00     0.211 HD
ENDBRANCH  18  19
BRANCH  18  21
HETATM   21  C7  UNL     1       9.797 -19.311  -9.412  1.00  0.00    -0.021 A 
HETATM   22  C8  UNL     1      10.458 -19.105  -8.231  1.00  0.00     0.010 A 
HETATM   23  C9  UNL     1      11.653 -18.424  -8.278  1.00  0.00     0.001 A 
HETATM   24  C10 UNL     1      12.204 -17.946  -9.452  1.00  0.00     0.000 A 
HETATM   25  C11 UNL     1      11.547 -18.149 -10.644  1.00  0.00     0.001 A 
HETATM   26  C12 UNL     1      10.349 -18.830 -10.611  1.00  0.00     0.010 A 
ENDBRANCH  18  21
ENDBRANCH  10  18
TORSDOF 6
ENDMDL
MODEL 4
REMARK VINA RESULT: -6.326917154      2.302      6.139
REMARK  6 active torsions:
REMARK  status: ('A' for Active; 'I' for Inactive)
REMARK    1  A    between atoms: O1_2  and  C2_3 
REMARK       I    between atoms: C2_3  and  N1_5 
REMARK       I    between atoms: C3_7  and  N2_8 
REMARK       I    between atoms: C3_7  and  N4_14 
REMARK    2  A    between atoms: N2_8  and  N3_10 
REMARK    3  A    between atoms: N3_10  and  C4_12 
REMARK       I    between atoms: N4_14  and  C5_16 
REMARK    4  A    between atoms: C5_16  and  C6_18 
REMARK    5  A    between atoms: C6_18  and  O5_19 
REMARK    6  A    between atoms: C6_18  and  C7_21 
ROOT
HETATM    1  C2  UNL     1       3.229 -21.141 -11.314  1.00  0.00     0.378 C 
HETATM    2  O2  UNL     1       4.063 -21.595 -10.447  1.00  0.00    -0.238 OA
HETATM    3  N1  UNL     1       3.549 -20.281 -12.349  1.00  0.00    -0.134 N 
ATOM      4  H1  UNL     1       3.119 -20.463 -13.255  1.00  0.00     0.189 HD
HETATM    5  C3  UNL     1       4.336 -19.279 -12.267  1.00  0.00     0.704 C 
HETATM    6  N2  UNL     1       4.447 -18.589 -13.547  1.00  0.00    -0.130 N 
ATOM      7  H2  UNL     1       4.287 -17.584 -13.606  1.00  0.00     0.205 HD
HETATM    8  N4  UNL     1       5.013 -18.854 -11.112  1.00  0.00    -0.156 N 
ATOM      9  H4  UNL     1       4.865 -19.374 -10.247  1.00  0.00     0.187 HD
HETATM   10  C5  UNL     1       5.881 -17.754 -11.080  1.00  0.00     0.269 C 
HETATM   11  O4  UNL     1       6.079 -17.103 -12.131  1.00  0.00    -0.269 OA
ENDROOT
BRANCH   6  12
HETATM   12  N3  UNL     1       4.770 -19.313 -14.676  1.00  0.00    -0.263 N 
ATOM     13  H3  UNL     1       4.660 -18.882 -15.594  1.00  0.00     0.190 HD
BRANCH  12  14
HETATM   14  C4  UNL     1       5.252 -20.645 -14.587  1.00  0.00     0.369 C 
HETATM   15  O3  UNL     1       4.477 -21.609 -14.541  1.00  0.00    -0.282 OA
ENDBRANCH  12  14
ENDBRANCH   6  12
BRANCH   1  16
HETATM   16  O1  UNL     1       1.907 -21.608 -11.118  1.00  0.00    -0.308 OA
HETATM   17  C1  UNL     1       1.611 -22.419 -10.004  1.00  0.00     0.215 C 
ENDBRANCH   1  16
BRANCH  10  18
HETATM   18  C6  UNL     1       6.578 -17.313  -9.868  1.00  0.00     0.243 C 
BRANCH  18  19
HETATM   19  O5  UNL     1       6.947 -15.953  -9.942  1.00  0.00    -0.381 OA
ATOM     20  H5  UNL     1       6.282 -15.386  -9.567  1.00  0.00     0.211 HD
ENDBRANCH  18  19
BRANCH  18  21
HETATM   21  C7  UNL     1       7.802 -18.051  -9.528  1.00  0.00    -0.021 A 
HETATM   22  C8  UNL     1       7.975 -18.851  -8.430  1.00  0.00     0.010 A 
HETATM   23  C9  UNL     1       9.197 -19.464  -8.272  1.00  0.00     0.001 A 
HETATM   24  C10 UNL     1      10.242 -19.305  -9.163  1.00  0.00     0.000 A 
HETATM   25  C11 UNL     1      10.077 -18.504 -10.269  1.00  0.00     0.001 A 
HETATM   26  C12 UNL     1       8.858 -17.884 -10.440  1.00  0.00     0.010 A 
ENDBRANCH  18  21
ENDBRANCH  10  18
TORSDOF 6
ENDMDL
MODEL 5
REMARK VINA RESULT: -6.210835524      1.913      6.141
REMARK  6 active torsions:
REMARK  status: ('A' for Active; 'I' for Inactive)
REMARK    1  A    between atoms: O1_2  and  C2_3 
REMARK       I    between atoms: C2_3  and  N1_5 
REMARK       I    between atoms: C3_7  and  N2_8 
REMARK       I    between atoms: C3_7  and  N4_14 
REMARK    2  A    between atoms: N2_8  and  N3_10 
REMARK    3  A    between atoms: N3_10  and  C4_12 
REMARK       I    between atoms: N4_14  and  C5_16 
REMARK    4  A    between atoms: C5_16  and  C6_18 
REMARK    5  A    between atoms: C6_18  and  O5_19 
REMARK    6  A    between atoms: C6_18  and  C7_21 
ROOT
HETATM    1  C2  UNL     1       3.909 -20.433 -12.391  1.00  0.00     0.378 C 
HETATM    2  O2  UNL     1       4.678 -20.678 -13.392  1.00  0.00    -0.238 OA
HETATM    3  N1  UNL     1       3.996 -19.320 -11.576  1.00  0.00    -0.134 N 
ATOM      4  H1  UNL     1       3.122 -18.878 -11.296  1.00  0.00     0.189 HD
HETATM    5  C3  UNL     1       5.079 -18.797 -11.144  1.00  0.00     0.704 C 
HETATM    6  N2  UNL     1       4.807 -17.633 -10.309  1.00  0.00    -0.130 N 
ATOM      7  H2  UNL     1       5.210 -17.563  -9.375  1.00  0.00     0.205 HD
HETATM    8  N4  UNL     1       6.380 -19.261 -11.403  1.00  0.00    -0.156 N 
ATOM      9  H4  UNL     1       6.488 -20.097 -11.976  1.00  0.00     0.187 HD
HETATM   10  C5  UNL     1       7.537 -18.639 -10.917  1.00  0.00     0.269 C 
HETATM   11  O4  UNL     1       7.427 -17.610 -10.213  1.00  0.00    -0.269 OA
ENDROOT
BRANCH   6  12
HETATM   12  N3  UNL     1       3.996 -16.629 -10.798  1.00  0.00    -0.263 N 
ATOM     13  H3  UNL     1       3.120 -16.418 -10.320  1.00  0.00     0.190 HD
BRANCH  12  14
HETATM   14  C4  UNL     1       4.356 -15.884 -11.950  1.00  0.00     0.369 C 
HETATM   15  O3  UNL     1       4.417 -16.415 -13.068  1.00  0.00    -0.282 OA
ENDBRANCH  12  14
ENDBRANCH   6  12
BRANCH   1  16
HETATM   16  O1  UNL     1       2.928 -21.432 -12.181  1.00  0.00    -0.308 OA
HETATM   17  C1  UNL     1       2.816 -22.046 -10.917  1.00  0.00     0.215 C 
ENDBRANCH   1  16
BRANCH  10  18
HETATM   18  C6  UNL     1       8.891 -19.134 -11.186  1.00  0.00     0.243 C 
BRANCH  18  19
HETATM   19  O5  UNL     1       8.890 -20.503 -11.529  1.00  0.00    -0.381 OA
ATOM     20  H5  UNL     1       9.570 -20.709 -12.160  1.00  0.00     0.211 HD
ENDBRANCH  18  19
BRANCH  18  21
HETATM   21  C7  UNL     1       9.857 -18.989 -10.087  1.00  0.00    -0.021 A 
HETATM   22  C8  UNL     1       9.636 -19.323  -8.778  1.00  0.00     0.010 A 
HETATM   23  C9  UNL     1      10.661 -19.113  -7.884  1.00  0.00     0.001 A 
HETATM   24  C10 UNL     1      11.885 -18.585  -8.249  1.00  0.00     0.000 A 
HETATM   25  C11 UNL     1      12.116 -18.246  -9.562  1.00  0.00     0.001 A 
HETATM   26  C12 UNL     1      11.099 -18.452 -10.468  1.00  0.00     0.010 A 
ENDBRANCH  18  21
ENDBRANCH  10  18
TORSDOF 6
ENDMDL
