MODEL 1
REMARK VINA RESULT: -6.486875749      0.000      0.000
REMARK  7 active torsions:
REMARK  status: ('A' for Active; 'I' for Inactive)
REMARK    1  A    between atoms: N1_2  and  S1_4 
REMARK    2  A    between atoms: S1_4  and  N2_7 
REMARK    3  A    between atoms: N2_7  and  N3_9 
REMARK    4  A    between atoms: N3_9  and  C2_11 
REMARK    5  A    between atoms: C2_11  and  N4_13 
REMARK    6  A    between atoms: N4_13  and  N5_15 
REMARK    7  A    between atoms: C3_17  and  C4_18 
ROOT
HETATM    1  C2  UNL     1       6.306 -16.707 -11.719  1.00  0.00     0.205 C 
HETATM    2  S2  UNL     1       5.898 -15.406 -10.829  1.00  0.00    -0.038 SA
ENDROOT
BRANCH   1   3
HETATM    3  N3  UNL     1       5.680 -16.883 -12.978  1.00  0.00    -0.264 N 
ATOM      4  H3  UNL     1       6.120 -16.516 -13.822  1.00  0.00     0.190 HD
BRANCH   3   5
HETATM    5  N2  UNL     1       4.456 -17.560 -13.066  1.00  0.00    -0.208 N 
ATOM      6  H2  UNL     1       3.549 -17.120 -12.908  1.00  0.00     0.201 HD
BRANCH   5   7
HETATM    7  S1  UNL     1       4.659 -19.212 -13.468  1.00  0.00     0.332 S 
HETATM    8  O1  UNL     1       4.941 -19.295 -14.954  1.00  0.00    -0.181 OA
HETATM    9  O2  UNL     1       5.811 -19.838 -12.747  1.00  0.00    -0.181 OA
BRANCH   7  10
HETATM   10  N1  UNL     1       3.187 -20.062 -13.156  1.00  0.00    -0.306 N 
HETATM   11  C1  UNL     1       3.425 -21.434 -12.770  1.00  0.00     0.161 C 
ATOM     12  H1  UNL     1       2.260 -19.645 -13.235  1.00  0.00     0.173 HD
ENDBRANCH   7  10
ENDBRANCH   5   7
ENDBRANCH   3   5
ENDBRANCH   1   3
BRANCH   1  13
HETATM   13  N4  UNL     1       7.265 -17.657 -11.262  1.00  0.00    -0.275 N 
ATOM     14  H4  UNL     1       8.224 -17.582 -11.601  1.00  0.00     0.189 HD
BRANCH  13  15
HETATM   15  N5  UNL     1       6.959 -18.664 -10.391  1.00  0.00    -0.308 N 
HETATM   16  C3  UNL     1       7.776 -19.315  -9.703  1.00  0.00     0.126 C 
ATOM     17  H5  UNL     1       5.973 -18.909 -10.293  1.00  0.00     0.186 HD
BRANCH  16  18
HETATM   18  C4  UNL     1       9.227 -19.194  -9.633  1.00  0.00     0.021 A 
HETATM   19  C5  UNL     1      10.193 -19.088 -10.576  1.00  0.00     0.021 A 
HETATM   20  C6  UNL     1      11.470 -18.990 -10.172  1.00  0.00     0.008 A 
HETATM   21  C7  UNL     1      11.710 -19.003  -8.828  1.00  0.00     0.050 A 
HETATM   22  S3  UNL     1      10.146 -19.152  -8.164  1.00  0.00    -0.101 SA
ENDBRANCH  16  18
ENDBRANCH  13  15
ENDBRANCH   1  13
TORSDOF 7
ENDMDL
MODEL 2
REMARK VINA RESULT: -6.358068982      1.213      1.356
REMARK  7 active torsions:
REMARK  status: ('A' for Active; 'I' for Inactive)
REMARK    1  A    between atoms: N1_2  and  S1_4 
REMARK    2  A    between atoms: S1_4  and  N2_7 
REMARK    3  A    between atoms: N2_7  and  N3_9 
REMARK    4  A    between atoms: N3_9  and  C2_11 
REMARK    5  A    between atoms: C2_11  and  N4_13 
REMARK    6  A    between atoms: N4_13  and  N5_15 
REMARK    7  A    between atoms: C3_17  and  C4_18 
ROOT
HETATM    1  C2  UNL     1       6.466 -17.342 -11.553  1.00  0.00     0.205 C 
HETATM    2  S2  UNL     1       5.530 -16.035 -11.294  1.00  0.00    -0.038 SA
ENDROOT
BRANCH   1   3
HETATM    3  N3  UNL     1       6.173 -18.170 -12.664  1.00  0.00    -0.264 N 
ATOM      4  H3  UNL     1       6.370 -17.843 -13.609  1.00  0.00     0.190 HD
BRANCH   3   5
HETATM    5  N2  UNL     1       5.610 -19.439 -12.464  1.00  0.00    -0.208 N 
ATOM      6  H2  UNL     1       5.756 -20.000 -11.625  1.00  0.00     0.201 HD
BRANCH   5   7
HETATM    7  S1  UNL     1       4.652 -19.936 -13.793  1.00  0.00     0.332 S 
HETATM    8  O1  UNL     1       3.218 -19.541 -13.502  1.00  0.00    -0.181 OA
HETATM    9  O2  UNL     1       5.059 -19.274 -15.072  1.00  0.00    -0.181 OA
BRANCH   7  10
HETATM   10  N1  UNL     1       4.713 -21.658 -13.930  1.00  0.00    -0.306 N 
HETATM   11  C1  UNL     1       3.708 -22.302 -13.116  1.00  0.00     0.161 C 
ATOM     12  H1  UNL     1       5.379 -22.160 -14.516  1.00  0.00     0.173 HD
ENDBRANCH   7  10
ENDBRANCH   5   7
ENDBRANCH   3   5
ENDBRANCH   1   3
BRANCH   1  13
HETATM   13  N4  UNL     1       7.559 -17.663 -10.694  1.00  0.00    -0.275 N 
ATOM     14  H4  UNL     1       8.468 -17.242 -10.886  1.00  0.00     0.189 HD
BRANCH  13  15
HETATM   15  N5  UNL     1       7.443 -18.507  -9.626  1.00  0.00    -0.308 N 
HETATM   16  C3  UNL     1       8.382 -19.112  -9.062  1.00  0.00     0.126 C 
ATOM     17  H5  UNL     1       6.506 -18.659  -9.255  1.00  0.00     0.186 HD
BRANCH  16  18
HETATM   18  C4  UNL     1       9.807 -19.093  -9.367  1.00  0.00     0.021 A 
HETATM   19  C5  UNL     1      10.506 -19.107 -10.527  1.00  0.00     0.021 A 
HETATM   20  C6  UNL     1      11.847 -19.081 -10.464  1.00  0.00     0.008 A 
HETATM   21  C7  UNL     1      12.420 -19.042  -9.225  1.00  0.00     0.050 A 
HETATM   22  S3  UNL     1      11.071 -19.043  -8.181  1.00  0.00    -0.101 SA
ENDBRANCH  16  18
ENDBRANCH  13  15
ENDBRANCH   1  13
TORSDOF 7
ENDMDL
MODEL 3
REMARK VINA RESULT: -6.292996580      2.184      2.518
REMARK  7 active torsions:
REMARK  status: ('A' for Active; 'I' for Inactive)
REMARK    1  A    between atoms: N1_2  and  S1_4 
REMARK    2  A    between atoms: S1_4  and  N2_7 
REMARK    3  A    between atoms: N2_7  and  N3_9 
REMARK    4  A    between atoms: N3_9  and  C2_11 
REMARK    5  A    between atoms: C2_11  and  N4_13 
REMARK    6  A    between atoms: N4_13  and  N5_15 
REMARK    7  A    between atoms: C3_17  and  C4_18 
ROOT
HETATM    1  C2  UNL     1       4.337 -17.772 -11.235  1.00  0.00     0.205 C 
HETATM    2  S2  UNL     1       3.971 -16.862 -12.535  1.00  0.00    -0.038 SA
ENDROOT
BRANCH   1   3
HETATM    3  N3  UNL     1       4.229 -19.180 -11.349  1.00  0.00    -0.264 N 
ATOM      4  H3  UNL     1       3.501 -19.678 -10.837  1.00  0.00     0.190 HD
BRANCH   3   5
HETATM    5  N2  UNL     1       5.122 -19.889 -12.164  1.00  0.00    -0.208 N 
ATOM      6  H2  UNL     1       6.079 -20.118 -11.895  1.00  0.00     0.201 HD
BRANCH   5   7
HETATM    7  S1  UNL     1       4.419 -20.326 -13.663  1.00  0.00     0.332 S 
HETATM    8  O1  UNL     1       2.932 -20.055 -13.573  1.00  0.00    -0.181 OA
HETATM    9  O2  UNL     1       4.963 -19.526 -14.804  1.00  0.00    -0.181 OA
BRANCH   7  10
HETATM   10  N1  UNL     1       4.637 -22.021 -13.925  1.00  0.00    -0.306 N 
HETATM   11  C1  UNL     1       3.709 -22.812 -13.151  1.00  0.00     0.161 C 
ATOM     12  H1  UNL     1       5.338 -22.416 -14.551  1.00  0.00     0.173 HD
ENDBRANCH   7  10
ENDBRANCH   5   7
ENDBRANCH   3   5
ENDBRANCH   1   3
BRANCH   1  13
HETATM   13  N4  UNL     1       4.757 -17.187 -10.005  1.00  0.00    -0.275 N 
ATOM     14  H4  UNL     1       4.302 -17.488  -9.143  1.00  0.00     0.189 HD
BRANCH  13  15
HETATM   15  N5  UNL     1       5.741 -16.242  -9.927  1.00  0.00    -0.308 N 
HETATM   16  C3  UNL     1       6.973 -16.462  -9.912  1.00  0.00     0.126 C 
ATOM     17  H5  UNL     1       5.444 -15.268  -9.875  1.00  0.00     0.186 HD
BRANCH  16  18
HETATM   18  C4  UNL     1       7.684 -17.733  -9.972  1.00  0.00     0.021 A 
HETATM   19  C5  UNL     1       8.214 -18.450 -10.990  1.00  0.00     0.021 A 
HETATM   20  C6  UNL     1       8.820 -19.614 -10.703  1.00  0.00     0.008 A 
HETATM   21  C7  UNL     1       8.862 -19.998  -9.393  1.00  0.00     0.050 A 
HETATM   22  S3  UNL     1       8.053 -18.724  -8.598  1.00  0.00    -0.101 SA
ENDBRANCH  16  18
ENDBRANCH  13  15
ENDBRANCH   1  13
TORSDOF 7
ENDMDL
MODEL 4
REMARK VINA RESULT: -6.196144136      2.536      6.050
REMARK  7 active torsions:
REMARK  status: ('A' for Active; 'I' for Inactive)
REMARK    1  A    between atoms: N1_2  and  S1_4 
REMARK    2  A    between atoms: S1_4  and  N2_7 
REMARK    3  A    between atoms: N2_7  and  N3_9 
REMARK    4  A    between atoms: N3_9  and  C2_11 
REMARK    5  A    between atoms: C2_11  and  N4_13 
REMARK    6  A    between atoms: N4_13  and  N5_15 
REMARK    7  A    between atoms: C3_17  and  C4_18 
ROOT
HETATM    1  C2  UNL     1       4.994 -17.716 -12.347  1.00  0.00     0.205 C 
HETATM    2  S2  UNL     1       4.085 -17.031 -11.182  1.00  0.00    -0.038 SA
ENDROOT
BRANCH   1   3
HETATM    3  N3  UNL     1       6.392 -17.814 -12.139  1.00  0.00    -0.264 N 
ATOM      4  H3  UNL     1       7.002 -17.043 -12.408  1.00  0.00     0.190 HD
BRANCH   3   5
HETATM    5  N2  UNL     1       6.936 -18.971 -11.564  1.00  0.00    -0.208 N 
ATOM      6  H2  UNL     1       6.840 -19.905 -11.963  1.00  0.00     0.201 HD
BRANCH   5   7
HETATM    7  S1  UNL     1       7.781 -18.634 -10.114  1.00  0.00     0.332 S 
HETATM    8  O1  UNL     1       7.026 -17.544  -9.381  1.00  0.00    -0.181 OA
HETATM    9  O2  UNL     1       7.862 -19.823  -9.209  1.00  0.00    -0.181 OA
BRANCH   7  10
HETATM   10  N1  UNL     1       9.354 -18.028 -10.495  1.00  0.00    -0.306 N 
HETATM   11  C1  UNL     1      10.398 -18.948 -10.107  1.00  0.00     0.161 C 
ATOM     12  H1  UNL     1       9.526 -17.127 -10.941  1.00  0.00     0.173 HD
ENDBRANCH   7  10
ENDBRANCH   5   7
ENDBRANCH   3   5
ENDBRANCH   1   3
BRANCH   1  13
HETATM   13  N4  UNL     1       4.417 -18.209 -13.554  1.00  0.00    -0.275 N 
ATOM     14  H4  UNL     1       3.562 -17.773 -13.898  1.00  0.00     0.189 HD
BRANCH  13  15
HETATM   15  N5  UNL     1       4.956 -19.240 -14.270  1.00  0.00    -0.308 N 
HETATM   16  C3  UNL     1       4.813 -20.459 -14.027  1.00  0.00     0.126 C 
ATOM     17  H5  UNL     1       5.528 -18.993 -15.078  1.00  0.00     0.186 HD
BRANCH  16  18
HETATM   18  C4  UNL     1       4.064 -21.105 -12.956  1.00  0.00     0.021 A 
HETATM   19  C5  UNL     1       3.687 -20.704 -11.719  1.00  0.00     0.021 A 
HETATM   20  C6  UNL     1       2.985 -21.560 -10.958  1.00  0.00     0.008 A 
HETATM   21  C7  UNL     1       2.698 -22.786 -11.487  1.00  0.00     0.050 A 
HETATM   22  S3  UNL     1       3.415 -22.710 -13.033  1.00  0.00    -0.101 SA
ENDBRANCH  16  18
ENDBRANCH  13  15
ENDBRANCH   1  13
TORSDOF 7
ENDMDL
MODEL 5
REMARK VINA RESULT: -6.183765628      1.487      1.756
REMARK  7 active torsions:
REMARK  status: ('A' for Active; 'I' for Inactive)
REMARK    1  A    between atoms: N1_2  and  S1_4 
REMARK    2  A    between atoms: S1_4  and  N2_7 
REMARK    3  A    between atoms: N2_7  and  N3_9 
REMARK    4  A    between atoms: N3_9  and  C2_11 
REMARK    5  A    between atoms: C2_11  and  N4_13 
REMARK    6  A    between atoms: N4_13  and  N5_15 
REMARK    7  A    between atoms: C3_17  and  C4_18 
ROOT
HETATM    1  C2  UNL     1       6.731 -17.831 -10.656  1.00  0.00     0.205 C 
HETATM    2  S2  UNL     1       6.281 -16.271 -10.532  1.00  0.00    -0.038 SA
ENDROOT
BRANCH   1   3
HETATM    3  N3  UNL     1       5.774 -18.773 -11.108  1.00  0.00    -0.264 N 
ATOM      4  H3  UNL     1       4.964 -18.993 -10.529  1.00  0.00     0.190 HD
BRANCH   3   5
HETATM    5  N2  UNL     1       5.940 -19.402 -12.349  1.00  0.00    -0.208 N 
ATOM      6  H2  UNL     1       6.744 -19.982 -12.590  1.00  0.00     0.201 HD
BRANCH   5   7
HETATM    7  S1  UNL     1       4.638 -19.082 -13.414  1.00  0.00     0.332 S 
HETATM    8  O1  UNL     1       4.216 -17.642 -13.210  1.00  0.00    -0.181 OA
HETATM    9  O2  UNL     1       5.021 -19.248 -14.851  1.00  0.00    -0.181 OA
BRANCH   7  10
HETATM   10  N1  UNL     1       3.299 -20.094 -13.000  1.00  0.00    -0.306 N 
HETATM   11  C1  UNL     1       3.712 -21.447 -12.710  1.00  0.00     0.161 C 
ATOM     12  H1  UNL     1       2.331 -19.773 -12.966  1.00  0.00     0.173 HD
ENDBRANCH   7  10
ENDBRANCH   5   7
ENDBRANCH   3   5
ENDBRANCH   1   3
BRANCH   1  13
HETATM   13  N4  UNL     1       8.049 -18.259 -10.322  1.00  0.00    -0.275 N 
ATOM     14  H4  UNL     1       8.815 -18.011 -10.948  1.00  0.00     0.189 HD
BRANCH  13  15
HETATM   15  N5  UNL     1       8.335 -18.988  -9.202  1.00  0.00    -0.308 N 
HETATM   16  C3  UNL     1       9.478 -19.278  -8.785  1.00  0.00     0.126 C 
ATOM     17  H5  UNL     1       7.543 -19.326  -8.655  1.00  0.00     0.186 HD
BRANCH  16  18
HETATM   18  C4  UNL     1      10.779 -18.940  -9.347  1.00  0.00     0.021 A 
HETATM   19  C5  UNL     1      11.400 -19.268 -10.504  1.00  0.00     0.021 A 
HETATM   20  C6  UNL     1      12.631 -18.778 -10.729  1.00  0.00     0.008 A 
HETATM   21  C7  UNL     1      13.176 -17.976  -9.768  1.00  0.00     0.050 A 
HETATM   22  S3  UNL     1      11.957 -17.927  -8.576  1.00  0.00    -0.101 SA
ENDBRANCH  16  18
ENDBRANCH  13  15
ENDBRANCH   1  13
TORSDOF 7
ENDMDL
