MODEL 1
REMARK VINA RESULT: -6.976528871      0.000      0.000
REMARK  6 active torsions:
REMARK  status: ('A' for Active; 'I' for Inactive)
REMARK    1  A    between atoms: C1_2  and  C2_3 
REMARK       I    between atoms: C1_2  and  N3_12 
REMARK    2  A    between atoms: C2_3  and  N1_4 
REMARK    3  A    between atoms: N3_12  and  C7_14 
REMARK    4  A    between atoms: C7_14  and  C8_15 
REMARK    5  A    between atoms: C8_15  and  O2_16 
REMARK    6  A    between atoms: N4_18  and  O3_20 
ROOT
HETATM    1  C7  UNL     1       5.485 -18.773 -11.637  1.00  0.00     0.160 C 
HETATM    2  C9  UNL     1       6.138 -18.836 -12.963  1.00  0.00     0.048 C 
HETATM    3  C10 UNL     1       5.578 -19.931 -13.825  1.00  0.00     0.004 C 
HETATM    4  C11 UNL     1       4.127 -19.666 -14.131  1.00  0.00     0.008 C 
HETATM    5  C12 UNL     1       3.383 -19.754 -12.821  1.00  0.00     0.081 C 
HETATM    6  C13 UNL     1       4.350 -19.763 -11.668  1.00  0.00     0.163 C 
HETATM    7  O4  UNL     1       4.256 -20.543 -10.754  1.00  0.00    -0.295 OA
ENDROOT
BRANCH   1   8
HETATM    8  N3  UNL     1       6.289 -19.039 -10.490  1.00  0.00    -0.336 N 
HETATM    9  C1  UNL     1       7.251 -18.234  -9.869  1.00  0.00     0.247 C 
HETATM   10  O1  UNL     1       7.525 -17.100 -10.290  1.00  0.00    -0.272 OA
ATOM     11  H3  UNL     1       6.142 -19.952 -10.058  1.00  0.00     0.164 HD
BRANCH   9  12
HETATM   12  C2  UNL     1       8.011 -18.681  -8.664  1.00  0.00     0.374 C 
BRANCH  12  13
HETATM   13  N1  UNL     1       9.191 -19.411  -8.995  1.00  0.00     0.100 N 
HETATM   14  C3  UNL     1       9.599 -19.231 -10.376  1.00  0.00     0.300 C 
HETATM   15  C4  UNL     1      10.857 -18.369 -10.464  1.00  0.00     0.262 C 
HETATM   16  N2  UNL     1      11.970 -18.994  -9.787  1.00  0.00    -0.072 N 
HETATM   17  C5  UNL     1      11.592 -19.546  -8.517  1.00  0.00     0.262 C 
ATOM     18  H22 UNL     1      12.413 -19.698 -10.378  1.00  0.00     0.277 HD
ATOM     19  H21 UNL     1      12.753 -18.347  -9.691  1.00  0.00     0.277 HD
HETATM   20  C6  UNL     1      10.224 -19.103  -8.050  1.00  0.00     0.300 C 
ENDBRANCH  12  13
ENDBRANCH   9  12
ENDBRANCH   1   8
BRANCH   1  21
HETATM   21  C8  UNL     1       4.767 -17.450 -11.434  1.00  0.00     0.172 C 
HETATM   22  N4  UNL     1       5.049 -16.397 -12.113  1.00  0.00    -0.249 N 
ATOM     23  H4  UNL     1       5.788 -16.470 -12.811  1.00  0.00     0.196 HD
BRANCH  21  24
HETATM   24  O2  UNL     1       3.785 -17.392 -10.485  1.00  0.00    -0.346 OA
ATOM     25  H2  UNL     1       4.015 -17.621  -9.592  1.00  0.00     0.219 HD
ENDBRANCH  21  24
BRANCH  22  26
HETATM   26  O3  UNL     1       4.440 -15.203 -11.969  1.00  0.00    -0.288 OA
ATOM     27  H3  UNL     1       4.447 -14.510 -12.619  1.00  0.00     0.244 HD
ENDBRANCH  22  26
ENDBRANCH   1  21
TORSDOF 6
ENDMDL
MODEL 2
REMARK VINA RESULT: -6.357553512      0.620      1.183
REMARK  6 active torsions:
REMARK  status: ('A' for Active; 'I' for Inactive)
REMARK    1  A    between atoms: C1_2  and  C2_3 
REMARK       I    between atoms: C1_2  and  N3_12 
REMARK    2  A    between atoms: C2_3  and  N1_4 
REMARK    3  A    between atoms: N3_12  and  C7_14 
REMARK    4  A    between atoms: C7_14  and  C8_15 
REMARK    5  A    between atoms: C8_15  and  O2_16 
REMARK    6  A    between atoms: N4_18  and  O3_20 
ROOT
HETATM    1  C7  UNL     1       5.672 -18.799 -11.700  1.00  0.00     0.160 C 
HETATM    2  C9  UNL     1       6.057 -18.897 -13.125  1.00  0.00     0.048 C 
HETATM    3  C10 UNL     1       5.286 -19.960 -13.854  1.00  0.00     0.004 C 
HETATM    4  C11 UNL     1       3.820 -19.616 -13.883  1.00  0.00     0.008 C 
HETATM    5  C12 UNL     1       3.334 -19.663 -12.455  1.00  0.00     0.081 C 
HETATM    6  C13 UNL     1       4.500 -19.725 -11.506  1.00  0.00     0.163 C 
HETATM    7  O4  UNL     1       4.539 -20.499 -10.583  1.00  0.00    -0.295 OA
ENDROOT
BRANCH   1   8
HETATM    8  N3  UNL     1       6.663 -19.109 -10.724  1.00  0.00    -0.336 N 
HETATM    9  C1  UNL     1       7.610 -18.275 -10.118  1.00  0.00     0.247 C 
HETATM   10  O1  UNL     1       7.688 -17.068 -10.392  1.00  0.00    -0.272 OA
ATOM     11  H3  UNL     1       6.687 -20.083 -10.421  1.00  0.00     0.164 HD
BRANCH   9  12
HETATM   12  C2  UNL     1       8.587 -18.776  -9.106  1.00  0.00     0.374 C 
BRANCH  12  13
HETATM   13  N1  UNL     1       9.928 -18.377  -9.389  1.00  0.00     0.100 N 
HETATM   14  C3  UNL     1      10.790 -18.424  -8.223  1.00  0.00     0.300 C 
HETATM   15  C4  UNL     1      11.775 -19.587  -8.321  1.00  0.00     0.262 C 
HETATM   16  N2  UNL     1      12.644 -19.445  -9.467  1.00  0.00    -0.072 N 
HETATM   17  C5  UNL     1      11.928 -19.039 -10.644  1.00  0.00     0.262 C 
ATOM     18  H22 UNL     1      13.417 -18.810  -9.268  1.00  0.00     0.277 HD
ATOM     19  H21 UNL     1      13.175 -20.299  -9.634  1.00  0.00     0.277 HD
HETATM   20  C6  UNL     1      10.426 -19.136 -10.499  1.00  0.00     0.300 C 
ENDBRANCH  12  13
ENDBRANCH   9  12
ENDBRANCH   1   8
BRANCH   1  21
HETATM   21  C8  UNL     1       5.077 -17.438 -11.379  1.00  0.00     0.172 C 
HETATM   22  N4  UNL     1       5.129 -16.450 -12.196  1.00  0.00    -0.249 N 
ATOM     23  H4  UNL     1       5.591 -16.601 -13.092  1.00  0.00     0.196 HD
BRANCH  21  24
HETATM   24  O2  UNL     1       4.470 -17.275 -10.165  1.00  0.00    -0.346 OA
ATOM     25  H2  UNL     1       4.987 -16.920  -9.452  1.00  0.00     0.219 HD
ENDBRANCH  21  24
BRANCH  22  26
HETATM   26  O3  UNL     1       4.615 -15.226 -11.956  1.00  0.00    -0.288 OA
ATOM     27  H3  UNL     1       3.874 -14.850 -12.416  1.00  0.00     0.244 HD
ENDBRANCH  22  26
ENDBRANCH   1  21
TORSDOF 6
ENDMDL
MODEL 3
REMARK VINA RESULT: -6.354822147      1.881      3.195
REMARK  6 active torsions:
REMARK  status: ('A' for Active; 'I' for Inactive)
REMARK    1  A    between atoms: C1_2  and  C2_3 
REMARK       I    between atoms: C1_2  and  N3_12 
REMARK    2  A    between atoms: C2_3  and  N1_4 
REMARK    3  A    between atoms: N3_12  and  C7_14 
REMARK    4  A    between atoms: C7_14  and  C8_15 
REMARK    5  A    between atoms: C8_15  and  O2_16 
REMARK    6  A    between atoms: N4_18  and  O3_20 
ROOT
HETATM    1  C7  UNL     1       5.696 -18.895 -12.060  1.00  0.00     0.160 C 
HETATM    2  C9  UNL     1       4.724 -18.985 -10.950  1.00  0.00     0.048 C 
HETATM    3  C10 UNL     1       4.154 -17.647 -10.578  1.00  0.00     0.004 C 
HETATM    4  C11 UNL     1       3.363 -17.077 -11.727  1.00  0.00     0.008 C 
HETATM    5  C12 UNL     1       4.345 -16.810 -12.841  1.00  0.00     0.081 C 
HETATM    6  C13 UNL     1       5.665 -17.470 -12.545  1.00  0.00     0.163 C 
HETATM    7  O4  UNL     1       6.716 -16.896 -12.681  1.00  0.00    -0.295 OA
ENDROOT
BRANCH   1   8
HETATM    8  N3  UNL     1       7.049 -19.253 -11.786  1.00  0.00    -0.336 N 
HETATM    9  C1  UNL     1       7.824 -19.007 -10.647  1.00  0.00     0.247 C 
HETATM   10  O1  UNL     1       7.369 -18.398  -9.666  1.00  0.00    -0.272 OA
ATOM     11  H3  UNL     1       7.523 -19.765 -12.530  1.00  0.00     0.164 HD
BRANCH   9  12
HETATM   12  C2  UNL     1       9.243 -19.456 -10.532  1.00  0.00     0.374 C 
BRANCH  12  13
HETATM   13  N1  UNL     1      10.031 -18.588  -9.717  1.00  0.00     0.100 N 
HETATM   14  C3  UNL     1      10.354 -19.164  -8.425  1.00  0.00     0.300 C 
HETATM   15  C4  UNL     1      11.830 -19.551  -8.356  1.00  0.00     0.262 C 
HETATM   16  N2  UNL     1      12.685 -18.396  -8.514  1.00  0.00    -0.072 N 
HETATM   17  C5  UNL     1      12.241 -17.534  -9.573  1.00  0.00     0.262 C 
ATOM     18  H22 UNL     1      12.780 -17.884  -7.637  1.00  0.00     0.277 HD
ATOM     19  H21 UNL     1      13.657 -18.673  -8.646  1.00  0.00     0.277 HD
HETATM   20  C6  UNL     1      11.184 -18.158 -10.455  1.00  0.00     0.300 C 
ENDBRANCH  12  13
ENDBRANCH   9  12
ENDBRANCH   1   8
BRANCH   1  21
HETATM   21  C8  UNL     1       5.223 -19.672 -13.277  1.00  0.00     0.172 C 
HETATM   22  N4  UNL     1       4.629 -20.806 -13.187  1.00  0.00    -0.249 N 
ATOM     23  H4  UNL     1       4.479 -21.187 -12.253  1.00  0.00     0.196 HD
BRANCH  21  24
HETATM   24  O2  UNL     1       5.448 -19.129 -14.511  1.00  0.00    -0.346 OA
ATOM     25  H2  UNL     1       4.943 -18.364 -14.760  1.00  0.00     0.219 HD
ENDBRANCH  21  24
BRANCH  22  26
HETATM   26  O3  UNL     1       4.191 -21.531 -14.236  1.00  0.00    -0.288 OA
ATOM     27  H3  UNL     1       3.631 -22.296 -14.170  1.00  0.00     0.244 HD
ENDBRANCH  22  26
ENDBRANCH   1  21
TORSDOF 6
ENDMDL
MODEL 4
REMARK VINA RESULT: -6.350348892      1.475      1.702
REMARK  6 active torsions:
REMARK  status: ('A' for Active; 'I' for Inactive)
REMARK    1  A    between atoms: C1_2  and  C2_3 
REMARK       I    between atoms: C1_2  and  N3_12 
REMARK    2  A    between atoms: C2_3  and  N1_4 
REMARK    3  A    between atoms: N3_12  and  C7_14 
REMARK    4  A    between atoms: C7_14  and  C8_15 
REMARK    5  A    between atoms: C8_15  and  O2_16 
REMARK    6  A    between atoms: N4_18  and  O3_20 
ROOT
HETATM    1  C7  UNL     1       5.828 -17.786 -11.945  1.00  0.00     0.160 C 
HETATM    2  C9  UNL     1       5.868 -18.673 -13.127  1.00  0.00     0.048 C 
HETATM    3  C10 UNL     1       5.164 -19.978 -12.887  1.00  0.00     0.004 C 
HETATM    4  C11 UNL     1       3.697 -19.743 -12.641  1.00  0.00     0.008 C 
HETATM    5  C12 UNL     1       3.590 -18.974 -11.346  1.00  0.00     0.081 C 
HETATM    6  C13 UNL     1       4.941 -18.458 -10.931  1.00  0.00     0.163 C 
HETATM    7  O4  UNL     1       5.351 -18.562  -9.802  1.00  0.00    -0.295 OA
ENDROOT
BRANCH   1   8
HETATM    8  N3  UNL     1       7.068 -17.459 -11.320  1.00  0.00    -0.336 N 
HETATM    9  C1  UNL     1       8.128 -18.295 -10.951  1.00  0.00     0.247 C 
HETATM   10  O1  UNL     1       8.096 -19.518 -11.151  1.00  0.00    -0.272 OA
ATOM     11  H3  UNL     1       7.202 -16.470 -11.111  1.00  0.00     0.164 HD
BRANCH   9  12
HETATM   12  C2  UNL     1       9.364 -17.776 -10.293  1.00  0.00     0.374 C 
BRANCH  12  13
HETATM   13  N1  UNL     1      10.327 -18.800 -10.045  1.00  0.00     0.100 N 
HETATM   14  C3  UNL     1      11.553 -18.619 -10.800  1.00  0.00     0.300 C 
HETATM   15  C4  UNL     1      12.696 -18.185  -9.885  1.00  0.00     0.262 C 
HETATM   16  N2  UNL     1      12.978 -19.187  -8.883  1.00  0.00    -0.072 N 
HETATM   17  C5  UNL     1      11.780 -19.717  -8.295  1.00  0.00     0.262 C 
ATOM     18  H22 UNL     1      13.565 -19.932  -9.260  1.00  0.00     0.277 HD
ATOM     19  H21 UNL     1      13.611 -18.827  -8.170  1.00  0.00     0.277 HD
HETATM   20  C6  UNL     1      10.539 -18.921  -8.632  1.00  0.00     0.300 C 
ENDBRANCH  12  13
ENDBRANCH   9  12
ENDBRANCH   1   8
BRANCH   1  21
HETATM   21  C8  UNL     1       5.077 -16.498 -12.242  1.00  0.00     0.172 C 
HETATM   22  N4  UNL     1       5.138 -15.469 -11.478  1.00  0.00    -0.249 N 
ATOM     23  H4  UNL     1       5.718 -15.535 -10.641  1.00  0.00     0.196 HD
BRANCH  21  24
HETATM   24  O2  UNL     1       4.309 -16.451 -13.371  1.00  0.00    -0.346 OA
ATOM     25  H2  UNL     1       4.017 -17.274 -13.746  1.00  0.00     0.219 HD
ENDBRANCH  21  24
BRANCH  22  26
HETATM   26  O3  UNL     1       4.492 -14.306 -11.701  1.00  0.00    -0.288 OA
ATOM     27  H3  UNL     1       4.887 -13.532 -12.085  1.00  0.00     0.244 HD
ENDBRANCH  22  26
ENDBRANCH   1  21
TORSDOF 6
ENDMDL
MODEL 5
REMARK VINA RESULT: -6.178151308      1.593      1.956
REMARK  6 active torsions:
REMARK  status: ('A' for Active; 'I' for Inactive)
REMARK    1  A    between atoms: C1_2  and  C2_3 
REMARK       I    between atoms: C1_2  and  N3_12 
REMARK    2  A    between atoms: C2_3  and  N1_4 
REMARK    3  A    between atoms: N3_12  and  C7_14 
REMARK    4  A    between atoms: C7_14  and  C8_15 
REMARK    5  A    between atoms: C8_15  and  O2_16 
REMARK    6  A    between atoms: N4_18  and  O3_20 
ROOT
HETATM    1  C7  UNL     1       5.026 -19.502 -12.371  1.00  0.00     0.160 C 
HETATM    2  C9  UNL     1       5.114 -20.174 -13.685  1.00  0.00     0.048 C 
HETATM    3  C10 UNL     1       4.630 -21.595 -13.634  1.00  0.00     0.004 C 
HETATM    4  C11 UNL     1       3.165 -21.636 -13.288  1.00  0.00     0.008 C 
HETATM    5  C12 UNL     1       3.036 -21.108 -11.880  1.00  0.00     0.081 C 
HETATM    6  C13 UNL     1       4.320 -20.457 -11.445  1.00  0.00     0.163 C 
HETATM    7  O4  UNL     1       4.819 -20.672 -10.369  1.00  0.00    -0.295 OA
ENDROOT
BRANCH   1   8
HETATM    8  N3  UNL     1       6.243 -19.087 -11.756  1.00  0.00    -0.336 N 
HETATM    9  C1  UNL     1       6.896 -17.850 -11.814  1.00  0.00     0.247 C 
HETATM   10  O1  UNL     1       6.437 -16.899 -12.464  1.00  0.00    -0.272 OA
ATOM     11  H3  UNL     1       6.709 -19.797 -11.190  1.00  0.00     0.164 HD
BRANCH   9  12
HETATM   12  C2  UNL     1       8.183 -17.590 -11.103  1.00  0.00     0.374 C 
BRANCH  12  13
HETATM   13  N1  UNL     1       8.628 -18.712 -10.341  1.00  0.00     0.100 N 
HETATM   14  C3  UNL     1      10.041 -18.992 -10.519  1.00  0.00     0.300 C 
HETATM   15  C4  UNL     1      10.832 -18.616  -9.267  1.00  0.00     0.262 C 
HETATM   16  N2  UNL     1      10.403 -19.388  -8.123  1.00  0.00    -0.072 N 
HETATM   17  C5  UNL     1       8.973 -19.484  -8.039  1.00  0.00     0.262 C 
ATOM     18  H22 UNL     1      10.836 -20.311  -8.118  1.00  0.00     0.277 HD
ATOM     19  H21 UNL     1      10.799 -19.017  -7.260  1.00  0.00     0.277 HD
HETATM   20  C6  UNL     1       8.249 -18.538  -8.969  1.00  0.00     0.300 C 
ENDBRANCH  12  13
ENDBRANCH   9  12
ENDBRANCH   1   8
BRANCH   1  21
HETATM   21  C8  UNL     1       4.073 -18.318 -12.416  1.00  0.00     0.172 C 
HETATM   22  N4  UNL     1       3.653 -17.726 -11.358  1.00  0.00    -0.249 N 
ATOM     23  H4  UNL     1       3.981 -18.078 -10.458  1.00  0.00     0.196 HD
BRANCH  21  24
HETATM   24  O2  UNL     1       3.654 -17.879 -13.641  1.00  0.00    -0.346 OA
ATOM     25  H2  UNL     1       3.093 -18.452 -14.151  1.00  0.00     0.219 HD
ENDBRANCH  21  24
BRANCH  22  26
HETATM   26  O3  UNL     1       2.811 -16.673 -11.348  1.00  0.00    -0.288 OA
ATOM     27  H3  UNL     1       2.200 -16.475 -10.648  1.00  0.00     0.244 HD
ENDBRANCH  22  26
ENDBRANCH   1  21
TORSDOF 6
ENDMDL
