MODEL 1
REMARK VINA RESULT: -7.656339113      0.000      0.000
REMARK  5 active torsions:
REMARK  status: ('A' for Active; 'I' for Inactive)
REMARK    1  A    between atoms: C3_3  and  C4_4 
REMARK       I    between atoms: C4_4  and  N1_6 
REMARK    2  A    between atoms: N1_6  and  N2_8 
REMARK       I    between atoms: N2_8  and  C5_10 
REMARK       I    between atoms: C5_10  and  N3_12 
REMARK    3  A    between atoms: N3_12  and  N4_14 
REMARK    4  A    between atoms: N4_14  and  S1_16 
REMARK    5  A    between atoms: S1_16  and  C6_19 
ROOT
HETATM    1  C1  UNL     1      13.610 -19.474 -11.009  1.00  0.00     0.012 C 
HETATM    2  C2  UNL     1      12.893 -19.454 -10.053  1.00  0.00    -0.108 C 
HETATM    3  C3  UNL     1      12.028 -19.447  -8.883  1.00  0.00     0.197 C 
ENDROOT
BRANCH   3   4
HETATM    4  C4  UNL     1      10.756 -18.753  -9.183  1.00  0.00     0.247 C 
HETATM    5  O1  UNL     1      10.775 -17.659  -9.769  1.00  0.00    -0.271 OA
HETATM    6  N1  UNL     1       9.542 -19.348  -8.802  1.00  0.00    -0.265 N 
ATOM      7  H1  UNL     1       9.585 -20.245  -8.320  1.00  0.00     0.190 HD
BRANCH   6   8
HETATM    8  N2  UNL     1       8.273 -18.797  -9.038  1.00  0.00    -0.248 N 
HETATM    9  C5  UNL     1       7.680 -18.900 -10.317  1.00  0.00     0.354 C 
HETATM   10  O2  UNL     1       8.385 -19.518 -11.211  1.00  0.00    -0.244 OA
HETATM   11  N3  UNL     1       6.421 -18.404 -10.709  1.00  0.00    -0.241 N 
ATOM     12  H3  UNL     1       5.837 -17.919 -10.028  1.00  0.00     0.192 HD
ATOM     13  H2  UNL     1       7.778 -18.320  -8.284  1.00  0.00     0.192 HD
BRANCH  11  14
HETATM   14  N4  UNL     1       5.957 -18.570 -12.028  1.00  0.00    -0.218 N 
ATOM     15  H4  UNL     1       6.567 -18.547 -12.845  1.00  0.00     0.200 HD
BRANCH  14  16
HETATM   16  S1  UNL     1       4.277 -18.812 -12.121  1.00  0.00     0.282 S 
HETATM   17  O3  UNL     1       3.643 -18.278 -10.835  1.00  0.00    -0.198 OA
HETATM   18  O4  UNL     1       3.714 -18.108 -13.291  1.00  0.00    -0.198 OA
BRANCH  16  19
HETATM   19  C6  UNL     1       3.823 -20.528 -12.122  1.00  0.00     0.121 A 
HETATM   20  C7  UNL     1       3.219 -21.212 -11.092  1.00  0.00     0.033 A 
HETATM   21  C8  UNL     1       2.945 -22.502 -11.283  1.00  0.00     0.009 A 
HETATM   22  C9  UNL     1       3.283 -23.058 -12.489  1.00  0.00     0.051 A 
HETATM   23  S2  UNL     1       3.985 -21.725 -13.321  1.00  0.00    -0.088 SA
ENDBRANCH  16  19
ENDBRANCH  14  16
ENDBRANCH  11  14
ENDBRANCH   6   8
ENDBRANCH   3   4
TORSDOF 5
ENDMDL
MODEL 2
REMARK VINA RESULT: -7.654340257      1.582      1.830
REMARK  5 active torsions:
REMARK  status: ('A' for Active; 'I' for Inactive)
REMARK    1  A    between atoms: C3_3  and  C4_4 
REMARK       I    between atoms: C4_4  and  N1_6 
REMARK    2  A    between atoms: N1_6  and  N2_8 
REMARK       I    between atoms: N2_8  and  C5_10 
REMARK       I    between atoms: C5_10  and  N3_12 
REMARK    3  A    between atoms: N3_12  and  N4_14 
REMARK    4  A    between atoms: N4_14  and  S1_16 
REMARK    5  A    between atoms: S1_16  and  C6_19 
ROOT
HETATM    1  C1  UNL     1      13.589 -19.483 -11.363  1.00  0.00     0.012 C 
HETATM    2  C2  UNL     1      13.068 -19.189 -10.328  1.00  0.00    -0.108 C 
HETATM    3  C3  UNL     1      12.452 -18.835  -9.059  1.00  0.00     0.197 C 
ENDROOT
BRANCH   3   4
HETATM    4  C4  UNL     1      10.998 -19.105  -9.096  1.00  0.00     0.247 C 
HETATM    5  O1  UNL     1      10.358 -19.182  -8.036  1.00  0.00    -0.271 OA
HETATM    6  N1  UNL     1      10.360 -19.266 -10.338  1.00  0.00    -0.265 N 
ATOM      7  H1  UNL     1      10.935 -19.198 -11.178  1.00  0.00     0.190 HD
BRANCH   6   8
HETATM    8  N2  UNL     1       8.990 -19.515 -10.506  1.00  0.00    -0.248 N 
HETATM    9  C5  UNL     1       8.077 -18.438 -10.588  1.00  0.00     0.354 C 
HETATM   10  O2  UNL     1       8.598 -17.257 -10.495  1.00  0.00    -0.244 OA
HETATM   11  N3  UNL     1       6.681 -18.524 -10.758  1.00  0.00    -0.241 N 
ATOM     12  H3  UNL     1       6.239 -19.439 -10.843  1.00  0.00     0.192 HD
ATOM     13  H2  UNL     1       8.650 -20.475 -10.569  1.00  0.00     0.192 HD
BRANCH  11  14
HETATM   14  N4  UNL     1       5.887 -17.361 -10.812  1.00  0.00    -0.218 N 
ATOM     15  H4  UNL     1       6.125 -16.495 -10.330  1.00  0.00     0.200 HD
BRANCH  14  16
HETATM   16  S1  UNL     1       4.491 -17.549 -11.764  1.00  0.00     0.282 S 
HETATM   17  O3  UNL     1       3.271 -17.503 -10.841  1.00  0.00    -0.198 OA
HETATM   18  O4  UNL     1       4.401 -16.475 -12.774  1.00  0.00    -0.198 OA
BRANCH  16  19
HETATM   19  C6  UNL     1       4.377 -19.153 -12.518  1.00  0.00     0.121 A 
HETATM   20  C7  UNL     1       4.918 -19.525 -13.727  1.00  0.00     0.033 A 
HETATM   21  C8  UNL     1       4.733 -20.784 -14.125  1.00  0.00     0.009 A 
HETATM   22  C9  UNL     1       4.019 -21.618 -13.305  1.00  0.00     0.051 A 
HETATM   23  S2  UNL     1       3.628 -20.585 -11.985  1.00  0.00    -0.088 SA
ENDBRANCH  16  19
ENDBRANCH  14  16
ENDBRANCH  11  14
ENDBRANCH   6   8
ENDBRANCH   3   4
TORSDOF 5
ENDMDL
MODEL 3
REMARK VINA RESULT: -7.649109827      1.329      1.354
REMARK  5 active torsions:
REMARK  status: ('A' for Active; 'I' for Inactive)
REMARK    1  A    between atoms: C3_3  and  C4_4 
REMARK       I    between atoms: C4_4  and  N1_6 
REMARK    2  A    between atoms: N1_6  and  N2_8 
REMARK       I    between atoms: N2_8  and  C5_10 
REMARK       I    between atoms: C5_10  and  N3_12 
REMARK    3  A    between atoms: N3_12  and  N4_14 
REMARK    4  A    between atoms: N4_14  and  S1_16 
REMARK    5  A    between atoms: S1_16  and  C6_19 
ROOT
HETATM    1  C1  UNL     1      13.818 -19.567 -11.583  1.00  0.00     0.012 C 
HETATM    2  C2  UNL     1      13.283 -19.181 -10.585  1.00  0.00    -0.108 C 
HETATM    3  C3  UNL     1      12.650 -18.713  -9.362  1.00  0.00     0.197 C 
ENDROOT
BRANCH   3   4
HETATM    4  C4  UNL     1      11.244 -19.169  -9.298  1.00  0.00     0.247 C 
HETATM    5  O1  UNL     1      10.761 -19.526  -8.212  1.00  0.00    -0.271 OA
HETATM    6  N1  UNL     1      10.473 -19.187 -10.473  1.00  0.00    -0.265 N 
ATOM      7  H1  UNL     1      10.922 -18.887 -11.338  1.00  0.00     0.190 HD
BRANCH   6   8
HETATM    8  N2  UNL     1       9.130 -19.587 -10.541  1.00  0.00    -0.248 N 
HETATM    9  C5  UNL     1       8.098 -18.622 -10.499  1.00  0.00     0.354 C 
HETATM   10  O2  UNL     1       8.488 -17.392 -10.393  1.00  0.00    -0.244 OA
HETATM   11  N3  UNL     1       6.711 -18.863 -10.559  1.00  0.00    -0.241 N 
ATOM     12  H3  UNL     1       6.370 -19.820 -10.651  1.00  0.00     0.192 HD
ATOM     13  H2  UNL     1       8.898 -20.578 -10.621  1.00  0.00     0.192 HD
BRANCH  11  14
HETATM   14  N4  UNL     1       5.789 -17.800 -10.495  1.00  0.00    -0.218 N 
ATOM     15  H4  UNL     1       5.868 -17.027  -9.834  1.00  0.00     0.200 HD
BRANCH  14  16
HETATM   16  S1  UNL     1       4.531 -17.937 -11.630  1.00  0.00     0.282 S 
HETATM   17  O3  UNL     1       3.235 -17.462 -10.970  1.00  0.00    -0.198 OA
HETATM   18  O4  UNL     1       4.818 -17.118 -12.826  1.00  0.00    -0.198 OA
BRANCH  16  19
HETATM   19  C6  UNL     1       4.177 -19.619 -12.073  1.00  0.00     0.121 A 
HETATM   20  C7  UNL     1       3.599 -20.570 -11.263  1.00  0.00     0.033 A 
HETATM   21  C8  UNL     1       3.402 -21.784 -11.779  1.00  0.00     0.009 A 
HETATM   22  C9  UNL     1       3.787 -22.000 -13.075  1.00  0.00     0.051 A 
HETATM   23  S2  UNL     1       4.423 -20.466 -13.528  1.00  0.00    -0.088 SA
ENDBRANCH  16  19
ENDBRANCH  14  16
ENDBRANCH  11  14
ENDBRANCH   6   8
ENDBRANCH   3   4
TORSDOF 5
ENDMDL
MODEL 4
REMARK VINA RESULT: -7.546803553      1.298      1.535
REMARK  5 active torsions:
REMARK  status: ('A' for Active; 'I' for Inactive)
REMARK    1  A    between atoms: C3_3  and  C4_4 
REMARK       I    between atoms: C4_4  and  N1_6 
REMARK    2  A    between atoms: N1_6  and  N2_8 
REMARK       I    between atoms: N2_8  and  C5_10 
REMARK       I    between atoms: C5_10  and  N3_12 
REMARK    3  A    between atoms: N3_12  and  N4_14 
REMARK    4  A    between atoms: N4_14  and  S1_16 
REMARK    5  A    between atoms: S1_16  and  C6_19 
ROOT
HETATM    1  C1  UNL     1      13.897 -19.478  -9.619  1.00  0.00     0.012 C 
HETATM    2  C2  UNL     1      12.844 -19.067  -9.229  1.00  0.00    -0.108 C 
HETATM    3  C3  UNL     1      11.571 -18.564  -8.736  1.00  0.00     0.197 C 
ENDROOT
BRANCH   3   4
HETATM    4  C4  UNL     1      10.454 -19.103  -9.543  1.00  0.00     0.247 C 
HETATM    5  O1  UNL     1      10.669 -19.519 -10.692  1.00  0.00    -0.271 OA
HETATM    6  N1  UNL     1       9.162 -19.140  -8.991  1.00  0.00    -0.265 N 
ATOM      7  H1  UNL     1       9.042 -18.781  -8.044  1.00  0.00     0.190 HD
BRANCH   6   8
HETATM    8  N2  UNL     1       8.026 -19.634  -9.648  1.00  0.00    -0.248 N 
HETATM    9  C5  UNL     1       7.380 -18.854 -10.634  1.00  0.00     0.354 C 
HETATM   10  O2  UNL     1       7.907 -17.693 -10.861  1.00  0.00    -0.244 OA
HETATM   11  N3  UNL     1       6.238 -19.208 -11.380  1.00  0.00    -0.241 N 
ATOM     12  H3  UNL     1       5.803 -20.119 -11.232  1.00  0.00     0.192 HD
ATOM     13  H2  UNL     1       7.665 -20.559  -9.414  1.00  0.00     0.192 HD
BRANCH  11  14
HETATM   14  N4  UNL     1       5.691 -18.323 -12.329  1.00  0.00    -0.218 N 
ATOM     15  H4  UNL     1       5.942 -17.336 -12.387  1.00  0.00     0.200 HD
BRANCH  14  16
HETATM   16  S1  UNL     1       4.568 -19.065 -13.367  1.00  0.00     0.282 S 
HETATM   17  O3  UNL     1       3.272 -18.252 -13.334  1.00  0.00    -0.198 OA
HETATM   18  O4  UNL     1       5.093 -19.123 -14.746  1.00  0.00    -0.198 OA
BRANCH  16  19
HETATM   19  C6  UNL     1       4.060 -20.671 -12.804  1.00  0.00     0.121 A 
HETATM   20  C7  UNL     1       4.193 -21.855 -13.491  1.00  0.00     0.033 A 
HETATM   21  C8  UNL     1       3.757 -22.967 -12.898  1.00  0.00     0.009 A 
HETATM   22  C9  UNL     1       3.211 -22.854 -11.647  1.00  0.00     0.051 A 
HETATM   23  S2  UNL     1       3.328 -21.163 -11.348  1.00  0.00    -0.088 SA
ENDBRANCH  16  19
ENDBRANCH  14  16
ENDBRANCH  11  14
ENDBRANCH   6   8
ENDBRANCH   3   4
TORSDOF 5
ENDMDL
MODEL 5
REMARK VINA RESULT: -7.531681501      1.047      1.047
REMARK  5 active torsions:
REMARK  status: ('A' for Active; 'I' for Inactive)
REMARK    1  A    between atoms: C3_3  and  C4_4 
REMARK       I    between atoms: C4_4  and  N1_6 
REMARK    2  A    between atoms: N1_6  and  N2_8 
REMARK       I    between atoms: N2_8  and  C5_10 
REMARK       I    between atoms: C5_10  and  N3_12 
REMARK    3  A    between atoms: N3_12  and  N4_14 
REMARK    4  A    between atoms: N4_14  and  S1_16 
REMARK    5  A    between atoms: S1_16  and  C6_19 
ROOT
HETATM    1  C1  UNL     1      14.447 -19.791  -9.800  1.00  0.00     0.012 C 
HETATM    2  C2  UNL     1      13.436 -19.357  -9.334  1.00  0.00    -0.108 C 
HETATM    3  C3  UNL     1      12.213 -18.830  -8.748  1.00  0.00     0.197 C 
ENDROOT
BRANCH   3   4
HETATM    4  C4  UNL     1      11.048 -19.156  -9.600  1.00  0.00     0.247 C 
HETATM    5  O1  UNL     1      11.183 -19.211 -10.832  1.00  0.00    -0.271 OA
HETATM    6  N1  UNL     1       9.803 -19.403  -8.997  1.00  0.00    -0.265 N 
ATOM      7  H1  UNL     1       9.748 -19.340  -7.981  1.00  0.00     0.190 HD
BRANCH   6   8
HETATM    8  N2  UNL     1       8.629 -19.731  -9.692  1.00  0.00    -0.248 N 
HETATM    9  C5  UNL     1       7.867 -18.717 -10.316  1.00  0.00     0.354 C 
HETATM   10  O2  UNL     1       8.327 -17.514 -10.188  1.00  0.00    -0.244 OA
HETATM   11  N3  UNL     1       6.675 -18.884 -11.048  1.00  0.00    -0.241 N 
ATOM     12  H3  UNL     1       6.288 -19.820 -11.175  1.00  0.00     0.192 HD
ATOM     13  H2  UNL     1       8.325 -20.703  -9.748  1.00  0.00     0.192 HD
BRANCH  11  14
HETATM   14  N4  UNL     1       6.009 -17.777 -11.609  1.00  0.00    -0.218 N 
ATOM     15  H4  UNL     1       6.460 -16.878 -11.781  1.00  0.00     0.200 HD
BRANCH  14  16
HETATM   16  S1  UNL     1       4.378 -18.089 -11.970  1.00  0.00     0.282 S 
HETATM   17  O3  UNL     1       3.540 -17.757 -10.734  1.00  0.00    -0.198 OA
HETATM   18  O4  UNL     1       3.932 -17.271 -13.117  1.00  0.00    -0.198 OA
BRANCH  16  19
HETATM   19  C6  UNL     1       4.046 -19.812 -12.242  1.00  0.00     0.121 A 
HETATM   20  C7  UNL     1       3.450 -20.678 -11.353  1.00  0.00     0.033 A 
HETATM   21  C8  UNL     1       3.276 -21.941 -11.742  1.00  0.00     0.009 A 
HETATM   22  C9  UNL     1       3.700 -22.289 -12.997  1.00  0.00     0.051 A 
HETATM   23  S2  UNL     1       4.339 -20.806 -13.592  1.00  0.00    -0.088 SA
ENDBRANCH  16  19
ENDBRANCH  14  16
ENDBRANCH  11  14
ENDBRANCH   6   8
ENDBRANCH   3   4
TORSDOF 5
ENDMDL
