MODEL 1
REMARK VINA RESULT: -6.723580914      0.000      0.000
REMARK  6 active torsions:
REMARK  status: ('A' for Active; 'I' for Inactive)
REMARK    1  A    between atoms: O1_1  and  C1_3 
REMARK    2  A    between atoms: C1_3  and  N1_4 
REMARK    3  A    between atoms: C4_7  and  C5_8 
REMARK    4  A    between atoms: C5_8  and  C6_9 
REMARK    5  A    between atoms: C6_9  and  N2_10 
REMARK    6  A    between atoms: N2_10  and  C7_12 
ROOT
HETATM    1  C5  UNL     1       3.036  23.484  16.757  1.00  0.00     0.058 C 
ENDROOT
BRANCH   1   2
HETATM    2  C4  UNL     1       2.491  22.470  17.666  1.00  0.00    -0.054 A 
HETATM    3  C3  UNL     1       2.783  22.455  19.015  1.00  0.00     0.024 A 
HETATM    4  C2  UNL     1       2.237  21.478  19.793  1.00  0.00     0.093 A 
HETATM    5  N1  UNL     1       1.418  20.509  19.339  1.00  0.00    -0.345 N 
HETATM    6  C11 UNL     1       1.130  20.520  18.022  1.00  0.00     0.093 A 
HETATM    7  C10 UNL     1       1.651  21.483  17.177  1.00  0.00     0.024 A 
BRANCH   5   8
HETATM    8  C1  UNL     1       0.856  19.484  20.208  1.00  0.00     0.294 C 
BRANCH   8   9
HETATM    9  O1  UNL     1      -0.322  18.956  19.716  1.00  0.00    -0.382 OA
ATOM     10  H1  UNL     1      -0.432  18.039  19.935  1.00  0.00     0.211 HD
ENDBRANCH   8   9
ENDBRANCH   5   8
ENDBRANCH   1   2
BRANCH   1  11
HETATM   11  C6  UNL     1       2.189  23.659  15.509  1.00  0.00     0.126 C 
BRANCH  11  12
HETATM   12  N2  UNL     1       1.398  24.855  15.629  1.00  0.00    -0.375 N 
ATOM     13  H2  UNL     1       1.849  25.753  15.456  1.00  0.00     0.161 HD
BRANCH  12  14
HETATM   14  C7  UNL     1       0.148  24.850  15.946  1.00  0.00     0.117 A 
HETATM   15  C8  UNL     1      -0.745  23.833  15.712  1.00  0.00     0.068 A 
HETATM   16  C9  UNL     1      -1.956  24.271  16.219  1.00  0.00     0.111 A 
HETATM   17  N3  UNL     1      -1.766  25.483  16.718  1.00  0.00    -0.310 N 
HETATM   18  N4  UNL     1      -0.508  25.840  16.561  1.00  0.00    -0.286 N 
ATOM     19  H3  UNL     1      -2.487  26.055  17.159  1.00  0.00     0.186 HD
ATOM     20  H4  UNL     1      -0.101  26.726  16.859  1.00  0.00     0.188 HD
ENDBRANCH  12  14
ENDBRANCH  11  12
ENDBRANCH   1  11
TORSDOF 6
ENDMDL
MODEL 2
REMARK VINA RESULT: -6.704738421      0.393      1.244
REMARK  6 active torsions:
REMARK  status: ('A' for Active; 'I' for Inactive)
REMARK    1  A    between atoms: O1_1  and  C1_3 
REMARK    2  A    between atoms: C1_3  and  N1_4 
REMARK    3  A    between atoms: C4_7  and  C5_8 
REMARK    4  A    between atoms: C5_8  and  C6_9 
REMARK    5  A    between atoms: C6_9  and  N2_10 
REMARK    6  A    between atoms: N2_10  and  C7_12 
ROOT
HETATM    1  C5  UNL     1       3.114  23.494  16.598  1.00  0.00     0.058 C 
ENDROOT
BRANCH   1   2
HETATM    2  C4  UNL     1       2.520  22.490  17.486  1.00  0.00    -0.054 A 
HETATM    3  C3  UNL     1       1.676  21.500  17.022  1.00  0.00     0.024 A 
HETATM    4  C2  UNL     1       1.164  20.604  17.913  1.00  0.00     0.093 A 
HETATM    5  N1  UNL     1       1.423  20.609  19.235  1.00  0.00    -0.345 N 
HETATM    6  C11 UNL     1       2.246  21.573  19.692  1.00  0.00     0.093 A 
HETATM    7  C10 UNL     1       2.799  22.514  18.843  1.00  0.00     0.024 A 
BRANCH   5   8
HETATM    8  C1  UNL     1       0.854  19.631  20.151  1.00  0.00     0.294 C 
BRANCH   8   9
HETATM    9  O1  UNL     1      -0.314  19.069  19.671  1.00  0.00    -0.382 OA
ATOM     10  H1  UNL     1      -1.079  19.340  20.164  1.00  0.00     0.211 HD
ENDBRANCH   8   9
ENDBRANCH   5   8
ENDBRANCH   1   2
BRANCH   1  11
HETATM   11  C6  UNL     1       2.396  24.830  16.670  1.00  0.00     0.126 C 
BRANCH  11  12
HETATM   12  N2  UNL     1       1.352  24.867  15.680  1.00  0.00    -0.375 N 
ATOM     13  H2  UNL     1       1.619  24.909  14.696  1.00  0.00     0.161 HD
BRANCH  12  14
HETATM   14  C7  UNL     1       0.096  24.851  15.973  1.00  0.00     0.117 A 
HETATM   15  C8  UNL     1      -0.786  23.830  15.714  1.00  0.00     0.068 A 
HETATM   16  C9  UNL     1      -2.009  24.256  16.201  1.00  0.00     0.111 A 
HETATM   17  N3  UNL     1      -1.836  25.465  16.715  1.00  0.00    -0.310 N 
HETATM   18  N4  UNL     1      -0.578  25.831  16.584  1.00  0.00    -0.286 N 
ATOM     19  H3  UNL     1      -2.569  26.029  17.147  1.00  0.00     0.186 HD
ATOM     20  H4  UNL     1      -0.183  26.718  16.897  1.00  0.00     0.188 HD
ENDBRANCH  12  14
ENDBRANCH  11  12
ENDBRANCH   1  11
TORSDOF 6
ENDMDL
MODEL 3
REMARK VINA RESULT: -6.621737998      4.222      5.606
REMARK  6 active torsions:
REMARK  status: ('A' for Active; 'I' for Inactive)
REMARK    1  A    between atoms: O1_1  and  C1_3 
REMARK    2  A    between atoms: C1_3  and  N1_4 
REMARK    3  A    between atoms: C4_7  and  C5_8 
REMARK    4  A    between atoms: C5_8  and  C6_9 
REMARK    5  A    between atoms: C6_9  and  N2_10 
REMARK    6  A    between atoms: N2_10  and  C7_12 
ROOT
HETATM    1  C5  UNL     1       3.117  22.529  19.303  1.00  0.00     0.058 C 
ENDROOT
BRANCH   1   2
HETATM    2  C4  UNL     1       4.403  22.907  19.897  1.00  0.00    -0.054 A 
HETATM    3  C3  UNL     1       5.006  22.162  20.891  1.00  0.00     0.024 A 
HETATM    4  C2  UNL     1       6.202  22.581  21.391  1.00  0.00     0.093 A 
HETATM    5  N1  UNL     1       6.856  23.687  20.982  1.00  0.00    -0.345 N 
HETATM    6  C11 UNL     1       6.272  24.417  20.011  1.00  0.00     0.093 A 
HETATM    7  C10 UNL     1       5.058  24.048  19.461  1.00  0.00     0.024 A 
BRANCH   5   8
HETATM    8  C1  UNL     1       8.134  24.097  21.545  1.00  0.00     0.294 C 
BRANCH   8   9
HETATM    9  O1  UNL     1       9.130  24.192  20.592  1.00  0.00    -0.382 OA
ATOM     10  H1  UNL     1       9.524  25.056  20.560  1.00  0.00     0.211 HD
ENDBRANCH   8   9
ENDBRANCH   5   8
ENDBRANCH   1   2
BRANCH   1  11
HETATM   11  C6  UNL     1       2.664  23.504  18.232  1.00  0.00     0.126 C 
BRANCH  11  12
HETATM   12  N2  UNL     1       2.655  22.842  16.954  1.00  0.00    -0.375 N 
ATOM     13  H2  UNL     1       2.238  21.913  16.893  1.00  0.00     0.161 HD
BRANCH  12  14
HETATM   14  C7  UNL     1       3.146  23.363  15.881  1.00  0.00     0.117 A 
HETATM   15  C8  UNL     1       4.232  24.201  15.808  1.00  0.00     0.068 A 
HETATM   16  C9  UNL     1       4.386  24.502  14.466  1.00  0.00     0.111 A 
HETATM   17  N3  UNL     1       3.432  23.867  13.802  1.00  0.00    -0.310 N 
HETATM   18  N4  UNL     1       2.683  23.181  14.639  1.00  0.00    -0.286 N 
ATOM     19  H3  UNL     1       3.297  23.905  12.791  1.00  0.00     0.186 HD
ATOM     20  H4  UNL     1       1.882  22.605  14.383  1.00  0.00     0.188 HD
ENDBRANCH  12  14
ENDBRANCH  11  12
ENDBRANCH   1  11
TORSDOF 6
ENDMDL
MODEL 4
REMARK VINA RESULT: -6.514722280      3.598      6.006
REMARK  6 active torsions:
REMARK  status: ('A' for Active; 'I' for Inactive)
REMARK    1  A    between atoms: O1_1  and  C1_3 
REMARK    2  A    between atoms: C1_3  and  N1_4 
REMARK    3  A    between atoms: C4_7  and  C5_8 
REMARK    4  A    between atoms: C5_8  and  C6_9 
REMARK    5  A    between atoms: C6_9  and  N2_10 
REMARK    6  A    between atoms: N2_10  and  C7_12 
ROOT
HETATM    1  C5  UNL     1       1.022  21.114  17.536  1.00  0.00     0.058 C 
ENDROOT
BRANCH   1   2
HETATM    2  C4  UNL     1       1.945  22.070  16.917  1.00  0.00    -0.054 A 
HETATM    3  C3  UNL     1       2.744  22.915  17.661  1.00  0.00     0.024 A 
HETATM    4  C2  UNL     1       3.576  23.775  17.009  1.00  0.00     0.093 A 
HETATM    5  N1  UNL     1       3.683  23.865  15.668  1.00  0.00    -0.345 N 
HETATM    6  C11 UNL     1       2.906  23.042  14.937  1.00  0.00     0.093 A 
HETATM    7  C10 UNL     1       2.039  22.146  15.536  1.00  0.00     0.024 A 
BRANCH   5   8
HETATM    8  C1  UNL     1       4.587  24.800  15.014  1.00  0.00     0.294 C 
BRANCH   8   9
HETATM    9  O1  UNL     1       5.103  24.303  13.832  1.00  0.00    -0.382 OA
ATOM     10  H1  UNL     1       5.806  23.681  13.973  1.00  0.00     0.211 HD
ENDBRANCH   8   9
ENDBRANCH   5   8
ENDBRANCH   1   2
BRANCH   1  11
HETATM   11  C6  UNL     1       1.717  20.190  18.519  1.00  0.00     0.126 C 
BRANCH  11  12
HETATM   12  N2  UNL     1       1.229  20.449  19.848  1.00  0.00    -0.375 N 
ATOM     13  H2  UNL     1       0.267  20.194  20.070  1.00  0.00     0.161 HD
BRANCH  12  14
HETATM   14  C7  UNL     1       1.947  20.988  20.775  1.00  0.00     0.117 A 
HETATM   15  C8  UNL     1       3.273  20.734  21.027  1.00  0.00     0.068 A 
HETATM   16  C9  UNL     1       3.612  21.534  22.104  1.00  0.00     0.111 A 
HETATM   17  N3  UNL     1       2.530  22.214  22.453  1.00  0.00    -0.310 N 
HETATM   18  N4  UNL     1       1.526  21.895  21.663  1.00  0.00    -0.286 N 
ATOM     19  H3  UNL     1       2.482  22.885  23.221  1.00  0.00     0.186 HD
ATOM     20  H4  UNL     1       0.583  22.277  21.720  1.00  0.00     0.188 HD
ENDBRANCH  12  14
ENDBRANCH  11  12
ENDBRANCH   1  11
TORSDOF 6
ENDMDL
MODEL 5
REMARK VINA RESULT: -6.494746477      3.596      6.098
REMARK  6 active torsions:
REMARK  status: ('A' for Active; 'I' for Inactive)
REMARK    1  A    between atoms: O1_1  and  C1_3 
REMARK    2  A    between atoms: C1_3  and  N1_4 
REMARK    3  A    between atoms: C4_7  and  C5_8 
REMARK    4  A    between atoms: C5_8  and  C6_9 
REMARK    5  A    between atoms: C6_9  and  N2_10 
REMARK    6  A    between atoms: N2_10  and  C7_12 
ROOT
HETATM    1  C5  UNL     1       0.987  21.111  17.525  1.00  0.00     0.058 C 
ENDROOT
BRANCH   1   2
HETATM    2  C4  UNL     1       1.905  22.042  16.861  1.00  0.00    -0.054 A 
HETATM    3  C3  UNL     1       2.008  22.124  15.486  1.00  0.00     0.024 A 
HETATM    4  C2  UNL     1       2.885  23.017  14.946  1.00  0.00     0.093 A 
HETATM    5  N1  UNL     1       3.675  23.841  15.664  1.00  0.00    -0.345 N 
HETATM    6  C11 UNL     1       3.578  23.764  17.005  1.00  0.00     0.093 A 
HETATM    7  C10 UNL     1       2.708  22.880  17.618  1.00  0.00     0.024 A 
BRANCH   5   8
HETATM    8  C1  UNL     1       4.599  24.780  15.044  1.00  0.00     0.294 C 
BRANCH   8   9
HETATM    9  O1  UNL     1       5.119  24.308  13.854  1.00  0.00    -0.382 OA
ATOM     10  H1  UNL     1       6.061  24.190  13.888  1.00  0.00     0.211 HD
ENDBRANCH   8   9
ENDBRANCH   5   8
ENDBRANCH   1   2
BRANCH   1  11
HETATM   11  C6  UNL     1       1.699  20.193  18.501  1.00  0.00     0.126 C 
BRANCH  11  12
HETATM   12  N2  UNL     1       1.224  20.449  19.835  1.00  0.00    -0.375 N 
ATOM     13  H2  UNL     1       0.268  20.180  20.068  1.00  0.00     0.161 HD
BRANCH  12  14
HETATM   14  C7  UNL     1       1.944  21.002  20.751  1.00  0.00     0.117 A 
HETATM   15  C8  UNL     1       3.283  20.791  20.970  1.00  0.00     0.068 A 
HETATM   16  C9  UNL     1       3.620  21.591  22.048  1.00  0.00     0.111 A 
HETATM   17  N3  UNL     1       2.524  22.229  22.430  1.00  0.00    -0.310 N 
HETATM   18  N4  UNL     1       1.513  21.885  21.659  1.00  0.00    -0.286 N 
ATOM     19  H3  UNL     1       2.470  22.890  23.206  1.00  0.00     0.186 HD
ATOM     20  H4  UNL     1       0.558  22.234  21.742  1.00  0.00     0.188 HD
ENDBRANCH  12  14
ENDBRANCH  11  12
ENDBRANCH   1  11
TORSDOF 6
ENDMDL
