MODEL 1
REMARK VINA RESULT: -5.446775445      0.000      0.000
REMARK  6 active torsions:
REMARK  status: ('A' for Active; 'I' for Inactive)
REMARK    1  A    between atoms: C2_2  and  N1_4 
REMARK    2  A    between atoms: N1_4  and  C4_6 
REMARK    3  A    between atoms: C5_11  and  N4_12 
REMARK    4  A    between atoms: N4_12  and  C6_14 
REMARK    5  A    between atoms: C6_14  and  C7_15 
REMARK    6  A    between atoms: C7_15  and  N5_16 
ROOT
HETATM    1  C4  UNL     1       5.272  23.836  19.750  1.00  0.00     0.708 A 
HETATM    2  N2  UNL     1       4.427  23.393  20.688  1.00  0.00    -0.117 N 
ATOM      3  H2  UNL     1       4.663  23.293  21.675  1.00  0.00     0.206 HD
HETATM    4  N3  UNL     1       3.229  23.097  20.161  1.00  0.00    -0.117 N 
ATOM      5  H3  UNL     1       2.417  22.741  20.665  1.00  0.00     0.206 HD
HETATM    6  C5  UNL     1       3.300  23.356  18.849  1.00  0.00     0.707 A 
HETATM    7  N6  UNL     1       4.527  23.801  18.592  1.00  0.00    -0.020 N 
ATOM      8  H6  UNL     1       4.867  24.076  17.671  1.00  0.00     0.203 HD
ENDROOT
BRANCH   6   9
HETATM    9  N4  UNL     1       2.375  23.221  17.956  1.00  0.00    -0.223 N 
ATOM     10  H4  UNL     1       1.388  23.252  18.210  1.00  0.00     0.177 HD
BRANCH   9  11
HETATM   11  C6  UNL     1       2.791  23.026  16.581  1.00  0.00     0.168 C 
BRANCH  11  12
HETATM   12  C7  UNL     1       1.838  23.733  15.638  1.00  0.00     0.291 C 
BRANCH  12  13
HETATM   13  N5  UNL     1       0.928  24.627  16.262  1.00  0.00     0.081 N 
HETATM   14  C8  UNL     1      -0.462  24.380  15.954  1.00  0.00     0.309 C 
HETATM   15  C9  UNL     1       1.272  26.019  16.169  1.00  0.00     0.309 C 
ENDBRANCH  12  13
ENDBRANCH  11  12
ENDBRANCH   9  11
ENDBRANCH   6   9
BRANCH   1  16
HETATM   16  N1  UNL     1       6.459  24.222  19.819  1.00  0.00    -0.220 N 
ATOM     17  H1  UNL     1       7.070  23.644  19.242  1.00  0.00     0.178 HD
BRANCH  16  18
HETATM   18  C2  UNL     1       7.174  25.218  20.465  1.00  0.00     0.091 C 
HETATM   19  C1  UNL     1       7.630  26.408  19.669  1.00  0.00     0.032 C 
HETATM   20  C3  UNL     1       8.376  24.562  21.177  1.00  0.00     0.032 C 
ENDBRANCH  16  18
ENDBRANCH   1  16
TORSDOF 6
ENDMDL
MODEL 2
REMARK VINA RESULT: -5.399564692      2.391      4.355
REMARK  6 active torsions:
REMARK  status: ('A' for Active; 'I' for Inactive)
REMARK    1  A    between atoms: C2_2  and  N1_4 
REMARK    2  A    between atoms: N1_4  and  C4_6 
REMARK    3  A    between atoms: C5_11  and  N4_12 
REMARK    4  A    between atoms: N4_12  and  C6_14 
REMARK    5  A    between atoms: C6_14  and  C7_15 
REMARK    6  A    between atoms: C7_15  and  N5_16 
ROOT
HETATM    1  C4  UNL     1       2.684  22.293  20.413  1.00  0.00     0.708 A 
HETATM    2  N2  UNL     1       3.656  23.001  21.000  1.00  0.00    -0.117 N 
ATOM      3  H2  UNL     1       3.860  22.981  21.999  1.00  0.00     0.206 HD
HETATM    4  N3  UNL     1       4.328  23.739  20.104  1.00  0.00    -0.117 N 
ATOM      5  H3  UNL     1       5.110  24.363  20.298  1.00  0.00     0.206 HD
HETATM    6  C5  UNL     1       3.778  23.502  18.906  1.00  0.00     0.707 A 
HETATM    7  N6  UNL     1       2.786  22.633  19.083  1.00  0.00    -0.020 N 
ATOM      8  H6  UNL     1       2.188  22.271  18.340  1.00  0.00     0.203 HD
ENDROOT
BRANCH   6   9
HETATM    9  N4  UNL     1       4.114  23.996  17.760  1.00  0.00    -0.223 N 
ATOM     10  H4  UNL     1       4.907  24.631  17.671  1.00  0.00     0.177 HD
BRANCH   9  11
HETATM   11  C6  UNL     1       3.324  23.616  16.605  1.00  0.00     0.168 C 
BRANCH  11  12
HETATM   12  C7  UNL     1       2.774  24.848  15.916  1.00  0.00     0.291 C 
BRANCH  12  13
HETATM   13  N5  UNL     1       1.383  25.069  16.098  1.00  0.00     0.081 N 
HETATM   14  C8  UNL     1       1.052  25.913  17.222  1.00  0.00     0.309 C 
HETATM   15  C9  UNL     1       0.560  23.893  16.032  1.00  0.00     0.309 C 
ENDBRANCH  12  13
ENDBRANCH  11  12
ENDBRANCH   9  11
ENDBRANCH   6   9
BRANCH   1  16
HETATM   16  N1  UNL     1       1.849  21.486  20.878  1.00  0.00    -0.220 N 
ATOM     17  H1  UNL     1       1.119  21.970  21.400  1.00  0.00     0.178 HD
BRANCH  16  18
HETATM   18  C2  UNL     1       1.643  20.116  20.880  1.00  0.00     0.091 C 
HETATM   19  C1  UNL     1       2.801  19.214  20.556  1.00  0.00     0.032 C 
HETATM   20  C3  UNL     1       0.453  19.807  19.948  1.00  0.00     0.032 C 
ENDBRANCH  16  18
ENDBRANCH   1  16
TORSDOF 6
ENDMDL
MODEL 3
REMARK VINA RESULT: -5.378924952      2.276      6.884
REMARK  6 active torsions:
REMARK  status: ('A' for Active; 'I' for Inactive)
REMARK    1  A    between atoms: C2_2  and  N1_4 
REMARK    2  A    between atoms: N1_4  and  C4_6 
REMARK    3  A    between atoms: C5_11  and  N4_12 
REMARK    4  A    between atoms: N4_12  and  C6_14 
REMARK    5  A    between atoms: C6_14  and  C7_15 
REMARK    6  A    between atoms: C7_15  and  N5_16 
ROOT
HETATM    1  C4  UNL     1       1.048  23.840  15.858  1.00  0.00     0.708 A 
HETATM    2  N2  UNL     1       1.864  24.723  15.269  1.00  0.00    -0.117 N 
ATOM      3  H2  UNL     1       1.636  25.240  14.420  1.00  0.00     0.206 HD
HETATM    4  N3  UNL     1       3.019  24.839  15.942  1.00  0.00    -0.117 N 
ATOM      5  H3  UNL     1       3.803  25.444  15.698  1.00  0.00     0.206 HD
HETATM    6  C5  UNL     1       2.949  24.011  16.992  1.00  0.00     0.707 A 
HETATM    7  N6  UNL     1       1.766  23.405  16.949  1.00  0.00    -0.020 N 
ATOM      8  H6  UNL     1       1.438  22.717  17.627  1.00  0.00     0.203 HD
ENDROOT
BRANCH   6   9
HETATM    9  N4  UNL     1       3.836  23.807  17.909  1.00  0.00    -0.223 N 
ATOM     10  H4  UNL     1       4.824  23.997  17.741  1.00  0.00     0.177 HD
BRANCH   9  11
HETATM   11  C6  UNL     1       3.377  23.298  19.187  1.00  0.00     0.168 C 
BRANCH  11  12
HETATM   12  C7  UNL     1       4.550  23.105  20.128  1.00  0.00     0.291 C 
BRANCH  12  13
HETATM   13  N5  UNL     1       4.529  21.898  20.875  1.00  0.00     0.081 N 
HETATM   14  C8  UNL     1       3.256  21.593  21.486  1.00  0.00     0.309 C 
HETATM   15  C9  UNL     1       5.631  21.714  21.779  1.00  0.00     0.309 C 
ENDBRANCH  12  13
ENDBRANCH  11  12
ENDBRANCH   9  11
ENDBRANCH   6   9
BRANCH   1  16
HETATM   16  N1  UNL     1      -0.104  23.454  15.565  1.00  0.00    -0.220 N 
ATOM     17  H1  UNL     1      -0.094  22.501  15.199  1.00  0.00     0.178 HD
BRANCH  16  18
HETATM   18  C2  UNL     1      -1.393  23.963  15.599  1.00  0.00     0.091 C 
HETATM   19  C1  UNL     1      -1.671  25.158  16.467  1.00  0.00     0.032 C 
HETATM   20  C3  UNL     1      -2.356  22.811  15.956  1.00  0.00     0.032 C 
ENDBRANCH  16  18
ENDBRANCH   1  16
TORSDOF 6
ENDMDL
MODEL 4
REMARK VINA RESULT: -5.373598644      3.651      4.716
REMARK  6 active torsions:
REMARK  status: ('A' for Active; 'I' for Inactive)
REMARK    1  A    between atoms: C2_2  and  N1_4 
REMARK    2  A    between atoms: N1_4  and  C4_6 
REMARK    3  A    between atoms: C5_11  and  N4_12 
REMARK    4  A    between atoms: N4_12  and  C6_14 
REMARK    5  A    between atoms: C6_14  and  C7_15 
REMARK    6  A    between atoms: C7_15  and  N5_16 
ROOT
HETATM    1  C4  UNL     1       1.339  20.259  19.336  1.00  0.00     0.708 A 
HETATM    2  N2  UNL     1       0.116  19.984  18.867  1.00  0.00    -0.117 N 
ATOM      3  H2  UNL     1      -0.633  19.569  19.421  1.00  0.00     0.206 HD
HETATM    4  N3  UNL     1       0.004  20.326  17.575  1.00  0.00    -0.117 N 
ATOM      5  H3  UNL     1      -0.825  20.217  16.990  1.00  0.00     0.206 HD
HETATM    6  C5  UNL     1       1.183  20.836  17.198  1.00  0.00     0.707 A 
HETATM    7  N6  UNL     1       1.993  20.799  18.251  1.00  0.00    -0.020 N 
ATOM      8  H6  UNL     1       2.961  21.123  18.256  1.00  0.00     0.203 HD
ENDROOT
BRANCH   6   9
HETATM    9  N4  UNL     1       1.520  21.297  16.039  1.00  0.00    -0.223 N 
ATOM     10  H4  UNL     1       1.767  20.671  15.272  1.00  0.00     0.177 HD
BRANCH   9  11
HETATM   11  C6  UNL     1       1.535  22.737  15.866  1.00  0.00     0.168 C 
BRANCH  11  12
HETATM   12  C7  UNL     1       2.694  23.148  14.979  1.00  0.00     0.291 C 
BRANCH  12  13
HETATM   13  N5  UNL     1       3.837  23.630  15.669  1.00  0.00     0.081 N 
HETATM   14  C8  UNL     1       3.597  23.995  17.046  1.00  0.00     0.309 C 
HETATM   15  C9  UNL     1       4.609  24.617  14.965  1.00  0.00     0.309 C 
ENDBRANCH  12  13
ENDBRANCH  11  12
ENDBRANCH   9  11
ENDBRANCH   6   9
BRANCH   1  16
HETATM   16  N1  UNL     1       1.845  20.108  20.469  1.00  0.00    -0.220 N 
ATOM     17  H1  UNL     1       1.758  19.143  20.788  1.00  0.00     0.178 HD
BRANCH  16  18
HETATM   18  C2  UNL     1       2.492  20.891  21.412  1.00  0.00     0.091 C 
HETATM   19  C1  UNL     1       2.150  22.352  21.491  1.00  0.00     0.032 C 
HETATM   20  C3  UNL     1       4.013  20.711  21.224  1.00  0.00     0.032 C 
ENDBRANCH  16  18
ENDBRANCH   1  16
TORSDOF 6
ENDMDL
MODEL 5
REMARK VINA RESULT: -5.365954004      2.676      6.243
REMARK  6 active torsions:
REMARK  status: ('A' for Active; 'I' for Inactive)
REMARK    1  A    between atoms: C2_2  and  N1_4 
REMARK    2  A    between atoms: N1_4  and  C4_6 
REMARK    3  A    between atoms: C5_11  and  N4_12 
REMARK    4  A    between atoms: N4_12  and  C6_14 
REMARK    5  A    between atoms: C6_14  and  C7_15 
REMARK    6  A    between atoms: C7_15  and  N5_16 
ROOT
HETATM    1  C4  UNL     1       1.251  20.959  17.103  1.00  0.00     0.708 A 
HETATM    2  N2  UNL     1       0.138  20.293  17.432  1.00  0.00    -0.117 N 
ATOM      3  H2  UNL     1      -0.599  20.040  16.773  1.00  0.00     0.206 HD
HETATM    4  N3  UNL     1       0.117  20.000  18.741  1.00  0.00    -0.117 N 
ATOM      5  H3  UNL     1      -0.620  19.500  19.238  1.00  0.00     0.206 HD
HETATM    6  C5  UNL     1       1.245  20.488  19.273  1.00  0.00     0.707 A 
HETATM    7  N6  UNL     1       1.933  21.067  18.294  1.00  0.00    -0.020 N 
ATOM      8  H6  UNL     1       2.837  21.526  18.408  1.00  0.00     0.203 HD
ENDROOT
BRANCH   6   9
HETATM    9  N4  UNL     1       1.641  20.428  20.501  1.00  0.00    -0.223 N 
ATOM     10  H4  UNL     1       1.715  19.535  20.990  1.00  0.00     0.177 HD
BRANCH   9  11
HETATM   11  C6  UNL     1       1.976  21.674  21.162  1.00  0.00     0.168 C 
BRANCH  11  12
HETATM   12  C7  UNL     1       3.371  21.599  21.749  1.00  0.00     0.291 C 
BRANCH  12  13
HETATM   13  N5  UNL     1       4.419  21.944  20.855  1.00  0.00     0.081 N 
HETATM   14  C8  UNL     1       5.740  21.916  21.441  1.00  0.00     0.309 C 
HETATM   15  C9  UNL     1       4.193  23.123  20.066  1.00  0.00     0.309 C 
ENDBRANCH  12  13
ENDBRANCH  11  12
ENDBRANCH   9  11
ENDBRANCH   6   9
BRANCH   1  16
HETATM   16  N1  UNL     1       1.658  21.400  16.007  1.00  0.00    -0.220 N 
ATOM     17  H1  UNL     1       1.840  20.644  15.348  1.00  0.00     0.178 HD
BRANCH  16  18
HETATM   18  C2  UNL     1       1.931  22.635  15.440  1.00  0.00     0.091 C 
HETATM   19  C1  UNL     1       3.266  23.272  15.711  1.00  0.00     0.032 C 
HETATM   20  C3  UNL     1       0.794  23.603  15.826  1.00  0.00     0.032 C 
ENDBRANCH  16  18
ENDBRANCH   1  16
TORSDOF 6
ENDMDL
