MODEL 1
REMARK VINA RESULT: -8.796357622      0.000      0.000
REMARK  9 active torsions:
REMARK  status: ('A' for Active; 'I' for Inactive)
REMARK    1  A    between atoms: C2_2  and  N1_3 
REMARK    2  A    between atoms: C2_2  and  C14_23 
REMARK    3  A    between atoms: N1_3  and  C3_5 
REMARK    4  A    between atoms: C3_5  and  C4_7 
REMARK    5  A    between atoms: C4_7  and  N2_8 
REMARK    6  A    between atoms: C4_7  and  C13_20 
REMARK       I    between atoms: N2_8  and  C5_10 
REMARK    7  A    between atoms: C5_10  and  O2_12 
REMARK    8  A    between atoms: O2_12  and  C6_13 
REMARK    9  A    between atoms: C6_13  and  C7_14 
ROOT
HETATM    1  C4  UNL     1     -35.321  -1.930   7.404  1.00  0.00     0.249 C 
ENDROOT
BRANCH   1   2
HETATM    2  C3  UNL     1     -35.790  -3.327   7.516  1.00  0.00     0.107 C 
HETATM    3  S1  UNL     1     -37.136  -3.589   8.401  1.00  0.00    -0.063 SA
BRANCH   2   4
HETATM    4  N1  UNL     1     -35.095  -4.391   6.880  1.00  0.00    -0.368 N 
ATOM      5  H1  UNL     1     -34.385  -4.153   6.187  1.00  0.00     0.161 HD
BRANCH   4   6
HETATM    6  C2  UNL     1     -35.330  -5.771   7.151  1.00  0.00     0.179 C 
HETATM    7  C1  UNL     1     -34.064  -6.595   7.261  1.00  0.00     0.043 C 
BRANCH   6   8
HETATM    8  C14 UNL     1     -36.268  -6.399   6.178  1.00  0.00     0.196 C 
HETATM    9  O5  UNL     1     -37.479  -6.071   6.108  1.00  0.00    -0.646 OA
HETATM   10  O6  UNL     1     -35.824  -7.381   5.306  1.00  0.00    -0.646 OA
ENDBRANCH   6   8
ENDBRANCH   4   6
ENDBRANCH   2   4
ENDBRANCH   1   2
BRANCH   1  11
HETATM   11  N2  UNL     1     -35.336  -1.446   6.043  1.00  0.00    -0.316 N 
HETATM   12  C5  UNL     1     -34.356  -0.532   5.559  1.00  0.00     0.361 C 
HETATM   13  O1  UNL     1     -33.449  -0.126   6.315  1.00  0.00    -0.238 OA
ATOM     14  H2  UNL     1     -36.069  -1.767   5.410  1.00  0.00     0.166 HD
BRANCH  12  15
HETATM   15  O2  UNL     1     -34.420  -0.101   4.247  1.00  0.00    -0.299 OA
BRANCH  15  16
HETATM   16  C6  UNL     1     -33.352   0.625   3.635  1.00  0.00     0.219 C 
BRANCH  16  17
HETATM   17  C7  UNL     1     -33.872   1.506   2.569  1.00  0.00    -0.034 A 
HETATM   18  C8  UNL     1     -33.029   2.235   1.732  1.00  0.00     0.009 A 
HETATM   19  C9  UNL     1     -33.512   3.059   0.737  1.00  0.00     0.001 A 
HETATM   20  C10 UNL     1     -34.871   3.187   0.540  1.00  0.00     0.000 A 
HETATM   21  C11 UNL     1     -35.737   2.471   1.361  1.00  0.00     0.001 A 
HETATM   22  C12 UNL     1     -35.228   1.653   2.350  1.00  0.00     0.009 A 
ENDBRANCH  16  17
ENDBRANCH  15  16
ENDBRANCH  12  15
ENDBRANCH   1  11
BRANCH   1  23
HETATM   23  C13 UNL     1     -36.036  -1.017   8.307  1.00  0.00     0.203 C 
HETATM   24  O3  UNL     1     -36.858  -0.188   7.811  1.00  0.00    -0.646 OA
HETATM   25  O4  UNL     1     -35.840  -1.037   9.663  1.00  0.00    -0.646 OA
ENDBRANCH   1  23
TORSDOF 9
ENDMDL
MODEL 2
REMARK VINA RESULT: -8.761754743      0.075      1.193
REMARK  9 active torsions:
REMARK  status: ('A' for Active; 'I' for Inactive)
REMARK    1  A    between atoms: C2_2  and  N1_3 
REMARK    2  A    between atoms: C2_2  and  C14_23 
REMARK    3  A    between atoms: N1_3  and  C3_5 
REMARK    4  A    between atoms: C3_5  and  C4_7 
REMARK    5  A    between atoms: C4_7  and  N2_8 
REMARK    6  A    between atoms: C4_7  and  C13_20 
REMARK       I    between atoms: N2_8  and  C5_10 
REMARK    7  A    between atoms: C5_10  and  O2_12 
REMARK    8  A    between atoms: O2_12  and  C6_13 
REMARK    9  A    between atoms: C6_13  and  C7_14 
ROOT
HETATM    1  C4  UNL     1     -35.311  -1.974   7.411  1.00  0.00     0.249 C 
ENDROOT
BRANCH   1   2
HETATM    2  C3  UNL     1     -35.766  -3.376   7.509  1.00  0.00     0.107 C 
HETATM    3  S1  UNL     1     -37.153  -3.651   8.325  1.00  0.00    -0.063 SA
BRANCH   2   4
HETATM    4  N1  UNL     1     -35.025  -4.436   6.919  1.00  0.00    -0.368 N 
ATOM      5  H1  UNL     1     -34.259  -4.192   6.291  1.00  0.00     0.161 HD
BRANCH   4   6
HETATM    6  C2  UNL     1     -35.285  -5.818   7.151  1.00  0.00     0.179 C 
HETATM    7  C1  UNL     1     -34.034  -6.657   7.306  1.00  0.00     0.043 C 
BRANCH   6   8
HETATM    8  C14 UNL     1     -36.181  -6.417   6.123  1.00  0.00     0.196 C 
HETATM    9  O5  UNL     1     -35.758  -7.213   5.247  1.00  0.00    -0.646 OA
HETATM   10  O6  UNL     1     -37.533  -6.110   6.102  1.00  0.00    -0.646 OA
ENDBRANCH   6   8
ENDBRANCH   4   6
ENDBRANCH   2   4
ENDBRANCH   1   2
BRANCH   1  11
HETATM   11  N2  UNL     1     -35.343  -1.473   6.056  1.00  0.00    -0.316 N 
HETATM   12  C5  UNL     1     -34.390  -0.525   5.583  1.00  0.00     0.361 C 
HETATM   13  O1  UNL     1     -33.494  -0.103   6.343  1.00  0.00    -0.238 OA
ATOM     14  H2  UNL     1     -36.067  -1.807   5.421  1.00  0.00     0.166 HD
BRANCH  12  15
HETATM   15  O2  UNL     1     -34.468  -0.080   4.277  1.00  0.00    -0.299 OA
BRANCH  15  16
HETATM   16  C6  UNL     1     -33.384   0.600   3.641  1.00  0.00     0.219 C 
BRANCH  16  17
HETATM   17  C7  UNL     1     -33.887   1.493   2.577  1.00  0.00    -0.034 A 
HETATM   18  C8  UNL     1     -35.249   1.660   2.330  1.00  0.00     0.009 A 
HETATM   19  C9  UNL     1     -35.721   2.492   1.337  1.00  0.00     0.001 A 
HETATM   20  C10 UNL     1     -34.839   3.197   0.543  1.00  0.00     0.000 A 
HETATM   21  C11 UNL     1     -33.473   3.050   0.768  1.00  0.00     0.001 A 
HETATM   22  C12 UNL     1     -33.027   2.210   1.768  1.00  0.00     0.009 A 
ENDBRANCH  16  17
ENDBRANCH  15  16
ENDBRANCH  12  15
ENDBRANCH   1  11
BRANCH   1  23
HETATM   23  C13 UNL     1     -36.026  -1.079   8.331  1.00  0.00     0.203 C 
HETATM   24  O3  UNL     1     -36.811  -0.207   7.849  1.00  0.00    -0.646 OA
HETATM   25  O4  UNL     1     -35.869  -1.160   9.690  1.00  0.00    -0.646 OA
ENDBRANCH   1  23
TORSDOF 9
ENDMDL
MODEL 3
REMARK VINA RESULT: -7.900179456      1.117      1.747
REMARK  9 active torsions:
REMARK  status: ('A' for Active; 'I' for Inactive)
REMARK    1  A    between atoms: C2_2  and  N1_3 
REMARK    2  A    between atoms: C2_2  and  C14_23 
REMARK    3  A    between atoms: N1_3  and  C3_5 
REMARK    4  A    between atoms: C3_5  and  C4_7 
REMARK    5  A    between atoms: C4_7  and  N2_8 
REMARK    6  A    between atoms: C4_7  and  C13_20 
REMARK       I    between atoms: N2_8  and  C5_10 
REMARK    7  A    between atoms: C5_10  and  O2_12 
REMARK    8  A    between atoms: O2_12  and  C6_13 
REMARK    9  A    between atoms: C6_13  and  C7_14 
ROOT
HETATM    1  C4  UNL     1     -34.802  -0.994   7.423  1.00  0.00     0.249 C 
ENDROOT
BRANCH   1   2
HETATM    2  C3  UNL     1     -35.193  -2.352   7.854  1.00  0.00     0.107 C 
HETATM    3  S1  UNL     1     -35.588  -2.546   9.426  1.00  0.00    -0.063 SA
BRANCH   2   4
HETATM    4  N1  UNL     1     -35.222  -3.437   6.937  1.00  0.00    -0.368 N 
ATOM      5  H1  UNL     1     -35.025  -3.240   5.956  1.00  0.00     0.161 HD
BRANCH   4   6
HETATM    6  C2  UNL     1     -35.509  -4.785   7.304  1.00  0.00     0.179 C 
HETATM    7  C1  UNL     1     -34.449  -5.775   6.869  1.00  0.00     0.043 C 
BRANCH   6   8
HETATM    8  C14 UNL     1     -36.853  -5.235   6.844  1.00  0.00     0.196 C 
HETATM    9  O5  UNL     1     -37.035  -6.352   6.300  1.00  0.00    -0.646 OA
HETATM   10  O6  UNL     1     -37.962  -4.420   7.008  1.00  0.00    -0.646 OA
ENDBRANCH   6   8
ENDBRANCH   4   6
ENDBRANCH   2   4
ENDBRANCH   1   2
BRANCH   1  11
HETATM   11  N2  UNL     1     -34.988  -0.785   6.006  1.00  0.00    -0.316 N 
HETATM   12  C5  UNL     1     -33.939  -0.295   5.175  1.00  0.00     0.361 C 
HETATM   13  O1  UNL     1     -32.821  -0.033   5.664  1.00  0.00    -0.238 OA
ATOM     14  H2  UNL     1     -35.894  -0.995   5.588  1.00  0.00     0.166 HD
BRANCH  12  15
HETATM   15  O2  UNL     1     -34.173  -0.114   3.824  1.00  0.00    -0.299 OA
BRANCH  15  16
HETATM   16  C6  UNL     1     -35.234   0.712   3.343  1.00  0.00     0.219 C 
BRANCH  16  17
HETATM   17  C7  UNL     1     -34.730   1.662   2.330  1.00  0.00    -0.034 A 
HETATM   18  C8  UNL     1     -35.572   2.279   1.406  1.00  0.00     0.009 A 
HETATM   19  C9  UNL     1     -35.103   3.166   0.460  1.00  0.00     0.001 A 
HETATM   20  C10 UNL     1     -33.759   3.473   0.400  1.00  0.00     0.000 A 
HETATM   21  C11 UNL     1     -32.894   2.871   1.310  1.00  0.00     0.001 A 
HETATM   22  C12 UNL     1     -33.389   1.987   2.247  1.00  0.00     0.009 A 
ENDBRANCH  16  17
ENDBRANCH  15  16
ENDBRANCH  12  15
ENDBRANCH   1  11
BRANCH   1  23
HETATM   23  C13 UNL     1     -35.454   0.062   8.211  1.00  0.00     0.203 C 
HETATM   24  O3  UNL     1     -34.728   0.875   8.861  1.00  0.00    -0.646 OA
HETATM   25  O4  UNL     1     -36.817   0.192   8.262  1.00  0.00    -0.646 OA
ENDBRANCH   1  23
TORSDOF 9
ENDMDL
MODEL 4
REMARK VINA RESULT: -7.887938234      0.960      1.344
REMARK  9 active torsions:
REMARK  status: ('A' for Active; 'I' for Inactive)
REMARK    1  A    between atoms: C2_2  and  N1_3 
REMARK    2  A    between atoms: C2_2  and  C14_23 
REMARK    3  A    between atoms: N1_3  and  C3_5 
REMARK    4  A    between atoms: C3_5  and  C4_7 
REMARK    5  A    between atoms: C4_7  and  N2_8 
REMARK    6  A    between atoms: C4_7  and  C13_20 
REMARK       I    between atoms: N2_8  and  C5_10 
REMARK    7  A    between atoms: C5_10  and  O2_12 
REMARK    8  A    between atoms: O2_12  and  C6_13 
REMARK    9  A    between atoms: C6_13  and  C7_14 
ROOT
HETATM    1  C4  UNL     1     -35.715  -2.091   7.348  1.00  0.00     0.249 C 
ENDROOT
BRANCH   1   2
HETATM    2  C3  UNL     1     -36.434  -3.382   7.348  1.00  0.00     0.107 C 
HETATM    3  S1  UNL     1     -38.053  -3.329   7.147  1.00  0.00    -0.063 SA
BRANCH   2   4
HETATM    4  N1  UNL     1     -35.743  -4.612   7.516  1.00  0.00    -0.368 N 
ATOM      5  H1  UNL     1     -35.320  -4.803   8.424  1.00  0.00     0.161 HD
BRANCH   4   6
HETATM    6  C2  UNL     1     -35.603  -5.596   6.493  1.00  0.00     0.179 C 
HETATM    7  C1  UNL     1     -36.906  -6.266   6.110  1.00  0.00     0.043 C 
BRANCH   6   8
HETATM    8  C14 UNL     1     -34.572  -6.622   6.815  1.00  0.00     0.196 C 
HETATM    9  O5  UNL     1     -34.637  -7.797   6.376  1.00  0.00    -0.646 OA
HETATM   10  O6  UNL     1     -33.491  -6.304   7.623  1.00  0.00    -0.646 OA
ENDBRANCH   6   8
ENDBRANCH   4   6
ENDBRANCH   2   4
ENDBRANCH   1   2
BRANCH   1  11
HETATM   11  N2  UNL     1     -35.710  -1.457   6.050  1.00  0.00    -0.316 N 
HETATM   12  C5  UNL     1     -34.622  -0.648   5.614  1.00  0.00     0.361 C 
HETATM   13  O1  UNL     1     -33.635  -0.469   6.357  1.00  0.00    -0.238 OA
ATOM     14  H2  UNL     1     -36.507  -1.593   5.429  1.00  0.00     0.166 HD
BRANCH  12  15
HETATM   15  O2  UNL     1     -34.670  -0.065   4.361  1.00  0.00    -0.299 OA
BRANCH  15  16
HETATM   16  C6  UNL     1     -33.539   0.592   3.787  1.00  0.00     0.219 C 
BRANCH  16  17
HETATM   17  C7  UNL     1     -33.961   1.468   2.674  1.00  0.00    -0.034 A 
HETATM   18  C8  UNL     1     -33.043   2.146   1.874  1.00  0.00     0.009 A 
HETATM   19  C9  UNL     1     -33.435   2.964   0.834  1.00  0.00     0.001 A 
HETATM   20  C10 UNL     1     -34.775   3.136   0.553  1.00  0.00     0.000 A 
HETATM   21  C11 UNL     1     -35.714   2.471   1.336  1.00  0.00     0.001 A 
HETATM   22  C12 UNL     1     -35.296   1.658   2.370  1.00  0.00     0.009 A 
ENDBRANCH  16  17
ENDBRANCH  15  16
ENDBRANCH  12  15
ENDBRANCH   1  11
BRANCH   1  23
HETATM   23  C13 UNL     1     -36.195  -1.175   8.392  1.00  0.00     0.203 C 
HETATM   24  O3  UNL     1     -36.671  -0.051   8.046  1.00  0.00    -0.646 OA
HETATM   25  O4  UNL     1     -36.143  -1.499   9.722  1.00  0.00    -0.646 OA
ENDBRANCH   1  23
TORSDOF 9
ENDMDL
MODEL 5
REMARK VINA RESULT: -7.844190789      1.307      1.666
REMARK  9 active torsions:
REMARK  status: ('A' for Active; 'I' for Inactive)
REMARK    1  A    between atoms: C2_2  and  N1_3 
REMARK    2  A    between atoms: C2_2  and  C14_23 
REMARK    3  A    between atoms: N1_3  and  C3_5 
REMARK    4  A    between atoms: C3_5  and  C4_7 
REMARK    5  A    between atoms: C4_7  and  N2_8 
REMARK    6  A    between atoms: C4_7  and  C13_20 
REMARK       I    between atoms: N2_8  and  C5_10 
REMARK    7  A    between atoms: C5_10  and  O2_12 
REMARK    8  A    between atoms: O2_12  and  C6_13 
REMARK    9  A    between atoms: C6_13  and  C7_14 
ROOT
HETATM    1  C4  UNL     1     -35.681  -2.807   7.441  1.00  0.00     0.249 C 
ENDROOT
BRANCH   1   2
HETATM    2  C3  UNL     1     -36.722  -3.847   7.310  1.00  0.00     0.107 C 
HETATM    3  S1  UNL     1     -38.241  -3.341   6.989  1.00  0.00    -0.063 SA
BRANCH   2   4
HETATM    4  N1  UNL     1     -36.410  -5.226   7.458  1.00  0.00    -0.368 N 
ATOM      5  H1  UNL     1     -36.648  -5.678   8.340  1.00  0.00     0.161 HD
BRANCH   4   6
HETATM    6  C2  UNL     1     -35.787  -6.016   6.448  1.00  0.00     0.179 C 
HETATM    7  C1  UNL     1     -36.654  -7.145   5.934  1.00  0.00     0.043 C 
BRANCH   6   8
HETATM    8  C14 UNL     1     -34.455  -6.539   6.864  1.00  0.00     0.196 C 
HETATM    9  O5  UNL     1     -33.674  -5.879   7.595  1.00  0.00    -0.646 OA
HETATM   10  O6  UNL     1     -34.032  -7.793   6.451  1.00  0.00    -0.646 OA
ENDBRANCH   6   8
ENDBRANCH   4   6
ENDBRANCH   2   4
ENDBRANCH   1   2
BRANCH   1  11
HETATM   11  N2  UNL     1     -35.676  -1.883   6.330  1.00  0.00    -0.316 N 
HETATM   12  C5  UNL     1     -34.665  -0.889   6.185  1.00  0.00     0.361 C 
HETATM   13  O1  UNL     1     -33.749  -0.797   7.028  1.00  0.00    -0.238 OA
ATOM     14  H2  UNL     1     -36.415  -1.944   5.631  1.00  0.00     0.166 HD
BRANCH  12  15
HETATM   15  O2  UNL     1     -34.709  -0.031   5.102  1.00  0.00    -0.299 OA
BRANCH  15  16
HETATM   16  C6  UNL     1     -33.562   0.226   4.291  1.00  0.00     0.219 C 
BRANCH  16  17
HETATM   17  C7  UNL     1     -33.915   1.113   3.163  1.00  0.00    -0.034 A 
HETATM   18  C8  UNL     1     -32.947   1.743   2.382  1.00  0.00     0.009 A 
HETATM   19  C9  UNL     1     -33.275   2.571   1.329  1.00  0.00     0.001 A 
HETATM   20  C10 UNL     1     -34.598   2.804   1.013  1.00  0.00     0.000 A 
HETATM   21  C11 UNL     1     -35.586   2.187   1.776  1.00  0.00     0.001 A 
HETATM   22  C12 UNL     1     -35.231   1.363   2.825  1.00  0.00     0.009 A 
ENDBRANCH  16  17
ENDBRANCH  15  16
ENDBRANCH  12  15
ENDBRANCH   1  11
BRANCH   1  23
HETATM   23  C13 UNL     1     -35.744  -2.099   8.727  1.00  0.00     0.203 C 
HETATM   24  O3  UNL     1     -34.908  -2.403   9.632  1.00  0.00    -0.646 OA
HETATM   25  O4  UNL     1     -36.676  -1.126   8.975  1.00  0.00    -0.646 OA
ENDBRANCH   1  23
TORSDOF 9
ENDMDL
