MODEL 1
REMARK VINA RESULT: -8.747325138      0.000      0.000
REMARK  7 active torsions:
REMARK  status: ('A' for Active; 'I' for Inactive)
REMARK       I    between atoms: C1_2  and  N2_4 
REMARK    1  A    between atoms: N2_4  and  C2_6 
REMARK    2  A    between atoms: C2_6  and  C3_7 
REMARK    3  A    between atoms: C2_6  and  C12_23 
REMARK    4  A    between atoms: C3_7  and  O2_8 
REMARK    5  A    between atoms: O2_8  and  C4_9 
REMARK    6  A    between atoms: C8_13  and  C9_14 
REMARK    7  A    between atoms: N3_15  and  N4_17 
ROOT
HETATM    1  C4  UNL     1     -34.649  -0.332   4.514  1.00  0.00     0.069 A 
HETATM    2  C5  UNL     1     -33.276  -0.379   4.642  1.00  0.00     0.037 A 
HETATM    3  C6  UNL     1     -32.472   0.426   3.863  1.00  0.00     0.004 A 
HETATM    4  C7  UNL     1     -33.076   1.277   2.956  1.00  0.00     0.013 A 
HETATM    5  C8  UNL     1     -34.442   1.349   2.804  1.00  0.00    -0.017 A 
HETATM    6  C11 UNL     1     -35.226   0.543   3.585  1.00  0.00     0.049 A 
ENDROOT
BRANCH   1   7
HETATM    7  O2  UNL     1     -35.475  -1.133   5.288  1.00  0.00    -0.349 OA
BRANCH   7   8
HETATM    8  C3  UNL     1     -34.899  -1.845   6.367  1.00  0.00     0.205 C 
BRANCH   8   9
HETATM    9  C2  UNL     1     -36.029  -2.539   7.093  1.00  0.00     0.143 C 
BRANCH   9  10
HETATM   10  N2  UNL     1     -35.912  -2.148   8.501  1.00  0.00    -0.335 N 
HETATM   11  C1  UNL     1     -36.216  -0.839   8.934  1.00  0.00     0.329 C 
HETATM   12  N1  UNL     1     -36.086  -0.518  10.302  1.00  0.00    -0.040 NA
HETATM   13  O1  UNL     1     -36.597   0.007   8.085  1.00  0.00    -0.251 OA
ATOM     14  H2  UNL     1     -35.603  -2.839   9.185  1.00  0.00     0.164 HD
ENDBRANCH   9  10
BRANCH   9  15
HETATM   15  C12 UNL     1     -35.999  -4.001   6.937  1.00  0.00    -0.033 A 
HETATM   16  C13 UNL     1     -34.844  -4.741   7.191  1.00  0.00     0.009 A 
HETATM   17  C14 UNL     1     -34.824  -6.096   7.044  1.00  0.00     0.001 A 
HETATM   18  C15 UNL     1     -35.948  -6.787   6.636  1.00  0.00     0.000 A 
HETATM   19  C16 UNL     1     -37.082  -6.055   6.387  1.00  0.00     0.001 A 
HETATM   20  C17 UNL     1     -37.119  -4.685   6.531  1.00  0.00     0.009 A 
ENDBRANCH   9  15
ENDBRANCH   8   9
ENDBRANCH   7   8
ENDBRANCH   1   7
BRANCH   5  21
HETATM   21  C9  UNL     1     -35.065   2.248   1.847  1.00  0.00     0.118 C 
HETATM   22  N3  UNL     1     -34.330   2.694   0.882  1.00  0.00    -0.309 N 
ATOM     23  H3  UNL     1     -33.357   2.389   0.848  1.00  0.00     0.186 HD
BRANCH  22  24
HETATM   24  N4  UNL     1     -34.767   3.551  -0.104  1.00  0.00    -0.276 N 
HETATM   25  C10 UNL     1     -34.284   4.741  -0.175  1.00  0.00     0.215 C 
HETATM   26  N5  UNL     1     -33.309   5.126   0.780  1.00  0.00    -0.065 NA
HETATM   27  N6  UNL     1     -34.716   5.662  -1.189  1.00  0.00    -0.065 NA
ATOM     28  H4  UNL     1     -35.470   3.243  -0.776  1.00  0.00     0.189 HD
ENDBRANCH  22  24
ENDBRANCH   5  21
TORSDOF 7
ENDMDL
MODEL 2
REMARK VINA RESULT: -8.233907366      1.871      2.515
REMARK  7 active torsions:
REMARK  status: ('A' for Active; 'I' for Inactive)
REMARK       I    between atoms: C1_2  and  N2_4 
REMARK    1  A    between atoms: N2_4  and  C2_6 
REMARK    2  A    between atoms: C2_6  and  C3_7 
REMARK    3  A    between atoms: C2_6  and  C12_23 
REMARK    4  A    between atoms: C3_7  and  O2_8 
REMARK    5  A    between atoms: O2_8  and  C4_9 
REMARK    6  A    between atoms: C8_13  and  C9_14 
REMARK    7  A    between atoms: N3_15  and  N4_17 
ROOT
HETATM    1  C4  UNL     1     -34.099   0.973   3.655  1.00  0.00     0.069 A 
HETATM    2  C5  UNL     1     -32.907   1.124   2.975  1.00  0.00     0.037 A 
HETATM    3  C6  UNL     1     -32.848   1.889   1.829  1.00  0.00     0.004 A 
HETATM    4  C7  UNL     1     -34.006   2.498   1.384  1.00  0.00     0.013 A 
HETATM    5  C8  UNL     1     -35.210   2.368   2.039  1.00  0.00    -0.017 A 
HETATM    6  C11 UNL     1     -35.252   1.605   3.175  1.00  0.00     0.049 A 
ENDROOT
BRANCH   1   7
HETATM    7  O2  UNL     1     -34.180   0.208   4.809  1.00  0.00    -0.349 OA
BRANCH   7   8
HETATM    8  C3  UNL     1     -34.941  -0.985   4.770  1.00  0.00     0.205 C 
BRANCH   8   9
HETATM    9  C2  UNL     1     -35.766  -1.025   6.036  1.00  0.00     0.143 C 
BRANCH   9  10
HETATM   10  N2  UNL     1     -35.033  -0.233   7.028  1.00  0.00    -0.335 N 
HETATM   11  C1  UNL     1     -35.664   0.273   8.185  1.00  0.00     0.329 C 
HETATM   12  N1  UNL     1     -34.909   1.030   9.107  1.00  0.00    -0.040 NA
HETATM   13  O1  UNL     1     -36.886   0.034   8.363  1.00  0.00    -0.251 OA
ATOM     14  H2  UNL     1     -34.042  -0.043   6.879  1.00  0.00     0.164 HD
ENDBRANCH   9  10
BRANCH   9  15
HETATM   15  C12 UNL     1     -36.013  -2.393   6.516  1.00  0.00    -0.033 A 
HETATM   16  C13 UNL     1     -37.297  -2.937   6.550  1.00  0.00     0.009 A 
HETATM   17  C14 UNL     1     -37.518  -4.206   6.996  1.00  0.00     0.001 A 
HETATM   18  C15 UNL     1     -36.476  -5.001   7.433  1.00  0.00     0.000 A 
HETATM   19  C16 UNL     1     -35.214  -4.462   7.398  1.00  0.00     0.001 A 
HETATM   20  C17 UNL     1     -34.974  -3.181   6.949  1.00  0.00     0.009 A 
ENDBRANCH   9  15
ENDBRANCH   8   9
ENDBRANCH   7   8
ENDBRANCH   1   7
BRANCH   5  21
HETATM   21  C9  UNL     1     -36.421   3.013   1.561  1.00  0.00     0.118 C 
HETATM   22  N3  UNL     1     -36.814   2.731   0.362  1.00  0.00    -0.309 N 
ATOM     23  H3  UNL     1     -36.252   2.073  -0.178  1.00  0.00     0.186 HD
BRANCH  22  24
HETATM   24  N4  UNL     1     -37.937   3.256  -0.238  1.00  0.00    -0.276 N 
HETATM   25  C10 UNL     1     -37.812   4.061  -1.233  1.00  0.00     0.215 C 
HETATM   26  N5  UNL     1     -36.503   4.379  -1.676  1.00  0.00    -0.065 NA
HETATM   27  N6  UNL     1     -38.960   4.627  -1.884  1.00  0.00    -0.065 NA
ATOM     28  H4  UNL     1     -38.865   3.007   0.105  1.00  0.00     0.189 HD
ENDBRANCH  22  24
ENDBRANCH   5  21
TORSDOF 7
ENDMDL
MODEL 3
REMARK VINA RESULT: -7.971055872      3.552      9.055
REMARK  7 active torsions:
REMARK  status: ('A' for Active; 'I' for Inactive)
REMARK       I    between atoms: C1_2  and  N2_4 
REMARK    1  A    between atoms: N2_4  and  C2_6 
REMARK    2  A    between atoms: C2_6  and  C3_7 
REMARK    3  A    between atoms: C2_6  and  C12_23 
REMARK    4  A    between atoms: C3_7  and  O2_8 
REMARK    5  A    between atoms: O2_8  and  C4_9 
REMARK    6  A    between atoms: C8_13  and  C9_14 
REMARK    7  A    between atoms: N3_15  and  N4_17 
ROOT
HETATM    1  C4  UNL     1     -34.829   1.578   2.414  1.00  0.00     0.069 A 
HETATM    2  C5  UNL     1     -33.472   1.801   2.296  1.00  0.00     0.037 A 
HETATM    3  C6  UNL     1     -32.584   1.181   3.149  1.00  0.00     0.004 A 
HETATM    4  C7  UNL     1     -33.087   0.334   4.119  1.00  0.00     0.013 A 
HETATM    5  C8  UNL     1     -34.434   0.090   4.264  1.00  0.00    -0.017 A 
HETATM    6  C11 UNL     1     -35.302   0.714   3.409  1.00  0.00     0.049 A 
ENDROOT
BRANCH   1   7
HETATM    7  O2  UNL     1     -35.739   2.192   1.566  1.00  0.00    -0.349 OA
BRANCH   7   8
HETATM    8  C3  UNL     1     -35.721   3.604   1.473  1.00  0.00     0.205 C 
BRANCH   8   9
HETATM    9  C2  UNL     1     -36.637   3.984   0.331  1.00  0.00     0.143 C 
BRANCH   9  10
HETATM   10  N2  UNL     1     -37.895   3.269   0.560  1.00  0.00    -0.335 N 
HETATM   11  C1  UNL     1     -39.017   3.908   1.131  1.00  0.00     0.329 C 
HETATM   12  N1  UNL     1     -40.204   3.170   1.330  1.00  0.00    -0.040 NA
HETATM   13  O1  UNL     1     -38.927   5.121   1.450  1.00  0.00    -0.251 OA
ATOM     14  H2  UNL     1     -37.963   2.285   0.300  1.00  0.00     0.164 HD
ENDBRANCH   9  10
BRANCH   9  15
HETATM   15  C12 UNL     1     -36.069   3.666  -0.988  1.00  0.00    -0.033 A 
HETATM   16  C13 UNL     1     -36.856   3.154  -2.020  1.00  0.00     0.009 A 
HETATM   17  C14 UNL     1     -36.323   2.861  -3.239  1.00  0.00     0.001 A 
HETATM   18  C15 UNL     1     -34.981   3.060  -3.499  1.00  0.00     0.000 A 
HETATM   19  C16 UNL     1     -34.210   3.564  -2.481  1.00  0.00     0.001 A 
HETATM   20  C17 UNL     1     -34.734   3.865  -1.242  1.00  0.00     0.009 A 
ENDBRANCH   9  15
ENDBRANCH   8   9
ENDBRANCH   7   8
ENDBRANCH   1   7
BRANCH   5  21
HETATM   21  C9  UNL     1     -34.950  -0.802   5.288  1.00  0.00     0.118 C 
HETATM   22  N3  UNL     1     -35.474  -0.264   6.339  1.00  0.00    -0.309 N 
ATOM     23  H3  UNL     1     -35.496   0.755   6.389  1.00  0.00     0.186 HD
BRANCH  22  24
HETATM   24  N4  UNL     1     -36.007  -0.967   7.397  1.00  0.00    -0.276 N 
HETATM   25  C10 UNL     1     -35.923  -0.488   8.588  1.00  0.00     0.215 C 
HETATM   26  N5  UNL     1     -35.276   0.761   8.763  1.00  0.00    -0.065 NA
HETATM   27  N6  UNL     1     -36.466  -1.193   9.716  1.00  0.00    -0.065 NA
ATOM     28  H4  UNL     1     -36.465  -1.864   7.237  1.00  0.00     0.189 HD
ENDBRANCH  22  24
ENDBRANCH   5  21
TORSDOF 7
ENDMDL
MODEL 4
REMARK VINA RESULT: -7.796321839      3.081      8.894
REMARK  7 active torsions:
REMARK  status: ('A' for Active; 'I' for Inactive)
REMARK       I    between atoms: C1_2  and  N2_4 
REMARK    1  A    between atoms: N2_4  and  C2_6 
REMARK    2  A    between atoms: C2_6  and  C3_7 
REMARK    3  A    between atoms: C2_6  and  C12_23 
REMARK    4  A    between atoms: C3_7  and  O2_8 
REMARK    5  A    between atoms: O2_8  and  C4_9 
REMARK    6  A    between atoms: C8_13  and  C9_14 
REMARK    7  A    between atoms: N3_15  and  N4_17 
ROOT
HETATM    1  C4  UNL     1     -34.520   1.588   3.086  1.00  0.00     0.069 A 
HETATM    2  C5  UNL     1     -33.195   1.423   2.738  1.00  0.00     0.037 A 
HETATM    3  C6  UNL     1     -32.426   0.455   3.349  1.00  0.00     0.004 A 
HETATM    4  C7  UNL     1     -33.015  -0.341   4.313  1.00  0.00     0.013 A 
HETATM    5  C8  UNL     1     -34.334  -0.203   4.682  1.00  0.00    -0.017 A 
HETATM    6  C11 UNL     1     -35.084   0.763   4.066  1.00  0.00     0.049 A 
ENDROOT
BRANCH   1   7
HETATM    7  O2  UNL     1     -35.310   2.556   2.484  1.00  0.00    -0.349 OA
BRANCH   7   8
HETATM    8  C3  UNL     1     -35.397   2.566   1.071  1.00  0.00     0.205 C 
BRANCH   8   9
HETATM    9  C2  UNL     1     -35.899   3.934   0.668  1.00  0.00     0.143 C 
BRANCH   9  10
HETATM   10  N2  UNL     1     -35.068   4.903   1.390  1.00  0.00    -0.335 N 
HETATM   11  C1  UNL     1     -33.833   5.348   0.873  1.00  0.00     0.329 C 
HETATM   12  N1  UNL     1     -33.073   6.283   1.611  1.00  0.00    -0.040 NA
HETATM   13  O1  UNL     1     -33.440   4.899  -0.233  1.00  0.00    -0.251 OA
ATOM     14  H2  UNL     1     -35.392   5.265   2.287  1.00  0.00     0.164 HD
ENDBRANCH   9  10
BRANCH   9  15
HETATM   15  C12 UNL     1     -37.328   4.129   0.958  1.00  0.00    -0.033 A 
HETATM   16  C13 UNL     1     -37.786   5.236   1.672  1.00  0.00     0.009 A 
HETATM   17  C14 UNL     1     -39.111   5.409   1.937  1.00  0.00     0.001 A 
HETATM   18  C15 UNL     1     -40.052   4.494   1.507  1.00  0.00     0.000 A 
HETATM   19  C16 UNL     1     -39.596   3.406   0.805  1.00  0.00     0.001 A 
HETATM   20  C17 UNL     1     -38.260   3.216   0.529  1.00  0.00     0.009 A 
ENDBRANCH   9  15
ENDBRANCH   8   9
ENDBRANCH   7   8
ENDBRANCH   1   7
BRANCH   5  21
HETATM   21  C9  UNL     1     -34.943  -1.047   5.696  1.00  0.00     0.118 C 
HETATM   22  N3  UNL     1     -35.684  -0.472   6.585  1.00  0.00    -0.309 N 
ATOM     23  H3  UNL     1     -35.799   0.540   6.523  1.00  0.00     0.186 HD
BRANCH  22  24
HETATM   24  N4  UNL     1     -36.330  -1.127   7.611  1.00  0.00    -0.276 N 
HETATM   25  C10 UNL     1     -36.147  -0.747   8.826  1.00  0.00     0.215 C 
HETATM   26  N5  UNL     1     -35.274   0.345   9.061  1.00  0.00    -0.065 NA
HETATM   27  N6  UNL     1     -36.803  -1.406   9.920  1.00  0.00    -0.065 NA
ATOM     28  H4  UNL     1     -36.952  -1.909   7.407  1.00  0.00     0.189 HD
ENDBRANCH  22  24
ENDBRANCH   5  21
TORSDOF 7
ENDMDL
MODEL 5
REMARK VINA RESULT: -7.792806174      2.719      9.160
REMARK  7 active torsions:
REMARK  status: ('A' for Active; 'I' for Inactive)
REMARK       I    between atoms: C1_2  and  N2_4 
REMARK    1  A    between atoms: N2_4  and  C2_6 
REMARK    2  A    between atoms: C2_6  and  C3_7 
REMARK    3  A    between atoms: C2_6  and  C12_23 
REMARK    4  A    between atoms: C3_7  and  O2_8 
REMARK    5  A    between atoms: O2_8  and  C4_9 
REMARK    6  A    between atoms: C8_13  and  C9_14 
REMARK    7  A    between atoms: N3_15  and  N4_17 
ROOT
HETATM    1  C4  UNL     1     -34.406   1.439   3.485  1.00  0.00     0.069 A 
HETATM    2  C5  UNL     1     -33.092   1.071   3.277  1.00  0.00     0.037 A 
HETATM    3  C6  UNL     1     -32.497   0.119   4.077  1.00  0.00     0.004 A 
HETATM    4  C7  UNL     1     -33.248  -0.455   5.086  1.00  0.00     0.013 A 
HETATM    5  C8  UNL     1     -34.560  -0.111   5.320  1.00  0.00    -0.017 A 
HETATM    6  C11 UNL     1     -35.136   0.837   4.516  1.00  0.00     0.049 A 
ENDROOT
BRANCH   1   7
HETATM    7  O2  UNL     1     -35.023   2.395   2.692  1.00  0.00    -0.349 OA
BRANCH   7   8
HETATM    8  C3  UNL     1     -35.698   1.963   1.525  1.00  0.00     0.205 C 
BRANCH   8   9
HETATM    9  C2  UNL     1     -36.167   3.205   0.800  1.00  0.00     0.143 C 
BRANCH   9  10
HETATM   10  N2  UNL     1     -37.588   2.997   0.508  1.00  0.00    -0.335 N 
HETATM   11  C1  UNL     1     -38.591   3.782   1.116  1.00  0.00     0.329 C 
HETATM   12  N1  UNL     1     -39.946   3.538   0.798  1.00  0.00    -0.040 NA
HETATM   13  O1  UNL     1     -38.250   4.681   1.927  1.00  0.00    -0.251 OA
ATOM     14  H2  UNL     1     -37.860   2.267  -0.150  1.00  0.00     0.164 HD
ENDBRANCH   9  10
BRANCH   9  15
HETATM   15  C12 UNL     1     -35.401   3.476  -0.426  1.00  0.00    -0.033 A 
HETATM   16  C13 UNL     1     -34.041   3.788  -0.386  1.00  0.00     0.009 A 
HETATM   17  C14 UNL     1     -33.338   4.037  -1.526  1.00  0.00     0.001 A 
HETATM   18  C15 UNL     1     -33.946   3.991  -2.766  1.00  0.00     0.000 A 
HETATM   19  C16 UNL     1     -35.284   3.684  -2.800  1.00  0.00     0.001 A 
HETATM   20  C17 UNL     1     -36.009   3.429  -1.657  1.00  0.00     0.009 A 
ENDBRANCH   9  15
ENDBRANCH   8   9
ENDBRANCH   7   8
ENDBRANCH   1   7
BRANCH   5  21
HETATM   21  C9  UNL     1     -35.339  -0.721   6.384  1.00  0.00     0.118 C 
HETATM   22  N3  UNL     1     -35.955  -1.824   6.115  1.00  0.00    -0.309 N 
ATOM     23  H3  UNL     1     -35.859  -2.203   5.173  1.00  0.00     0.186 HD
BRANCH  22  24
HETATM   24  N4  UNL     1     -36.732  -2.526   7.010  1.00  0.00    -0.276 N 
HETATM   25  C10 UNL     1     -36.312  -3.649   7.477  1.00  0.00     0.215 C 
HETATM   26  N5  UNL     1     -35.048  -4.122   7.043  1.00  0.00    -0.065 NA
HETATM   27  N6  UNL     1     -37.095  -4.408   8.411  1.00  0.00    -0.065 NA
ATOM     28  H4  UNL     1     -37.637  -2.158   7.301  1.00  0.00     0.189 HD
ENDBRANCH  22  24
ENDBRANCH   5  21
TORSDOF 7
ENDMDL
