MODEL 1
REMARK VINA RESULT: -6.042582793      0.000      0.000
REMARK  8 active torsions:
REMARK  status: ('A' for Active; 'I' for Inactive)
REMARK       I    between atoms: C2_2  and  N1_4 
REMARK    1  A    between atoms: N1_4  and  N2_6 
REMARK    2  A    between atoms: C3_8  and  C5_10 
REMARK    3  A    between atoms: C5_10  and  C6_11 
REMARK    4  A    between atoms: C6_11  and  N3_12 
REMARK    5  A    between atoms: C6_11  and  C14_27 
REMARK    6  A    between atoms: N3_12  and  C7_14 
REMARK       I    between atoms: C14_27  and  N6_29 
REMARK    7  A    between atoms: N6_29  and  C15_31 
REMARK    8  A    between atoms: C15_31  and  C16_32 
ROOT
HETATM    1  C6  UNL     1      -2.069  -7.346  16.682  1.00  0.00     0.177 C 
ENDROOT
BRANCH   1   2
HETATM    2  C5  UNL     1      -2.830  -6.062  16.448  1.00  0.00     0.088 C 
BRANCH   2   3
HETATM    3  C3  UNL     1      -2.914  -5.136  17.562  1.00  0.00     0.002 C 
HETATM    4  N2  UNL     1      -4.021  -4.468  17.689  1.00  0.00    -0.307 N 
ATOM      5  H2  UNL     1      -4.766  -4.609  17.007  1.00  0.00     0.186 HD
HETATM    6  C4  UNL     1      -1.844  -4.926  18.549  1.00  0.00     0.065 C 
BRANCH   4   7
HETATM    7  N1  UNL     1      -4.219  -3.566  18.725  1.00  0.00    -0.271 N 
HETATM    8  C2  UNL     1      -4.406  -2.187  18.521  1.00  0.00     0.232 C 
HETATM    9  C1  UNL     1      -4.611  -1.289  19.663  1.00  0.00     0.119 C 
HETATM   10  O1  UNL     1      -4.394  -1.729  17.350  1.00  0.00    -0.272 OA
ATOM     11  H1  UNL     1      -4.229  -3.921  19.681  1.00  0.00     0.190 HD
ENDBRANCH   4   7
ENDBRANCH   2   3
ENDBRANCH   1   2
BRANCH   1  12
HETATM   12  N3  UNL     1      -1.410  -7.757  15.510  1.00  0.00    -0.370 N 
ATOM     13  H3  UNL     1      -1.943  -7.868  14.647  1.00  0.00     0.157 HD
BRANCH  12  14
HETATM   14  C7  UNL     1      -0.031  -8.015  15.508  1.00  0.00     0.271 C 
HETATM   15  C8  UNL     1       0.833  -7.133  16.371  1.00  0.00     0.081 C 
HETATM   16  N4  UNL     1       0.438  -7.753  14.122  1.00  0.00    -0.038 N 
HETATM   17  C9  UNL     1      -0.333  -8.622  13.260  1.00  0.00     0.266 C 
ATOM     18  H42 UNL     1       0.385  -6.769  13.856  1.00  0.00     0.280 HD
ATOM     19  H41 UNL     1       1.445  -7.861  14.008  1.00  0.00     0.280 HD
HETATM   20  C10 UNL     1       0.314  -9.980  13.291  1.00  0.00     0.049 C 
HETATM   21  C11 UNL     1       1.451  -9.986  12.270  1.00  0.00     0.039 C 
HETATM   22  C12 UNL     1      -0.648 -11.081  12.930  1.00  0.00     0.039 C 
HETATM   23  N5  UNL     1       0.776 -10.216  14.631  1.00  0.00    -0.347 N 
HETATM   24  C13 UNL     1       0.378  -9.419  15.760  1.00  0.00     0.274 C 
ATOM     25  H5  UNL     1       1.420 -10.990  14.789  1.00  0.00     0.163 HD
HETATM   26  O2  UNL     1       0.410  -9.967  16.886  1.00  0.00    -0.269 OA
ENDBRANCH  12  14
ENDBRANCH   1  12
BRANCH   1  27
HETATM   27  C14 UNL     1      -3.129  -8.328  17.115  1.00  0.00     0.240 C 
HETATM   28  O3  UNL     1      -2.821  -9.273  17.886  1.00  0.00    -0.271 OA
HETATM   29  N6  UNL     1      -4.458  -8.220  16.676  1.00  0.00    -0.351 N 
ATOM     30  H6  UNL     1      -4.714  -7.455  16.052  1.00  0.00     0.163 HD
BRANCH  29  31
HETATM   31  C15 UNL     1      -5.475  -9.161  17.084  1.00  0.00     0.222 C 
BRANCH  31  32
HETATM   32  C16 UNL     1      -6.397  -9.506  15.977  1.00  0.00     0.248 C 
HETATM   33  N7  UNL     1      -5.871  -9.873  14.717  1.00  0.00    -0.061 NA
HETATM   34  O4  UNL     1      -7.620  -9.472  16.152  1.00  0.00    -0.275 OA
ENDBRANCH  31  32
ENDBRANCH  29  31
ENDBRANCH   1  27
TORSDOF 8
ENDMDL
MODEL 2
REMARK VINA RESULT: -5.969430393      2.902      4.001
REMARK  8 active torsions:
REMARK  status: ('A' for Active; 'I' for Inactive)
REMARK       I    between atoms: C2_2  and  N1_4 
REMARK    1  A    between atoms: N1_4  and  N2_6 
REMARK    2  A    between atoms: C3_8  and  C5_10 
REMARK    3  A    between atoms: C5_10  and  C6_11 
REMARK    4  A    between atoms: C6_11  and  N3_12 
REMARK    5  A    between atoms: C6_11  and  C14_27 
REMARK    6  A    between atoms: N3_12  and  C7_14 
REMARK       I    between atoms: C14_27  and  N6_29 
REMARK    7  A    between atoms: N6_29  and  C15_31 
REMARK    8  A    between atoms: C15_31  and  C16_32 
ROOT
HETATM    1  C6  UNL     1      -3.225  -7.670  18.271  1.00  0.00     0.177 C 
ENDROOT
BRANCH   1   2
HETATM    2  C5  UNL     1      -4.146  -6.825  17.423  1.00  0.00     0.088 C 
BRANCH   2   3
HETATM    3  C3  UNL     1      -3.947  -5.388  17.472  1.00  0.00     0.002 C 
HETATM    4  N2  UNL     1      -4.066  -4.818  18.634  1.00  0.00    -0.307 N 
ATOM      5  H2  UNL     1      -4.300  -5.390  19.445  1.00  0.00     0.186 HD
HETATM    6  C4  UNL     1      -3.612  -4.556  16.307  1.00  0.00     0.065 C 
BRANCH   4   7
HETATM    7  N1  UNL     1      -3.884  -3.453  18.803  1.00  0.00    -0.271 N 
HETATM    8  C2  UNL     1      -4.894  -2.593  19.271  1.00  0.00     0.232 C 
HETATM    9  C1  UNL     1      -4.632  -1.157  19.427  1.00  0.00     0.119 C 
HETATM   10  O1  UNL     1      -6.025  -3.065  19.554  1.00  0.00    -0.272 OA
ATOM     11  H1  UNL     1      -2.973  -3.054  18.576  1.00  0.00     0.190 HD
ENDBRANCH   4   7
ENDBRANCH   2   3
ENDBRANCH   1   2
BRANCH   1  12
HETATM   12  N3  UNL     1      -2.167  -8.185  17.501  1.00  0.00    -0.370 N 
ATOM     13  H3  UNL     1      -2.296  -9.059  16.992  1.00  0.00     0.157 HD
BRANCH  12  14
HETATM   14  C7  UNL     1      -0.938  -7.513  17.421  1.00  0.00     0.271 C 
HETATM   15  C8  UNL     1      -0.629  -6.800  16.132  1.00  0.00     0.081 C 
HETATM   16  N4  UNL     1       0.113  -8.561  17.527  1.00  0.00    -0.038 N 
HETATM   17  C9  UNL     1      -0.115  -9.241  18.783  1.00  0.00     0.266 C 
ATOM     18  H42 UNL     1       0.139  -9.191  16.725  1.00  0.00     0.280 HD
ATOM     19  H41 UNL     1       1.060  -8.195  17.431  1.00  0.00     0.280 HD
HETATM   20  C10 UNL     1       0.513  -8.410  19.868  1.00  0.00     0.049 C 
HETATM   21  C11 UNL     1       1.995  -8.774  19.946  1.00  0.00     0.039 C 
HETATM   22  C12 UNL     1      -0.107  -8.666  21.217  1.00  0.00     0.039 C 
HETATM   23  N5  UNL     1       0.303  -7.027  19.539  1.00  0.00    -0.347 N 
HETATM   24  C13 UNL     1      -0.620  -6.581  18.531  1.00  0.00     0.274 C 
ATOM     25  H5  UNL     1       0.838  -6.323  20.049  1.00  0.00     0.163 HD
HETATM   26  O2  UNL     1      -1.092  -5.427  18.657  1.00  0.00    -0.269 OA
ENDBRANCH  12  14
ENDBRANCH   1  12
BRANCH   1  27
HETATM   27  C14 UNL     1      -4.119  -8.759  18.812  1.00  0.00     0.240 C 
HETATM   28  O3  UNL     1      -3.689  -9.525  19.712  1.00  0.00    -0.271 OA
HETATM   29  N6  UNL     1      -5.426  -8.945  18.334  1.00  0.00    -0.351 N 
ATOM     30  H6  UNL     1      -5.780  -8.326  17.605  1.00  0.00     0.163 HD
BRANCH  29  31
HETATM   31  C15 UNL     1      -6.284  -9.989  18.844  1.00  0.00     0.222 C 
BRANCH  31  32
HETATM   32  C16 UNL     1      -7.160  -9.510  19.938  1.00  0.00     0.248 C 
HETATM   33  N7  UNL     1      -7.091 -10.123  21.209  1.00  0.00    -0.061 NA
HETATM   34  O4  UNL     1      -7.950  -8.579  19.740  1.00  0.00    -0.275 OA
ENDBRANCH  31  32
ENDBRANCH  29  31
ENDBRANCH   1  27
TORSDOF 8
ENDMDL
MODEL 3
REMARK VINA RESULT: -5.939653265      1.471      1.481
REMARK  8 active torsions:
REMARK  status: ('A' for Active; 'I' for Inactive)
REMARK       I    between atoms: C2_2  and  N1_4 
REMARK    1  A    between atoms: N1_4  and  N2_6 
REMARK    2  A    between atoms: C3_8  and  C5_10 
REMARK    3  A    between atoms: C5_10  and  C6_11 
REMARK    4  A    between atoms: C6_11  and  N3_12 
REMARK    5  A    between atoms: C6_11  and  C14_27 
REMARK    6  A    between atoms: N3_12  and  C7_14 
REMARK       I    between atoms: C14_27  and  N6_29 
REMARK    7  A    between atoms: N6_29  and  C15_31 
REMARK    8  A    between atoms: C15_31  and  C16_32 
ROOT
HETATM    1  C6  UNL     1      -2.970  -6.776  17.064  1.00  0.00     0.177 C 
ENDROOT
BRANCH   1   2
HETATM    2  C5  UNL     1      -3.723  -5.540  16.628  1.00  0.00     0.088 C 
BRANCH   2   3
HETATM    3  C3  UNL     1      -3.599  -4.365  17.471  1.00  0.00     0.002 C 
HETATM    4  N2  UNL     1      -4.399  -3.374  17.217  1.00  0.00    -0.307 N 
ATOM      5  H2  UNL     1      -5.060  -3.455  16.445  1.00  0.00     0.186 HD
HETATM    6  C4  UNL     1      -2.648  -4.240  18.584  1.00  0.00     0.065 C 
BRANCH   4   7
HETATM    7  N1  UNL     1      -4.380  -2.206  17.967  1.00  0.00    -0.271 N 
HETATM    8  C2  UNL     1      -5.333  -1.912  18.959  1.00  0.00     0.232 C 
HETATM    9  C1  UNL     1      -5.253  -0.658  19.716  1.00  0.00     0.119 C 
HETATM   10  O1  UNL     1      -6.256  -2.734  19.192  1.00  0.00    -0.272 OA
ATOM     11  H1  UNL     1      -3.639  -1.528  17.789  1.00  0.00     0.190 HD
ENDBRANCH   4   7
ENDBRANCH   2   3
ENDBRANCH   1   2
BRANCH   1  12
HETATM   12  N3  UNL     1      -2.002  -7.134  16.109  1.00  0.00    -0.370 N 
ATOM     13  H3  UNL     1      -2.228  -7.070  15.116  1.00  0.00     0.157 HD
BRANCH  12  14
HETATM   14  C7  UNL     1      -0.730  -7.578  16.501  1.00  0.00     0.271 C 
HETATM   15  C8  UNL     1      -0.104  -6.901  17.691  1.00  0.00     0.081 C 
HETATM   16  N4  UNL     1       0.184  -7.263  15.371  1.00  0.00    -0.038 N 
HETATM   17  C9  UNL     1      -0.353  -7.940  14.211  1.00  0.00     0.266 C 
ATOM     18  H42 UNL     1       0.321  -6.262  15.228  1.00  0.00     0.280 HD
ATOM     19  H41 UNL     1       1.158  -7.497  15.561  1.00  0.00     0.280 HD
HETATM   20  C10 UNL     1       0.108  -9.371  14.269  1.00  0.00     0.049 C 
HETATM   21  C11 UNL     1       1.506  -9.443  13.657  1.00  0.00     0.039 C 
HETATM   22  C12 UNL     1      -0.794 -10.295  13.494  1.00  0.00     0.039 C 
HETATM   23  N5  UNL     1       0.087  -9.783  15.645  1.00  0.00    -0.347 N 
HETATM   24  C13 UNL     1      -0.569  -9.041  16.687  1.00  0.00     0.274 C 
ATOM     25  H5  UNL     1       0.564 -10.649  15.896  1.00  0.00     0.163 HD
HETATM   26  O2  UNL     1      -0.957  -9.684  17.690  1.00  0.00    -0.269 OA
ENDBRANCH  12  14
ENDBRANCH   1  12
BRANCH   1  27
HETATM   27  C14 UNL     1      -4.043  -7.826  17.211  1.00  0.00     0.240 C 
HETATM   28  O3  UNL     1      -4.994  -7.634  18.012  1.00  0.00    -0.271 OA
HETATM   29  N6  UNL     1      -4.009  -9.024  16.479  1.00  0.00    -0.351 N 
ATOM     30  H6  UNL     1      -3.240  -9.184  15.828  1.00  0.00     0.163 HD
BRANCH  29  31
HETATM   31  C15 UNL     1      -5.030 -10.035  16.621  1.00  0.00     0.222 C 
BRANCH  31  32
HETATM   32  C16 UNL     1      -6.146  -9.842  15.666  1.00  0.00     0.248 C 
HETATM   33  N7  UNL     1      -7.446  -9.578  16.154  1.00  0.00    -0.061 NA
HETATM   34  O4  UNL     1      -5.943  -9.913  14.449  1.00  0.00    -0.275 OA
ENDBRANCH  31  32
ENDBRANCH  29  31
ENDBRANCH   1  27
TORSDOF 8
ENDMDL
MODEL 4
REMARK VINA RESULT: -5.912524126      3.551      6.206
REMARK  8 active torsions:
REMARK  status: ('A' for Active; 'I' for Inactive)
REMARK       I    between atoms: C2_2  and  N1_4 
REMARK    1  A    between atoms: N1_4  and  N2_6 
REMARK    2  A    between atoms: C3_8  and  C5_10 
REMARK    3  A    between atoms: C5_10  and  C6_11 
REMARK    4  A    between atoms: C6_11  and  N3_12 
REMARK    5  A    between atoms: C6_11  and  C14_27 
REMARK    6  A    between atoms: N3_12  and  C7_14 
REMARK       I    between atoms: C14_27  and  N6_29 
REMARK    7  A    between atoms: N6_29  and  C15_31 
REMARK    8  A    between atoms: C15_31  and  C16_32 
ROOT
HETATM    1  C6  UNL     1      -1.439  -6.767  18.149  1.00  0.00     0.177 C 
ENDROOT
BRANCH   1   2
HETATM    2  C5  UNL     1      -1.588  -5.264  18.166  1.00  0.00     0.088 C 
BRANCH   2   3
HETATM    3  C3  UNL     1      -2.928  -4.735  17.987  1.00  0.00     0.002 C 
HETATM    4  N2  UNL     1      -3.510  -4.242  19.039  1.00  0.00    -0.307 N 
ATOM      5  H2  UNL     1      -3.016  -4.256  19.931  1.00  0.00     0.186 HD
HETATM    6  C4  UNL     1      -3.647  -4.713  16.705  1.00  0.00     0.065 C 
BRANCH   4   7
HETATM    7  N1  UNL     1      -4.784  -3.696  18.984  1.00  0.00    -0.271 N 
HETATM    8  C2  UNL     1      -5.053  -2.339  19.237  1.00  0.00     0.232 C 
HETATM    9  C1  UNL     1      -6.426  -1.827  19.160  1.00  0.00     0.119 C 
HETATM   10  O1  UNL     1      -4.105  -1.567  19.533  1.00  0.00    -0.272 OA
ATOM     11  H1  UNL     1      -5.565  -4.310  18.747  1.00  0.00     0.190 HD
ENDBRANCH   4   7
ENDBRANCH   2   3
ENDBRANCH   1   2
BRANCH   1  12
HETATM   12  N3  UNL     1      -0.680  -7.207  19.249  1.00  0.00    -0.370 N 
ATOM     13  H3  UNL     1       0.225  -6.776  19.437  1.00  0.00     0.157 HD
BRANCH  12  14
HETATM   14  C7  UNL     1      -1.149  -8.227  20.089  1.00  0.00     0.271 C 
HETATM   15  C8  UNL     1      -2.494  -8.820  19.764  1.00  0.00     0.081 C 
HETATM   16  N4  UNL     1      -1.330  -7.608  21.429  1.00  0.00    -0.038 N 
HETATM   17  C9  UNL     1      -0.042  -7.069  21.807  1.00  0.00     0.266 C 
ATOM     18  H42 UNL     1      -2.081  -6.918  21.459  1.00  0.00     0.280 HD
ATOM     19  H41 UNL     1      -1.719  -8.247  22.122  1.00  0.00     0.280 HD
HETATM   20  C10 UNL     1       0.775  -8.200  22.369  1.00  0.00     0.049 C 
HETATM   21  C11 UNL     1       0.415  -8.356  23.845  1.00  0.00     0.039 C 
HETATM   22  C12 UNL     1       2.256  -7.941  22.270  1.00  0.00     0.039 C 
HETATM   23  N5  UNL     1       0.479  -9.378  21.602  1.00  0.00    -0.347 N 
HETATM   24  C13 UNL     1      -0.218  -9.354  20.344  1.00  0.00     0.274 C 
ATOM     25  H5  UNL     1       0.780 -10.281  21.969  1.00  0.00     0.163 HD
HETATM   26  O2  UNL     1       0.006 -10.294  19.547  1.00  0.00    -0.269 OA
ENDBRANCH  12  14
ENDBRANCH   1  12
BRANCH   1  27
HETATM   27  C14 UNL     1      -0.759  -7.055  16.834  1.00  0.00     0.240 C 
HETATM   28  O3  UNL     1      -1.449  -7.409  15.843  1.00  0.00    -0.271 OA
HETATM   29  N6  UNL     1       0.632  -6.943  16.683  1.00  0.00    -0.351 N 
ATOM     30  H6  UNL     1       1.196  -6.656  17.483  1.00  0.00     0.163 HD
BRANCH  29  31
HETATM   31  C15 UNL     1       1.288  -7.223  15.427  1.00  0.00     0.222 C 
BRANCH  31  32
HETATM   32  C16 UNL     1       2.692  -6.751  15.411  1.00  0.00     0.248 C 
HETATM   33  N7  UNL     1       3.429  -6.790  14.206  1.00  0.00    -0.061 NA
HETATM   34  O4  UNL     1       3.218  -6.327  16.446  1.00  0.00    -0.275 OA
ENDBRANCH  31  32
ENDBRANCH  29  31
ENDBRANCH   1  27
TORSDOF 8
ENDMDL
MODEL 5
REMARK VINA RESULT: -5.887319414      3.273      6.036
REMARK  8 active torsions:
REMARK  status: ('A' for Active; 'I' for Inactive)
REMARK       I    between atoms: C2_2  and  N1_4 
REMARK    1  A    between atoms: N1_4  and  N2_6 
REMARK    2  A    between atoms: C3_8  and  C5_10 
REMARK    3  A    between atoms: C5_10  and  C6_11 
REMARK    4  A    between atoms: C6_11  and  N3_12 
REMARK    5  A    between atoms: C6_11  and  C14_27 
REMARK    6  A    between atoms: N3_12  and  C7_14 
REMARK       I    between atoms: C14_27  and  N6_29 
REMARK    7  A    between atoms: N6_29  and  C15_31 
REMARK    8  A    between atoms: C15_31  and  C16_32 
ROOT
HETATM    1  C6  UNL     1      -1.345  -7.735  18.743  1.00  0.00     0.177 C 
ENDROOT
BRANCH   1   2
HETATM    2  C5  UNL     1      -1.303  -6.228  18.837  1.00  0.00     0.088 C 
BRANCH   2   3
HETATM    3  C3  UNL     1      -2.169  -5.490  17.936  1.00  0.00     0.002 C 
HETATM    4  N2  UNL     1      -2.953  -4.602  18.470  1.00  0.00    -0.307 N 
ATOM      5  H2  UNL     1      -2.936  -4.471  19.481  1.00  0.00     0.186 HD
HETATM    6  C4  UNL     1      -2.199  -5.675  16.478  1.00  0.00     0.065 C 
BRANCH   4   7
HETATM    7  N1  UNL     1      -3.812  -3.828  17.704  1.00  0.00    -0.271 N 
HETATM    8  C2  UNL     1      -4.219  -2.533  18.074  1.00  0.00     0.232 C 
HETATM    9  C1  UNL     1      -5.131  -1.768  17.216  1.00  0.00     0.119 C 
HETATM   10  O1  UNL     1      -3.796  -2.037  19.150  1.00  0.00    -0.272 OA
ATOM     11  H1  UNL     1      -4.166  -4.216  16.830  1.00  0.00     0.190 HD
ENDBRANCH   4   7
ENDBRANCH   2   3
ENDBRANCH   1   2
BRANCH   1  12
HETATM   12  N3  UNL     1      -2.673  -8.199  18.739  1.00  0.00    -0.370 N 
ATOM     13  H3  UNL     1      -3.337  -7.826  19.419  1.00  0.00     0.157 HD
BRANCH  12  14
HETATM   14  C7  UNL     1      -3.099  -9.164  17.815  1.00  0.00     0.271 C 
HETATM   15  C8  UNL     1      -2.060  -9.721  16.877  1.00  0.00     0.081 C 
HETATM   16  N4  UNL     1      -4.075  -8.481  16.924  1.00  0.00    -0.038 N 
HETATM   17  C9  UNL     1      -5.123  -7.974  17.782  1.00  0.00     0.266 C 
ATOM     18  H42 UNL     1      -3.652  -7.764  16.334  1.00  0.00     0.280 HD
ATOM     19  H41 UNL     1      -4.421  -9.076  16.171  1.00  0.00     0.280 HD
HETATM   20  C10 UNL     1      -6.071  -9.109  18.058  1.00  0.00     0.049 C 
HETATM   21  C11 UNL     1      -7.065  -9.188  16.900  1.00  0.00     0.039 C 
HETATM   22  C12 UNL     1      -6.848  -8.908  19.333  1.00  0.00     0.039 C 
HETATM   23  N5  UNL     1      -5.292 -10.307  18.198  1.00  0.00    -0.347 N 
HETATM   24  C13 UNL     1      -3.863 -10.312  18.362  1.00  0.00     0.274 C 
ATOM     25  H5  UNL     1      -5.778 -11.204  18.180  1.00  0.00     0.163 HD
HETATM   26  O2  UNL     1      -3.358 -11.293  18.954  1.00  0.00    -0.269 OA
ENDBRANCH  12  14
ENDBRANCH   1  12
BRANCH   1  27
HETATM   27  C14 UNL     1      -0.582  -8.201  19.958  1.00  0.00     0.240 C 
HETATM   28  O3  UNL     1      -0.864  -9.310  20.481  1.00  0.00    -0.271 OA
HETATM   29  N6  UNL     1       0.439  -7.425  20.530  1.00  0.00    -0.351 N 
ATOM     30  H6  UNL     1       0.672  -6.526  20.110  1.00  0.00     0.163 HD
BRANCH  29  31
HETATM   31  C15 UNL     1       1.169  -7.865  21.696  1.00  0.00     0.222 C 
BRANCH  31  32
HETATM   32  C16 UNL     1       0.770  -7.128  22.918  1.00  0.00     0.248 C 
HETATM   33  N7  UNL     1       0.788  -7.786  24.168  1.00  0.00    -0.061 NA
HETATM   34  O4  UNL     1       0.422  -5.944  22.845  1.00  0.00    -0.275 OA
ENDBRANCH  31  32
ENDBRANCH  29  31
ENDBRANCH   1  27
TORSDOF 8
ENDMDL
