MODEL 1
REMARK VINA RESULT: -7.544310396      0.000      0.000
REMARK  10 active torsions:
REMARK  status: ('A' for Active; 'I' for Inactive)
REMARK    1  A    between atoms: C1_2  and  C2_4 
REMARK    2  A    between atoms: C2_4  and  C3_5 
REMARK    3  A    between atoms: C3_5  and  N2_6 
REMARK    4  A    between atoms: N2_6  and  C4_8 
REMARK    5  A    between atoms: C4_8  and  N3_10 
REMARK    6  A    between atoms: N3_10  and  N4_12 
REMARK    7  A    between atoms: C5_14  and  C6_15 
REMARK    8  A    between atoms: C10_19  and  S2_20 
REMARK    9  A    between atoms: S2_20  and  N5_23 
REMARK   10  A    between atoms: N5_23  and  N6_25 
ROOT
HETATM    1  C6  UNL     1      -5.526  -1.430  19.501  1.00  0.00    -0.018 A 
HETATM    2  C7  UNL     1      -6.515  -2.232  20.011  1.00  0.00     0.013 A 
HETATM    3  C8  UNL     1      -7.144  -1.869  21.206  1.00  0.00     0.002 A 
HETATM    4  C9  UNL     1      -6.797  -0.720  21.896  1.00  0.00     0.025 A 
HETATM    5  C10 UNL     1      -5.807   0.091  21.394  1.00  0.00     0.082 A 
HETATM    6  C12 UNL     1      -5.197  -0.274  20.221  1.00  0.00     0.038 A 
ENDROOT
BRANCH   1   7
HETATM    7  C5  UNL     1      -4.807  -1.694  18.262  1.00  0.00     0.118 C 
HETATM    8  N4  UNL     1      -4.072  -2.636  17.936  1.00  0.00    -0.309 N 
ATOM      9  H4  UNL     1      -3.701  -2.554  16.990  1.00  0.00     0.186 HD
BRANCH   8  10
HETATM   10  N3  UNL     1      -3.660  -3.758  18.586  1.00  0.00    -0.277 N 
ATOM     11  H3  UNL     1      -3.961  -3.892  19.551  1.00  0.00     0.189 HD
BRANCH  10  12
HETATM   12  C4  UNL     1      -2.834  -4.755  17.998  1.00  0.00     0.186 C 
HETATM   13  S1  UNL     1      -3.317  -5.466  16.588  1.00  0.00    -0.040 SA
BRANCH  12  14
HETATM   14  N2  UNL     1      -1.612  -5.186  18.541  1.00  0.00    -0.366 N 
ATOM     15  H2  UNL     1      -1.299  -4.816  19.439  1.00  0.00     0.161 HD
BRANCH  14  16
HETATM   16  C3  UNL     1      -0.797  -6.146  17.839  1.00  0.00     0.131 C 
BRANCH  16  17
HETATM   17  C2  UNL     1      -0.112  -7.056  18.840  1.00  0.00     0.119 C 
BRANCH  17  18
HETATM   18  C1  UNL     1      -1.088  -7.323  19.952  1.00  0.00     0.232 C 
HETATM   19  N1  UNL     1      -2.205  -8.142  19.628  1.00  0.00    -0.062 NA
HETATM   20  O1  UNL     1      -0.904  -6.837  21.101  1.00  0.00    -0.277 OA
ENDBRANCH  17  18
ENDBRANCH  16  17
ENDBRANCH  14  16
ENDBRANCH  12  14
ENDBRANCH  10  12
ENDBRANCH   8  10
ENDBRANCH   1   7
BRANCH   5  21
HETATM   21  S2  UNL     1      -5.353   1.565  22.254  1.00  0.00     0.276 S 
HETATM   22  O2  UNL     1      -6.593   2.151  22.909  1.00  0.00    -0.199 OA
HETATM   23  O3  UNL     1      -4.404   1.245  23.368  1.00  0.00    -0.199 OA
BRANCH  21  24
HETATM   24  N5  UNL     1      -4.701   2.649  21.114  1.00  0.00    -0.221 N 
ATOM     25  H5  UNL     1      -3.692   2.704  20.977  1.00  0.00     0.200 HD
BRANCH  24  26
HETATM   26  N6  UNL     1      -5.555   3.462  20.369  1.00  0.00    -0.266 N 
HETATM   27  C11 UNL     1      -5.075   4.445  19.688  1.00  0.00     0.216 C 
HETATM   28  N7  UNL     1      -3.682   4.700  19.698  1.00  0.00    -0.065 NA
HETATM   29  N8  UNL     1      -5.942   5.268  18.934  1.00  0.00    -0.065 NA
ATOM     30  H6  UNL     1      -6.558   3.278  20.364  1.00  0.00     0.190 HD
ENDBRANCH  24  26
ENDBRANCH  21  24
ENDBRANCH   5  21
TORSDOF 10
ENDMDL
MODEL 2
REMARK VINA RESULT: -7.420022600      1.324      1.399
REMARK  10 active torsions:
REMARK  status: ('A' for Active; 'I' for Inactive)
REMARK    1  A    between atoms: C1_2  and  C2_4 
REMARK    2  A    between atoms: C2_4  and  C3_5 
REMARK    3  A    between atoms: C3_5  and  N2_6 
REMARK    4  A    between atoms: N2_6  and  C4_8 
REMARK    5  A    between atoms: C4_8  and  N3_10 
REMARK    6  A    between atoms: N3_10  and  N4_12 
REMARK    7  A    between atoms: C5_14  and  C6_15 
REMARK    8  A    between atoms: C10_19  and  S2_20 
REMARK    9  A    between atoms: S2_20  and  N5_23 
REMARK   10  A    between atoms: N5_23  and  N6_25 
ROOT
HETATM    1  C6  UNL     1      -5.524  -1.513  19.515  1.00  0.00    -0.018 A 
HETATM    2  C7  UNL     1      -6.565  -2.269  19.992  1.00  0.00     0.013 A 
HETATM    3  C8  UNL     1      -7.235  -1.861  21.150  1.00  0.00     0.002 A 
HETATM    4  C9  UNL     1      -6.878  -0.713  21.836  1.00  0.00     0.025 A 
HETATM    5  C10 UNL     1      -5.836   0.052  21.368  1.00  0.00     0.082 A 
HETATM    6  C12 UNL     1      -5.186  -0.357  20.231  1.00  0.00     0.038 A 
ENDROOT
BRANCH   1   7
HETATM    7  C5  UNL     1      -4.759  -1.826  18.316  1.00  0.00     0.118 C 
HETATM    8  N4  UNL     1      -4.090  -2.825  18.020  1.00  0.00    -0.309 N 
ATOM      9  H4  UNL     1      -3.658  -2.766  17.098  1.00  0.00     0.186 HD
BRANCH   8  10
HETATM   10  N3  UNL     1      -3.814  -3.984  18.675  1.00  0.00    -0.277 N 
ATOM     11  H3  UNL     1      -4.045  -4.042  19.667  1.00  0.00     0.189 HD
BRANCH  10  12
HETATM   12  C4  UNL     1      -3.223  -5.121  18.059  1.00  0.00     0.186 C 
HETATM   13  S1  UNL     1      -4.190  -6.385  17.615  1.00  0.00    -0.040 SA
BRANCH  12  14
HETATM   14  N2  UNL     1      -1.849  -5.249  17.794  1.00  0.00    -0.366 N 
ATOM     15  H2  UNL     1      -1.486  -4.996  16.875  1.00  0.00     0.161 HD
BRANCH  14  16
HETATM   16  C3  UNL     1      -0.950  -5.734  18.811  1.00  0.00     0.131 C 
BRANCH  16  17
HETATM   17  C2  UNL     1       0.161  -6.538  18.162  1.00  0.00     0.119 C 
BRANCH  17  18
HETATM   18  C1  UNL     1      -0.447  -7.321  17.032  1.00  0.00     0.232 C 
HETATM   19  N1  UNL     1      -1.190  -8.478  17.395  1.00  0.00    -0.062 NA
HETATM   20  O1  UNL     1      -0.293  -6.952  15.836  1.00  0.00    -0.277 OA
ENDBRANCH  17  18
ENDBRANCH  16  17
ENDBRANCH  14  16
ENDBRANCH  12  14
ENDBRANCH  10  12
ENDBRANCH   8  10
ENDBRANCH   1   7
BRANCH   5  21
HETATM   21  S2  UNL     1      -5.367   1.524  22.223  1.00  0.00     0.276 S 
HETATM   22  O2  UNL     1      -6.597   2.111  22.896  1.00  0.00    -0.199 OA
HETATM   23  O3  UNL     1      -4.403   1.201  23.323  1.00  0.00    -0.199 OA
BRANCH  21  24
HETATM   24  N5  UNL     1      -4.730   2.609  21.076  1.00  0.00    -0.221 N 
ATOM     25  H5  UNL     1      -3.722   2.669  20.932  1.00  0.00     0.200 HD
BRANCH  24  26
HETATM   26  N6  UNL     1      -5.594   3.414  20.334  1.00  0.00    -0.266 N 
HETATM   27  C11 UNL     1      -5.125   4.401  19.650  1.00  0.00     0.216 C 
HETATM   28  N7  UNL     1      -3.734   4.667  19.654  1.00  0.00    -0.065 NA
HETATM   29  N8  UNL     1      -6.003   5.216  18.899  1.00  0.00    -0.065 NA
ATOM     30  H6  UNL     1      -6.595   3.222  20.333  1.00  0.00     0.190 HD
ENDBRANCH  24  26
ENDBRANCH  21  24
ENDBRANCH   5  21
TORSDOF 10
ENDMDL
MODEL 3
REMARK VINA RESULT: -7.406206007      2.917      3.763
REMARK  10 active torsions:
REMARK  status: ('A' for Active; 'I' for Inactive)
REMARK    1  A    between atoms: C1_2  and  C2_4 
REMARK    2  A    between atoms: C2_4  and  C3_5 
REMARK    3  A    between atoms: C3_5  and  N2_6 
REMARK    4  A    between atoms: N2_6  and  C4_8 
REMARK    5  A    between atoms: C4_8  and  N3_10 
REMARK    6  A    between atoms: N3_10  and  N4_12 
REMARK    7  A    between atoms: C5_14  and  C6_15 
REMARK    8  A    between atoms: C10_19  and  S2_20 
REMARK    9  A    between atoms: S2_20  and  N5_23 
REMARK   10  A    between atoms: N5_23  and  N6_25 
ROOT
HETATM    1  C6  UNL     1      -4.478  -3.818  18.344  1.00  0.00    -0.018 A 
HETATM    2  C7  UNL     1      -4.123  -3.035  17.275  1.00  0.00     0.013 A 
HETATM    3  C8  UNL     1      -4.481  -1.684  17.266  1.00  0.00     0.002 A 
HETATM    4  C9  UNL     1      -5.189  -1.107  18.307  1.00  0.00     0.025 A 
HETATM    5  C10 UNL     1      -5.550  -1.882  19.383  1.00  0.00     0.082 A 
HETATM    6  C12 UNL     1      -5.194  -3.207  19.382  1.00  0.00     0.038 A 
ENDROOT
BRANCH   1   7
HETATM    7  C5  UNL     1      -4.153  -5.232  18.475  1.00  0.00     0.118 C 
HETATM    8  N4  UNL     1      -3.062  -5.804  18.602  1.00  0.00    -0.309 N 
ATOM      9  H4  UNL     1      -3.141  -6.819  18.673  1.00  0.00     0.186 HD
BRANCH   8  10
HETATM   10  N3  UNL     1      -1.781  -5.354  18.668  1.00  0.00    -0.277 N 
ATOM     11  H3  UNL     1      -1.596  -4.388  18.396  1.00  0.00     0.189 HD
BRANCH  10  12
HETATM   12  C4  UNL     1      -0.682  -6.149  19.096  1.00  0.00     0.186 C 
HETATM   13  S1  UNL     1      -0.732  -6.844  20.594  1.00  0.00    -0.040 SA
BRANCH  12  14
HETATM   14  N2  UNL     1       0.463  -6.392  18.320  1.00  0.00    -0.366 N 
ATOM     15  H2  UNL     1       1.245  -5.738  18.353  1.00  0.00     0.161 HD
BRANCH  14  16
HETATM   16  C3  UNL     1       0.542  -7.560  17.477  1.00  0.00     0.131 C 
BRANCH  16  17
HETATM   17  C2  UNL     1       0.544  -7.134  16.022  1.00  0.00     0.119 C 
BRANCH  17  18
HETATM   18  C1  UNL     1      -0.796  -7.492  15.442  1.00  0.00     0.232 C 
HETATM   19  N1  UNL     1      -1.916  -6.783  15.959  1.00  0.00    -0.062 NA
HETATM   20  O1  UNL     1      -0.896  -8.374  14.547  1.00  0.00    -0.277 OA
ENDBRANCH  17  18
ENDBRANCH  16  17
ENDBRANCH  14  16
ENDBRANCH  12  14
ENDBRANCH  10  12
ENDBRANCH   8  10
ENDBRANCH   1   7
BRANCH   5  21
HETATM   21  S2  UNL     1      -6.447  -1.167  20.726  1.00  0.00     0.276 S 
HETATM   22  O2  UNL     1      -7.582  -0.327  20.163  1.00  0.00    -0.199 OA
HETATM   23  O3  UNL     1      -7.090  -2.239  21.551  1.00  0.00    -0.199 OA
BRANCH  21  24
HETATM   24  N5  UNL     1      -5.363  -0.201  21.617  1.00  0.00    -0.221 N 
ATOM     25  H5  UNL     1      -4.816  -0.610  22.374  1.00  0.00     0.200 HD
BRANCH  24  26
HETATM   26  N6  UNL     1      -5.229   1.151  21.304  1.00  0.00    -0.266 N 
HETATM   27  C11 UNL     1      -4.660   1.951  22.140  1.00  0.00     0.216 C 
HETATM   28  N7  UNL     1      -4.173   1.455  23.374  1.00  0.00    -0.065 NA
HETATM   29  N8  UNL     1      -4.525   3.322  21.822  1.00  0.00    -0.065 NA
ATOM     30  H6  UNL     1      -5.581   1.507  20.416  1.00  0.00     0.190 HD
ENDBRANCH  24  26
ENDBRANCH  21  24
ENDBRANCH   5  21
TORSDOF 10
ENDMDL
MODEL 4
REMARK VINA RESULT: -7.382018560      2.764      9.324
REMARK  10 active torsions:
REMARK  status: ('A' for Active; 'I' for Inactive)
REMARK    1  A    between atoms: C1_2  and  C2_4 
REMARK    2  A    between atoms: C2_4  and  C3_5 
REMARK    3  A    between atoms: C3_5  and  N2_6 
REMARK    4  A    between atoms: N2_6  and  C4_8 
REMARK    5  A    between atoms: C4_8  and  N3_10 
REMARK    6  A    between atoms: N3_10  and  N4_12 
REMARK    7  A    between atoms: C5_14  and  C6_15 
REMARK    8  A    between atoms: C10_19  and  S2_20 
REMARK    9  A    between atoms: S2_20  and  N5_23 
REMARK   10  A    between atoms: N5_23  and  N6_25 
ROOT
HETATM    1  C6  UNL     1      -5.432  -2.479  19.432  1.00  0.00    -0.018 A 
HETATM    2  C7  UNL     1      -5.709  -1.640  18.384  1.00  0.00     0.013 A 
HETATM    3  C8  UNL     1      -5.180  -1.920  17.121  1.00  0.00     0.002 A 
HETATM    4  C9  UNL     1      -4.377  -3.025  16.893  1.00  0.00     0.025 A 
HETATM    5  C10 UNL     1      -4.092  -3.874  17.936  1.00  0.00     0.082 A 
HETATM    6  C12 UNL     1      -4.616  -3.589  19.171  1.00  0.00     0.038 A 
ENDROOT
BRANCH   1   7
HETATM    7  C5  UNL     1      -5.933  -2.300  20.788  1.00  0.00     0.118 C 
HETATM    8  N4  UNL     1      -5.974  -1.295  21.511  1.00  0.00    -0.309 N 
ATOM      9  H4  UNL     1      -6.387  -1.470  22.427  1.00  0.00     0.186 HD
BRANCH   8  10
HETATM   10  N3  UNL     1      -5.580  -0.006  21.330  1.00  0.00    -0.277 N 
ATOM     11  H3  UNL     1      -4.580   0.188  21.277  1.00  0.00     0.189 HD
BRANCH  10  12
HETATM   12  C4  UNL     1      -6.480   1.088  21.208  1.00  0.00     0.186 C 
HETATM   13  S1  UNL     1      -8.106   0.792  21.217  1.00  0.00    -0.040 SA
BRANCH  12  14
HETATM   14  N2  UNL     1      -6.079   2.428  21.081  1.00  0.00    -0.366 N 
ATOM     15  H2  UNL     1      -6.104   3.043  21.895  1.00  0.00     0.161 HD
BRANCH  14  16
HETATM   16  C3  UNL     1      -5.632   2.940  19.809  1.00  0.00     0.131 C 
BRANCH  16  17
HETATM   17  C2  UNL     1      -5.262   4.404  19.956  1.00  0.00     0.119 C 
BRANCH  17  18
HETATM   18  C1  UNL     1      -3.897   4.466  20.581  1.00  0.00     0.232 C 
HETATM   19  N1  UNL     1      -2.959   5.338  19.962  1.00  0.00    -0.062 NA
HETATM   20  O1  UNL     1      -3.622   3.776  21.600  1.00  0.00    -0.277 OA
ENDBRANCH  17  18
ENDBRANCH  16  17
ENDBRANCH  14  16
ENDBRANCH  12  14
ENDBRANCH  10  12
ENDBRANCH   8  10
ENDBRANCH   1   7
BRANCH   5  21
HETATM   21  S2  UNL     1      -3.076  -5.293  17.668  1.00  0.00     0.276 S 
HETATM   22  O2  UNL     1      -2.569  -5.267  16.235  1.00  0.00    -0.199 OA
HETATM   23  O3  UNL     1      -1.860  -5.234  18.542  1.00  0.00    -0.199 OA
BRANCH  21  24
HETATM   24  N5  UNL     1      -4.031  -6.674  17.948  1.00  0.00    -0.221 N 
ATOM     25  H5  UNL     1      -4.362  -6.887  18.888  1.00  0.00     0.200 HD
BRANCH  24  26
HETATM   26  N6  UNL     1      -4.357  -7.513  16.883  1.00  0.00    -0.266 N 
HETATM   27  C11 UNL     1      -5.204  -8.470  17.054  1.00  0.00     0.216 C 
HETATM   28  N7  UNL     1      -5.802  -8.667  18.322  1.00  0.00    -0.065 NA
HETATM   29  N8  UNL     1      -5.534  -9.320  15.973  1.00  0.00    -0.065 NA
ATOM     30  H6  UNL     1      -3.926  -7.371  15.970  1.00  0.00     0.190 HD
ENDBRANCH  24  26
ENDBRANCH  21  24
ENDBRANCH   5  21
TORSDOF 10
ENDMDL
MODEL 5
REMARK VINA RESULT: -7.357925751      2.724      2.919
REMARK  10 active torsions:
REMARK  status: ('A' for Active; 'I' for Inactive)
REMARK    1  A    between atoms: C1_2  and  C2_4 
REMARK    2  A    between atoms: C2_4  and  C3_5 
REMARK    3  A    between atoms: C3_5  and  N2_6 
REMARK    4  A    between atoms: N2_6  and  C4_8 
REMARK    5  A    between atoms: C4_8  and  N3_10 
REMARK    6  A    between atoms: N3_10  and  N4_12 
REMARK    7  A    between atoms: C5_14  and  C6_15 
REMARK    8  A    between atoms: C10_19  and  S2_20 
REMARK    9  A    between atoms: S2_20  and  N5_23 
REMARK   10  A    between atoms: N5_23  and  N6_25 
ROOT
HETATM    1  C6  UNL     1      -5.162  -1.703  19.537  1.00  0.00    -0.018 A 
HETATM    2  C7  UNL     1      -6.380  -2.305  19.353  1.00  0.00     0.013 A 
HETATM    3  C8  UNL     1      -7.507  -1.785  19.996  1.00  0.00     0.002 A 
HETATM    4  C9  UNL     1      -7.432  -0.675  20.820  1.00  0.00     0.025 A 
HETATM    5  C10 UNL     1      -6.216  -0.063  21.012  1.00  0.00     0.082 A 
HETATM    6  C12 UNL     1      -5.117  -0.582  20.376  1.00  0.00     0.038 A 
ENDROOT
BRANCH   1   7
HETATM    7  C5  UNL     1      -3.921  -2.143  18.914  1.00  0.00     0.118 C 
HETATM    8  N4  UNL     1      -3.550  -3.268  18.554  1.00  0.00    -0.309 N 
ATOM      9  H4  UNL     1      -2.617  -3.276  18.141  1.00  0.00     0.186 HD
BRANCH   8  10
HETATM   10  N3  UNL     1      -4.134  -4.496  18.598  1.00  0.00    -0.277 N 
ATOM     11  H3  UNL     1      -4.980  -4.605  19.158  1.00  0.00     0.189 HD
BRANCH  10  12
HETATM   12  C4  UNL     1      -3.636  -5.636  17.909  1.00  0.00     0.186 C 
HETATM   13  S1  UNL     1      -2.009  -5.770  17.654  1.00  0.00    -0.040 SA
BRANCH  12  14
HETATM   14  N2  UNL     1      -4.443  -6.677  17.422  1.00  0.00    -0.366 N 
ATOM     15  H2  UNL     1      -5.050  -6.513  16.618  1.00  0.00     0.161 HD
BRANCH  14  16
HETATM   16  C3  UNL     1      -4.420  -7.975  18.049  1.00  0.00     0.131 C 
BRANCH  16  17
HETATM   17  C2  UNL     1      -4.440  -9.052  16.981  1.00  0.00     0.119 C 
BRANCH  17  18
HETATM   18  C1  UNL     1      -5.844  -9.141  16.453  1.00  0.00     0.232 C 
HETATM   19  N1  UNL     1      -5.993  -9.685  15.146  1.00  0.00    -0.062 NA
HETATM   20  O1  UNL     1      -6.821  -8.751  17.148  1.00  0.00    -0.277 OA
ENDBRANCH  17  18
ENDBRANCH  16  17
ENDBRANCH  14  16
ENDBRANCH  12  14
ENDBRANCH  10  12
ENDBRANCH   8  10
ENDBRANCH   1   7
BRANCH   5  21
HETATM   21  S2  UNL     1      -6.098   1.359  22.053  1.00  0.00     0.276 S 
HETATM   22  O2  UNL     1      -7.371   1.470  22.876  1.00  0.00    -0.199 OA
HETATM   23  O3  UNL     1      -4.979   1.192  23.035  1.00  0.00    -0.199 OA
BRANCH  21  24
HETATM   24  N5  UNL     1      -5.905   2.721  21.049  1.00  0.00    -0.221 N 
ATOM     25  H5  UNL     1      -6.579   2.912  20.309  1.00  0.00     0.200 HD
BRANCH  24  26
HETATM   26  N6  UNL     1      -4.819   3.573  21.247  1.00  0.00    -0.266 N 
HETATM   27  C11 UNL     1      -4.432   4.353  20.295  1.00  0.00     0.216 C 
HETATM   28  N7  UNL     1      -5.110   4.342  19.052  1.00  0.00    -0.065 NA
HETATM   29  N8  UNL     1      -3.331   5.216  20.497  1.00  0.00    -0.065 NA
ATOM     30  H6  UNL     1      -4.330   3.579  22.142  1.00  0.00     0.190 HD
ENDBRANCH  24  26
ENDBRANCH  21  24
ENDBRANCH   5  21
TORSDOF 10
ENDMDL
