MODEL 1
REMARK VINA RESULT: -5.885404977      0.000      0.000
REMARK  9 active torsions:
REMARK  status: ('A' for Active; 'I' for Inactive)
REMARK       I    between atoms: C2_2  and  N1_4 
REMARK    1  A    between atoms: N1_4  and  C3_6 
REMARK    2  A    between atoms: C3_6  and  C4_7 
REMARK    3  A    between atoms: C3_6  and  C5_10 
REMARK       I    between atoms: C5_10  and  N2_12 
REMARK    4  A    between atoms: N2_12  and  C6_14 
REMARK    5  A    between atoms: C6_14  and  C7_15 
REMARK    6  A    between atoms: C6_14  and  C11_24 
REMARK       I    between atoms: C7_15  and  N3_17 
REMARK    7  A    between atoms: N3_17  and  C8_19 
REMARK    8  A    between atoms: C8_19  and  C10_21 
REMARK       I    between atoms: C11_24  and  N4_26 
REMARK    9  A    between atoms: N4_26  and  C12_28 
ROOT
HETATM    1  C6  UNL     1      -3.103  -6.400  17.878  1.00  0.00     0.269 C 
ENDROOT
BRANCH   1   2
HETATM    2  N2  UNL     1      -4.096  -7.262  18.368  1.00  0.00    -0.338 N 
HETATM    3  C5  UNL     1      -4.416  -8.517  17.666  1.00  0.00     0.252 C 
HETATM    4  O4  UNL     1      -3.831  -8.836  16.617  1.00  0.00    -0.271 OA
ATOM      5  H2  UNL     1      -4.601  -7.016  19.220  1.00  0.00     0.163 HD
BRANCH   3   6
HETATM    6  C3  UNL     1      -5.435  -9.388  18.260  1.00  0.00     0.278 C 
BRANCH   6   7
HETATM    7  N1  UNL     1      -6.737  -8.980  17.879  1.00  0.00    -0.339 N 
HETATM    8  C2  UNL     1      -7.601  -9.181  16.805  1.00  0.00     0.214 C 
HETATM    9  C1  UNL     1      -8.992  -8.565  16.848  1.00  0.00     0.117 C 
HETATM   10  O1  UNL     1      -7.316  -9.845  15.801  1.00  0.00    -0.274 OA
ATOM     11  H1  UNL     1      -7.157  -8.373  18.584  1.00  0.00     0.163 HD
ENDBRANCH   6   7
BRANCH   6  12
HETATM   12  C4  UNL     1      -5.396  -9.492  19.740  1.00  0.00     0.206 C 
HETATM   13  O2  UNL     1      -4.279  -9.715  20.294  1.00  0.00    -0.646 OA
HETATM   14  O3  UNL     1      -6.540  -9.372  20.537  1.00  0.00    -0.646 OA
ENDBRANCH   6  12
ENDBRANCH   3   6
ENDBRANCH   1   2
BRANCH   1  15
HETATM   15  C7  UNL     1      -1.871  -6.266  18.677  1.00  0.00     0.254 C 
HETATM   16  O5  UNL     1      -1.112  -5.275  18.670  1.00  0.00    -0.270 OA
HETATM   17  N3  UNL     1      -1.615  -7.424  19.527  1.00  0.00    -0.323 N 
ATOM     18  H3  UNL     1      -2.305  -8.174  19.481  1.00  0.00     0.169 HD
BRANCH  17  19
HETATM   19  C8  UNL     1      -0.538  -7.633  20.397  1.00  0.00     0.085 C 
HETATM   20  C9  UNL     1      -0.456  -6.866  21.657  1.00  0.00     0.076 C 
BRANCH  19  21
HETATM   21  C10 UNL     1      -0.207  -9.062  20.550  1.00  0.00     0.222 C 
HETATM   22  O6  UNL     1      -0.524  -9.896  19.700  1.00  0.00    -0.643 OA
HETATM   23  O7  UNL     1       0.469  -9.457  21.726  1.00  0.00    -0.643 OA
ENDBRANCH  19  21
ENDBRANCH  17  19
ENDBRANCH   1  15
BRANCH   1  24
HETATM   24  C11 UNL     1      -3.705  -5.039  17.649  1.00  0.00     0.250 C 
HETATM   25  O8  UNL     1      -3.690  -4.546  16.463  1.00  0.00    -0.271 OA
HETATM   26  N4  UNL     1      -4.301  -4.283  18.674  1.00  0.00    -0.351 N 
ATOM     27  H4  UNL     1      -4.343  -4.740  19.584  1.00  0.00     0.163 HD
BRANCH  26  28
HETATM   28  C12 UNL     1      -4.852  -2.977  18.625  1.00  0.00     0.022 C 
HETATM   29  C13 UNL     1      -5.851  -2.821  19.779  1.00  0.00     0.037 C 
HETATM   30  C14 UNL     1      -3.710  -1.942  18.918  1.00  0.00     0.037 C 
HETATM   31  C15 UNL     1      -5.465  -2.632  17.333  1.00  0.00     0.037 C 
ENDBRANCH  26  28
ENDBRANCH   1  24
TORSDOF 9
ENDMDL
MODEL 2
REMARK VINA RESULT: -5.871045955      1.587      2.090
REMARK  9 active torsions:
REMARK  status: ('A' for Active; 'I' for Inactive)
REMARK       I    between atoms: C2_2  and  N1_4 
REMARK    1  A    between atoms: N1_4  and  C3_6 
REMARK    2  A    between atoms: C3_6  and  C4_7 
REMARK    3  A    between atoms: C3_6  and  C5_10 
REMARK       I    between atoms: C5_10  and  N2_12 
REMARK    4  A    between atoms: N2_12  and  C6_14 
REMARK    5  A    between atoms: C6_14  and  C7_15 
REMARK    6  A    between atoms: C6_14  and  C11_24 
REMARK       I    between atoms: C7_15  and  N3_17 
REMARK    7  A    between atoms: N3_17  and  C8_19 
REMARK    8  A    between atoms: C8_19  and  C10_21 
REMARK       I    between atoms: C11_24  and  N4_26 
REMARK    9  A    between atoms: N4_26  and  C12_28 
ROOT
HETATM    1  C6  UNL     1      -3.122  -6.244  17.289  1.00  0.00     0.269 C 
ENDROOT
BRANCH   1   2
HETATM    2  N2  UNL     1      -4.046  -7.116  17.883  1.00  0.00    -0.338 N 
HETATM    3  C5  UNL     1      -4.219  -8.489  17.375  1.00  0.00     0.252 C 
HETATM    4  O4  UNL     1      -3.566  -8.902  16.402  1.00  0.00    -0.271 OA
ATOM      5  H2  UNL     1      -4.605  -6.797  18.674  1.00  0.00     0.163 HD
BRANCH   3   6
HETATM    6  C3  UNL     1      -5.172  -9.357  18.071  1.00  0.00     0.278 C 
BRANCH   6   7
HETATM    7  N1  UNL     1      -6.507  -8.990  17.772  1.00  0.00    -0.339 N 
HETATM    8  C2  UNL     1      -7.434  -9.229  16.759  1.00  0.00     0.214 C 
HETATM    9  C1  UNL     1      -8.835  -8.650  16.886  1.00  0.00     0.117 C 
HETATM   10  O1  UNL     1      -7.196  -9.899  15.747  1.00  0.00    -0.274 OA
ATOM     11  H1  UNL     1      -6.897  -8.384  18.495  1.00  0.00     0.163 HD
ENDBRANCH   6   7
BRANCH   6  12
HETATM   12  C4  UNL     1      -5.024  -9.406  19.548  1.00  0.00     0.206 C 
HETATM   13  O2  UNL     1      -3.854  -9.434  20.031  1.00  0.00    -0.646 OA
HETATM   14  O3  UNL     1      -6.122  -9.440  20.417  1.00  0.00    -0.646 OA
ENDBRANCH   6  12
ENDBRANCH   3   6
ENDBRANCH   1   2
BRANCH   1  15
HETATM   15  C7  UNL     1      -1.767  -6.200  17.870  1.00  0.00     0.254 C 
HETATM   16  O5  UNL     1      -1.318  -5.279  18.582  1.00  0.00    -0.270 OA
HETATM   17  N3  UNL     1      -0.970  -7.380  17.547  1.00  0.00    -0.323 N 
ATOM     18  H3  UNL     1      -1.433  -8.089  16.979  1.00  0.00     0.169 HD
BRANCH  17  19
HETATM   19  C8  UNL     1       0.350  -7.657  17.922  1.00  0.00     0.085 C 
HETATM   20  C9  UNL     1       0.704  -9.007  18.406  1.00  0.00     0.076 C 
BRANCH  19  21
HETATM   21  C10 UNL     1       1.334  -7.086  16.984  1.00  0.00     0.222 C 
HETATM   22  O6  UNL     1       2.437  -6.688  17.364  1.00  0.00    -0.643 OA
HETATM   23  O7  UNL     1       0.962  -6.982  15.626  1.00  0.00    -0.643 OA
ENDBRANCH  19  21
ENDBRANCH  17  19
ENDBRANCH   1  15
BRANCH   1  24
HETATM   24  C11 UNL     1      -3.703  -4.855  17.265  1.00  0.00     0.250 C 
HETATM   25  O8  UNL     1      -3.659  -4.184  16.171  1.00  0.00    -0.271 OA
HETATM   26  N4  UNL     1      -4.312  -4.260  18.384  1.00  0.00    -0.351 N 
ATOM     27  H4  UNL     1      -4.378  -4.853  19.211  1.00  0.00     0.163 HD
BRANCH  26  28
HETATM   28  C12 UNL     1      -4.848  -2.955  18.529  1.00  0.00     0.022 C 
HETATM   29  C13 UNL     1      -5.788  -2.942  19.742  1.00  0.00     0.037 C 
HETATM   30  C14 UNL     1      -3.679  -1.974  18.896  1.00  0.00     0.037 C 
HETATM   31  C15 UNL     1      -5.518  -2.443  17.324  1.00  0.00     0.037 C 
ENDBRANCH  26  28
ENDBRANCH   1  24
TORSDOF 9
ENDMDL
MODEL 3
REMARK VINA RESULT: -5.832036176      1.048      1.180
REMARK  9 active torsions:
REMARK  status: ('A' for Active; 'I' for Inactive)
REMARK       I    between atoms: C2_2  and  N1_4 
REMARK    1  A    between atoms: N1_4  and  C3_6 
REMARK    2  A    between atoms: C3_6  and  C4_7 
REMARK    3  A    between atoms: C3_6  and  C5_10 
REMARK       I    between atoms: C5_10  and  N2_12 
REMARK    4  A    between atoms: N2_12  and  C6_14 
REMARK    5  A    between atoms: C6_14  and  C7_15 
REMARK    6  A    between atoms: C6_14  and  C11_24 
REMARK       I    between atoms: C7_15  and  N3_17 
REMARK    7  A    between atoms: N3_17  and  C8_19 
REMARK    8  A    between atoms: C8_19  and  C10_21 
REMARK       I    between atoms: C11_24  and  N4_26 
REMARK    9  A    between atoms: N4_26  and  C12_28 
ROOT
HETATM    1  C6  UNL     1      -3.164  -6.314  17.375  1.00  0.00     0.269 C 
ENDROOT
BRANCH   1   2
HETATM    2  N2  UNL     1      -4.111  -7.165  17.966  1.00  0.00    -0.338 N 
HETATM    3  C5  UNL     1      -4.327  -8.527  17.446  1.00  0.00     0.252 C 
HETATM    4  O4  UNL     1      -3.692  -8.949  16.465  1.00  0.00    -0.271 OA
ATOM      5  H2  UNL     1      -4.655  -6.837  18.764  1.00  0.00     0.163 HD
BRANCH   3   6
HETATM    6  C3  UNL     1      -5.301  -9.373  18.140  1.00  0.00     0.278 C 
BRANCH   6   7
HETATM    7  N1  UNL     1      -6.627  -8.984  17.827  1.00  0.00    -0.339 N 
HETATM    8  C2  UNL     1      -7.540  -9.192  16.796  1.00  0.00     0.214 C 
HETATM    9  C1  UNL     1      -8.937  -8.599  16.912  1.00  0.00     0.117 C 
HETATM   10  O1  UNL     1      -7.295  -9.846  15.775  1.00  0.00    -0.274 OA
ATOM     11  H1  UNL     1      -7.020  -8.388  18.556  1.00  0.00     0.163 HD
ENDBRANCH   6   7
BRANCH   6  12
HETATM   12  C4  UNL     1      -5.166  -9.415  19.618  1.00  0.00     0.206 C 
HETATM   13  O2  UNL     1      -4.001  -9.491  20.110  1.00  0.00    -0.646 OA
HETATM   14  O3  UNL     1      -6.270  -9.392  20.479  1.00  0.00    -0.646 OA
ENDBRANCH   6  12
ENDBRANCH   3   6
ENDBRANCH   1   2
BRANCH   1  15
HETATM   15  C7  UNL     1      -1.819  -6.279  17.978  1.00  0.00     0.254 C 
HETATM   16  O5  UNL     1      -1.322  -5.301  18.572  1.00  0.00    -0.270 OA
HETATM   17  N3  UNL     1      -1.097  -7.539  17.835  1.00  0.00    -0.323 N 
ATOM     18  H3  UNL     1      -1.596  -8.288  17.355  1.00  0.00     0.169 HD
BRANCH  17  19
HETATM   19  C8  UNL     1       0.195  -7.847  18.276  1.00  0.00     0.085 C 
HETATM   20  C9  UNL     1       1.341  -7.049  17.797  1.00  0.00     0.076 C 
BRANCH  19  21
HETATM   21  C10 UNL     1       0.242  -8.144  19.720  1.00  0.00     0.222 C 
HETATM   22  O6  UNL     1      -0.784  -8.331  20.377  1.00  0.00    -0.643 OA
HETATM   23  O7  UNL     1       1.509  -8.182  20.342  1.00  0.00    -0.643 OA
ENDBRANCH  19  21
ENDBRANCH  17  19
ENDBRANCH   1  15
BRANCH   1  24
HETATM   24  C11 UNL     1      -3.727  -4.919  17.318  1.00  0.00     0.250 C 
HETATM   25  O8  UNL     1      -3.668  -4.271  16.210  1.00  0.00    -0.271 OA
HETATM   26  N4  UNL     1      -4.332  -4.292  18.421  1.00  0.00    -0.351 N 
ATOM     27  H4  UNL     1      -4.410  -4.866  19.260  1.00  0.00     0.163 HD
BRANCH  26  28
HETATM   28  C12 UNL     1      -4.851  -2.977  18.537  1.00  0.00     0.022 C 
HETATM   29  C13 UNL     1      -5.778  -2.919  19.758  1.00  0.00     0.037 C 
HETATM   30  C14 UNL     1      -3.667  -2.001  18.864  1.00  0.00     0.037 C 
HETATM   31  C15 UNL     1      -5.528  -2.490  17.324  1.00  0.00     0.037 C 
ENDBRANCH  26  28
ENDBRANCH   1  24
TORSDOF 9
ENDMDL
MODEL 4
REMARK VINA RESULT: -5.752311321      2.333      5.368
REMARK  9 active torsions:
REMARK  status: ('A' for Active; 'I' for Inactive)
REMARK       I    between atoms: C2_2  and  N1_4 
REMARK    1  A    between atoms: N1_4  and  C3_6 
REMARK    2  A    between atoms: C3_6  and  C4_7 
REMARK    3  A    between atoms: C3_6  and  C5_10 
REMARK       I    between atoms: C5_10  and  N2_12 
REMARK    4  A    between atoms: N2_12  and  C6_14 
REMARK    5  A    between atoms: C6_14  and  C7_15 
REMARK    6  A    between atoms: C6_14  and  C11_24 
REMARK       I    between atoms: C7_15  and  N3_17 
REMARK    7  A    between atoms: N3_17  and  C8_19 
REMARK    8  A    between atoms: C8_19  and  C10_21 
REMARK       I    between atoms: C11_24  and  N4_26 
REMARK    9  A    between atoms: N4_26  and  C12_28 
ROOT
HETATM    1  C6  UNL     1      -3.267  -6.602  18.010  1.00  0.00     0.269 C 
ENDROOT
BRANCH   1   2
HETATM    2  N2  UNL     1      -4.510  -7.088  17.576  1.00  0.00    -0.338 N 
HETATM    3  C5  UNL     1      -5.104  -8.288  18.191  1.00  0.00     0.252 C 
HETATM    4  O4  UNL     1      -4.516  -8.908  19.093  1.00  0.00    -0.271 OA
ATOM      5  H2  UNL     1      -5.006  -6.606  16.826  1.00  0.00     0.163 HD
BRANCH   3   6
HETATM    6  C3  UNL     1      -6.424  -8.713  17.716  1.00  0.00     0.278 C 
BRANCH   6   7
HETATM    7  N1  UNL     1      -7.072  -9.528  18.677  1.00  0.00    -0.339 N 
HETATM    8  C2  UNL     1      -8.137  -9.412  19.568  1.00  0.00     0.214 C 
HETATM    9  C1  UNL     1      -8.537 -10.618  20.405  1.00  0.00     0.117 C 
HETATM   10  O1  UNL     1      -8.800  -8.380  19.724  1.00  0.00    -0.274 OA
ATOM     11  H1  UNL     1      -6.642 -10.451  18.732  1.00  0.00     0.163 HD
ENDBRANCH   6   7
BRANCH   6  12
HETATM   12  C4  UNL     1      -6.428  -9.435  16.418  1.00  0.00     0.206 C 
HETATM   13  O2  UNL     1      -5.371  -9.418  15.721  1.00  0.00    -0.646 OA
HETATM   14  O3  UNL     1      -7.554 -10.111  15.932  1.00  0.00    -0.646 OA
ENDBRANCH   6  12
ENDBRANCH   3   6
ENDBRANCH   1   2
BRANCH   1  15
HETATM   15  C7  UNL     1      -3.103  -5.138  18.082  1.00  0.00     0.254 C 
HETATM   16  O5  UNL     1      -2.038  -4.545  18.345  1.00  0.00    -0.270 OA
HETATM   17  N3  UNL     1      -4.334  -4.412  17.786  1.00  0.00    -0.323 N 
ATOM     18  H3  UNL     1      -5.147  -4.985  17.559  1.00  0.00     0.169 HD
BRANCH  17  19
HETATM   19  C8  UNL     1      -4.536  -3.027  17.776  1.00  0.00     0.085 C 
HETATM   20  C9  UNL     1      -5.460  -2.430  16.790  1.00  0.00     0.076 C 
BRANCH  19  21
HETATM   21  C10 UNL     1      -4.675  -2.468  19.133  1.00  0.00     0.222 C 
HETATM   22  O6  UNL     1      -5.617  -2.772  19.867  1.00  0.00    -0.643 OA
HETATM   23  O7  UNL     1      -3.701  -1.541  19.564  1.00  0.00    -0.643 OA
ENDBRANCH  19  21
ENDBRANCH  17  19
ENDBRANCH   1  15
BRANCH   1  24
HETATM   24  C11 UNL     1      -2.182  -7.188  17.145  1.00  0.00     0.250 C 
HETATM   25  O8  UNL     1      -2.515  -7.860  16.103  1.00  0.00    -0.271 OA
HETATM   26  N4  UNL     1      -0.813  -7.019  17.417  1.00  0.00    -0.351 N 
ATOM     27  H4  UNL     1      -0.597  -6.429  18.219  1.00  0.00     0.163 HD
BRANCH  26  28
HETATM   28  C12 UNL     1       0.312  -7.551  16.736  1.00  0.00     0.022 C 
HETATM   29  C13 UNL     1       1.587  -7.029  17.410  1.00  0.00     0.037 C 
HETATM   30  C14 UNL     1       0.334  -9.106  16.948  1.00  0.00     0.037 C 
HETATM   31  C15 UNL     1       0.320  -7.284  15.289  1.00  0.00     0.037 C 
ENDBRANCH  26  28
ENDBRANCH   1  24
TORSDOF 9
ENDMDL
MODEL 5
REMARK VINA RESULT: -5.705981372      0.886      2.490
REMARK  9 active torsions:
REMARK  status: ('A' for Active; 'I' for Inactive)
REMARK       I    between atoms: C2_2  and  N1_4 
REMARK    1  A    between atoms: N1_4  and  C3_6 
REMARK    2  A    between atoms: C3_6  and  C4_7 
REMARK    3  A    between atoms: C3_6  and  C5_10 
REMARK       I    between atoms: C5_10  and  N2_12 
REMARK    4  A    between atoms: N2_12  and  C6_14 
REMARK    5  A    between atoms: C6_14  and  C7_15 
REMARK    6  A    between atoms: C6_14  and  C11_24 
REMARK       I    between atoms: C7_15  and  N3_17 
REMARK    7  A    between atoms: N3_17  and  C8_19 
REMARK    8  A    between atoms: C8_19  and  C10_21 
REMARK       I    between atoms: C11_24  and  N4_26 
REMARK    9  A    between atoms: N4_26  and  C12_28 
ROOT
HETATM    1  C6  UNL     1      -3.379  -6.279  17.781  1.00  0.00     0.269 C 
ENDROOT
BRANCH   1   2
HETATM    2  N2  UNL     1      -4.449  -7.061  18.242  1.00  0.00    -0.338 N 
HETATM    3  C5  UNL     1      -5.006  -8.140  17.408  1.00  0.00     0.252 C 
HETATM    4  O4  UNL     1      -4.558  -8.373  16.272  1.00  0.00    -0.271 OA
ATOM      5  H2  UNL     1      -4.845  -6.880  19.164  1.00  0.00     0.163 HD
BRANCH   3   6
HETATM    6  C3  UNL     1      -6.095  -8.943  17.971  1.00  0.00     0.278 C 
BRANCH   6   7
HETATM    7  N1  UNL     1      -5.589 -10.083  18.644  1.00  0.00    -0.339 N 
HETATM    8  C2  UNL     1      -4.710 -10.349  19.692  1.00  0.00     0.214 C 
HETATM    9  C1  UNL     1      -4.502 -11.789  20.136  1.00  0.00     0.117 C 
HETATM   10  O1  UNL     1      -4.080  -9.479  20.304  1.00  0.00    -0.274 OA
ATOM     11  H1  UNL     1      -5.975 -10.944  18.256  1.00  0.00     0.163 HD
ENDBRANCH   6   7
BRANCH   6  12
HETATM   12  C4  UNL     1      -7.119  -9.396  16.996  1.00  0.00     0.206 C 
HETATM   13  O2  UNL     1      -8.128  -8.656  16.803  1.00  0.00    -0.646 OA
HETATM   14  O3  UNL     1      -7.020 -10.608  16.304  1.00  0.00    -0.646 OA
ENDBRANCH   6  12
ENDBRANCH   3   6
ENDBRANCH   1   2
BRANCH   1  15
HETATM   15  C7  UNL     1      -2.153  -6.262  18.600  1.00  0.00     0.254 C 
HETATM   16  O5  UNL     1      -1.353  -5.308  18.680  1.00  0.00    -0.270 OA
HETATM   17  N3  UNL     1      -1.957  -7.495  19.356  1.00  0.00    -0.323 N 
ATOM     18  H3  UNL     1      -2.677  -8.208  19.243  1.00  0.00     0.169 HD
BRANCH  17  19
HETATM   19  C8  UNL     1      -0.901  -7.819  20.217  1.00  0.00     0.085 C 
HETATM   20  C9  UNL     1      -0.823  -7.186  21.549  1.00  0.00     0.076 C 
BRANCH  19  21
HETATM   21  C10 UNL     1      -0.608  -9.264  20.229  1.00  0.00     0.222 C 
HETATM   22  O6  UNL     1      -0.028  -9.801  21.175  1.00  0.00    -0.643 OA
HETATM   23  O7  UNL     1      -0.991 -10.021  19.100  1.00  0.00    -0.643 OA
ENDBRANCH  19  21
ENDBRANCH  17  19
ENDBRANCH   1  15
BRANCH   1  24
HETATM   24  C11 UNL     1      -3.860  -4.867  17.567  1.00  0.00     0.250 C 
HETATM   25  O8  UNL     1      -3.680  -4.319  16.420  1.00  0.00    -0.271 OA
HETATM   26  N4  UNL     1      -4.515  -4.123  18.563  1.00  0.00    -0.351 N 
ATOM     27  H4  UNL     1      -4.689  -4.620  19.436  1.00  0.00     0.163 HD
BRANCH  26  28
HETATM   28  C12 UNL     1      -4.969  -2.780  18.531  1.00  0.00     0.022 C 
HETATM   29  C13 UNL     1      -6.031  -2.593  19.623  1.00  0.00     0.037 C 
HETATM   30  C14 UNL     1      -3.780  -1.841  18.939  1.00  0.00     0.037 C 
HETATM   31  C15 UNL     1      -5.468  -2.346  17.216  1.00  0.00     0.037 C 
ENDBRANCH  26  28
ENDBRANCH   1  24
TORSDOF 9
ENDMDL
