MODEL 1
REMARK VINA RESULT: -6.475042961      0.000      0.000
REMARK  5 active torsions:
REMARK  status: ('A' for Active; 'I' for Inactive)
REMARK    1  A    between atoms: N1_2  and  S1_4 
REMARK    2  A    between atoms: S1_4  and  C2_7 
REMARK    3  A    between atoms: C2_7  and  C3_8 
REMARK       I    between atoms: C3_8  and  N2_10 
REMARK    4  A    between atoms: N2_10  and  C4_12 
REMARK    5  A    between atoms: C12_23  and  C13_24 
ROOT
HETATM    1  C4  UNL     1     -37.832  20.506 106.913  1.00  0.00     0.092 C 
HETATM    2  C5  UNL     1     -38.548  21.022 108.159  1.00  0.00     0.009 C 
HETATM    3  C6  UNL     1     -39.985  21.028 107.683  1.00  0.00     0.007 C 
HETATM    4  C7  UNL     1     -39.880  21.440 106.251  1.00  0.00     0.007 C 
HETATM    5  C8  UNL     1     -38.414  21.442 105.880  1.00  0.00     0.009 C 
HETATM    6  C9  UNL     1     -37.774  22.780 106.070  1.00  0.00     0.020 C 
HETATM    7  C10 UNL     1     -37.900  23.344 107.432  1.00  0.00     0.013 C 
HETATM    8  C11 UNL     1     -38.805  24.583 107.405  1.00  0.00     0.244 C 
HETATM    9  N3  UNL     1     -37.608  25.347 107.073  1.00  0.00    -0.069 N 
ATOM     10  H31 UNL     1     -37.539  26.343 107.284  1.00  0.00     0.277 HD
ATOM     11  H32 UNL     1     -37.370  25.565 106.105  1.00  0.00     0.277 HD
HETATM   12  C12 UNL     1     -36.860  24.361 107.830  1.00  0.00     0.200 C 
HETATM   13  C16 UNL     1     -38.159  22.394 108.528  1.00  0.00     0.020 C 
ENDROOT
BRANCH   1  14
HETATM   14  N2  UNL     1     -38.160  19.129 106.682  1.00  0.00    -0.354 N 
HETATM   15  C3  UNL     1     -37.248  18.082 106.531  1.00  0.00     0.243 C 
HETATM   16  O3  UNL     1     -36.027  18.304 106.590  1.00  0.00    -0.272 OA
ATOM     17  H2  UNL     1     -39.150  18.893 106.624  1.00  0.00     0.162 HD
BRANCH  15  18
HETATM   18  C2  UNL     1     -37.672  16.649 106.292  1.00  0.00     0.163 C 
HETATM   19  C17 UNL     1     -38.910  16.338 107.109  1.00  0.00     0.037 C 
HETATM   20  C18 UNL     1     -40.040  16.364 106.112  1.00  0.00     0.002 C 
HETATM   21  C19 UNL     1     -39.468  16.174 104.752  1.00  0.00     0.002 C 
HETATM   22  C20 UNL     1     -38.017  16.514 104.857  1.00  0.00     0.037 C 
BRANCH  18  23
HETATM   23  S1  UNL     1     -36.342  15.635 106.861  1.00  0.00     0.243 S 
HETATM   24  O1  UNL     1     -36.462  15.441 108.364  1.00  0.00    -0.205 OA
HETATM   25  O2  UNL     1     -36.617  14.243 106.276  1.00  0.00    -0.205 OA
BRANCH  23  26
HETATM   26  N1  UNL     1     -34.798  16.142 106.442  1.00  0.00    -0.323 N 
HETATM   27  C1  UNL     1     -33.768  15.709 107.330  1.00  0.00     0.159 C 
ATOM     28  H1  UNL     1     -34.611  16.714 105.618  1.00  0.00     0.171 HD
ENDBRANCH  23  26
ENDBRANCH  18  23
ENDBRANCH  15  18
ENDBRANCH   1  14
BRANCH  12  29
HETATM   29  C13 UNL     1     -35.468  24.109 107.360  1.00  0.00     0.017 A 
HETATM   30  C14 UNL     1     -34.660  22.962 107.751  1.00  0.00     0.007 A 
HETATM   31  C15 UNL     1     -34.409  24.228 108.478  1.00  0.00     0.007 A 
ENDBRANCH  12  29
TORSDOF 5
ENDMDL
MODEL 2
REMARK VINA RESULT: -6.445736876      2.654      4.507
REMARK  5 active torsions:
REMARK  status: ('A' for Active; 'I' for Inactive)
REMARK    1  A    between atoms: N1_2  and  S1_4 
REMARK    2  A    between atoms: S1_4  and  C2_7 
REMARK    3  A    between atoms: C2_7  and  C3_8 
REMARK       I    between atoms: C3_8  and  N2_10 
REMARK    4  A    between atoms: N2_10  and  C4_12 
REMARK    5  A    between atoms: C12_23  and  C13_24 
ROOT
HETATM    1  C4  UNL     1     -37.205  16.824 106.849  1.00  0.00     0.092 C 
HETATM    2  C5  UNL     1     -38.640  17.061 107.309  1.00  0.00     0.009 C 
HETATM    3  C6  UNL     1     -39.415  16.422 106.177  1.00  0.00     0.007 C 
HETATM    4  C7  UNL     1     -38.603  16.747 104.967  1.00  0.00     0.007 C 
HETATM    5  C8  UNL     1     -37.300  17.353 105.437  1.00  0.00     0.009 C 
HETATM    6  C9  UNL     1     -37.355  18.846 105.516  1.00  0.00     0.020 C 
HETATM    7  C10 UNL     1     -38.441  19.386 106.363  1.00  0.00     0.013 C 
HETATM    8  C11 UNL     1     -39.473  20.114 105.491  1.00  0.00     0.244 C 
HETATM    9  N3  UNL     1     -38.627  21.294 105.620  1.00  0.00    -0.069 N 
ATOM     10  H31 UNL     1     -39.010  22.235 105.522  1.00  0.00     0.277 HD
ATOM     11  H32 UNL     1     -37.936  21.531 104.908  1.00  0.00     0.277 HD
HETATM   12  C12 UNL     1     -38.227  20.774 106.915  1.00  0.00     0.200 C 
HETATM   13  C16 UNL     1     -38.998  18.488 107.389  1.00  0.00     0.020 C 
ENDROOT
BRANCH   1  14
HETATM   14  N2  UNL     1     -36.883  15.428 106.912  1.00  0.00    -0.354 N 
HETATM   15  C3  UNL     1     -35.791  14.866 107.576  1.00  0.00     0.243 C 
HETATM   16  O3  UNL     1     -34.987  15.594 108.184  1.00  0.00    -0.272 OA
ATOM     17  H2  UNL     1     -37.511  14.786 106.429  1.00  0.00     0.162 HD
BRANCH  15  18
HETATM   18  C2  UNL     1     -35.518  13.378 107.601  1.00  0.00     0.163 C 
HETATM   19  C17 UNL     1     -35.792  12.784 106.233  1.00  0.00     0.037 C 
HETATM   20  C18 UNL     1     -34.428  12.568 105.631  1.00  0.00     0.002 C 
HETATM   21  C19 UNL     1     -33.430  12.530 106.735  1.00  0.00     0.002 C 
HETATM   22  C20 UNL     1     -34.081  13.187 107.908  1.00  0.00     0.037 C 
BRANCH  18  23
HETATM   23  S1  UNL     1     -36.652  12.682 108.763  1.00  0.00     0.243 S 
HETATM   24  O1  UNL     1     -38.002  13.364 108.622  1.00  0.00    -0.205 OA
HETATM   25  O2  UNL     1     -36.897  11.248 108.278  1.00  0.00    -0.205 OA
BRANCH  23  26
HETATM   26  N1  UNL     1     -36.149  12.671 110.365  1.00  0.00    -0.323 N 
HETATM   27  C1  UNL     1     -37.165  12.323 111.305  1.00  0.00     0.159 C 
ATOM     28  H1  UNL     1     -35.194  12.895 110.644  1.00  0.00     0.171 HD
ENDBRANCH  23  26
ENDBRANCH  18  23
ENDBRANCH  15  18
ENDBRANCH   1  14
BRANCH  12  29
HETATM   29  C13 UNL     1     -36.841  21.113 107.344  1.00  0.00     0.017 A 
HETATM   30  C14 UNL     1     -36.488  21.627 108.661  1.00  0.00     0.007 A 
HETATM   31  C15 UNL     1     -36.620  22.624 107.573  1.00  0.00     0.007 A 
ENDBRANCH  12  29
TORSDOF 5
ENDMDL
MODEL 3
REMARK VINA RESULT: -6.433598797      2.533      4.370
REMARK  5 active torsions:
REMARK  status: ('A' for Active; 'I' for Inactive)
REMARK    1  A    between atoms: N1_2  and  S1_4 
REMARK    2  A    between atoms: S1_4  and  C2_7 
REMARK    3  A    between atoms: C2_7  and  C3_8 
REMARK       I    between atoms: C3_8  and  N2_10 
REMARK    4  A    between atoms: N2_10  and  C4_12 
REMARK    5  A    between atoms: C12_23  and  C13_24 
ROOT
HETATM    1  C4  UNL     1     -37.302  16.769 107.060  1.00  0.00     0.092 C 
HETATM    2  C5  UNL     1     -38.761  17.107 107.356  1.00  0.00     0.009 C 
HETATM    3  C6  UNL     1     -39.461  16.364 106.238  1.00  0.00     0.007 C 
HETATM    4  C7  UNL     1     -38.531  16.517 105.078  1.00  0.00     0.007 C 
HETATM    5  C8  UNL     1     -37.250  17.131 105.594  1.00  0.00     0.009 C 
HETATM    6  C9  UNL     1     -37.245  18.623 105.497  1.00  0.00     0.020 C 
HETATM    7  C10 UNL     1     -38.377  19.296 106.173  1.00  0.00     0.013 C 
HETATM    8  C11 UNL     1     -39.296  19.950 105.131  1.00  0.00     0.244 C 
HETATM    9  N3  UNL     1     -38.413  21.108 105.201  1.00  0.00    -0.069 N 
ATOM     10  H31 UNL     1     -38.744  22.042 104.961  1.00  0.00     0.277 HD
ATOM     11  H32 UNL     1     -37.652  21.236 104.534  1.00  0.00     0.277 HD
HETATM   12  C12 UNL     1     -38.152  20.731 106.579  1.00  0.00     0.200 C 
HETATM   13  C16 UNL     1     -39.062  18.544 107.238  1.00  0.00     0.020 C 
ENDROOT
BRANCH   1  14
HETATM   14  N2  UNL     1     -37.049  15.380 107.313  1.00  0.00    -0.354 N 
HETATM   15  C3  UNL     1     -35.885  14.845 107.869  1.00  0.00     0.243 C 
HETATM   16  O3  UNL     1     -34.947  15.593 108.192  1.00  0.00    -0.272 OA
ATOM     17  H2  UNL     1     -37.788  14.723 107.065  1.00  0.00     0.162 HD
BRANCH  15  18
HETATM   18  C2  UNL     1     -35.692  13.363 108.109  1.00  0.00     0.163 C 
HETATM   19  C17 UNL     1     -34.739  13.152 109.269  1.00  0.00     0.037 C 
HETATM   20  C18 UNL     1     -35.625  12.766 110.424  1.00  0.00     0.002 C 
HETATM   21  C19 UNL     1     -36.916  12.269 109.877  1.00  0.00     0.002 C 
HETATM   22  C20 UNL     1     -37.007  12.791 108.480  1.00  0.00     0.037 C 
BRANCH  18  23
HETATM   23  S1  UNL     1     -34.957  12.713 106.640  1.00  0.00     0.243 S 
HETATM   24  O1  UNL     1     -34.199  11.440 106.975  1.00  0.00    -0.205 OA
HETATM   25  O2  UNL     1     -36.134  12.238 105.777  1.00  0.00    -0.205 OA
BRANCH  23  26
HETATM   26  N1  UNL     1     -33.994  13.774 105.767  1.00  0.00    -0.323 N 
HETATM   27  C1  UNL     1     -32.624  13.798 106.166  1.00  0.00     0.159 C 
ATOM     28  H1  UNL     1     -34.358  14.355 105.012  1.00  0.00     0.171 HD
ENDBRANCH  23  26
ENDBRANCH  18  23
ENDBRANCH  15  18
ENDBRANCH   1  14
BRANCH  12  29
HETATM   29  C13 UNL     1     -36.795  21.072 107.093  1.00  0.00     0.017 A 
HETATM   30  C14 UNL     1     -36.523  21.569 108.436  1.00  0.00     0.007 A 
HETATM   31  C15 UNL     1     -36.599  22.581 107.356  1.00  0.00     0.007 A 
ENDBRANCH  12  29
TORSDOF 5
ENDMDL
MODEL 4
REMARK VINA RESULT: -6.373747414      2.656      4.507
REMARK  5 active torsions:
REMARK  status: ('A' for Active; 'I' for Inactive)
REMARK    1  A    between atoms: N1_2  and  S1_4 
REMARK    2  A    between atoms: S1_4  and  C2_7 
REMARK    3  A    between atoms: C2_7  and  C3_8 
REMARK       I    between atoms: C3_8  and  N2_10 
REMARK    4  A    between atoms: N2_10  and  C4_12 
REMARK    5  A    between atoms: C12_23  and  C13_24 
ROOT
HETATM    1  C4  UNL     1     -37.180  16.846 106.824  1.00  0.00     0.092 C 
HETATM    2  C5  UNL     1     -38.613  17.062 107.303  1.00  0.00     0.009 C 
HETATM    3  C6  UNL     1     -39.394  16.424 106.173  1.00  0.00     0.007 C 
HETATM    4  C7  UNL     1     -38.599  16.770 104.957  1.00  0.00     0.007 C 
HETATM    5  C8  UNL     1     -37.298  17.387 105.418  1.00  0.00     0.009 C 
HETATM    6  C9  UNL     1     -37.368  18.877 105.512  1.00  0.00     0.020 C 
HETATM    7  C10 UNL     1     -38.450  19.397 106.377  1.00  0.00     0.013 C 
HETATM    8  C11 UNL     1     -39.501  20.122 105.523  1.00  0.00     0.244 C 
HETATM    9  N3  UNL     1     -38.666  21.310 105.653  1.00  0.00    -0.069 N 
ATOM     10  H31 UNL     1     -39.061  22.247 105.569  1.00  0.00     0.277 HD
ATOM     11  H32 UNL     1     -37.986  21.562 104.936  1.00  0.00     0.277 HD
HETATM   12  C12 UNL     1     -38.246  20.782 106.939  1.00  0.00     0.200 C 
HETATM   13  C16 UNL     1     -38.986  18.484 107.400  1.00  0.00     0.020 C 
ENDROOT
BRANCH   1  14
HETATM   14  N2  UNL     1     -36.842  15.452 106.871  1.00  0.00    -0.354 N 
HETATM   15  C3  UNL     1     -35.760  14.892 107.553  1.00  0.00     0.243 C 
HETATM   16  O3  UNL     1     -34.983  15.619 108.195  1.00  0.00    -0.272 OA
ATOM     17  H2  UNL     1     -37.449  14.812 106.359  1.00  0.00     0.162 HD
BRANCH  15  18
HETATM   18  C2  UNL     1     -35.469  13.407 107.558  1.00  0.00     0.163 C 
HETATM   19  C17 UNL     1     -35.765  12.822 106.191  1.00  0.00     0.037 C 
HETATM   20  C18 UNL     1     -34.412  12.629 105.558  1.00  0.00     0.002 C 
HETATM   21  C19 UNL     1     -33.391  12.594 106.639  1.00  0.00     0.002 C 
HETATM   22  C20 UNL     1     -34.024  13.232 107.832  1.00  0.00     0.037 C 
BRANCH  18  23
HETATM   23  S1  UNL     1     -36.569  12.687 108.738  1.00  0.00     0.243 S 
HETATM   24  O1  UNL     1     -35.991  12.852 110.133  1.00  0.00    -0.205 OA
HETATM   25  O2  UNL     1     -37.811  13.588 108.732  1.00  0.00    -0.205 OA
BRANCH  23  26
HETATM   26  N1  UNL     1     -37.011  11.093 108.454  1.00  0.00    -0.323 N 
HETATM   27  C1  UNL     1     -36.006  10.131 108.775  1.00  0.00     0.159 C 
ATOM     28  H1  UNL     1     -37.924  10.832 108.083  1.00  0.00     0.171 HD
ENDBRANCH  23  26
ENDBRANCH  18  23
ENDBRANCH  15  18
ENDBRANCH   1  14
BRANCH  12  29
HETATM   29  C13 UNL     1     -36.859  21.133 107.356  1.00  0.00     0.017 A 
HETATM   30  C14 UNL     1     -36.496  21.629 108.677  1.00  0.00     0.007 A 
HETATM   31  C15 UNL     1     -36.656  22.643 107.608  1.00  0.00     0.007 A 
ENDBRANCH  12  29
TORSDOF 5
ENDMDL
MODEL 5
REMARK VINA RESULT: -6.254585384      2.765      4.556
REMARK  5 active torsions:
REMARK  status: ('A' for Active; 'I' for Inactive)
REMARK    1  A    between atoms: N1_2  and  S1_4 
REMARK    2  A    between atoms: S1_4  and  C2_7 
REMARK    3  A    between atoms: C2_7  and  C3_8 
REMARK       I    between atoms: C3_8  and  N2_10 
REMARK    4  A    between atoms: N2_10  and  C4_12 
REMARK    5  A    between atoms: C12_23  and  C13_24 
ROOT
HETATM    1  C4  UNL     1     -37.268  16.752 106.989  1.00  0.00     0.092 C 
HETATM    2  C5  UNL     1     -38.711  17.089 107.355  1.00  0.00     0.009 C 
HETATM    3  C6  UNL     1     -39.462  16.380 106.249  1.00  0.00     0.007 C 
HETATM    4  C7  UNL     1     -38.582  16.558 105.055  1.00  0.00     0.007 C 
HETATM    5  C8  UNL     1     -37.276  17.151 105.532  1.00  0.00     0.009 C 
HETATM    6  C9  UNL     1     -37.266  18.645 105.472  1.00  0.00     0.020 C 
HETATM    7  C10 UNL     1     -38.363  19.306 106.213  1.00  0.00     0.013 C 
HETATM    8  C11 UNL     1     -39.321  19.992 105.228  1.00  0.00     0.244 C 
HETATM    9  N3  UNL     1     -38.429  21.143 105.290  1.00  0.00    -0.069 N 
ATOM     10  H31 UNL     1     -38.764  22.085 105.089  1.00  0.00     0.277 HD
ATOM     11  H32 UNL     1     -37.696  21.284 104.595  1.00  0.00     0.277 HD
HETATM   12  C12 UNL     1     -38.112  20.729 106.646  1.00  0.00     0.200 C 
HETATM   13  C16 UNL     1     -39.007  18.531 107.287  1.00  0.00     0.020 C 
ENDROOT
BRANCH   1  14
HETATM   14  N2  UNL     1     -37.014  15.356 107.195  1.00  0.00    -0.354 N 
HETATM   15  C3  UNL     1     -35.929  14.811 107.886  1.00  0.00     0.243 C 
HETATM   16  O3  UNL     1     -35.071  15.558 108.389  1.00  0.00    -0.272 OA
ATOM     17  H2  UNL     1     -37.688  14.699 106.801  1.00  0.00     0.162 HD
BRANCH  15  18
HETATM   18  C2  UNL     1     -35.728  13.322 108.065  1.00  0.00     0.163 C 
HETATM   19  C17 UNL     1     -34.584  13.072 109.027  1.00  0.00     0.037 C 
HETATM   20  C18 UNL     1     -35.251  12.682 110.320  1.00  0.00     0.002 C 
HETATM   21  C19 UNL     1     -36.632  12.220 110.012  1.00  0.00     0.002 C 
HETATM   22  C20 UNL     1     -36.965  12.770 108.664  1.00  0.00     0.037 C 
BRANCH  18  23
HETATM   23  S1  UNL     1     -35.290  12.684 106.477  1.00  0.00     0.243 S 
HETATM   24  O1  UNL     1     -36.530  12.614 105.601  1.00  0.00    -0.205 OA
HETATM   25  O2  UNL     1     -34.428  13.775 105.828  1.00  0.00    -0.205 OA
BRANCH  23  26
HETATM   26  N1  UNL     1     -34.468  11.221 106.474  1.00  0.00    -0.323 N 
HETATM   27  C1  UNL     1     -35.295  10.074 106.669  1.00  0.00     0.159 C 
ATOM     28  H1  UNL     1     -33.459  11.156 106.343  1.00  0.00     0.171 HD
ENDBRANCH  23  26
ENDBRANCH  18  23
ENDBRANCH  15  18
ENDBRANCH   1  14
BRANCH  12  29
HETATM   29  C13 UNL     1     -36.733  21.050 107.110  1.00  0.00     0.017 A 
HETATM   30  C14 UNL     1     -36.410  21.593 108.423  1.00  0.00     0.007 A 
HETATM   31  C15 UNL     1     -36.485  22.562 107.304  1.00  0.00     0.007 A 
ENDBRANCH  12  29
TORSDOF 5
ENDMDL
