MODEL 1
REMARK VINA RESULT: -9.186375141      0.000      0.000
REMARK  9 active torsions:
REMARK  status: ('A' for Active; 'I' for Inactive)
REMARK    1  A    between atoms: C1_4  and  O1_5 
REMARK    2  A    between atoms: C1_4  and  C2_7 
REMARK    3  A    between atoms: N2_9  and  C4_10 
REMARK    4  A    between atoms: C4_10  and  O2_11 
REMARK    5  A    between atoms: C4_10  and  C5_13 
REMARK    6  A    between atoms: N3_21  and  C13_22 
REMARK    7  A    between atoms: C13_22  and  C14_23 
REMARK    8  A    between atoms: C14_23  and  N4_24 
REMARK       I    between atoms: N4_24  and  C15_26 
REMARK    9  A    between atoms: C15_26  and  C16_28 
ROOT
HETATM    1  C2  UNL     1     -38.533  19.476 105.399  1.00  0.00     0.171 C 
HETATM    2  C3  UNL     1     -37.290  19.568 106.277  1.00  0.00     0.158 C 
HETATM    3  N2  UNL     1     -37.258  20.833 106.915  1.00  0.00    -0.361 N 
HETATM    4  C11 UNL     1     -38.417  21.147 107.767  1.00  0.00     0.144 C 
HETATM    5  C12 UNL     1     -39.681  20.716 107.105  1.00  0.00     0.137 C 
HETATM    6  N3  UNL     1     -39.538  20.410 105.722  1.00  0.00    -0.397 N 
ENDROOT
BRANCH   6   7
HETATM    7  C13 UNL     1     -39.548  21.506 104.817  1.00  0.00     0.137 C 
BRANCH   7   8
HETATM    8  C14 UNL     1     -39.509  21.101 103.361  1.00  0.00     0.142 C 
BRANCH   8   9
HETATM    9  N4  UNL     1     -40.370  21.879 102.516  1.00  0.00    -0.359 N 
HETATM   10  C15 UNL     1     -41.018  21.420 101.359  1.00  0.00     0.222 C 
HETATM   11  O3  UNL     1     -40.890  20.235 100.947  1.00  0.00    -0.273 OA
ATOM     12  H4  UNL     1     -40.525  22.852 102.781  1.00  0.00     0.162 HD
BRANCH  10  13
HETATM   13  C16 UNL     1     -41.877  22.353 100.598  1.00  0.00     0.082 C 
HETATM   14  C17 UNL     1     -41.654  23.799 100.990  1.00  0.00     0.019 C 
HETATM   15  C18 UNL     1     -41.649  24.467  99.619  1.00  0.00    -0.013 C 
HETATM   16  C19 UNL     1     -42.958  24.198  98.966  1.00  0.00     0.005 C 
HETATM   17  C22 UNL     1     -40.736  23.469  98.883  1.00  0.00     0.010 C 
HETATM   18  C20 UNL     1     -42.910  22.757  98.436  1.00  0.00     0.006 C 
HETATM   19  C21 UNL     1     -41.656  22.256  99.110  1.00  0.00    -0.001 C 
ENDBRANCH  10  13
ENDBRANCH   8   9
ENDBRANCH   7   8
ENDBRANCH   6   7
BRANCH   1  20
HETATM   20  C1  UNL     1     -39.023  18.073 105.320  1.00  0.00     0.133 C 
HETATM   21  N1  UNL     1     -39.006  17.267 106.323  1.00  0.00    -0.382 N 
ATOM     22  H12 UNL     1     -39.342  16.306 106.269  1.00  0.00     0.158 HD
ATOM     23  H11 UNL     1     -38.647  17.583 107.223  1.00  0.00     0.158 HD
BRANCH  20  24
HETATM   24  O1  UNL     1     -39.511  17.644 104.096  1.00  0.00    -0.348 OA
ATOM     25  H1  UNL     1     -40.064  18.218 103.579  1.00  0.00     0.219 HD
ENDBRANCH  20  24
ENDBRANCH   1  20
BRANCH   3  26
HETATM   26  C4  UNL     1     -36.228  21.760 106.816  1.00  0.00     0.117 C 
BRANCH  26  27
HETATM   27  O2  UNL     1     -35.024  21.246 106.835  1.00  0.00    -0.349 OA
ATOM     28  H2  UNL     1     -34.333  21.861 107.053  1.00  0.00     0.219 HD
ENDBRANCH  26  27
BRANCH  26  29
HETATM   29  C5  UNL     1     -36.243  23.214 106.694  1.00  0.00     0.060 C 
HETATM   30  C6  UNL     1     -36.602  23.854 108.007  1.00  0.00     0.013 C 
HETATM   31  C7  UNL     1     -37.531  25.032 107.768  1.00  0.00     0.001 C 
HETATM   32  C8  UNL     1     -36.848  25.945 106.762  1.00  0.00     0.000 C 
HETATM   33  C9  UNL     1     -36.847  25.261 105.403  1.00  0.00     0.001 C 
HETATM   34  C10 UNL     1     -37.100  23.761 105.585  1.00  0.00     0.013 C 
ENDBRANCH  26  29
ENDBRANCH   3  26
TORSDOF 9
ENDMDL
MODEL 2
REMARK VINA RESULT: -9.135338772      1.207      1.272
REMARK  9 active torsions:
REMARK  status: ('A' for Active; 'I' for Inactive)
REMARK    1  A    between atoms: C1_4  and  O1_5 
REMARK    2  A    between atoms: C1_4  and  C2_7 
REMARK    3  A    between atoms: N2_9  and  C4_10 
REMARK    4  A    between atoms: C4_10  and  O2_11 
REMARK    5  A    between atoms: C4_10  and  C5_13 
REMARK    6  A    between atoms: N3_21  and  C13_22 
REMARK    7  A    between atoms: C13_22  and  C14_23 
REMARK    8  A    between atoms: C14_23  and  N4_24 
REMARK       I    between atoms: N4_24  and  C15_26 
REMARK    9  A    between atoms: C15_26  and  C16_28 
ROOT
HETATM    1  C2  UNL     1     -38.407  19.327 106.090  1.00  0.00     0.171 C 
HETATM    2  C3  UNL     1     -37.044  19.576 106.726  1.00  0.00     0.158 C 
HETATM    3  N2  UNL     1     -36.995  20.902 107.225  1.00  0.00    -0.361 N 
HETATM    4  C11 UNL     1     -38.015  21.244 108.230  1.00  0.00     0.144 C 
HETATM    5  C12 UNL     1     -39.338  20.680 107.840  1.00  0.00     0.137 C 
HETATM    6  N3  UNL     1     -39.406  20.236 106.490  1.00  0.00    -0.397 N 
ENDROOT
BRANCH   6   7
HETATM    7  C13 UNL     1     -39.643  21.228 105.499  1.00  0.00     0.137 C 
BRANCH   7   8
HETATM    8  C14 UNL     1     -39.113  20.867 104.129  1.00  0.00     0.142 C 
BRANCH   8   9
HETATM    9  N4  UNL     1     -40.053  21.077 103.066  1.00  0.00    -0.359 N 
HETATM   10  C15 UNL     1     -40.339  22.306 102.452  1.00  0.00     0.222 C 
HETATM   11  O3  UNL     1     -39.768  23.375 102.802  1.00  0.00    -0.273 OA
ATOM     12  H4  UNL     1     -40.559  20.259 102.726  1.00  0.00     0.162 HD
BRANCH  10  13
HETATM   13  C16 UNL     1     -41.338  22.351 101.364  1.00  0.00     0.082 C 
HETATM   14  C17 UNL     1     -41.782  23.764 101.041  1.00  0.00     0.019 C 
HETATM   15  C18 UNL     1     -41.786  23.718  99.516  1.00  0.00    -0.013 C 
HETATM   16  C19 UNL     1     -42.736  22.658  99.085  1.00  0.00     0.005 C 
HETATM   17  C22 UNL     1     -40.433  23.013  99.306  1.00  0.00     0.010 C 
HETATM   18  C20 UNL     1     -42.024  21.310  99.279  1.00  0.00     0.006 C 
HETATM   19  C21 UNL     1     -40.824  21.744 100.084  1.00  0.00    -0.001 C 
ENDBRANCH  10  13
ENDBRANCH   8   9
ENDBRANCH   7   8
ENDBRANCH   6   7
BRANCH   1  20
HETATM   20  C1  UNL     1     -38.804  17.900 106.231  1.00  0.00     0.133 C 
HETATM   21  N1  UNL     1     -39.230  17.189 105.247  1.00  0.00    -0.382 N 
ATOM     22  H12 UNL     1     -39.502  16.211 105.344  1.00  0.00     0.158 HD
ATOM     23  H11 UNL     1     -39.307  17.602 104.318  1.00  0.00     0.158 HD
BRANCH  20  24
HETATM   24  O1  UNL     1     -38.699  17.339 107.494  1.00  0.00    -0.348 OA
ATOM     25  H1  UNL     1     -38.988  17.828 108.255  1.00  0.00     0.219 HD
ENDBRANCH  20  24
ENDBRANCH   1  20
BRANCH   3  26
HETATM   26  C4  UNL     1     -36.063  21.866 106.862  1.00  0.00     0.117 C 
BRANCH  26  27
HETATM   27  O2  UNL     1     -34.840  21.419 106.716  1.00  0.00    -0.349 OA
ATOM     28  H2  UNL     1     -34.464  21.563 105.856  1.00  0.00     0.219 HD
ENDBRANCH  26  27
BRANCH  26  29
HETATM   29  C5  UNL     1     -36.197  23.296 106.610  1.00  0.00     0.060 C 
HETATM   30  C6  UNL     1     -36.305  24.057 107.903  1.00  0.00     0.013 C 
HETATM   31  C7  UNL     1     -37.338  25.162 107.766  1.00  0.00     0.001 C 
HETATM   32  C8  UNL     1     -36.949  25.991 106.553  1.00  0.00     0.000 C 
HETATM   33  C9  UNL     1     -37.198  25.168 105.298  1.00  0.00     0.001 C 
HETATM   34  C10 UNL     1     -37.308  23.685 105.671  1.00  0.00     0.013 C 
ENDBRANCH  26  29
ENDBRANCH   3  26
TORSDOF 9
ENDMDL
MODEL 3
REMARK VINA RESULT: -8.640073654      0.749      1.239
REMARK  9 active torsions:
REMARK  status: ('A' for Active; 'I' for Inactive)
REMARK    1  A    between atoms: C1_4  and  O1_5 
REMARK    2  A    between atoms: C1_4  and  C2_7 
REMARK    3  A    between atoms: N2_9  and  C4_10 
REMARK    4  A    between atoms: C4_10  and  O2_11 
REMARK    5  A    between atoms: C4_10  and  C5_13 
REMARK    6  A    between atoms: N3_21  and  C13_22 
REMARK    7  A    between atoms: C13_22  and  C14_23 
REMARK    8  A    between atoms: C14_23  and  N4_24 
REMARK       I    between atoms: N4_24  and  C15_26 
REMARK    9  A    between atoms: C15_26  and  C16_28 
ROOT
HETATM    1  C2  UNL     1     -38.488  19.407 105.068  1.00  0.00     0.171 C 
HETATM    2  C3  UNL     1     -37.525  19.564 106.239  1.00  0.00     0.158 C 
HETATM    3  N2  UNL     1     -37.567  20.901 106.706  1.00  0.00    -0.361 N 
HETATM    4  C11 UNL     1     -38.885  21.377 107.159  1.00  0.00     0.144 C 
HETATM    5  C12 UNL     1     -39.953  20.915 106.228  1.00  0.00     0.137 C 
HETATM    6  N3  UNL     1     -39.467  20.418 104.986  1.00  0.00    -0.397 N 
ENDROOT
BRANCH   6   7
HETATM    7  C13 UNL     1     -39.146  21.380 103.990  1.00  0.00     0.137 C 
BRANCH   7   8
HETATM    8  C14 UNL     1     -40.266  22.350 103.689  1.00  0.00     0.142 C 
BRANCH   8   9
HETATM    9  N4  UNL     1     -40.365  22.717 102.305  1.00  0.00    -0.359 N 
HETATM   10  C15 UNL     1     -41.248  22.158 101.368  1.00  0.00     0.222 C 
HETATM   11  O3  UNL     1     -42.062  21.246 101.680  1.00  0.00    -0.273 OA
ATOM     12  H4  UNL     1     -39.737  23.448 101.973  1.00  0.00     0.162 HD
BRANCH  10  13
HETATM   13  C16 UNL     1     -41.224  22.651  99.975  1.00  0.00     0.082 C 
HETATM   14  C17 UNL     1     -42.278  21.993  99.108  1.00  0.00     0.019 C 
HETATM   15  C18 UNL     1     -42.801  23.199  98.333  1.00  0.00    -0.013 C 
HETATM   16  C19 UNL     1     -41.665  23.796  97.581  1.00  0.00     0.005 C 
HETATM   17  C22 UNL     1     -42.933  24.185  99.509  1.00  0.00     0.010 C 
HETATM   18  C20 UNL     1     -40.834  24.607  98.587  1.00  0.00     0.006 C 
HETATM   19  C21 UNL     1     -41.441  24.140  99.887  1.00  0.00    -0.001 C 
ENDBRANCH  10  13
ENDBRANCH   8   9
ENDBRANCH   7   8
ENDBRANCH   6   7
BRANCH   1  20
HETATM   20  C1  UNL     1     -39.047  18.028 105.023  1.00  0.00     0.133 C 
HETATM   21  N1  UNL     1     -39.111  17.263 106.056  1.00  0.00    -0.382 N 
ATOM     22  H12 UNL     1     -39.494  16.319 106.025  1.00  0.00     0.158 HD
ATOM     23  H11 UNL     1     -38.771  17.597 106.958  1.00  0.00     0.158 HD
BRANCH  20  24
HETATM   24  O1  UNL     1     -39.509  17.575 103.798  1.00  0.00    -0.348 OA
ATOM     25  H1  UNL     1     -39.235  18.007 102.998  1.00  0.00     0.219 HD
ENDBRANCH  20  24
ENDBRANCH   1  20
BRANCH   3  26
HETATM   26  C4  UNL     1     -36.480  21.761 106.788  1.00  0.00     0.117 C 
BRANCH  26  27
HETATM   27  O2  UNL     1     -35.324  21.169 106.955  1.00  0.00    -0.349 OA
ATOM     28  H2  UNL     1     -34.594  21.758 107.109  1.00  0.00     0.219 HD
ENDBRANCH  26  27
BRANCH  26  29
HETATM   29  C5  UNL     1     -36.389  23.215 106.721  1.00  0.00     0.060 C 
HETATM   30  C6  UNL     1     -36.869  23.838 108.003  1.00  0.00     0.013 C 
HETATM   31  C7  UNL     1     -37.686  25.082 107.698  1.00  0.00     0.001 C 
HETATM   32  C8  UNL     1     -36.828  25.977 106.818  1.00  0.00     0.000 C 
HETATM   33  C9  UNL     1     -36.700  25.337 105.445  1.00  0.00     0.001 C 
HETATM   34  C10 UNL     1     -37.066  23.851 105.536  1.00  0.00     0.013 C 
ENDBRANCH  26  29
ENDBRANCH   3  26
TORSDOF 9
ENDMDL
MODEL 4
REMARK VINA RESULT: -8.373094649      4.230      9.111
REMARK  9 active torsions:
REMARK  status: ('A' for Active; 'I' for Inactive)
REMARK    1  A    between atoms: C1_4  and  O1_5 
REMARK    2  A    between atoms: C1_4  and  C2_7 
REMARK    3  A    between atoms: N2_9  and  C4_10 
REMARK    4  A    between atoms: C4_10  and  O2_11 
REMARK    5  A    between atoms: C4_10  and  C5_13 
REMARK    6  A    between atoms: N3_21  and  C13_22 
REMARK    7  A    between atoms: C13_22  and  C14_23 
REMARK    8  A    between atoms: C14_23  and  N4_24 
REMARK       I    between atoms: N4_24  and  C15_26 
REMARK    9  A    between atoms: C15_26  and  C16_28 
ROOT
HETATM    1  C2  UNL     1     -37.066  23.421 106.359  1.00  0.00     0.171 C 
HETATM    2  C3  UNL     1     -38.436  22.826 106.057  1.00  0.00     0.158 C 
HETATM    3  N2  UNL     1     -38.459  21.468 106.462  1.00  0.00    -0.361 N 
HETATM    4  C11 UNL     1     -38.181  21.223 107.887  1.00  0.00     0.144 C 
HETATM    5  C12 UNL     1     -37.061  22.086 108.355  1.00  0.00     0.137 C 
HETATM    6  N3  UNL     1     -36.316  22.692 107.305  1.00  0.00    -0.397 N 
ENDROOT
BRANCH   6   7
HETATM    7  C13 UNL     1     -35.317  21.895 106.682  1.00  0.00     0.137 C 
BRANCH   7   8
HETATM    8  C14 UNL     1     -34.578  20.982 107.634  1.00  0.00     0.142 C 
BRANCH   8   9
HETATM    9  N4  UNL     1     -34.266  19.694 107.083  1.00  0.00    -0.359 N 
HETATM   10  C15 UNL     1     -33.525  18.686 107.718  1.00  0.00     0.222 C 
HETATM   11  O3  UNL     1     -33.049  18.837 108.877  1.00  0.00    -0.273 OA
ATOM     12  H4  UNL     1     -34.615  19.493 106.145  1.00  0.00     0.162 HD
BRANCH  10  13
HETATM   13  C16 UNL     1     -33.294  17.408 107.010  1.00  0.00     0.082 C 
HETATM   14  C17 UNL     1     -31.960  17.376 106.292  1.00  0.00     0.019 C 
HETATM   15  C18 UNL     1     -31.485  15.968 106.639  1.00  0.00    -0.013 C 
HETATM   16  C19 UNL     1     -32.489  14.999 106.124  1.00  0.00     0.005 C 
HETATM   17  C22 UNL     1     -31.822  15.979 108.142  1.00  0.00     0.010 C 
HETATM   18  C20 UNL     1     -33.671  15.010 107.105  1.00  0.00     0.006 C 
HETATM   19  C21 UNL     1     -33.328  16.221 107.938  1.00  0.00    -0.001 C 
ENDBRANCH  10  13
ENDBRANCH   8   9
ENDBRANCH   7   8
ENDBRANCH   6   7
BRANCH   1  20
HETATM   20  C1  UNL     1     -37.176  24.872 106.672  1.00  0.00     0.133 C 
HETATM   21  N1  UNL     1     -37.514  25.316 107.830  1.00  0.00    -0.382 N 
ATOM     22  H12 UNL     1     -37.590  26.310 108.045  1.00  0.00     0.158 HD
ATOM     23  H11 UNL     1     -37.720  24.662 108.586  1.00  0.00     0.158 HD
BRANCH  20  24
HETATM   24  O1  UNL     1     -36.896  25.760 105.646  1.00  0.00    -0.348 OA
ATOM     25  H1  UNL     1     -37.298  26.620 105.641  1.00  0.00     0.219 HD
ENDBRANCH  20  24
ENDBRANCH   1  20
BRANCH   3  26
HETATM   26  C4  UNL     1     -38.740  20.385 105.639  1.00  0.00     0.117 C 
BRANCH  26  27
HETATM   27  O2  UNL     1     -39.491  20.665 104.603  1.00  0.00    -0.349 OA
ATOM     28  H2  UNL     1     -40.355  20.997 104.816  1.00  0.00     0.219 HD
ENDBRANCH  26  27
BRANCH  26  29
HETATM   29  C5  UNL     1     -38.348  18.982 105.717  1.00  0.00     0.060 C 
HETATM   30  C6  UNL     1     -38.560  18.296 104.394  1.00  0.00     0.013 C 
HETATM   31  C7  UNL     1     -39.119  16.902 104.621  1.00  0.00     0.001 C 
HETATM   32  C8  UNL     1     -38.178  16.192 105.581  1.00  0.00     0.000 C 
HETATM   33  C9  UNL     1     -38.321  16.819 106.960  1.00  0.00     0.001 C 
HETATM   34  C10 UNL     1     -38.984  18.195 106.830  1.00  0.00     0.013 C 
ENDBRANCH  26  29
ENDBRANCH   3  26
TORSDOF 9
ENDMDL
MODEL 5
REMARK VINA RESULT: -8.160559254      9.824     13.112
REMARK  9 active torsions:
REMARK  status: ('A' for Active; 'I' for Inactive)
REMARK    1  A    between atoms: C1_4  and  O1_5 
REMARK    2  A    between atoms: C1_4  and  C2_7 
REMARK    3  A    between atoms: N2_9  and  C4_10 
REMARK    4  A    between atoms: C4_10  and  O2_11 
REMARK    5  A    between atoms: C4_10  and  C5_13 
REMARK    6  A    between atoms: N3_21  and  C13_22 
REMARK    7  A    between atoms: C13_22  and  C14_23 
REMARK    8  A    between atoms: C14_23  and  N4_24 
REMARK       I    between atoms: N4_24  and  C15_26 
REMARK    9  A    between atoms: C15_26  and  C16_28 
ROOT
HETATM    1  C2  UNL     1     -36.379  22.210  92.649  1.00  0.00     0.171 C 
HETATM    2  C3  UNL     1     -35.400  21.099  92.287  1.00  0.00     0.158 C 
HETATM    3  N2  UNL     1     -36.092  20.067  91.606  1.00  0.00    -0.361 N 
HETATM    4  C11 UNL     1     -36.774  20.469  90.364  1.00  0.00     0.144 C 
HETATM    5  C12 UNL     1     -37.455  21.782  90.546  1.00  0.00     0.137 C 
HETATM    6  N3  UNL     1     -37.575  22.191  91.903  1.00  0.00    -0.397 N 
ENDROOT
BRANCH   6   7
HETATM    7  C13 UNL     1     -38.651  21.637  92.649  1.00  0.00     0.137 C 
BRANCH   7   8
HETATM    8  C14 UNL     1     -39.999  22.238  92.323  1.00  0.00     0.142 C 
BRANCH   8   9
HETATM    9  N4  UNL     1     -40.614  22.922  93.425  1.00  0.00    -0.359 N 
HETATM   10  C15 UNL     1     -40.068  24.009  94.125  1.00  0.00     0.222 C 
HETATM   11  O3  UNL     1     -38.941  24.495  93.831  1.00  0.00    -0.273 OA
ATOM     12  H4  UNL     1     -41.529  22.588  93.726  1.00  0.00     0.162 HD
BRANCH  10  13
HETATM   13  C16 UNL     1     -40.835  24.605  95.241  1.00  0.00     0.082 C 
HETATM   14  C17 UNL     1     -41.242  26.038  94.965  1.00  0.00     0.019 C 
HETATM   15  C18 UNL     1     -42.680  26.026  95.473  1.00  0.00    -0.013 C 
HETATM   16  C19 UNL     1     -42.663  25.654  96.912  1.00  0.00     0.005 C 
HETATM   17  C22 UNL     1     -43.139  24.705  94.826  1.00  0.00     0.010 C 
HETATM   18  C20 UNL     1     -42.462  24.132  96.982  1.00  0.00     0.006 C 
HETATM   19  C21 UNL     1     -42.094  23.836  95.548  1.00  0.00    -0.001 C 
ENDBRANCH  10  13
ENDBRANCH   8   9
ENDBRANCH   7   8
ENDBRANCH   6   7
BRANCH   1  20
HETATM   20  C1  UNL     1     -35.698  23.534  92.656  1.00  0.00     0.133 C 
HETATM   21  N1  UNL     1     -34.704  23.815  91.890  1.00  0.00    -0.382 N 
ATOM     22  H12 UNL     1     -34.237  24.721  91.894  1.00  0.00     0.158 HD
ATOM     23  H11 UNL     1     -34.349  23.114  91.239  1.00  0.00     0.158 HD
BRANCH  20  24
HETATM   24  O1  UNL     1     -36.181  24.486  93.540  1.00  0.00    -0.348 OA
ATOM     25  H1  UNL     1     -37.116  24.625  93.622  1.00  0.00     0.219 HD
ENDBRANCH  20  24
ENDBRANCH   1  20
BRANCH   3  26
HETATM   26  C4  UNL     1     -36.150  18.737  92.001  1.00  0.00     0.117 C 
BRANCH  26  27
HETATM   27  O2  UNL     1     -37.169  18.437  92.768  1.00  0.00    -0.349 OA
ATOM     28  H2  UNL     1     -37.650  17.661  92.505  1.00  0.00     0.219 HD
ENDBRANCH  26  27
BRANCH  26  29
HETATM   29  C5  UNL     1     -35.278  17.603  91.717  1.00  0.00     0.060 C 
HETATM   30  C6  UNL     1     -33.893  17.849  92.253  1.00  0.00     0.013 C 
HETATM   31  C7  UNL     1     -32.860  17.346  91.259  1.00  0.00     0.001 C 
HETATM   32  C8  UNL     1     -33.195  15.894  90.960  1.00  0.00     0.000 C 
HETATM   33  C9  UNL     1     -34.474  15.846  90.138  1.00  0.00     0.001 C 
HETATM   34  C10 UNL     1     -35.220  17.178  90.274  1.00  0.00     0.013 C 
ENDBRANCH  26  29
ENDBRANCH   3  26
TORSDOF 9
ENDMDL
