MODEL 1
REMARK VINA RESULT: -10.672362982      0.000      0.000
REMARK  8 active torsions:
REMARK  status: ('A' for Active; 'I' for Inactive)
REMARK    1  A    between atoms: N1_1  and  C1_5 
REMARK    2  A    between atoms: C1_5  and  C2_6 
REMARK    3  A    between atoms: C2_6  and  C3_7 
REMARK    4  A    between atoms: C3_7  and  C4_8 
REMARK    5  A    between atoms: C4_8  and  N2_9 
REMARK    6  A    between atoms: C4_8  and  C28_42 
REMARK       I    between atoms: N2_9  and  C5_11 
REMARK    7  A    between atoms: C5_11  and  C6_13 
REMARK    8  A    between atoms: C6_13  and  C7_15 
REMARK       I    between atoms: C7_15  and  N3_17 
ROOT
HETATM    1  C6  UNL     1      39.993  56.772 135.817  1.00  0.00     0.306 C 
HETATM    2  O2  UNL     1      40.367  56.636 134.643  1.00  0.00    -0.276 OA
ENDROOT
BRANCH   1   3
HETATM    3  C5  UNL     1      40.802  57.604 136.713  1.00  0.00     0.297 C 
HETATM    4  N2  UNL     1      40.274  58.764 137.313  1.00  0.00    -0.347 N 
ATOM      5  H2  UNL     1      39.297  58.952 137.088  1.00  0.00     0.163 HD
HETATM    6  O1  UNL     1      41.979  57.252 136.930  1.00  0.00    -0.264 OA
BRANCH   4   7
HETATM    7  C4  UNL     1      40.881  59.724 138.186  1.00  0.00     0.115 C 
BRANCH   7   8
HETATM    8  C3  UNL     1      41.057  61.003 137.439  1.00  0.00     0.029 C 
BRANCH   8   9
HETATM    9  C2  UNL     1      42.457  61.087 136.815  1.00  0.00     0.029 C 
BRANCH   9  10
HETATM   10  C1  UNL     1      43.491  60.960 137.938  1.00  0.00     0.230 C 
BRANCH  10  11
HETATM   11  N1  UNL     1      43.915  59.590 138.090  1.00  0.00    -0.079 N 
ATOM     12  H13 UNL     1      43.161  58.997 138.436  1.00  0.00     0.274 HD
ATOM     13  H12 UNL     1      44.063  59.139 137.187  1.00  0.00     0.274 HD
ATOM     14  H11 UNL     1      44.744  59.532 138.682  1.00  0.00     0.274 HD
ENDBRANCH  10  11
ENDBRANCH   9  10
ENDBRANCH   8   9
ENDBRANCH   7   8
BRANCH   7  15
HETATM   15  C28 UNL     1      40.101  59.936 139.445  1.00  0.00     0.177 C 
HETATM   16  N5  UNL     1      38.973  59.006 139.579  1.00  0.00    -0.347 N 
HETATM   17  C29 UNL     1      38.395  58.752 140.857  1.00  0.00     0.223 C 
ATOM     18  H5  UNL     1      38.600  58.539 138.752  1.00  0.00     0.163 HD
HETATM   19  O5  UNL     1      37.195  58.384 140.882  1.00  0.00    -0.273 OA
HETATM   20  C30 UNL     1      39.133  58.900 142.111  1.00  0.00     0.089 C 
HETATM   21  C31 UNL     1      38.332  59.419 143.272  1.00  0.00     0.015 C 
HETATM   22  C35 UNL     1      40.333  59.851 141.970  1.00  0.00     0.070 C 
HETATM   23  C32 UNL     1      39.186  59.180 144.527  1.00  0.00     0.001 C 
HETATM   24  C33 UNL     1      40.494  59.928 144.377  1.00  0.00     0.001 C 
HETATM   25  C34 UNL     1      41.254  59.487 143.119  1.00  0.00     0.013 C 
HETATM   26  C36 UNL     1      40.932  59.598 140.661  1.00  0.00     0.156 C 
HETATM   27  O6  UNL     1      42.019  59.149 140.530  1.00  0.00    -0.295 OA
ENDBRANCH   7  15
ENDBRANCH   4   7
ENDBRANCH   1   3
BRANCH   1  28
HETATM   28  C7  UNL     1      38.800  56.134 136.298  1.00  0.00     0.302 C 
HETATM   29  O3  UNL     1      37.784  56.822 136.587  1.00  0.00    -0.263 OA
HETATM   30  N3  UNL     1      38.784  54.739 136.440  1.00  0.00    -0.309 N 
HETATM   31  C8  UNL     1      38.345  53.904 135.514  1.00  0.00     0.086 C 
ATOM     32  H3  UNL     1      39.133  54.343 137.314  1.00  0.00     0.170 HD
HETATM   33  C9  UNL     1      37.852  54.538 134.274  1.00  0.00     0.076 C 
HETATM   34  N4  UNL     1      38.400  52.533 135.803  1.00  0.00    -0.317 N 
HETATM   35  C10 UNL     1      38.741  54.353 133.082  1.00  0.00     0.008 C 
HETATM   36  C11 UNL     1      37.980  54.932 131.883  1.00  0.00     0.004 C 
HETATM   37  C12 UNL     1      37.613  53.842 130.927  1.00  0.00     0.027 C 
HETATM   38  C13 UNL     1      38.759  53.292 130.186  1.00  0.00    -0.031 C 
HETATM   39  C14 UNL     1      38.546  52.398 129.229  1.00  0.00    -0.031 C 
HETATM   40  C15 UNL     1      37.199  51.923 128.867  1.00  0.00     0.027 C 
HETATM   41  C16 UNL     1      37.343  50.560 128.191  1.00  0.00     0.004 C 
HETATM   42  C17 UNL     1      36.097  50.100 127.522  1.00  0.00     0.000 C 
HETATM   43  C18 UNL     1      35.269  49.115 128.290  1.00  0.00     0.000 C 
HETATM   44  C19 UNL     1      35.967  47.835 128.582  1.00  0.00     0.000 C 
HETATM   45  C20 UNL     1      35.310  46.940 129.569  1.00  0.00     0.000 C 
HETATM   46  C21 UNL     1      34.943  47.531 130.877  1.00  0.00     0.000 C 
HETATM   47  C22 UNL     1      35.921  47.180 132.005  1.00  0.00     0.000 C 
HETATM   48  C23 UNL     1      36.111  48.387 132.935  1.00  0.00     0.000 C 
HETATM   49  C24 UNL     1      36.649  49.544 132.113  1.00  0.00     0.000 C 
HETATM   50  C25 UNL     1      37.730  50.278 132.860  1.00  0.00     0.009 C 
HETATM   51  C26 UNL     1      37.193  51.079 134.031  1.00  0.00     0.103 C 
HETATM   52  C27 UNL     1      38.313  51.425 134.939  1.00  0.00     0.223 C 
HETATM   53  O4  UNL     1      39.306  50.607 134.923  1.00  0.00    -0.273 OA
ATOM     54  H4  UNL     1      38.521  52.304 136.789  1.00  0.00     0.170 HD
ENDBRANCH   1  28
TORSDOF 8
ENDMDL
MODEL 2
REMARK VINA RESULT: -10.551553854      1.702      3.305
REMARK  8 active torsions:
REMARK  status: ('A' for Active; 'I' for Inactive)
REMARK    1  A    between atoms: N1_1  and  C1_5 
REMARK    2  A    between atoms: C1_5  and  C2_6 
REMARK    3  A    between atoms: C2_6  and  C3_7 
REMARK    4  A    between atoms: C3_7  and  C4_8 
REMARK    5  A    between atoms: C4_8  and  N2_9 
REMARK    6  A    between atoms: C4_8  and  C28_42 
REMARK       I    between atoms: N2_9  and  C5_11 
REMARK    7  A    between atoms: C5_11  and  C6_13 
REMARK    8  A    between atoms: C6_13  and  C7_15 
REMARK       I    between atoms: C7_15  and  N3_17 
ROOT
HETATM    1  C6  UNL     1      38.576  56.988 135.917  1.00  0.00     0.306 C 
HETATM    2  O2  UNL     1      37.394  56.759 136.216  1.00  0.00    -0.276 OA
ENDROOT
BRANCH   1   3
HETATM    3  C5  UNL     1      39.467  57.513 136.955  1.00  0.00     0.297 C 
HETATM    4  N2  UNL     1      39.799  58.881 137.015  1.00  0.00    -0.347 N 
ATOM      5  H2  UNL     1      39.354  59.458 136.300  1.00  0.00     0.163 HD
HETATM    6  O1  UNL     1      39.927  56.707 137.790  1.00  0.00    -0.264 OA
BRANCH   4   7
HETATM    7  C4  UNL     1      40.656  59.596 137.911  1.00  0.00     0.115 C 
BRANCH   7   8
HETATM    8  C3  UNL     1      41.127  60.838 137.230  1.00  0.00     0.029 C 
BRANCH   8   9
HETATM    9  C2  UNL     1      42.600  60.713 136.816  1.00  0.00     0.029 C 
BRANCH   9  10
HETATM   10  C1  UNL     1      43.470  61.084 138.021  1.00  0.00     0.230 C 
BRANCH  10  11
HETATM   11  N1  UNL     1      44.115  59.915 138.565  1.00  0.00    -0.079 N 
ATOM     12  H13 UNL     1      43.637  59.573 139.398  1.00  0.00     0.274 HD
ATOM     13  H12 UNL     1      43.985  59.098 137.968  1.00  0.00     0.274 HD
ATOM     14  H11 UNL     1      45.103  60.097 138.745  1.00  0.00     0.274 HD
ENDBRANCH  10  11
ENDBRANCH   9  10
ENDBRANCH   8   9
ENDBRANCH   7   8
BRANCH   7  15
HETATM   15  C28 UNL     1      39.995  59.913 139.215  1.00  0.00     0.177 C 
HETATM   16  N5  UNL     1      38.802  59.095 139.462  1.00  0.00    -0.347 N 
HETATM   17  C29 UNL     1      38.301  58.929 140.786  1.00  0.00     0.223 C 
ATOM     18  H5  UNL     1      38.327  58.643 138.680  1.00  0.00     0.163 HD
HETATM   19  O5  UNL     1      37.078  58.675 140.910  1.00  0.00    -0.273 OA
HETATM   20  C30 UNL     1      39.141  59.041 141.977  1.00  0.00     0.089 C 
HETATM   21  C31 UNL     1      38.480  59.662 143.175  1.00  0.00     0.015 C 
HETATM   22  C35 UNL     1      40.408  59.873 141.719  1.00  0.00     0.070 C 
HETATM   23  C32 UNL     1      39.401  59.378 144.373  1.00  0.00     0.001 C 
HETATM   24  C33 UNL     1      40.756  59.997 144.103  1.00  0.00     0.001 C 
HETATM   25  C34 UNL     1      41.377  59.455 142.809  1.00  0.00     0.013 C 
HETATM   26  C36 UNL     1      40.882  59.532 140.378  1.00  0.00     0.156 C 
HETATM   27  O6  UNL     1      41.912  58.981 140.184  1.00  0.00    -0.295 OA
ENDBRANCH   7  15
ENDBRANCH   4   7
ENDBRANCH   1   3
BRANCH   1  28
HETATM   28  C7  UNL     1      39.067  56.749 134.589  1.00  0.00     0.302 C 
HETATM   29  O3  UNL     1      40.291  56.899 134.328  1.00  0.00    -0.263 OA
HETATM   30  N3  UNL     1      38.166  56.349 133.592  1.00  0.00    -0.309 N 
HETATM   31  C8  UNL     1      37.928  55.088 133.270  1.00  0.00     0.086 C 
ATOM     32  H3  UNL     1      37.663  57.075 133.082  1.00  0.00     0.170 HD
HETATM   33  C9  UNL     1      38.688  54.084 134.042  1.00  0.00     0.076 C 
HETATM   34  N4  UNL     1      36.993  54.847 132.253  1.00  0.00    -0.317 N 
HETATM   35  C10 UNL     1      37.870  53.299 135.021  1.00  0.00     0.008 C 
HETATM   36  C11 UNL     1      38.797  52.217 135.588  1.00  0.00     0.004 C 
HETATM   37  C12 UNL     1      38.337  50.861 135.153  1.00  0.00     0.027 C 
HETATM   38  C13 UNL     1      37.095  50.420 135.808  1.00  0.00    -0.031 C 
HETATM   39  C14 UNL     1      36.648  49.190 135.589  1.00  0.00    -0.031 C 
HETATM   40  C15 UNL     1      37.343  48.232 134.711  1.00  0.00     0.027 C 
HETATM   41  C16 UNL     1      36.324  47.195 134.240  1.00  0.00     0.004 C 
HETATM   42  C17 UNL     1      36.947  46.015 133.583  1.00  0.00     0.000 C 
HETATM   43  C18 UNL     1      36.941  46.022 132.085  1.00  0.00     0.000 C 
HETATM   44  C19 UNL     1      35.581  46.041 131.485  1.00  0.00     0.000 C 
HETATM   45  C20 UNL     1      35.511  46.330 130.029  1.00  0.00     0.000 C 
HETATM   46  C21 UNL     1      36.205  47.548 129.547  1.00  0.00     0.000 C 
HETATM   47  C22 UNL     1      35.262  48.729 129.289  1.00  0.00     0.000 C 
HETATM   48  C23 UNL     1      35.932  50.043 129.714  1.00  0.00     0.000 C 
HETATM   49  C24 UNL     1      36.268  49.953 131.191  1.00  0.00     0.000 C 
HETATM   50  C25 UNL     1      35.952  51.245 131.895  1.00  0.00     0.009 C 
HETATM   51  C26 UNL     1      36.909  52.363 131.527  1.00  0.00     0.103 C 
HETATM   52  C27 UNL     1      36.311  53.663 131.916  1.00  0.00     0.223 C 
HETATM   53  O4  UNL     1      35.026  53.691 131.941  1.00  0.00    -0.273 OA
ATOM     54  H4  UNL     1      36.773  55.654 131.668  1.00  0.00     0.170 HD
ENDBRANCH   1  28
TORSDOF 8
ENDMDL
MODEL 3
REMARK VINA RESULT: -10.430130158      2.333      3.227
REMARK  8 active torsions:
REMARK  status: ('A' for Active; 'I' for Inactive)
REMARK    1  A    between atoms: N1_1  and  C1_5 
REMARK    2  A    between atoms: C1_5  and  C2_6 
REMARK    3  A    between atoms: C2_6  and  C3_7 
REMARK    4  A    between atoms: C3_7  and  C4_8 
REMARK    5  A    between atoms: C4_8  and  N2_9 
REMARK    6  A    between atoms: C4_8  and  C28_42 
REMARK       I    between atoms: N2_9  and  C5_11 
REMARK    7  A    between atoms: C5_11  and  C6_13 
REMARK    8  A    between atoms: C6_13  and  C7_15 
REMARK       I    between atoms: C7_15  and  N3_17 
ROOT
HETATM    1  C6  UNL     1      40.653  56.307 136.137  1.00  0.00     0.306 C 
HETATM    2  O2  UNL     1      40.966  55.117 136.289  1.00  0.00    -0.276 OA
ENDROOT
BRANCH   1   3
HETATM    3  C5  UNL     1      41.252  57.304 137.029  1.00  0.00     0.297 C 
HETATM    4  N2  UNL     1      40.580  58.500 137.350  1.00  0.00    -0.347 N 
ATOM      5  H2  UNL     1      39.653  58.592 136.932  1.00  0.00     0.163 HD
HETATM    6  O1  UNL     1      42.382  57.061 137.499  1.00  0.00    -0.264 OA
BRANCH   4   7
HETATM    7  C4  UNL     1      40.979  59.606 138.165  1.00  0.00     0.115 C 
BRANCH   7   8
HETATM    8  C3  UNL     1      41.005  60.836 137.321  1.00  0.00     0.029 C 
BRANCH   8   9
HETATM    9  C2  UNL     1      42.412  61.092 136.765  1.00  0.00     0.029 C 
BRANCH   9  10
HETATM   10  C1  UNL     1      43.402  61.065 137.934  1.00  0.00     0.230 C 
BRANCH  10  11
HETATM   11  N1  UNL     1      43.938  59.739 138.120  1.00  0.00    -0.079 N 
ATOM     12  H13 UNL     1      43.810  59.160 137.289  1.00  0.00     0.274 HD
ATOM     13  H12 UNL     1      44.957  59.744 138.149  1.00  0.00     0.274 HD
ATOM     14  H11 UNL     1      43.538  59.301 138.950  1.00  0.00     0.274 HD
ENDBRANCH  10  11
ENDBRANCH   9  10
ENDBRANCH   8   9
ENDBRANCH   7   8
BRANCH   7  15
HETATM   15  C28 UNL     1      40.101  59.791 139.363  1.00  0.00     0.177 C 
HETATM   16  N5  UNL     1      39.051  58.770 139.461  1.00  0.00    -0.347 N 
HETATM   17  C29 UNL     1      38.412  58.509 140.707  1.00  0.00     0.223 C 
ATOM     18  H5  UNL     1      38.776  58.244 138.630  1.00  0.00     0.163 HD
HETATM   19  O5  UNL     1      37.249  58.038 140.670  1.00  0.00    -0.273 OA
HETATM   20  C30 UNL     1      39.047  58.764 141.999  1.00  0.00     0.089 C 
HETATM   21  C31 UNL     1      38.129  59.249 143.085  1.00  0.00     0.015 C 
HETATM   22  C35 UNL     1      40.168  59.813 141.899  1.00  0.00     0.070 C 
HETATM   23  C32 UNL     1      38.913  59.129 144.401  1.00  0.00     0.001 C 
HETATM   24  C33 UNL     1      40.159  59.984 144.306  1.00  0.00     0.001 C 
HETATM   25  C34 UNL     1      41.038  59.570 143.118  1.00  0.00     0.013 C 
HETATM   26  C36 UNL     1      40.874  59.570 140.642  1.00  0.00     0.156 C 
HETATM   27  O6  UNL     1      42.002  59.214 140.599  1.00  0.00    -0.295 OA
ENDBRANCH   7  15
ENDBRANCH   4   7
ENDBRANCH   1   3
BRANCH   1  28
HETATM   28  C7  UNL     1      39.726  56.709 135.116  1.00  0.00     0.302 C 
HETATM   29  O3  UNL     1      40.145  57.219 134.043  1.00  0.00    -0.263 OA
HETATM   30  N3  UNL     1      38.353  56.525 135.334  1.00  0.00    -0.309 N 
HETATM   31  C8  UNL     1      37.674  55.463 134.933  1.00  0.00     0.086 C 
ATOM     32  H3  UNL     1      37.845  57.257 135.832  1.00  0.00     0.170 HD
HETATM   33  C9  UNL     1      38.464  54.441 134.217  1.00  0.00     0.076 C 
HETATM   34  N4  UNL     1      36.304  55.422 135.232  1.00  0.00    -0.317 N 
HETATM   35  C10 UNL     1      38.701  53.180 134.990  1.00  0.00     0.008 C 
HETATM   36  C11 UNL     1      39.383  52.203 134.024  1.00  0.00     0.004 C 
HETATM   37  C12 UNL     1      38.478  51.049 133.730  1.00  0.00     0.027 C 
HETATM   38  C13 UNL     1      38.313  50.123 134.863  1.00  0.00    -0.031 C 
HETATM   39  C14 UNL     1      37.624  49.002 134.689  1.00  0.00    -0.031 C 
HETATM   40  C15 UNL     1      37.009  48.634 133.402  1.00  0.00     0.027 C 
HETATM   41  C16 UNL     1      35.872  47.653 133.683  1.00  0.00     0.004 C 
HETATM   42  C17 UNL     1      35.355  46.984 132.459  1.00  0.00     0.000 C 
HETATM   43  C18 UNL     1      34.097  47.558 131.883  1.00  0.00     0.000 C 
HETATM   44  C19 UNL     1      32.928  47.497 132.799  1.00  0.00     0.000 C 
HETATM   45  C20 UNL     1      31.739  48.293 132.399  1.00  0.00     0.000 C 
HETATM   46  C21 UNL     1      31.959  49.725 132.087  1.00  0.00     0.000 C 
HETATM   47  C22 UNL     1      31.550  50.670 133.224  1.00  0.00     0.000 C 
HETATM   48  C23 UNL     1      32.541  51.839 133.322  1.00  0.00     0.000 C 
HETATM   49  C24 UNL     1      33.925  51.272 133.582  1.00  0.00     0.000 C 
HETATM   50  C25 UNL     1      34.658  52.091 134.609  1.00  0.00     0.009 C 
HETATM   51  C26 UNL     1      35.080  53.451 134.083  1.00  0.00     0.103 C 
HETATM   52  C27 UNL     1      35.412  54.333 135.227  1.00  0.00     0.223 C 
HETATM   53  O4  UNL     1      34.806  54.059 136.327  1.00  0.00    -0.273 OA
ATOM     54  H4  UNL     1      35.892  56.318 135.493  1.00  0.00     0.170 HD
ENDBRANCH   1  28
TORSDOF 8
ENDMDL
MODEL 4
REMARK VINA RESULT: -10.386947458      2.636      3.565
REMARK  8 active torsions:
REMARK  status: ('A' for Active; 'I' for Inactive)
REMARK    1  A    between atoms: N1_1  and  C1_5 
REMARK    2  A    between atoms: C1_5  and  C2_6 
REMARK    3  A    between atoms: C2_6  and  C3_7 
REMARK    4  A    between atoms: C3_7  and  C4_8 
REMARK    5  A    between atoms: C4_8  and  N2_9 
REMARK    6  A    between atoms: C4_8  and  C28_42 
REMARK       I    between atoms: N2_9  and  C5_11 
REMARK    7  A    between atoms: C5_11  and  C6_13 
REMARK    8  A    between atoms: C6_13  and  C7_15 
REMARK       I    between atoms: C7_15  and  N3_17 
ROOT
HETATM    1  C6  UNL     1      39.753  55.510 136.332  1.00  0.00     0.306 C 
HETATM    2  O2  UNL     1      39.871  54.378 136.825  1.00  0.00    -0.276 OA
ENDROOT
BRANCH   1   3
HETATM    3  C5  UNL     1      40.635  56.575 136.818  1.00  0.00     0.297 C 
HETATM    4  N2  UNL     1      40.117  57.792 137.305  1.00  0.00    -0.347 N 
ATOM      5  H2  UNL     1      39.098  57.850 137.308  1.00  0.00     0.163 HD
HETATM    6  O1  UNL     1      41.866  56.372 136.788  1.00  0.00    -0.264 OA
BRANCH   4   7
HETATM    7  C4  UNL     1      40.782  58.960 137.798  1.00  0.00     0.115 C 
BRANCH   7   8
HETATM    8  C3  UNL     1      40.812  59.984 136.713  1.00  0.00     0.029 C 
BRANCH   8   9
HETATM    9  C2  UNL     1      41.698  61.175 137.106  1.00  0.00     0.029 C 
BRANCH   9  10
HETATM   10  C1  UNL     1      43.155  60.704 137.124  1.00  0.00     0.230 C 
BRANCH  10  11
HETATM   11  N1  UNL     1      43.671  60.687 138.470  1.00  0.00    -0.079 N 
ATOM     12  H13 UNL     1      44.674  60.869 138.492  1.00  0.00     0.274 HD
ATOM     13  H12 UNL     1      43.356  61.496 139.006  1.00  0.00     0.274 HD
ATOM     14  H11 UNL     1      43.436  59.810 138.936  1.00  0.00     0.274 HD
ENDBRANCH  10  11
ENDBRANCH   9  10
ENDBRANCH   8   9
ENDBRANCH   7   8
BRANCH   7  15
HETATM   15  C28 UNL     1      40.150  59.507 139.039  1.00  0.00     0.177 C 
HETATM   16  N5  UNL     1      38.877  58.853 139.365  1.00  0.00    -0.347 N 
HETATM   17  C29 UNL     1      38.355  58.909 140.689  1.00  0.00     0.223 C 
ATOM     18  H5  UNL     1      38.363  58.354 138.638  1.00  0.00     0.163 HD
HETATM   19  O5  UNL     1      37.112  58.799 140.822  1.00  0.00    -0.273 OA
HETATM   20  C30 UNL     1      39.196  59.087 141.872  1.00  0.00     0.089 C 
HETATM   21  C31 UNL     1      38.595  59.920 142.970  1.00  0.00     0.015 C 
HETATM   22  C35 UNL     1      40.543  59.747 141.534  1.00  0.00     0.070 C 
HETATM   23  C32 UNL     1      39.475  59.700 144.210  1.00  0.00     0.001 C 
HETATM   24  C33 UNL     1      40.888  60.139 143.890  1.00  0.00     0.001 C 
HETATM   25  C34 UNL     1      41.457  59.376 142.687  1.00  0.00     0.013 C 
HETATM   26  C36 UNL     1      40.987  59.190 140.257  1.00  0.00     0.156 C 
HETATM   27  O6  UNL     1      41.955  58.517 140.154  1.00  0.00    -0.295 OA
ENDBRANCH   7  15
ENDBRANCH   4   7
ENDBRANCH   1   3
BRANCH   1  28
HETATM   28  C7  UNL     1      38.780  55.782 135.312  1.00  0.00     0.302 C 
HETATM   29  O3  UNL     1      39.133  56.298 134.218  1.00  0.00    -0.263 OA
HETATM   30  N3  UNL     1      37.435  55.464 135.552  1.00  0.00    -0.309 N 
HETATM   31  C8  UNL     1      36.867  54.325 135.193  1.00  0.00     0.086 C 
ATOM     32  H3  UNL     1      36.860  56.155 136.034  1.00  0.00     0.170 HD
HETATM   33  C9  UNL     1      37.751  53.369 134.498  1.00  0.00     0.076 C 
HETATM   34  N4  UNL     1      35.511  54.153 135.511  1.00  0.00    -0.317 N 
HETATM   35  C10 UNL     1      38.125  52.163 135.307  1.00  0.00     0.008 C 
HETATM   36  C11 UNL     1      38.895  51.232 134.363  1.00  0.00     0.004 C 
HETATM   37  C12 UNL     1      38.112  49.982 134.116  1.00  0.00     0.027 C 
HETATM   38  C13 UNL     1      38.054  49.080 135.278  1.00  0.00    -0.031 C 
HETATM   39  C14 UNL     1      37.484  47.890 135.148  1.00  0.00    -0.031 C 
HETATM   40  C15 UNL     1      36.898  47.419 133.880  1.00  0.00     0.027 C 
HETATM   41  C16 UNL     1      35.871  46.335 134.206  1.00  0.00     0.004 C 
HETATM   42  C17 UNL     1      35.415  45.579 133.010  1.00  0.00     0.000 C 
HETATM   43  C18 UNL     1      34.099  46.001 132.432  1.00  0.00     0.000 C 
HETATM   44  C19 UNL     1      32.951  45.848 133.364  1.00  0.00     0.000 C 
HETATM   45  C20 UNL     1      31.682  46.505 132.956  1.00  0.00     0.000 C 
HETATM   46  C21 UNL     1      31.749  47.941 132.598  1.00  0.00     0.000 C 
HETATM   47  C22 UNL     1      31.256  48.874 133.710  1.00  0.00     0.000 C 
HETATM   48  C23 UNL     1      32.121  50.142 133.760  1.00  0.00     0.000 C 
HETATM   49  C24 UNL     1      33.559  49.729 134.019  1.00  0.00     0.000 C 
HETATM   50  C25 UNL     1      34.213  50.652 135.011  1.00  0.00     0.009 C 
HETATM   51  C26 UNL     1      34.486  52.030 134.438  1.00  0.00     0.103 C 
HETATM   52  C27 UNL     1      34.737  52.978 135.550  1.00  0.00     0.223 C 
HETATM   53  O4  UNL     1      34.172  52.678 136.666  1.00  0.00    -0.273 OA
ATOM     54  H4  UNL     1      35.011  55.009 135.749  1.00  0.00     0.170 HD
ENDBRANCH   1  28
TORSDOF 8
ENDMDL
MODEL 5
REMARK VINA RESULT: -10.338160785      3.089      4.050
REMARK  8 active torsions:
REMARK  status: ('A' for Active; 'I' for Inactive)
REMARK    1  A    between atoms: N1_1  and  C1_5 
REMARK    2  A    between atoms: C1_5  and  C2_6 
REMARK    3  A    between atoms: C2_6  and  C3_7 
REMARK    4  A    between atoms: C3_7  and  C4_8 
REMARK    5  A    between atoms: C4_8  and  N2_9 
REMARK    6  A    between atoms: C4_8  and  C28_42 
REMARK       I    between atoms: N2_9  and  C5_11 
REMARK    7  A    between atoms: C5_11  and  C6_13 
REMARK    8  A    between atoms: C6_13  and  C7_15 
REMARK       I    between atoms: C7_15  and  N3_17 
ROOT
HETATM    1  C6  UNL     1      40.519  56.114 135.353  1.00  0.00     0.306 C 
HETATM    2  O2  UNL     1      40.415  56.067 134.118  1.00  0.00    -0.276 OA
ENDROOT
BRANCH   1   3
HETATM    3  C5  UNL     1      40.362  57.412 136.016  1.00  0.00     0.297 C 
HETATM    4  N2  UNL     1      41.254  57.834 137.022  1.00  0.00    -0.347 N 
ATOM      5  H2  UNL     1      42.010  57.179 137.223  1.00  0.00     0.163 HD
HETATM    6  O1  UNL     1      39.410  58.136 135.662  1.00  0.00    -0.264 OA
BRANCH   4   7
HETATM    7  C4  UNL     1      41.276  59.030 137.809  1.00  0.00     0.115 C 
BRANCH   7   8
HETATM    8  C3  UNL     1      40.723  60.149 136.992  1.00  0.00     0.029 C 
BRANCH   8   9
HETATM    9  C2  UNL     1      41.693  61.339 136.962  1.00  0.00     0.029 C 
BRANCH   9  10
HETATM   10  C1  UNL     1      43.122  60.791 136.904  1.00  0.00     0.230 C 
BRANCH  10  11
HETATM   11  N1  UNL     1      43.882  61.223 138.051  1.00  0.00    -0.079 N 
ATOM     12  H13 UNL     1      44.647  60.582 138.260  1.00  0.00     0.274 HD
ATOM     13  H12 UNL     1      44.432  62.057 137.848  1.00  0.00     0.274 HD
ATOM     14  H11 UNL     1      43.273  61.359 138.858  1.00  0.00     0.274 HD
ENDBRANCH  10  11
ENDBRANCH   9  10
ENDBRANCH   8   9
ENDBRANCH   7   8
BRANCH   7  15
HETATM   15  C28 UNL     1      40.535  58.887 139.101  1.00  0.00     0.177 C 
HETATM   16  N5  UNL     1      40.416  57.491 139.537  1.00  0.00    -0.347 N 
HETATM   17  C29 UNL     1      40.150  57.181 140.903  1.00  0.00     0.223 C 
ATOM     18  H5  UNL     1      40.525  56.737 138.858  1.00  0.00     0.163 HD
HETATM   19  O5  UNL     1      39.581  56.088 141.144  1.00  0.00    -0.273 OA
HETATM   20  C30 UNL     1      40.508  58.069 142.007  1.00  0.00     0.089 C 
HETATM   21  C31 UNL     1      39.536  58.097 143.153  1.00  0.00     0.015 C 
HETATM   22  C35 UNL     1      40.662  59.530 141.552  1.00  0.00     0.070 C 
HETATM   23  C32 UNL     1      40.253  58.807 144.312  1.00  0.00     0.001 C 
HETATM   24  C33 UNL     1      40.628  60.206 143.868  1.00  0.00     0.001 C 
HETATM   25  C34 UNL     1      41.520  60.182 142.620  1.00  0.00     0.013 C 
HETATM   26  C36 UNL     1      41.309  59.507 140.241  1.00  0.00     0.156 C 
HETATM   27  O6  UNL     1      42.391  59.948 140.053  1.00  0.00    -0.295 OA
ENDBRANCH   7  15
ENDBRANCH   4   7
ENDBRANCH   1   3
BRANCH   1  28
HETATM   28  C7  UNL     1      40.787  54.932 136.123  1.00  0.00     0.302 C 
HETATM   29  O3  UNL     1      41.137  55.025 137.330  1.00  0.00    -0.263 OA
HETATM   30  N3  UNL     1      40.654  53.677 135.512  1.00  0.00    -0.309 N 
HETATM   31  C8  UNL     1      39.556  52.941 135.559  1.00  0.00     0.086 C 
ATOM     32  H3  UNL     1      41.455  53.308 134.998  1.00  0.00     0.170 HD
HETATM   33  C9  UNL     1      38.433  53.529 136.318  1.00  0.00     0.076 C 
HETATM   34  N4  UNL     1      39.576  51.709 134.890  1.00  0.00    -0.317 N 
HETATM   35  C10 UNL     1      37.289  54.002 135.474  1.00  0.00     0.008 C 
HETATM   36  C11 UNL     1      36.178  54.416 136.446  1.00  0.00     0.004 C 
HETATM   37  C12 UNL     1      35.006  53.495 136.316  1.00  0.00     0.027 C 
HETATM   38  C13 UNL     1      34.250  53.671 135.066  1.00  0.00    -0.031 C 
HETATM   39  C14 UNL     1      33.125  52.991 134.887  1.00  0.00    -0.031 C 
HETATM   40  C15 UNL     1      32.590  52.055 135.890  1.00  0.00     0.027 C 
HETATM   41  C16 UNL     1      31.673  51.064 135.173  1.00  0.00     0.004 C 
HETATM   42  C17 UNL     1      30.848  50.247 136.102  1.00  0.00     0.000 C 
HETATM   43  C18 UNL     1      31.353  48.865 136.382  1.00  0.00     0.000 C 
HETATM   44  C19 UNL     1      31.436  47.996 135.179  1.00  0.00     0.000 C 
HETATM   45  C20 UNL     1      32.185  46.723 135.340  1.00  0.00     0.000 C 
HETATM   46  C21 UNL     1      33.557  46.811 135.895  1.00  0.00     0.000 C 
HETATM   47  C22 UNL     1      34.656  46.708 134.831  1.00  0.00     0.000 C 
HETATM   48  C23 UNL     1      35.813  47.657 135.173  1.00  0.00     0.000 C 
HETATM   49  C24 UNL     1      35.269  49.073 135.230  1.00  0.00     0.000 C 
HETATM   50  C25 UNL     1      36.214  50.040 134.569  1.00  0.00     0.009 C 
HETATM   51  C26 UNL     1      37.480  50.265 135.373  1.00  0.00     0.103 C 
HETATM   52  C27 UNL     1      38.509  50.877 134.498  1.00  0.00     0.223 C 
HETATM   53  O4  UNL     1      38.400  50.605 133.246  1.00  0.00    -0.273 OA
ATOM     54  H4  UNL     1      40.505  51.361 134.652  1.00  0.00     0.170 HD
ENDBRANCH   1  28
TORSDOF 8
ENDMDL
