MODEL 1
REMARK VINA RESULT: -9.685082305      0.000      0.000
REMARK  8 active torsions:
REMARK  status: ('A' for Active; 'I' for Inactive)
REMARK    1  A    between atoms: C2_2  and  C3_3 
REMARK    2  A    between atoms: C3_3  and  C4_4 
REMARK    3  A    between atoms: C4_4  and  C5_5 
REMARK    4  A    between atoms: C5_5  and  O1_6 
REMARK    5  A    between atoms: C23_26  and  N1_27 
REMARK    6  A    between atoms: N1_27  and  S1_29 
REMARK    7  A    between atoms: S1_29  and  C24_32 
REMARK    8  A    between atoms: C36_44  and  O5_45 
ROOT
HETATM    1  C5  UNL     1      36.609  53.336 133.625  1.00  0.00     0.076 C 
HETATM    2  C6  UNL     1      37.440  53.850 134.735  1.00  0.00     0.038 C 
HETATM    3  C7  UNL     1      37.947  55.271 134.738  1.00  0.00     0.002 C 
HETATM    4  C8  UNL     1      39.243  55.334 133.936  1.00  0.00     0.007 C 
HETATM    5  C9  UNL     1      40.349  54.416 134.481  1.00  0.00     0.012 C 
HETATM    6  C10 UNL     1      39.625  53.581 135.509  1.00  0.00    -0.017 A 
HETATM    7  C11 UNL     1      39.201  54.519 136.586  1.00  0.00     0.005 C 
HETATM    8  C12 UNL     1      40.531  55.171 137.029  1.00  0.00     0.007 C 
HETATM    9  C13 UNL     1      40.486  55.600 138.469  1.00  0.00     0.014 C 
HETATM   10  C14 UNL     1      40.182  57.116 138.544  1.00  0.00     0.004 C 
HETATM   11  C15 UNL     1      41.272  57.885 137.851  1.00  0.00     0.020 C 
HETATM   12  C16 UNL     1      38.843  57.239 137.984  1.00  0.00     0.136 C 
HETATM   13  O2  UNL     1      38.335  58.478 138.463  1.00  0.00    -0.384 OA
HETATM   14  C17 UNL     1      37.482  58.341 139.499  1.00  0.00     0.173 C 
HETATM   15  C18 UNL     1      37.794  57.322 140.519  1.00  0.00     0.015 C 
HETATM   16  C19 UNL     1      36.871  57.718 141.699  1.00  0.00     0.013 C 
HETATM   17  C20 UNL     1      39.198  57.116 140.903  1.00  0.00    -0.021 C 
HETATM   18  C21 UNL     1      39.367  57.883 142.230  1.00  0.00     0.017 C 
HETATM   19  C22 UNL     1      39.405  55.665 141.369  1.00  0.00     0.017 C 
HETATM   20  C23 UNL     1      40.290  57.605 139.994  1.00  0.00     0.111 C 
HETATM   21  C27 UNL     1      38.465  56.986 136.585  1.00  0.00     0.020 C 
HETATM   22  C28 UNL     1      38.856  57.995 135.578  1.00  0.00     0.013 C 
HETATM   23  C29 UNL     1      38.208  55.580 136.215  1.00  0.00    -0.030 C 
HETATM   24  C30 UNL     1      36.905  55.174 136.946  1.00  0.00     0.016 C 
HETATM   25  C31 UNL     1      39.349  52.227 135.620  1.00  0.00     0.030 A 
HETATM   26  C32 UNL     1      38.116  51.437 135.905  1.00  0.00    -0.023 C 
HETATM   27  C33 UNL     1      37.132  51.301 135.016  1.00  0.00    -0.015 C 
HETATM   28  C34 UNL     1      37.088  51.887 133.648  1.00  0.00     0.032 C 
HETATM   29  C35 UNL     1      36.540  51.032 132.602  1.00  0.00     0.025 C 
HETATM   30  C36 UNL     1      38.584  52.261 133.414  1.00  0.00     0.143 C 
HETATM   31  C37 UNL     1      38.698  53.044 134.583  1.00  0.00     0.010 A 
ENDROOT
BRANCH  20  32
HETATM   32  N1  UNL     1      40.579  58.970 140.127  1.00  0.00    -0.313 N 
ATOM     33  H1  UNL     1      40.099  59.567 139.453  1.00  0.00     0.172 HD
BRANCH  32  34
HETATM   34  S1  UNL     1      41.531  59.769 141.155  1.00  0.00     0.230 S 
HETATM   35  O3  UNL     1      42.269  58.697 142.027  1.00  0.00    -0.206 OA
HETATM   36  O4  UNL     1      42.768  60.373 140.469  1.00  0.00    -0.206 OA
BRANCH  34  37
HETATM   37  C24 UNL     1      41.029  60.973 142.307  1.00  0.00     0.121 C 
HETATM   38  C25 UNL     1      39.623  61.473 142.136  1.00  0.00     0.027 C 
HETATM   39  C26 UNL     1      40.994  60.300 143.731  1.00  0.00     0.027 C 
ENDBRANCH  34  37
ENDBRANCH  32  34
ENDBRANCH  20  32
BRANCH  30  40
HETATM   40  O5  UNL     1      39.238  51.005 133.463  1.00  0.00    -0.394 OA
ATOM     41  H5  UNL     1      39.106  50.662 132.588  1.00  0.00     0.210 HD
ENDBRANCH  30  40
BRANCH   1  42
HETATM   42  C4  UNL     1      35.150  53.505 133.657  1.00  0.00     0.043 C 
BRANCH  42  43
HETATM   43  C3  UNL     1      34.464  53.964 134.880  1.00  0.00     0.029 C 
BRANCH  43  44
HETATM   44  C2  UNL     1      33.757  52.775 135.451  1.00  0.00    -0.037 C 
HETATM   45  C1  UNL     1      33.939  52.451 136.705  1.00  0.00     0.007 C 
ENDBRANCH  43  44
ENDBRANCH  42  43
ENDBRANCH   1  42
BRANCH   1  46
HETATM   46  O1  UNL     1      37.003  53.840 132.368  1.00  0.00    -0.388 OA
ATOM     47  H1  UNL     1      37.812  53.385 132.167  1.00  0.00     0.210 HD
ENDBRANCH   1  46
TORSDOF 8
ENDMDL
MODEL 2
REMARK VINA RESULT: -9.439727307      1.072      1.387
REMARK  8 active torsions:
REMARK  status: ('A' for Active; 'I' for Inactive)
REMARK    1  A    between atoms: C2_2  and  C3_3 
REMARK    2  A    between atoms: C3_3  and  C4_4 
REMARK    3  A    between atoms: C4_4  and  C5_5 
REMARK    4  A    between atoms: C5_5  and  O1_6 
REMARK    5  A    between atoms: C23_26  and  N1_27 
REMARK    6  A    between atoms: N1_27  and  S1_29 
REMARK    7  A    between atoms: S1_29  and  C24_32 
REMARK    8  A    between atoms: C36_44  and  O5_45 
ROOT
HETATM    1  C5  UNL     1      36.856  53.499 133.869  1.00  0.00     0.076 C 
HETATM    2  C6  UNL     1      37.648  54.053 134.989  1.00  0.00     0.038 C 
HETATM    3  C7  UNL     1      38.089  55.496 134.994  1.00  0.00     0.002 C 
HETATM    4  C8  UNL     1      39.391  55.617 134.209  1.00  0.00     0.007 C 
HETATM    5  C9  UNL     1      40.531  54.752 134.770  1.00  0.00     0.012 C 
HETATM    6  C10 UNL     1      39.833  53.886 135.791  1.00  0.00    -0.017 A 
HETATM    7  C11 UNL     1      39.352  54.807 136.860  1.00  0.00     0.005 C 
HETATM    8  C12 UNL     1      40.645  55.520 137.318  1.00  0.00     0.007 C 
HETATM    9  C13 UNL     1      40.562  55.950 138.756  1.00  0.00     0.014 C 
HETATM   10  C14 UNL     1      40.188  57.450 138.823  1.00  0.00     0.004 C 
HETATM   11  C15 UNL     1      41.250  58.267 138.142  1.00  0.00     0.020 C 
HETATM   12  C16 UNL     1      38.852  57.510 138.246  1.00  0.00     0.136 C 
HETATM   13  O2  UNL     1      38.281  58.726 138.715  1.00  0.00    -0.384 OA
HETATM   14  C17 UNL     1      37.422  58.552 139.740  1.00  0.00     0.173 C 
HETATM   15  C18 UNL     1      37.767  57.550 140.767  1.00  0.00     0.015 C 
HETATM   16  C19 UNL     1      36.812  57.906 141.934  1.00  0.00     0.013 C 
HETATM   17  C20 UNL     1      39.174  57.410 141.169  1.00  0.00    -0.021 C 
HETATM   18  C21 UNL     1      39.291  58.187 142.496  1.00  0.00     0.017 C 
HETATM   19  C22 UNL     1      39.442  55.971 141.642  1.00  0.00     0.017 C 
HETATM   20  C23 UNL     1      40.255  57.947 140.273  1.00  0.00     0.111 C 
HETATM   21  C27 UNL     1      38.504  57.238 136.843  1.00  0.00     0.020 C 
HETATM   22  C28 UNL     1      38.861  58.260 135.838  1.00  0.00     0.013 C 
HETATM   23  C29 UNL     1      38.316  55.820 136.474  1.00  0.00    -0.030 C 
HETATM   24  C30 UNL     1      37.024  55.356 137.188  1.00  0.00     0.016 C 
HETATM   25  C31 UNL     1      39.618  52.522 135.902  1.00  0.00     0.030 A 
HETATM   26  C32 UNL     1      38.419  51.677 136.173  1.00  0.00    -0.023 C 
HETATM   27  C33 UNL     1      37.454  51.494 135.273  1.00  0.00    -0.015 C 
HETATM   28  C34 UNL     1      37.401  52.074 133.903  1.00  0.00     0.032 C 
HETATM   29  C35 UNL     1      36.906  51.192 132.852  1.00  0.00     0.025 C 
HETATM   30  C36 UNL     1      38.880  52.515 133.687  1.00  0.00     0.143 C 
HETATM   31  C37 UNL     1      38.944  53.306 134.855  1.00  0.00     0.010 A 
ENDROOT
BRANCH  20  32
HETATM   32  N1  UNL     1      40.478  59.325 140.406  1.00  0.00    -0.313 N 
ATOM     33  H1  UNL     1      39.729  59.907 140.032  1.00  0.00     0.172 HD
BRANCH  32  34
HETATM   34  S1  UNL     1      41.705  60.154 141.044  1.00  0.00     0.230 S 
HETATM   35  O3  UNL     1      41.084  61.295 141.920  1.00  0.00    -0.206 OA
HETATM   36  O4  UNL     1      42.416  59.386 142.171  1.00  0.00    -0.206 OA
BRANCH  34  37
HETATM   37  C24 UNL     1      42.983  60.946 140.169  1.00  0.00     0.121 C 
HETATM   38  C25 UNL     1      44.292  60.210 140.148  1.00  0.00     0.027 C 
HETATM   39  C26 UNL     1      42.578  60.990 138.648  1.00  0.00     0.027 C 
ENDBRANCH  34  37
ENDBRANCH  32  34
ENDBRANCH  20  32
BRANCH  30  40
HETATM   40  O5  UNL     1      39.591  51.292 133.748  1.00  0.00    -0.394 OA
ATOM     41  H5  UNL     1      39.724  51.076 132.832  1.00  0.00     0.210 HD
ENDBRANCH  30  40
BRANCH   1  42
HETATM   42  C4  UNL     1      35.390  53.601 133.883  1.00  0.00     0.043 C 
BRANCH  42  43
HETATM   43  C3  UNL     1      34.680  54.219 135.019  1.00  0.00     0.029 C 
BRANCH  43  44
HETATM   44  C2  UNL     1      34.162  53.100 135.865  1.00  0.00    -0.037 C 
HETATM   45  C1  UNL     1      33.635  53.359 137.034  1.00  0.00     0.007 C 
ENDBRANCH  43  44
ENDBRANCH  42  43
ENDBRANCH   1  42
BRANCH   1  46
HETATM   46  O1  UNL     1      37.242  54.018 132.617  1.00  0.00    -0.388 OA
ATOM     47  H1  UNL     1      37.625  53.280 132.156  1.00  0.00     0.210 HD
ENDBRANCH   1  46
TORSDOF 8
ENDMDL
MODEL 3
REMARK VINA RESULT: -9.419677052      3.693      9.226
REMARK  8 active torsions:
REMARK  status: ('A' for Active; 'I' for Inactive)
REMARK    1  A    between atoms: C2_2  and  C3_3 
REMARK    2  A    between atoms: C3_3  and  C4_4 
REMARK    3  A    between atoms: C4_4  and  C5_5 
REMARK    4  A    between atoms: C5_5  and  O1_6 
REMARK    5  A    between atoms: C23_26  and  N1_27 
REMARK    6  A    between atoms: N1_27  and  S1_29 
REMARK    7  A    between atoms: S1_29  and  C24_32 
REMARK    8  A    between atoms: C36_44  and  O5_45 
ROOT
HETATM    1  C5  UNL     1      39.061  57.222 139.131  1.00  0.00     0.076 C 
HETATM    2  C6  UNL     1      39.051  56.850 137.699  1.00  0.00     0.038 C 
HETATM    3  C7  UNL     1      38.726  55.444 137.261  1.00  0.00     0.002 C 
HETATM    4  C8  UNL     1      39.997  54.603 137.317  1.00  0.00     0.007 C 
HETATM    5  C9  UNL     1      41.132  55.145 136.434  1.00  0.00     0.012 C 
HETATM    6  C10 UNL     1      40.619  56.498 136.008  1.00  0.00    -0.017 A 
HETATM    7  C11 UNL     1      39.423  56.243 135.157  1.00  0.00     0.005 C 
HETATM    8  C12 UNL     1      39.974  55.324 134.041  1.00  0.00     0.007 C 
HETATM    9  C13 UNL     1      39.202  55.481 132.762  1.00  0.00     0.014 C 
HETATM   10  C14 UNL     1      38.168  54.335 132.641  1.00  0.00     0.004 C 
HETATM   11  C15 UNL     1      38.882  53.012 132.609  1.00  0.00     0.020 C 
HETATM   12  C16 UNL     1      37.259  54.557 133.758  1.00  0.00     0.136 C 
HETATM   13  O2  UNL     1      36.061  53.868 133.424  1.00  0.00    -0.384 OA
HETATM   14  C17 UNL     1      35.089  54.680 132.960  1.00  0.00     0.173 C 
HETATM   15  C18 UNL     1      35.482  55.784 132.064  1.00  0.00     0.015 C 
HETATM   16  C19 UNL     1      34.134  56.220 131.438  1.00  0.00     0.013 C 
HETATM   17  C20 UNL     1      36.547  55.546 131.079  1.00  0.00    -0.021 C 
HETATM   18  C21 UNL     1      35.813  55.292 129.748  1.00  0.00     0.017 C 
HETATM   19  C22 UNL     1      37.278  56.864 130.770  1.00  0.00     0.017 C 
HETATM   20  C23 UNL     1      37.482  54.385 131.269  1.00  0.00     0.111 C 
HETATM   21  C27 UNL     1      37.596  54.428 135.184  1.00  0.00     0.020 C 
HETATM   22  C28 UNL     1      37.753  53.064 135.730  1.00  0.00     0.013 C 
HETATM   23  C29 UNL     1      38.241  55.596 135.816  1.00  0.00    -0.030 C 
HETATM   24  C30 UNL     1      37.163  56.706 135.871  1.00  0.00     0.016 C 
HETATM   25  C31 UNL     1      41.049  57.797 136.227  1.00  0.00     0.030 A 
HETATM   26  C32 UNL     1      40.382  59.051 136.684  1.00  0.00    -0.023 C 
HETATM   27  C33 UNL     1      40.001  59.238 137.947  1.00  0.00    -0.015 C 
HETATM   28  C34 UNL     1      40.162  58.278 139.072  1.00  0.00     0.032 C 
HETATM   29  C35 UNL     1      40.544  58.852 140.357  1.00  0.00     0.025 C 
HETATM   30  C36 UNL     1      41.228  57.294 138.500  1.00  0.00     0.143 C 
HETATM   31  C37 UNL     1      40.499  56.992 137.329  1.00  0.00     0.010 A 
ENDROOT
BRANCH  20  32
HETATM   32  N1  UNL     1      36.967  53.157 130.832  1.00  0.00    -0.313 N 
ATOM     33  H1  UNL     1      36.210  52.791 131.410  1.00  0.00     0.172 HD
BRANCH  32  34
HETATM   34  S1  UNL     1      37.355  52.218 129.580  1.00  0.00     0.230 S 
HETATM   35  O3  UNL     1      37.196  50.732 130.051  1.00  0.00    -0.206 OA
HETATM   36  O4  UNL     1      36.273  52.210 128.487  1.00  0.00    -0.206 OA
BRANCH  34  37
HETATM   37  C24 UNL     1      38.863  52.223 128.711  1.00  0.00     0.121 C 
HETATM   38  C25 UNL     1      38.882  51.392 127.461  1.00  0.00     0.027 C 
HETATM   39  C26 UNL     1      39.108  53.682 128.169  1.00  0.00     0.027 C 
ENDBRANCH  34  37
ENDBRANCH  32  34
ENDBRANCH  20  32
BRANCH  30  40
HETATM   40  O5  UNL     1      42.359  58.125 138.309  1.00  0.00    -0.394 OA
ATOM     41  H5  UNL     1      42.442  58.569 139.144  1.00  0.00     0.210 HD
ENDBRANCH  30  40
BRANCH   1  42
HETATM   42  C4  UNL     1      37.821  57.659 139.788  1.00  0.00     0.043 C 
BRANCH  42  43
HETATM   43  C3  UNL     1      37.485  57.213 141.153  1.00  0.00     0.029 C 
BRANCH  43  44
HETATM   44  C2  UNL     1      37.006  58.420 141.896  1.00  0.00    -0.037 C 
HETATM   45  C1  UNL     1      37.007  59.588 141.309  1.00  0.00     0.007 C 
ENDBRANCH  43  44
ENDBRANCH  42  43
ENDBRANCH   1  42
BRANCH   1  46
HETATM   46  O1  UNL     1      39.566  56.199 139.959  1.00  0.00    -0.388 OA
ATOM     47  H1  UNL     1      40.298  56.597 140.417  1.00  0.00     0.210 HD
ENDBRANCH   1  46
TORSDOF 8
ENDMDL
MODEL 4
REMARK VINA RESULT: -9.324055853      2.865      9.173
REMARK  8 active torsions:
REMARK  status: ('A' for Active; 'I' for Inactive)
REMARK    1  A    between atoms: C2_2  and  C3_3 
REMARK    2  A    between atoms: C3_3  and  C4_4 
REMARK    3  A    between atoms: C4_4  and  C5_5 
REMARK    4  A    between atoms: C5_5  and  O1_6 
REMARK    5  A    between atoms: C23_26  and  N1_27 
REMARK    6  A    between atoms: N1_27  and  S1_29 
REMARK    7  A    between atoms: S1_29  and  C24_32 
REMARK    8  A    between atoms: C36_44  and  O5_45 
ROOT
HETATM    1  C5  UNL     1      41.147  59.543 140.858  1.00  0.00     0.076 C 
HETATM    2  C6  UNL     1      40.393  58.510 140.114  1.00  0.00     0.038 C 
HETATM    3  C7  UNL     1      39.958  58.738 138.688  1.00  0.00     0.002 C 
HETATM    4  C8  UNL     1      38.632  59.491 138.691  1.00  0.00     0.007 C 
HETATM    5  C9  UNL     1      37.508  58.754 139.438  1.00  0.00     0.012 C 
HETATM    6  C10 UNL     1      38.236  57.623 140.122  1.00  0.00    -0.017 A 
HETATM    7  C11 UNL     1      38.754  56.743 139.038  1.00  0.00     0.005 C 
HETATM    8  C12 UNL     1      37.478  56.373 138.245  1.00  0.00     0.007 C 
HETATM    9  C13 UNL     1      37.610  55.033 137.577  1.00  0.00     0.014 C 
HETATM   10  C14 UNL     1      37.991  55.235 136.091  1.00  0.00     0.004 C 
HETATM   11  C15 UNL     1      36.909  56.012 135.393  1.00  0.00     0.020 C 
HETATM   12  C16 UNL     1      39.307  55.856 136.142  1.00  0.00     0.136 C 
HETATM   13  O2  UNL     1      39.897  55.620 134.869  1.00  0.00    -0.384 OA
HETATM   14  C17 UNL     1      40.788  54.607 134.873  1.00  0.00     0.173 C 
HETATM   15  C18 UNL     1      40.473  53.414 135.681  1.00  0.00     0.015 C 
HETATM   16  C19 UNL     1      41.467  52.356 135.140  1.00  0.00     0.013 C 
HETATM   17  C20 UNL     1      39.079  52.950 135.738  1.00  0.00    -0.021 C 
HETATM   18  C21 UNL     1      39.009  51.772 134.746  1.00  0.00     0.017 C 
HETATM   19  C22 UNL     1      38.822  52.230 137.073  1.00  0.00     0.017 C 
HETATM   20  C23 UNL     1      37.972  53.890 135.353  1.00  0.00     0.111 C 
HETATM   21  C27 UNL     1      39.609  57.202 136.653  1.00  0.00     0.020 C 
HETATM   22  C28 UNL     1      39.223  58.355 135.813  1.00  0.00     0.013 C 
HETATM   23  C29 UNL     1      39.779  57.329 138.114  1.00  0.00    -0.030 C 
HETATM   24  C30 UNL     1      41.093  56.587 138.460  1.00  0.00     0.016 C 
HETATM   25  C31 UNL     1      38.449  57.288 141.450  1.00  0.00     0.030 A 
HETATM   26  C32 UNL     1      39.654  56.914 142.247  1.00  0.00    -0.023 C 
HETATM   27  C33 UNL     1      40.588  57.800 142.589  1.00  0.00    -0.015 C 
HETATM   28  C34 UNL     1      40.599  59.249 142.252  1.00  0.00     0.032 C 
HETATM   29  C35 UNL     1      41.057  60.150 143.304  1.00  0.00     0.025 C 
HETATM   30  C36 UNL     1      39.115  59.491 141.841  1.00  0.00     0.143 C 
HETATM   31  C37 UNL     1      39.092  58.474 140.862  1.00  0.00     0.010 A 
ENDROOT
BRANCH  20  32
HETATM   32  N1  UNL     1      37.758  53.987 133.971  1.00  0.00    -0.313 N 
ATOM     33  H1  UNL     1      38.442  54.564 133.482  1.00  0.00     0.172 HD
BRANCH  32  34
HETATM   34  S1  UNL     1      36.626  53.350 133.015  1.00  0.00     0.230 S 
HETATM   35  O3  UNL     1      35.699  52.471 133.922  1.00  0.00    -0.206 OA
HETATM   36  O4  UNL     1      35.575  54.382 132.574  1.00  0.00    -0.206 OA
BRANCH  34  37
HETATM   37  C24 UNL     1      36.897  52.362 131.609  1.00  0.00     0.121 C 
HETATM   38  C25 UNL     1      38.306  52.362 131.091  1.00  0.00     0.027 C 
HETATM   39  C26 UNL     1      36.672  50.858 132.020  1.00  0.00     0.027 C 
ENDBRANCH  34  37
ENDBRANCH  32  34
ENDBRANCH  20  32
BRANCH  30  40
HETATM   40  O5  UNL     1      38.403  59.200 143.030  1.00  0.00    -0.394 OA
ATOM     41  H5  UNL     1      37.585  59.669 142.910  1.00  0.00     0.210 HD
ENDBRANCH  30  40
BRANCH   1  42
HETATM   42  C4  UNL     1      42.613  59.593 140.768  1.00  0.00     0.043 C 
BRANCH  42  43
HETATM   43  C3  UNL     1      43.290  60.600 139.929  1.00  0.00     0.029 C 
BRANCH  43  44
HETATM   44  C2  UNL     1      43.444  59.996 138.569  1.00  0.00    -0.037 C 
HETATM   45  C1  UNL     1      42.939  60.603 137.527  1.00  0.00     0.007 C 
ENDBRANCH  43  44
ENDBRANCH  42  43
ENDBRANCH   1  42
BRANCH   1  46
HETATM   46  O1  UNL     1      40.722  60.854 140.558  1.00  0.00    -0.388 OA
ATOM     47  H1  UNL     1      41.110  61.396 141.234  1.00  0.00     0.210 HD
ENDBRANCH   1  46
TORSDOF 8
ENDMDL
MODEL 5
REMARK VINA RESULT: -9.068228354      1.658      2.232
REMARK  8 active torsions:
REMARK  status: ('A' for Active; 'I' for Inactive)
REMARK    1  A    between atoms: C2_2  and  C3_3 
REMARK    2  A    between atoms: C3_3  and  C4_4 
REMARK    3  A    between atoms: C4_4  and  C5_5 
REMARK    4  A    between atoms: C5_5  and  O1_6 
REMARK    5  A    between atoms: C23_26  and  N1_27 
REMARK    6  A    between atoms: N1_27  and  S1_29 
REMARK    7  A    between atoms: S1_29  and  C24_32 
REMARK    8  A    between atoms: C36_44  and  O5_45 
ROOT
HETATM    1  C5  UNL     1      35.160  52.278 134.194  1.00  0.00     0.076 C 
HETATM    2  C6  UNL     1      36.289  52.887 134.931  1.00  0.00     0.038 C 
HETATM    3  C7  UNL     1      36.745  54.294 134.635  1.00  0.00     0.002 C 
HETATM    4  C8  UNL     1      37.721  54.261 133.464  1.00  0.00     0.007 C 
HETATM    5  C9  UNL     1      38.959  53.385 133.719  1.00  0.00     0.012 C 
HETATM    6  C10 UNL     1      38.611  52.665 134.998  1.00  0.00    -0.017 A 
HETATM    7  C11 UNL     1      38.531  53.710 136.058  1.00  0.00     0.005 C 
HETATM    8  C12 UNL     1      39.921  54.383 135.993  1.00  0.00     0.007 C 
HETATM    9  C13 UNL     1      40.324  54.952 137.325  1.00  0.00     0.014 C 
HETATM   10  C14 UNL     1      40.032  56.472 137.344  1.00  0.00     0.004 C 
HETATM   11  C15 UNL     1      40.834  57.154 136.272  1.00  0.00     0.020 C 
HETATM   12  C16 UNL     1      38.583  56.558 137.226  1.00  0.00     0.136 C 
HETATM   13  O2  UNL     1      38.230  57.845 137.718  1.00  0.00    -0.384 OA
HETATM   14  C17 UNL     1      37.749  57.822 138.978  1.00  0.00     0.173 C 
HETATM   15  C18 UNL     1      38.384  56.903 139.942  1.00  0.00     0.015 C 
HETATM   16  C19 UNL     1      37.873  57.425 141.308  1.00  0.00     0.013 C 
HETATM   17  C20 UNL     1      39.842  56.716 139.882  1.00  0.00    -0.021 C 
HETATM   18  C21 UNL     1      40.406  57.607 141.006  1.00  0.00     0.017 C 
HETATM   19  C22 UNL     1      40.211  55.315 140.397  1.00  0.00     0.017 C 
HETATM   20  C23 UNL     1      40.583  57.099 138.632  1.00  0.00     0.111 C 
HETATM   21  C27 UNL     1      37.788  56.175 136.049  1.00  0.00     0.020 C 
HETATM   22  C28 UNL     1      37.824  57.074 134.877  1.00  0.00     0.013 C 
HETATM   23  C29 UNL     1      37.453  54.743 135.918  1.00  0.00    -0.030 C 
HETATM   24  C30 UNL     1      36.454  54.428 137.057  1.00  0.00     0.016 C 
HETATM   25  C31 UNL     1      38.408  51.333 135.321  1.00  0.00     0.030 A 
HETATM   26  C32 UNL     1      37.342  50.591 136.056  1.00  0.00    -0.023 C 
HETATM   27  C33 UNL     1      36.131  50.382 135.540  1.00  0.00    -0.015 C 
HETATM   28  C34 UNL     1      35.648  50.832 134.206  1.00  0.00     0.032 C 
HETATM   29  C35 UNL     1      34.813  49.886 133.474  1.00  0.00     0.025 C 
HETATM   30  C36 UNL     1      36.987  51.160 133.477  1.00  0.00     0.143 C 
HETATM   31  C37 UNL     1      37.449  52.053 134.468  1.00  0.00     0.010 A 
ENDROOT
BRANCH  20  32
HETATM   32  N1  UNL     1      40.874  58.467 138.534  1.00  0.00    -0.313 N 
ATOM     33  H1  UNL     1      40.060  59.075 138.627  1.00  0.00     0.172 HD
BRANCH  32  34
HETATM   34  S1  UNL     1      42.262  59.253 138.302  1.00  0.00     0.230 S 
HETATM   35  O3  UNL     1      42.697  59.841 139.687  1.00  0.00    -0.206 OA
HETATM   36  O4  UNL     1      43.453  58.302 138.093  1.00  0.00    -0.206 OA
BRANCH  34  37
HETATM   37  C24 UNL     1      42.537  60.561 137.187  1.00  0.00     0.121 C 
HETATM   38  C25 UNL     1      41.396  61.528 137.046  1.00  0.00     0.027 C 
HETATM   39  C26 UNL     1      43.693  61.460 137.766  1.00  0.00     0.027 C 
ENDBRANCH  34  37
ENDBRANCH  32  34
ENDBRANCH  20  32
BRANCH  30  40
HETATM   40  O5  UNL     1      37.645  49.907 133.439  1.00  0.00    -0.394 OA
ATOM     41  H5  UNL     1      37.642  49.692 132.514  1.00  0.00     0.210 HD
ENDBRANCH  30  40
BRANCH   1  42
HETATM   42  C4  UNL     1      33.782  52.469 134.669  1.00  0.00     0.043 C 
BRANCH  42  43
HETATM   43  C3  UNL     1      33.467  53.467 135.708  1.00  0.00     0.029 C 
BRANCH  43  44
HETATM   44  C2  UNL     1      33.237  52.711 136.978  1.00  0.00    -0.037 C 
HETATM   45  C1  UNL     1      32.834  53.344 138.049  1.00  0.00     0.007 C 
ENDBRANCH  43  44
ENDBRANCH  42  43
ENDBRANCH   1  42
BRANCH   1  46
HETATM   46  O1  UNL     1      35.128  52.651 132.835  1.00  0.00    -0.388 OA
ATOM     47  H1  UNL     1      35.226  51.836 132.357  1.00  0.00     0.210 HD
ENDBRANCH   1  46
TORSDOF 8
ENDMDL
