MODEL 1
REMARK VINA RESULT: -7.777104406      0.000      0.000
REMARK  16 active torsions:
REMARK  status: ('A' for Active; 'I' for Inactive)
REMARK    1  A    between atoms: O1_2  and  C2_3 
REMARK    2  A    between atoms: C2_3  and  C3_5 
REMARK    3  A    between atoms: C3_5  and  N1_6 
REMARK    4  A    between atoms: N1_6  and  N2_8 
REMARK    5  A    between atoms: C4_13  and  O3_14 
REMARK    6  A    between atoms: O3_14  and  C5_15 
REMARK    7  A    between atoms: C7_18  and  O5_19 
REMARK    8  A    between atoms: C10_24  and  O7_25 
REMARK    9  A    between atoms: C12_28  and  O8_29 
REMARK   10  A    between atoms: C14_32  and  O9_33 
REMARK   11  A    between atoms: O9_33  and  C15_34 
REMARK   12  A    between atoms: C16_35  and  O10_36 
REMARK   13  A    between atoms: C19_41  and  O12_42 
REMARK   14  A    between atoms: C20_44  and  O13_45 
REMARK   15  A    between atoms: C21_47  and  O14_48 
REMARK   16  A    between atoms: O14_48  and  S1_49 
ROOT
HETATM    1  C3  UNL     1       3.676  19.115  13.243  1.00  0.00     0.192 C 
HETATM    2  C4  UNL     1       2.540  19.527  12.332  1.00  0.00     0.196 C 
HETATM    3  C12 UNL     1       1.478  18.508  12.180  1.00  0.00     0.152 C 
HETATM    4  C13 UNL     1       1.858  17.078  12.238  1.00  0.00     0.069 C 
HETATM    5  C14 UNL     1       3.050  16.775  13.114  1.00  0.00     0.158 C 
HETATM    6  C21 UNL     1       3.263  17.913  14.068  1.00  0.00     0.216 C 
ENDROOT
BRANCH   2   7
HETATM    7  O3  UNL     1       3.087  20.103  11.270  1.00  0.00    -0.350 OA
BRANCH   7   8
HETATM    8  C5  UNL     1       2.709  21.199  10.636  1.00  0.00     0.269 C 
HETATM    9  O4  UNL     1       1.826  22.036  11.367  1.00  0.00    -0.358 OA
HETATM   10  C6  UNL     1       1.604  23.248  10.720  1.00  0.00     0.205 C 
HETATM   11  C7  UNL     1       2.832  24.137  10.820  1.00  0.00     0.171 C 
HETATM   12  C8  UNL     1       4.017  23.314  10.497  1.00  0.00     0.163 C 
HETATM   13  O6  UNL     1       4.706  22.828  11.604  1.00  0.00    -0.380 OA
HETATM   14  C11 UNL     1       3.678  21.974   9.816  1.00  0.00     0.103 C 
HETATM   15  C9  UNL     1       5.630  21.896  11.073  1.00  0.00     0.200 C 
HETATM   16  C10 UNL     1       5.068  21.426   9.757  1.00  0.00     0.153 C 
BRANCH  11  17
HETATM   17  O5  UNL     1       2.756  25.227   9.984  1.00  0.00    -0.391 OA
ATOM     18  H5  UNL     1       3.566  25.723   9.965  1.00  0.00     0.210 HD
ENDBRANCH  11  17
BRANCH  16  19
HETATM   19  O7  UNL     1       5.745  22.182   8.766  1.00  0.00    -0.393 OA
ATOM     20  H7  UNL     1       5.173  22.172   8.007  1.00  0.00     0.210 HD
ENDBRANCH  16  19
ENDBRANCH   7   8
ENDBRANCH   2   7
BRANCH   1  21
HETATM   21  C2  UNL     1       3.987  20.278  14.119  1.00  0.00     0.294 C 
HETATM   22  O2  UNL     1       5.168  20.463  14.477  1.00  0.00    -0.262 OA
BRANCH  21  23
HETATM   23  O1  UNL     1       3.014  21.166  14.552  1.00  0.00    -0.324 OA
HETATM   24  C1  UNL     1       3.024  21.533  15.918  1.00  0.00     0.213 C 
ENDBRANCH  21  23
ENDBRANCH   1  21
BRANCH   1  25
HETATM   25  N1  UNL     1       4.884  18.830  12.479  1.00  0.00    -0.297 N 
ATOM     26  H1  UNL     1       4.920  19.096  11.495  1.00  0.00     0.183 HD
BRANCH  25  27
HETATM   27  N2  UNL     1       5.996  18.205  13.051  1.00  0.00    -0.252 N 
HETATM   28  N3  UNL     1       7.168  18.679  12.974  1.00  0.00    -0.331 N 
ATOM     29  H32 UNL     1       7.289  19.557  12.468  1.00  0.00     0.178 HD
ATOM     30  H31 UNL     1       7.978  18.223  13.391  1.00  0.00     0.178 HD
ATOM     31  H2  UNL     1       5.857  17.328  13.553  1.00  0.00     0.207 HD
ENDBRANCH  25  27
ENDBRANCH   1  25
BRANCH   3  32
HETATM   32  O8  UNL     1       0.390  18.694  13.070  1.00  0.00    -0.393 OA
ATOM     33  H8  UNL     1       0.215  17.935  13.614  1.00  0.00     0.210 HD
ENDBRANCH   3  32
BRANCH   6  34
HETATM   34  O14 UNL     1       4.034  17.653  15.148  1.00  0.00    -0.246 OA
BRANCH  34  35
HETATM   35  S1  UNL     1       3.503  17.682  16.642  1.00  0.00     0.252 S 
HETATM   36  O15 UNL     1       4.328  18.657  17.482  1.00  0.00    -0.572 OA
HETATM   37  O16 UNL     1       2.094  18.260  16.700  1.00  0.00    -0.572 OA
HETATM   38  O17 UNL     1       3.460  16.270  17.520  1.00  0.00    -0.572 OA
ENDBRANCH  34  35
ENDBRANCH   6  34
BRANCH   5  39
HETATM   39  O9  UNL     1       2.921  15.623  13.834  1.00  0.00    -0.372 OA
BRANCH  39  40
HETATM   40  C15 UNL     1       3.370  14.478  13.190  1.00  0.00     0.184 C 
HETATM   41  C16 UNL     1       2.418  13.958  12.141  1.00  0.00     0.173 C 
HETATM   42  C17 UNL     1       3.116  13.336  10.957  1.00  0.00     0.201 C 
HETATM   43  O11 UNL     1       3.961  14.193  10.297  1.00  0.00    -0.386 OA
HETATM   44  C18 UNL     1       5.270  13.716  10.513  1.00  0.00     0.201 C 
HETATM   45  C19 UNL     1       5.430  13.634  12.018  1.00  0.00     0.173 C 
HETATM   46  C20 UNL     1       4.719  14.826  12.606  1.00  0.00     0.180 C 
BRANCH  41  47
HETATM   47  O10 UNL     1       1.546  12.990  12.636  1.00  0.00    -0.391 OA
ATOM     48  H10 UNL     1       1.598  12.169  12.160  1.00  0.00     0.210 HD
ENDBRANCH  41  47
BRANCH  45  49
HETATM   49  O12 UNL     1       6.817  13.777  12.257  1.00  0.00    -0.391 OA
ATOM     50  H12 UNL     1       7.223  13.024  11.845  1.00  0.00     0.210 HD
ENDBRANCH  45  49
BRANCH  46  51
HETATM   51  O13 UNL     1       5.520  15.312  13.631  1.00  0.00    -0.390 OA
ATOM     52  H13 UNL     1       5.734  16.217  13.434  1.00  0.00     0.210 HD
ENDBRANCH  46  51
ENDBRANCH  39  40
ENDBRANCH   5  39
TORSDOF 16
ENDMDL
MODEL 2
REMARK VINA RESULT: -7.552328324      2.505      7.407
REMARK  16 active torsions:
REMARK  status: ('A' for Active; 'I' for Inactive)
REMARK    1  A    between atoms: O1_2  and  C2_3 
REMARK    2  A    between atoms: C2_3  and  C3_5 
REMARK    3  A    between atoms: C3_5  and  N1_6 
REMARK    4  A    between atoms: N1_6  and  N2_8 
REMARK    5  A    between atoms: C4_13  and  O3_14 
REMARK    6  A    between atoms: O3_14  and  C5_15 
REMARK    7  A    between atoms: C7_18  and  O5_19 
REMARK    8  A    between atoms: C10_24  and  O7_25 
REMARK    9  A    between atoms: C12_28  and  O8_29 
REMARK   10  A    between atoms: C14_32  and  O9_33 
REMARK   11  A    between atoms: O9_33  and  C15_34 
REMARK   12  A    between atoms: C16_35  and  O10_36 
REMARK   13  A    between atoms: C19_41  and  O12_42 
REMARK   14  A    between atoms: C20_44  and  O13_45 
REMARK   15  A    between atoms: C21_47  and  O14_48 
REMARK   16  A    between atoms: O14_48  and  S1_49 
ROOT
HETATM    1  C3  UNL     1       1.400  18.612  13.804  1.00  0.00     0.192 C 
HETATM    2  C4  UNL     1       2.149  17.308  13.973  1.00  0.00     0.196 C 
HETATM    3  C12 UNL     1       3.620  17.431  13.874  1.00  0.00     0.152 C 
HETATM    4  C13 UNL     1       4.183  18.463  12.974  1.00  0.00     0.069 C 
HETATM    5  C14 UNL     1       3.328  19.695  12.810  1.00  0.00     0.158 C 
HETATM    6  C21 UNL     1       2.356  19.777  13.950  1.00  0.00     0.216 C 
ENDROOT
BRANCH   2   7
HETATM    7  O3  UNL     1       1.495  16.393  13.269  1.00  0.00    -0.350 OA
BRANCH   7   8
HETATM    8  C5  UNL     1       1.084  15.196  13.647  1.00  0.00     0.269 C 
HETATM    9  O4  UNL     1      -0.201  15.169  14.251  1.00  0.00    -0.358 OA
HETATM   10  C6  UNL     1      -0.646  13.869  14.468  1.00  0.00     0.205 C 
HETATM   11  C7  UNL     1      -1.042  13.217  13.153  1.00  0.00     0.171 C 
HETATM   12  C8  UNL     1       0.024  13.495  12.168  1.00  0.00     0.163 C 
HETATM   13  O6  UNL     1      -0.237  14.565  11.316  1.00  0.00    -0.380 OA
HETATM   14  C11 UNL     1       1.337  14.003  12.796  1.00  0.00     0.103 C 
HETATM   15  C9  UNL     1       0.986  14.795  10.641  1.00  0.00     0.200 C 
HETATM   16  C10 UNL     1       2.080  14.255  11.523  1.00  0.00     0.153 C 
BRANCH  11  17
HETATM   17  O5  UNL     1      -1.240  11.861  13.283  1.00  0.00    -0.391 OA
ATOM     18  H5  UNL     1      -1.293  11.423  12.442  1.00  0.00     0.210 HD
ENDBRANCH  11  17
BRANCH  16  19
HETATM   19  O7  UNL     1       2.394  12.976  10.995  1.00  0.00    -0.393 OA
ATOM     20  H7  UNL     1       3.271  13.059  10.640  1.00  0.00     0.210 HD
ENDBRANCH  16  19
ENDBRANCH   7   8
ENDBRANCH   2   7
BRANCH   1  21
HETATM   21  C2  UNL     1       0.345  18.656  14.854  1.00  0.00     0.294 C 
HETATM   22  O2  UNL     1       0.645  18.335  16.022  1.00  0.00    -0.262 OA
BRANCH  21  23
HETATM   23  O1  UNL     1      -0.959  19.043  14.585  1.00  0.00    -0.324 OA
HETATM   24  C1  UNL     1      -1.526  20.048  15.402  1.00  0.00     0.213 C 
ENDBRANCH  21  23
ENDBRANCH   1  21
BRANCH   1  25
HETATM   25  N1  UNL     1       0.714  18.659  12.518  1.00  0.00    -0.297 N 
ATOM     26  H1  UNL     1       0.386  17.789  12.101  1.00  0.00     0.183 HD
BRANCH  25  27
HETATM   27  N2  UNL     1       0.492  19.861  11.839  1.00  0.00    -0.252 N 
HETATM   28  N3  UNL     1      -0.572  20.537  11.967  1.00  0.00    -0.331 N 
ATOM     29  H32 UNL     1      -1.288  20.175  12.597  1.00  0.00     0.178 HD
ATOM     30  H31 UNL     1      -0.734  21.413  11.471  1.00  0.00     0.178 HD
ATOM     31  H2  UNL     1       1.218  20.209  11.213  1.00  0.00     0.207 HD
ENDBRANCH  25  27
ENDBRANCH   1  25
BRANCH   3  32
HETATM   32  O8  UNL     1       4.256  17.575  15.134  1.00  0.00    -0.393 OA
ATOM     33  H8  UNL     1       4.127  18.431  15.524  1.00  0.00     0.210 HD
ENDBRANCH   3  32
BRANCH   6  34
HETATM   34  O14 UNL     1       1.781  20.983  14.162  1.00  0.00    -0.246 OA
BRANCH  34  35
HETATM   35  S1  UNL     1       2.231  21.989  15.303  1.00  0.00     0.252 S 
HETATM   36  O15 UNL     1       2.252  23.421  14.771  1.00  0.00    -0.572 OA
HETATM   37  O16 UNL     1       1.193  22.035  16.418  1.00  0.00    -0.572 OA
HETATM   38  O17 UNL     1       3.702  21.772  16.047  1.00  0.00    -0.572 OA
ENDBRANCH  34  35
ENDBRANCH   6  34
BRANCH   5  39
HETATM   39  O9  UNL     1       4.044  20.856  12.765  1.00  0.00    -0.372 OA
BRANCH  39  40
HETATM   40  C15 UNL     1       4.074  21.477  11.524  1.00  0.00     0.184 C 
HETATM   41  C16 UNL     1       3.078  22.602  11.383  1.00  0.00     0.173 C 
HETATM   42  C17 UNL     1       3.578  23.737  10.523  1.00  0.00     0.201 C 
HETATM   43  O11 UNL     1       4.731  24.320  10.986  1.00  0.00    -0.386 OA
HETATM   44  C18 UNL     1       5.742  24.010  10.053  1.00  0.00     0.201 C 
HETATM   45  C19 UNL     1       5.745  22.497   9.945  1.00  0.00     0.173 C 
HETATM   46  C20 UNL     1       5.495  21.952  11.327  1.00  0.00     0.180 C 
BRANCH  41  47
HETATM   47  O10 UNL     1       1.871  22.188  10.826  1.00  0.00    -0.391 OA
ATOM     48  H10 UNL     1       1.441  22.873  10.327  1.00  0.00     0.210 HD
ENDBRANCH  41  47
BRANCH  45  49
HETATM   49  O12 UNL     1       7.061  22.151   9.557  1.00  0.00    -0.391 OA
ATOM     50  H12 UNL     1       7.631  22.584  10.181  1.00  0.00     0.210 HD
ENDBRANCH  45  49
BRANCH  46  51
HETATM   51  O13 UNL     1       6.340  20.863  11.493  1.00  0.00    -0.390 OA
ATOM     52  H13 UNL     1       6.370  20.385  10.672  1.00  0.00     0.210 HD
ENDBRANCH  46  51
ENDBRANCH  39  40
ENDBRANCH   5  39
TORSDOF 16
ENDMDL
MODEL 3
REMARK VINA RESULT: -7.540189231      2.452      7.652
REMARK  16 active torsions:
REMARK  status: ('A' for Active; 'I' for Inactive)
REMARK    1  A    between atoms: O1_2  and  C2_3 
REMARK    2  A    between atoms: C2_3  and  C3_5 
REMARK    3  A    between atoms: C3_5  and  N1_6 
REMARK    4  A    between atoms: N1_6  and  N2_8 
REMARK    5  A    between atoms: C4_13  and  O3_14 
REMARK    6  A    between atoms: O3_14  and  C5_15 
REMARK    7  A    between atoms: C7_18  and  O5_19 
REMARK    8  A    between atoms: C10_24  and  O7_25 
REMARK    9  A    between atoms: C12_28  and  O8_29 
REMARK   10  A    between atoms: C14_32  and  O9_33 
REMARK   11  A    between atoms: O9_33  and  C15_34 
REMARK   12  A    between atoms: C16_35  and  O10_36 
REMARK   13  A    between atoms: C19_41  and  O12_42 
REMARK   14  A    between atoms: C20_44  and  O13_45 
REMARK   15  A    between atoms: C21_47  and  O14_48 
REMARK   16  A    between atoms: O14_48  and  S1_49 
ROOT
HETATM    1  C3  UNL     1       1.776  19.333  13.090  1.00  0.00     0.192 C 
HETATM    2  C4  UNL     1       2.725  18.209  12.736  1.00  0.00     0.196 C 
HETATM    3  C12 UNL     1       4.048  18.658  12.247  1.00  0.00     0.152 C 
HETATM    4  C13 UNL     1       4.126  19.922  11.480  1.00  0.00     0.069 C 
HETATM    5  C14 UNL     1       3.090  20.954  11.853  1.00  0.00     0.158 C 
HETATM    6  C21 UNL     1       2.542  20.634  13.213  1.00  0.00     0.216 C 
ENDROOT
BRANCH   2   7
HETATM    7  O3  UNL     1       2.022  17.308  12.063  1.00  0.00    -0.350 OA
BRANCH   7   8
HETATM    8  C5  UNL     1       2.451  16.245  11.405  1.00  0.00     0.269 C 
HETATM    9  O4  UNL     1       3.675  15.705  11.880  1.00  0.00    -0.358 OA
HETATM   10  C6  UNL     1       3.983  14.496  11.263  1.00  0.00     0.205 C 
HETATM   11  C7  UNL     1       3.076  13.391  11.779  1.00  0.00     0.171 C 
HETATM   12  C8  UNL     1       1.690  13.905  11.783  1.00  0.00     0.163 C 
HETATM   13  O6  UNL     1       1.246  14.368  13.018  1.00  0.00    -0.380 OA
HETATM   14  C11 UNL     1       1.500  15.193  10.960  1.00  0.00     0.103 C 
HETATM   15  C9  UNL     1       0.019  15.016  12.741  1.00  0.00     0.200 C 
HETATM   16  C10 UNL     1       0.061  15.430  11.293  1.00  0.00     0.153 C 
BRANCH  11  17
HETATM   17  O5  UNL     1       3.166  12.246  11.019  1.00  0.00    -0.391 OA
ATOM     18  H5  UNL     1       2.850  12.377  10.133  1.00  0.00     0.210 HD
ENDBRANCH  11  17
BRANCH  16  19
HETATM   19  O7  UNL     1      -0.670  14.435  10.596  1.00  0.00    -0.393 OA
ATOM     20  H7  UNL     1      -0.335  14.452   9.707  1.00  0.00     0.210 HD
ENDBRANCH  16  19
ENDBRANCH   7   8
ENDBRANCH   2   7
BRANCH   1  21
HETATM   21  C2  UNL     1       1.127  18.975  14.382  1.00  0.00     0.294 C 
HETATM   22  O2  UNL     1       1.844  18.596  15.330  1.00  0.00    -0.262 OA
BRANCH  21  23
HETATM   23  O1  UNL     1      -0.244  19.049  14.572  1.00  0.00    -0.324 OA
HETATM   24  C1  UNL     1      -0.903  17.888  15.043  1.00  0.00     0.213 C 
ENDBRANCH  21  23
ENDBRANCH   1  21
BRANCH   1  25
HETATM   25  N1  UNL     1       0.709  19.450  12.103  1.00  0.00    -0.297 N 
ATOM     26  H1  UNL     1       0.681  18.789  11.327  1.00  0.00     0.183 HD
BRANCH  25  27
HETATM   27  N2  UNL     1      -0.276  20.438  12.186  1.00  0.00    -0.252 N 
HETATM   28  N3  UNL     1      -0.219  21.523  11.534  1.00  0.00    -0.331 N 
ATOM     29  H32 UNL     1       0.588  21.665  10.925  1.00  0.00     0.178 HD
ATOM     30  H31 UNL     1      -0.937  22.244  11.594  1.00  0.00     0.178 HD
ATOM     31  H2  UNL     1      -1.075  20.280  12.799  1.00  0.00     0.207 HD
ENDBRANCH  25  27
ENDBRANCH   1  25
BRANCH   3  32
HETATM   32  O8  UNL     1       5.031  18.720  13.267  1.00  0.00    -0.393 OA
ATOM     33  H8  UNL     1       5.636  19.444  13.162  1.00  0.00     0.210 HD
ENDBRANCH   3  32
BRANCH   6  34
HETATM   34  O14 UNL     1       1.895  21.637  13.849  1.00  0.00    -0.246 OA
BRANCH  34  35
HETATM   35  S1  UNL     1       2.314  22.199  15.272  1.00  0.00     0.252 S 
HETATM   36  O15 UNL     1       1.303  21.769  16.333  1.00  0.00    -0.572 OA
HETATM   37  O16 UNL     1       3.617  21.561  15.738  1.00  0.00    -0.572 OA
HETATM   38  O17 UNL     1       2.501  23.838  15.477  1.00  0.00    -0.572 OA
ENDBRANCH  34  35
ENDBRANCH   6  34
BRANCH   5  39
HETATM   39  O9  UNL     1       3.570  22.231  11.868  1.00  0.00    -0.372 OA
BRANCH  39  40
HETATM   40  C15 UNL     1       3.768  22.796  10.615  1.00  0.00     0.184 C 
HETATM   41  C16 UNL     1       2.623  23.662  10.152  1.00  0.00     0.173 C 
HETATM   42  C17 UNL     1       3.066  24.847   9.329  1.00  0.00     0.201 C 
HETATM   43  O11 UNL     1       3.925  25.691   9.987  1.00  0.00    -0.386 OA
HETATM   44  C18 UNL     1       5.173  25.581   9.340  1.00  0.00     0.201 C 
HETATM   45  C19 UNL     1       5.519  24.105   9.371  1.00  0.00     0.173 C 
HETATM   46  C20 UNL     1       5.062  23.570  10.704  1.00  0.00     0.180 C 
BRANCH  41  47
HETATM   47  O10 UNL     1       1.699  22.966   9.374  1.00  0.00    -0.391 OA
ATOM     48  H10 UNL     1       0.838  22.925   9.773  1.00  0.00     0.210 HD
ENDBRANCH  41  47
BRANCH  45  49
HETATM   49  O12 UNL     1       6.931  24.049   9.324  1.00  0.00    -0.391 OA
ATOM     50  H12 UNL     1       7.177  23.364   9.934  1.00  0.00     0.210 HD
ENDBRANCH  45  49
BRANCH  46  51
HETATM   51  O13 UNL     1       6.052  22.706  11.154  1.00  0.00    -0.390 OA
ATOM     52  H13 UNL     1       6.505  22.357  10.396  1.00  0.00     0.210 HD
ENDBRANCH  46  51
ENDBRANCH  39  40
ENDBRANCH   5  39
TORSDOF 16
ENDMDL
MODEL 4
REMARK VINA RESULT: -7.530576356      2.867      7.541
REMARK  16 active torsions:
REMARK  status: ('A' for Active; 'I' for Inactive)
REMARK    1  A    between atoms: O1_2  and  C2_3 
REMARK    2  A    between atoms: C2_3  and  C3_5 
REMARK    3  A    between atoms: C3_5  and  N1_6 
REMARK    4  A    between atoms: N1_6  and  N2_8 
REMARK    5  A    between atoms: C4_13  and  O3_14 
REMARK    6  A    between atoms: O3_14  and  C5_15 
REMARK    7  A    between atoms: C7_18  and  O5_19 
REMARK    8  A    between atoms: C10_24  and  O7_25 
REMARK    9  A    between atoms: C12_28  and  O8_29 
REMARK   10  A    between atoms: C14_32  and  O9_33 
REMARK   11  A    between atoms: O9_33  and  C15_34 
REMARK   12  A    between atoms: C16_35  and  O10_36 
REMARK   13  A    between atoms: C19_41  and  O12_42 
REMARK   14  A    between atoms: C20_44  and  O13_45 
REMARK   15  A    between atoms: C21_47  and  O14_48 
REMARK   16  A    between atoms: O14_48  and  S1_49 
ROOT
HETATM    1  C3  UNL     1       1.198  19.119  12.873  1.00  0.00     0.192 C 
HETATM    2  C4  UNL     1       1.830  17.824  12.409  1.00  0.00     0.196 C 
HETATM    3  C12 UNL     1       3.226  17.961  11.935  1.00  0.00     0.152 C 
HETATM    4  C13 UNL     1       3.627  19.225  11.276  1.00  0.00     0.069 C 
HETATM    5  C14 UNL     1       2.888  20.450  11.753  1.00  0.00     0.158 C 
HETATM    6  C21 UNL     1       2.271  20.166  13.091  1.00  0.00     0.216 C 
ENDROOT
BRANCH   2   7
HETATM    7  O3  UNL     1       0.922  17.193  11.675  1.00  0.00    -0.350 OA
BRANCH   7   8
HETATM    8  C5  UNL     1       0.736  15.894  11.527  1.00  0.00     0.269 C 
HETATM    9  O4  UNL     1       1.428  15.082  12.464  1.00  0.00    -0.358 OA
HETATM   10  C6  UNL     1       1.057  13.744  12.366  1.00  0.00     0.205 C 
HETATM   11  C7  UNL     1      -0.339  13.537  12.930  1.00  0.00     0.171 C 
HETATM   12  C8  UNL     1      -1.210  14.603  12.393  1.00  0.00     0.163 C 
HETATM   13  O6  UNL     1      -1.402  15.684  13.248  1.00  0.00    -0.380 OA
HETATM   14  C11 UNL     1      -0.607  15.354  11.189  1.00  0.00     0.103 C 
HETATM   15  C9  UNL     1      -2.049  16.662  12.456  1.00  0.00     0.200 C 
HETATM   16  C10 UNL     1      -1.696  16.366  11.022  1.00  0.00     0.153 C 
BRANCH  11  17
HETATM   17  O5  UNL     1      -0.847  12.295  12.621  1.00  0.00    -0.391 OA
ATOM     18  H5  UNL     1      -0.439  11.921  11.850  1.00  0.00     0.210 HD
ENDBRANCH  11  17
BRANCH  16  19
HETATM   19  O7  UNL     1      -2.808  15.661  10.498  1.00  0.00    -0.393 OA
ATOM     20  H7  UNL     1      -2.907  15.973   9.606  1.00  0.00     0.210 HD
ENDBRANCH  16  19
ENDBRANCH   7   8
ENDBRANCH   2   7
BRANCH   1  21
HETATM   21  C2  UNL     1       0.474  18.829  14.141  1.00  0.00     0.294 C 
HETATM   22  O2  UNL     1       1.025  18.105  14.996  1.00  0.00    -0.262 OA
BRANCH  21  23
HETATM   23  O1  UNL     1      -0.789  19.333  14.410  1.00  0.00    -0.324 OA
HETATM   24  C1  UNL     1      -1.209  19.361  15.761  1.00  0.00     0.213 C 
ENDBRANCH  21  23
ENDBRANCH   1  21
BRANCH   1  25
HETATM   25  N1  UNL     1       0.201  19.587  11.918  1.00  0.00    -0.297 N 
ATOM     26  H1  UNL     1      -0.008  19.014  11.101  1.00  0.00     0.183 HD
BRANCH  25  27
HETATM   27  N2  UNL     1      -0.479  20.797  12.087  1.00  0.00    -0.252 N 
HETATM   28  N3  UNL     1      -0.183  21.848  11.444  1.00  0.00    -0.331 N 
ATOM     29  H32 UNL     1       0.587  21.792  10.778  1.00  0.00     0.178 HD
ATOM     30  H31 UNL     1      -0.679  22.730  11.567  1.00  0.00     0.178 HD
ATOM     31  H2  UNL     1      -1.247  20.836  12.757  1.00  0.00     0.207 HD
ENDBRANCH  25  27
ENDBRANCH   1  25
BRANCH   3  32
HETATM   32  O8  UNL     1       4.188  17.683  12.940  1.00  0.00    -0.393 OA
ATOM     33  H8  UNL     1       4.070  18.203  13.727  1.00  0.00     0.210 HD
ENDBRANCH   3  32
BRANCH   6  34
HETATM   34  O14 UNL     1       1.898  21.242  13.820  1.00  0.00    -0.246 OA
BRANCH  34  35
HETATM   35  S1  UNL     1       2.526  21.618  15.227  1.00  0.00     0.252 S 
HETATM   36  O15 UNL     1       3.960  21.100  15.325  1.00  0.00    -0.572 OA
HETATM   37  O16 UNL     1       2.679  23.128  15.361  1.00  0.00    -0.572 OA
HETATM   38  O17 UNL     1       1.775  21.103  16.619  1.00  0.00    -0.572 OA
ENDBRANCH  34  35
ENDBRANCH   6  34
BRANCH   5  39
HETATM   39  O9  UNL     1       3.678  21.557  11.866  1.00  0.00    -0.372 OA
BRANCH  39  40
HETATM   40  C15 UNL     1       4.000  22.172  10.664  1.00  0.00     0.184 C 
HETATM   41  C16 UNL     1       3.092  23.323  10.308  1.00  0.00     0.173 C 
HETATM   42  C17 UNL     1       3.802  24.440   9.581  1.00  0.00     0.201 C 
HETATM   43  O11 UNL     1       4.840  24.992  10.289  1.00  0.00    -0.386 OA
HETATM   44  C18 UNL     1       6.023  24.649   9.603  1.00  0.00     0.201 C 
HETATM   45  C19 UNL     1       6.007  23.137   9.495  1.00  0.00     0.173 C 
HETATM   46  C20 UNL     1       5.442  22.606  10.787  1.00  0.00     0.180 C 
BRANCH  41  47
HETATM   47  O10 UNL     1       2.027  22.940   9.495  1.00  0.00    -0.391 OA
ATOM     48  H10 UNL     1       2.296  22.730   8.609  1.00  0.00     0.210 HD
ENDBRANCH  41  47
BRANCH  45  49
HETATM   49  O12 UNL     1       7.366  22.752   9.408  1.00  0.00    -0.391 OA
ATOM     50  H12 UNL     1       7.354  21.815   9.253  1.00  0.00     0.210 HD
ENDBRANCH  45  49
BRANCH  46  51
HETATM   51  O13 UNL     1       6.199  21.494  11.134  1.00  0.00    -0.390 OA
ATOM     52  H13 UNL     1       7.072  21.790  11.359  1.00  0.00     0.210 HD
ENDBRANCH  46  51
ENDBRANCH  39  40
ENDBRANCH   5  39
TORSDOF 16
ENDMDL
MODEL 5
REMARK VINA RESULT: -7.466160986      2.554      7.841
REMARK  16 active torsions:
REMARK  status: ('A' for Active; 'I' for Inactive)
REMARK    1  A    between atoms: O1_2  and  C2_3 
REMARK    2  A    between atoms: C2_3  and  C3_5 
REMARK    3  A    between atoms: C3_5  and  N1_6 
REMARK    4  A    between atoms: N1_6  and  N2_8 
REMARK    5  A    between atoms: C4_13  and  O3_14 
REMARK    6  A    between atoms: O3_14  and  C5_15 
REMARK    7  A    between atoms: C7_18  and  O5_19 
REMARK    8  A    between atoms: C10_24  and  O7_25 
REMARK    9  A    between atoms: C12_28  and  O8_29 
REMARK   10  A    between atoms: C14_32  and  O9_33 
REMARK   11  A    between atoms: O9_33  and  C15_34 
REMARK   12  A    between atoms: C16_35  and  O10_36 
REMARK   13  A    between atoms: C19_41  and  O12_42 
REMARK   14  A    between atoms: C20_44  and  O13_45 
REMARK   15  A    between atoms: C21_47  and  O14_48 
REMARK   16  A    between atoms: O14_48  and  S1_49 
ROOT
HETATM    1  C3  UNL     1       2.135  20.127  13.273  1.00  0.00     0.192 C 
HETATM    2  C4  UNL     1       3.324  19.192  13.307  1.00  0.00     0.196 C 
HETATM    3  C12 UNL     1       4.611  19.825  12.941  1.00  0.00     0.152 C 
HETATM    4  C13 UNL     1       4.599  20.925  11.950  1.00  0.00     0.069 C 
HETATM    5  C14 UNL     1       3.340  21.756  11.941  1.00  0.00     0.158 C 
HETATM    6  C21 UNL     1       2.612  21.564  13.239  1.00  0.00     0.216 C 
ENDROOT
BRANCH   2   7
HETATM    7  O3  UNL     1       2.939  18.058  12.736  1.00  0.00    -0.350 OA
BRANCH   7   8
HETATM    8  C5  UNL     1       3.557  16.890  12.715  1.00  0.00     0.269 C 
HETATM    9  O4  UNL     1       4.256  16.564  13.907  1.00  0.00    -0.358 OA
HETATM   10  C6  UNL     1       4.736  15.258  13.886  1.00  0.00     0.205 C 
HETATM   11  C7  UNL     1       3.596  14.269  14.059  1.00  0.00     0.171 C 
HETATM   12  C8  UNL     1       2.495  14.682  13.163  1.00  0.00     0.163 C 
HETATM   13  O6  UNL     1       1.489  15.419  13.781  1.00  0.00    -0.380 OA
HETATM   14  C11 UNL     1       2.916  15.704  12.088  1.00  0.00     0.103 C 
HETATM   15  C9  UNL     1       0.688  15.900  12.717  1.00  0.00     0.200 C 
HETATM   16  C10 UNL     1       1.563  15.931  11.492  1.00  0.00     0.153 C 
BRANCH  11  17
HETATM   17  O5  UNL     1       3.982  12.976  13.788  1.00  0.00    -0.391 OA
ATOM     18  H5  UNL     1       4.349  12.543  14.549  1.00  0.00     0.210 HD
ENDBRANCH  11  17
BRANCH  16  19
HETATM   19  O7  UNL     1       1.250  14.748  10.775  1.00  0.00    -0.393 OA
ATOM     20  H7  UNL     1       0.538  14.343  11.256  1.00  0.00     0.210 HD
ENDBRANCH  16  19
ENDBRANCH   7   8
ENDBRANCH   2   7
BRANCH   1  21
HETATM   21  C2  UNL     1       1.330  19.865  14.498  1.00  0.00     0.294 C 
HETATM   22  O2  UNL     1       1.916  19.784  15.597  1.00  0.00    -0.262 OA
BRANCH  21  23
HETATM   23  O1  UNL     1      -0.047  19.708  14.465  1.00  0.00    -0.324 OA
HETATM   24  C1  UNL     1      -0.587  18.537  15.047  1.00  0.00     0.213 C 
ENDBRANCH  21  23
ENDBRANCH   1  21
BRANCH   1  25
HETATM   25  N1  UNL     1       1.272  19.838  12.134  1.00  0.00    -0.297 N 
ATOM     26  H1  UNL     1       1.465  19.014  11.566  1.00  0.00     0.183 HD
BRANCH  25  27
HETATM   27  N2  UNL     1       0.190  20.656  11.796  1.00  0.00    -0.252 N 
HETATM   28  N3  UNL     1      -1.006  20.238  11.769  1.00  0.00    -0.331 N 
ATOM     29  H32 UNL     1      -1.169  19.260  12.008  1.00  0.00     0.178 HD
ATOM     30  H31 UNL     1      -1.795  20.834  11.523  1.00  0.00     0.178 HD
ATOM     31  H2  UNL     1       0.370  21.632  11.560  1.00  0.00     0.207 HD
ENDBRANCH  25  27
ENDBRANCH   1  25
BRANCH   3  32
HETATM   32  O8  UNL     1       5.354  20.273  14.063  1.00  0.00    -0.393 OA
ATOM     33  H8  UNL     1       6.292  20.171  13.957  1.00  0.00     0.210 HD
ENDBRANCH   3  32
BRANCH   6  34
HETATM   34  O14 UNL     1       1.683  22.497  13.549  1.00  0.00    -0.246 OA
BRANCH  34  35
HETATM   35  S1  UNL     1       1.690  23.341  14.891  1.00  0.00     0.252 S 
HETATM   36  O15 UNL     1       1.537  24.830  14.585  1.00  0.00    -0.572 OA
HETATM   37  O16 UNL     1       0.462  23.019  15.734  1.00  0.00    -0.572 OA
HETATM   38  O17 UNL     1       2.996  23.232  15.915  1.00  0.00    -0.572 OA
ENDBRANCH  34  35
ENDBRANCH   6  34
BRANCH   5  39
HETATM   39  O9  UNL     1       3.566  23.091  11.763  1.00  0.00    -0.372 OA
BRANCH  39  40
HETATM   40  C15 UNL     1       3.667  23.496  10.439  1.00  0.00     0.184 C 
HETATM   41  C16 UNL     1       2.413  24.144   9.906  1.00  0.00     0.173 C 
HETATM   42  C17 UNL     1       2.687  25.248   8.914  1.00  0.00     0.201 C 
HETATM   43  O11 UNL     1       3.448  26.273   9.419  1.00  0.00    -0.386 OA
HETATM   44  C18 UNL     1       4.686  26.226   8.747  1.00  0.00     0.201 C 
HETATM   45  C19 UNL     1       5.214  24.821   8.964  1.00  0.00     0.173 C 
HETATM   46  C20 UNL     1       4.855  24.426  10.374  1.00  0.00     0.180 C 
BRANCH  41  47
HETATM   47  O10 UNL     1       1.568  23.241   9.265  1.00  0.00    -0.391 OA
ATOM     48  H10 UNL     1       0.779  23.649   8.927  1.00  0.00     0.210 HD
ENDBRANCH  41  47
BRANCH  45  49
HETATM   49  O12 UNL     1       6.622  24.930   8.873  1.00  0.00    -0.391 OA
ATOM     50  H12 UNL     1       6.796  25.210   7.982  1.00  0.00     0.210 HD
ENDBRANCH  45  49
BRANCH  46  51
HETATM   51  O13 UNL     1       5.954  23.758  10.899  1.00  0.00    -0.390 OA
ATOM     52  H13 UNL     1       6.675  24.374  10.953  1.00  0.00     0.210 HD
ENDBRANCH  46  51
ENDBRANCH  39  40
ENDBRANCH   5  39
TORSDOF 16
ENDMDL
