MODEL 1
REMARK VINA RESULT: -7.148720620      0.000      0.000
REMARK  18 active torsions:
REMARK  status: ('A' for Active; 'I' for Inactive)
REMARK    1  A    between atoms: C2_2  and  O1_3 
REMARK    2  A    between atoms: C2_2  and  C3_5 
REMARK    3  A    between atoms: C4_7  and  O3_8 
REMARK    4  A    between atoms: O3_8  and  C5_9 
REMARK    5  A    between atoms: C6_10  and  N1_11 
REMARK    6  A    between atoms: C7_15  and  C8_16 
REMARK    7  A    between atoms: C8_16  and  N2_17 
REMARK    8  A    between atoms: C11_21  and  N3_22 
REMARK    9  A    between atoms: N3_22  and  C13_24 
REMARK   10  A    between atoms: C18_30  and  O5_31 
REMARK   11  A    between atoms: O5_31  and  C19_32 
REMARK   12  A    between atoms: C20_33  and  N5_34 
REMARK   13  A    between atoms: C22_40  and  O7_41 
REMARK   14  A    between atoms: C23_43  and  O8_44 
REMARK   15  A    between atoms: C24_46  and  O9_47 
REMARK   16  A    between atoms: C25_49  and  O10_50 
REMARK   17  A    between atoms: C26_52  and  O11_53 
REMARK   18  A    between atoms: C27_55  and  O12_56 
ROOT
HETATM    1  C5  UNL     1       3.029  20.563  14.223  1.00  0.00     0.191 C 
HETATM    2  C6  UNL     1       2.859  21.351  15.598  1.00  0.00     0.245 C 
HETATM    3  C7  UNL     1       1.453  21.746  15.825  1.00  0.00     0.174 C 
HETATM    4  O4  UNL     1       0.888  22.460  14.765  1.00  0.00    -0.355 OA
HETATM    5  C11 UNL     1       0.943  21.586  13.670  1.00  0.00     0.251 C 
HETATM    6  C18 UNL     1       2.375  21.513  13.271  1.00  0.00     0.201 C 
ENDROOT
BRANCH   6   7
HETATM    7  O5  UNL     1       2.500  21.311  11.918  1.00  0.00    -0.368 OA
BRANCH   7   8
HETATM    8  C19 UNL     1       3.387  22.147  11.313  1.00  0.00     0.191 C 
HETATM    9  C20 UNL     1       4.260  21.519  10.292  1.00  0.00     0.286 C 
HETATM   10  C21 UNL     1       5.498  22.351  10.287  1.00  0.00     0.190 C 
HETATM   11  O6  UNL     1       6.560  21.918   9.974  1.00  0.00    -0.293 OA
HETATM   12  C22 UNL     1       5.307  23.751  10.696  1.00  0.00     0.221 C 
HETATM   13  C23 UNL     1       3.963  24.273  10.296  1.00  0.00     0.185 C 
HETATM   14  C24 UNL     1       2.792  23.378  10.631  1.00  0.00     0.181 C 
BRANCH   9  15
HETATM   15  N5  UNL     1       4.482  20.116  10.396  1.00  0.00    -0.066 N 
ATOM     16  H53 UNL     1       4.779  19.890  11.346  1.00  0.00     0.275 HD
ATOM     17  H52 UNL     1       3.587  19.628  10.354  1.00  0.00     0.275 HD
ATOM     18  H51 UNL     1       5.129  19.693   9.731  1.00  0.00     0.275 HD
ENDBRANCH   9  15
BRANCH  12  19
HETATM   19  O7  UNL     1       6.265  24.514  10.025  1.00  0.00    -0.385 OA
ATOM     20  H7  UNL     1       7.028  24.568  10.587  1.00  0.00     0.210 HD
ENDBRANCH  12  19
BRANCH  13  21
HETATM   21  O8  UNL     1       3.798  25.541  10.908  1.00  0.00    -0.390 OA
ATOM     22  H8  UNL     1       2.866  25.681  11.029  1.00  0.00     0.210 HD
ENDBRANCH  13  21
BRANCH  14  23
HETATM   23  O9  UNL     1       2.226  22.975   9.425  1.00  0.00    -0.390 OA
ATOM     24  H9  UNL     1       1.374  22.596   9.608  1.00  0.00     0.210 HD
ENDBRANCH  14  23
ENDBRANCH   7   8
ENDBRANCH   6   7
BRANCH   1  25
HETATM   25  O3  UNL     1       4.388  20.406  14.107  1.00  0.00    -0.348 OA
BRANCH  25  26
HETATM   26  C4  UNL     1       4.800  19.118  13.713  1.00  0.00     0.292 C 
HETATM   27  O2  UNL     1       3.800  18.603  12.955  1.00  0.00    -0.348 OA
HETATM   28  C3  UNL     1       3.342  17.356  13.097  1.00  0.00     0.184 C 
HETATM   29  C27 UNL     1       4.341  16.291  13.468  1.00  0.00     0.181 C 
HETATM   30  C26 UNL     1       5.496  16.847  14.253  1.00  0.00     0.183 C 
HETATM   31  C25 UNL     1       5.131  18.209  14.854  1.00  0.00     0.204 C 
BRANCH  28  32
HETATM   32  C2  UNL     1       2.509  16.898  11.877  1.00  0.00     0.145 C 
HETATM   33  C1  UNL     1       1.141  17.488  12.041  1.00  0.00     0.042 C 
BRANCH  32  34
HETATM   34  O1  UNL     1       3.126  17.236  10.685  1.00  0.00    -0.393 OA
ATOM     35  H1  UNL     1       3.712  17.981  10.753  1.00  0.00     0.210 HD
ENDBRANCH  32  34
ENDBRANCH  28  32
BRANCH  29  36
HETATM   36  O12 UNL     1       4.835  15.723  12.296  1.00  0.00    -0.390 OA
ATOM     37  H12 UNL     1       5.426  15.017  12.529  1.00  0.00     0.210 HD
ENDBRANCH  29  36
BRANCH  30  38
HETATM   38  O11 UNL     1       6.685  16.891  13.534  1.00  0.00    -0.390 OA
ATOM     39  H11 UNL     1       6.948  16.034  13.222  1.00  0.00     0.210 HD
ENDBRANCH  30  38
BRANCH  31  40
HETATM   40  O10 UNL     1       4.047  17.992  15.698  1.00  0.00    -0.388 OA
ATOM     41  H10 UNL     1       4.263  17.434  16.436  1.00  0.00     0.210 HD
ENDBRANCH  31  40
ENDBRANCH  25  26
ENDBRANCH   1  25
BRANCH   5  42
HETATM   42  N3  UNL     1       0.038  21.800  12.637  1.00  0.00    -0.384 N 
HETATM   43  C12 UNL     1      -0.702  20.715  12.118  1.00  0.00     0.146 C 
BRANCH  42  44
HETATM   44  C13 UNL     1      -0.533  23.084  12.496  1.00  0.00     0.111 C 
HETATM   45  C14 UNL     1      -0.729  23.397  11.027  1.00  0.00     0.057 C 
HETATM   46  C15 UNL     1      -2.251  23.439  10.895  1.00  0.00     0.274 C 
HETATM   47  N4  UNL     1      -2.765  23.847  12.167  1.00  0.00     0.086 N 
HETATM   48  C16 UNL     1      -4.055  23.287  12.466  1.00  0.00     0.310 C 
HETATM   49  C17 UNL     1      -1.832  23.344  13.173  1.00  0.00     0.296 C 
ENDBRANCH  42  44
ENDBRANCH   5  42
BRANCH   2  50
HETATM   50  N1  UNL     1       3.305  20.551  16.688  1.00  0.00    -0.070 N 
ATOM     51  H13 UNL     1       2.735  19.712  16.802  1.00  0.00     0.274 HD
ATOM     52  H12 UNL     1       4.199  20.101  16.488  1.00  0.00     0.274 HD
ATOM     53  H11 UNL     1       3.343  21.104  17.544  1.00  0.00     0.274 HD
ENDBRANCH   2  50
BRANCH   3  54
HETATM   54  C8  UNL     1       1.377  22.576  17.068  1.00  0.00     0.150 C 
BRANCH  54  55
HETATM   55  N2  UNL     1       0.042  23.015  17.299  1.00  0.00    -0.418 N 
HETATM   56  C9  UNL     1      -0.889  22.102  17.831  1.00  0.00     0.142 C 
HETATM   57  C10 UNL     1      -0.093  24.379  17.709  1.00  0.00     0.142 C 
ENDBRANCH  54  55
ENDBRANCH   3  54
TORSDOF 18
ENDMDL
MODEL 2
REMARK VINA RESULT: -7.067190937      2.366      7.113
REMARK  18 active torsions:
REMARK  status: ('A' for Active; 'I' for Inactive)
REMARK    1  A    between atoms: C2_2  and  O1_3 
REMARK    2  A    between atoms: C2_2  and  C3_5 
REMARK    3  A    between atoms: C4_7  and  O3_8 
REMARK    4  A    between atoms: O3_8  and  C5_9 
REMARK    5  A    between atoms: C6_10  and  N1_11 
REMARK    6  A    between atoms: C7_15  and  C8_16 
REMARK    7  A    between atoms: C8_16  and  N2_17 
REMARK    8  A    between atoms: C11_21  and  N3_22 
REMARK    9  A    between atoms: N3_22  and  C13_24 
REMARK   10  A    between atoms: C18_30  and  O5_31 
REMARK   11  A    between atoms: O5_31  and  C19_32 
REMARK   12  A    between atoms: C20_33  and  N5_34 
REMARK   13  A    between atoms: C22_40  and  O7_41 
REMARK   14  A    between atoms: C23_43  and  O8_44 
REMARK   15  A    between atoms: C24_46  and  O9_47 
REMARK   16  A    between atoms: C25_49  and  O10_50 
REMARK   17  A    between atoms: C26_52  and  O11_53 
REMARK   18  A    between atoms: C27_55  and  O12_56 
ROOT
HETATM    1  C5  UNL     1       3.496  20.860  12.083  1.00  0.00     0.191 C 
HETATM    2  C6  UNL     1       4.848  20.302  12.717  1.00  0.00     0.245 C 
HETATM    3  C7  UNL     1       4.763  18.851  12.980  1.00  0.00     0.174 C 
HETATM    4  O4  UNL     1       3.658  18.480  13.750  1.00  0.00    -0.355 OA
HETATM    5  C11 UNL     1       2.543  18.870  12.995  1.00  0.00     0.251 C 
HETATM    6  C18 UNL     1       2.493  20.355  13.070  1.00  0.00     0.201 C 
ENDROOT
BRANCH   6   7
HETATM    7  O5  UNL     1       1.197  20.808  13.012  1.00  0.00    -0.368 OA
BRANCH   7   8
HETATM    8  C19 UNL     1       0.944  21.867  13.828  1.00  0.00     0.191 C 
HETATM    9  C20 UNL     1      -0.482  22.072  14.180  1.00  0.00     0.286 C 
HETATM   10  C21 UNL     1      -0.600  23.535  14.448  1.00  0.00     0.190 C 
HETATM   11  O6  UNL     1      -1.615  24.135  14.299  1.00  0.00    -0.293 OA
HETATM   12  C22 UNL     1       0.636  24.182  14.917  1.00  0.00     0.221 C 
HETATM   13  C23 UNL     1       1.473  23.258  15.744  1.00  0.00     0.185 C 
HETATM   14  C24 UNL     1       1.693  21.881  15.160  1.00  0.00     0.181 C 
BRANCH   9  15
HETATM   15  N5  UNL     1      -1.459  21.547  13.286  1.00  0.00    -0.066 N 
ATOM     16  H53 UNL     1      -2.079  22.299  12.984  1.00  0.00     0.275 HD
ATOM     17  H52 UNL     1      -1.011  21.303  12.403  1.00  0.00     0.275 HD
ATOM     18  H51 UNL     1      -2.017  20.759  13.612  1.00  0.00     0.275 HD
ENDBRANCH   9  15
BRANCH  12  19
HETATM   19  O7  UNL     1       0.262  25.248  15.736  1.00  0.00    -0.385 OA
ATOM     20  H7  UNL     1       0.880  25.953  15.583  1.00  0.00     0.210 HD
ENDBRANCH  12  19
BRANCH  13  21
HETATM   21  O8  UNL     1       2.719  23.896  15.969  1.00  0.00    -0.390 OA
ATOM     22  H8  UNL     1       3.260  23.298  16.471  1.00  0.00     0.210 HD
ENDBRANCH  13  21
BRANCH  14  23
HETATM   23  O9  UNL     1       1.078  20.971  16.015  1.00  0.00    -0.390 OA
ATOM     24  H9  UNL     1       1.715  20.306  16.250  1.00  0.00     0.210 HD
ENDBRANCH  14  23
ENDBRANCH   7   8
ENDBRANCH   6   7
BRANCH   1  25
HETATM   25  O3  UNL     1       3.696  22.219  12.042  1.00  0.00    -0.348 OA
BRANCH  25  26
HETATM   26  C4  UNL     1       3.131  22.863  10.923  1.00  0.00     0.292 C 
HETATM   27  O2  UNL     1       4.153  23.447  10.252  1.00  0.00    -0.348 OA
HETATM   28  C3  UNL     1       4.100  24.696   9.780  1.00  0.00     0.184 C 
HETATM   29  C27 UNL     1       2.769  25.186   9.269  1.00  0.00     0.181 C 
HETATM   30  C26 UNL     1       1.616  24.504   9.951  1.00  0.00     0.183 C 
HETATM   31  C25 UNL     1       2.072  23.863  11.267  1.00  0.00     0.204 C 
BRANCH  28  32
HETATM   32  C2  UNL     1       5.202  24.971   8.730  1.00  0.00     0.145 C 
HETATM   33  C1  UNL     1       6.346  25.606   9.460  1.00  0.00     0.042 C 
BRANCH  32  34
HETATM   34  O1  UNL     1       5.546  23.821   8.041  1.00  0.00    -0.393 OA
ATOM     35  H1  UNL     1       5.249  23.020   8.457  1.00  0.00     0.210 HD
ENDBRANCH  32  34
ENDBRANCH  28  32
BRANCH  29  36
HETATM   36  O12 UNL     1       2.695  24.919   7.904  1.00  0.00    -0.390 OA
ATOM     37  H12 UNL     1       1.937  25.367   7.550  1.00  0.00     0.210 HD
ENDBRANCH  29  36
BRANCH  30  38
HETATM   38  O11 UNL     1       0.941  23.604   9.135  1.00  0.00    -0.390 OA
ATOM     39  H11 UNL     1       0.912  23.892   8.230  1.00  0.00     0.210 HD
ENDBRANCH  30  38
BRANCH  31  40
HETATM   40  O10 UNL     1       2.551  24.896  12.066  1.00  0.00    -0.388 OA
ATOM     41  H10 UNL     1       2.058  24.994  12.872  1.00  0.00     0.210 HD
ENDBRANCH  31  40
ENDBRANCH  25  26
ENDBRANCH   1  25
BRANCH   5  42
HETATM   42  N3  UNL     1       1.344  18.211  13.240  1.00  0.00    -0.384 N 
HETATM   43  C12 UNL     1       0.666  17.572  12.178  1.00  0.00     0.146 C 
BRANCH  42  44
HETATM   44  C13 UNL     1       1.100  17.715  14.540  1.00  0.00     0.111 C 
HETATM   45  C14 UNL     1      -0.313  18.061  14.961  1.00  0.00     0.057 C 
HETATM   46  C15 UNL     1      -0.983  16.688  15.037  1.00  0.00     0.274 C 
HETATM   47  N4  UNL     1       0.043  15.745  15.360  1.00  0.00     0.086 N 
HETATM   48  C16 UNL     1      -0.186  14.441  14.800  1.00  0.00     0.310 C 
HETATM   49  C17 UNL     1       1.279  16.257  14.770  1.00  0.00     0.296 C 
ENDBRANCH  42  44
ENDBRANCH   5  42
BRANCH   2  50
HETATM   50  N1  UNL     1       5.948  20.561  11.850  1.00  0.00    -0.070 N 
ATOM     51  H13 UNL     1       6.214  19.732  11.318  1.00  0.00     0.274 HD
ATOM     52  H12 UNL     1       5.683  21.163  11.070  1.00  0.00     0.274 HD
ATOM     53  H11 UNL     1       6.733  20.943  12.375  1.00  0.00     0.274 HD
ENDBRANCH   2  50
BRANCH   3  54
HETATM   54  C8  UNL     1       6.013  18.411  13.676  1.00  0.00     0.150 C 
BRANCH  54  55
HETATM   55  N2  UNL     1       5.802  17.178  14.359  1.00  0.00    -0.418 N 
HETATM   56  C9  UNL     1       6.113  15.975  13.696  1.00  0.00     0.142 C 
HETATM   57  C10 UNL     1       6.033  17.210  15.770  1.00  0.00     0.142 C 
ENDBRANCH  54  55
ENDBRANCH   3  54
TORSDOF 18
ENDMDL
MODEL 3
REMARK VINA RESULT: -6.851852400      2.297      6.912
REMARK  18 active torsions:
REMARK  status: ('A' for Active; 'I' for Inactive)
REMARK    1  A    between atoms: C2_2  and  O1_3 
REMARK    2  A    between atoms: C2_2  and  C3_5 
REMARK    3  A    between atoms: C4_7  and  O3_8 
REMARK    4  A    between atoms: O3_8  and  C5_9 
REMARK    5  A    between atoms: C6_10  and  N1_11 
REMARK    6  A    between atoms: C7_15  and  C8_16 
REMARK    7  A    between atoms: C8_16  and  N2_17 
REMARK    8  A    between atoms: C11_21  and  N3_22 
REMARK    9  A    between atoms: N3_22  and  C13_24 
REMARK   10  A    between atoms: C18_30  and  O5_31 
REMARK   11  A    between atoms: O5_31  and  C19_32 
REMARK   12  A    between atoms: C20_33  and  N5_34 
REMARK   13  A    between atoms: C22_40  and  O7_41 
REMARK   14  A    between atoms: C23_43  and  O8_44 
REMARK   15  A    between atoms: C24_46  and  O9_47 
REMARK   16  A    between atoms: C25_49  and  O10_50 
REMARK   17  A    between atoms: C26_52  and  O11_53 
REMARK   18  A    between atoms: C27_55  and  O12_56 
ROOT
HETATM    1  C5  UNL     1       3.470  20.850  12.111  1.00  0.00     0.191 C 
HETATM    2  C6  UNL     1       4.833  20.307  12.733  1.00  0.00     0.245 C 
HETATM    3  C7  UNL     1       4.773  18.851  12.980  1.00  0.00     0.174 C 
HETATM    4  O4  UNL     1       3.678  18.453  13.749  1.00  0.00    -0.355 OA
HETATM    5  C11 UNL     1       2.553  18.834  13.003  1.00  0.00     0.251 C 
HETATM    6  C18 UNL     1       2.479  20.317  13.096  1.00  0.00     0.201 C 
ENDROOT
BRANCH   6   7
HETATM    7  O5  UNL     1       1.176  20.749  13.049  1.00  0.00    -0.368 OA
BRANCH   7   8
HETATM    8  C19 UNL     1       0.922  21.831  13.834  1.00  0.00     0.191 C 
HETATM    9  C20 UNL     1      -0.503  22.044  14.184  1.00  0.00     0.286 C 
HETATM   10  C21 UNL     1      -0.623  23.514  14.408  1.00  0.00     0.190 C 
HETATM   11  O6  UNL     1      -1.640  24.107  14.244  1.00  0.00    -0.293 OA
HETATM   12  C22 UNL     1       0.614  24.177  14.853  1.00  0.00     0.221 C 
HETATM   13  C23 UNL     1       1.455  23.281  15.704  1.00  0.00     0.185 C 
HETATM   14  C24 UNL     1       1.676  21.888  15.162  1.00  0.00     0.181 C 
BRANCH   9  15
HETATM   15  N5  UNL     1      -1.481  21.490  13.309  1.00  0.00    -0.066 N 
ATOM     16  H53 UNL     1      -1.298  21.804  12.356  1.00  0.00     0.275 HD
ATOM     17  H52 UNL     1      -1.320  20.487  13.215  1.00  0.00     0.275 HD
ATOM     18  H51 UNL     1      -2.461  21.656  13.537  1.00  0.00     0.275 HD
ENDBRANCH   9  15
BRANCH  12  19
HETATM   19  O7  UNL     1       0.239  25.267  15.641  1.00  0.00    -0.385 OA
ATOM     20  H7  UNL     1       0.215  26.030  15.075  1.00  0.00     0.210 HD
ENDBRANCH  12  19
BRANCH  13  21
HETATM   21  O8  UNL     1       2.700  23.929  15.906  1.00  0.00    -0.390 OA
ATOM     22  H8  UNL     1       2.986  24.266  15.065  1.00  0.00     0.210 HD
ENDBRANCH  13  21
BRANCH  14  23
HETATM   23  O9  UNL     1       1.065  21.002  16.046  1.00  0.00    -0.390 OA
ATOM     24  H9  UNL     1       1.605  20.942  16.826  1.00  0.00     0.210 HD
ENDBRANCH  14  23
ENDBRANCH   7   8
ENDBRANCH   6   7
BRANCH   1  25
HETATM   25  O3  UNL     1       3.647  22.212  12.085  1.00  0.00    -0.348 OA
BRANCH  25  26
HETATM   26  C4  UNL     1       3.106  22.854  10.953  1.00  0.00     0.292 C 
HETATM   27  O2  UNL     1       4.146  23.411  10.287  1.00  0.00    -0.348 OA
HETATM   28  C3  UNL     1       4.122  24.656   9.801  1.00  0.00     0.184 C 
HETATM   29  C27 UNL     1       2.806  25.164   9.270  1.00  0.00     0.181 C 
HETATM   30  C26 UNL     1       1.633  24.512   9.946  1.00  0.00     0.183 C 
HETATM   31  C25 UNL     1       2.063  23.877  11.274  1.00  0.00     0.204 C 
BRANCH  28  32
HETATM   32  C2  UNL     1       5.240  24.899   8.760  1.00  0.00     0.145 C 
HETATM   33  C1  UNL     1       6.379  25.541   9.492  1.00  0.00     0.042 C 
BRANCH  32  34
HETATM   34  O1  UNL     1       5.584  23.730   8.102  1.00  0.00    -0.393 OA
ATOM     35  H1  UNL     1       6.294  23.251   8.514  1.00  0.00     0.210 HD
ENDBRANCH  32  34
ENDBRANCH  28  32
BRANCH  29  36
HETATM   36  O12 UNL     1       2.742  24.884   7.907  1.00  0.00    -0.390 OA
ATOM     37  H12 UNL     1       2.926  23.961   7.780  1.00  0.00     0.210 HD
ENDBRANCH  29  36
BRANCH  30  38
HETATM   38  O11 UNL     1       0.951  23.615   9.132  1.00  0.00    -0.390 OA
ATOM     39  H11 UNL     1       0.869  23.931   8.240  1.00  0.00     0.210 HD
ENDBRANCH  30  38
BRANCH  31  40
HETATM   40  O10 UNL     1       2.552  24.910  12.067  1.00  0.00    -0.388 OA
ATOM     41  H10 UNL     1       3.388  25.242  11.759  1.00  0.00     0.210 HD
ENDBRANCH  31  40
ENDBRANCH  25  26
ENDBRANCH   1  25
BRANCH   5  42
HETATM   42  N3  UNL     1       1.367  18.152  13.246  1.00  0.00    -0.384 N 
HETATM   43  C12 UNL     1       0.775  18.208  14.527  1.00  0.00     0.146 C 
BRANCH  42  44
HETATM   44  C13 UNL     1       0.504  17.892  12.158  1.00  0.00     0.111 C 
HETATM   45  C14 UNL     1       0.730  16.483  11.652  1.00  0.00     0.057 C 
HETATM   46  C15 UNL     1      -0.588  15.790  11.996  1.00  0.00     0.274 C 
HETATM   47  N4  UNL     1      -1.603  16.797  11.975  1.00  0.00     0.086 N 
HETATM   48  C16 UNL     1      -2.671  16.549  12.905  1.00  0.00     0.310 C 
HETATM   49  C17 UNL     1      -0.959  18.045  12.382  1.00  0.00     0.296 C 
ENDBRANCH  42  44
ENDBRANCH   5  42
BRANCH   2  50
HETATM   50  N1  UNL     1       5.925  20.594  11.864  1.00  0.00    -0.070 N 
ATOM     51  H13 UNL     1       5.878  21.545  11.497  1.00  0.00     0.274 HD
ATOM     52  H12 UNL     1       6.805  20.671  12.374  1.00  0.00     0.274 HD
ATOM     53  H11 UNL     1       5.978  19.901  11.118  1.00  0.00     0.274 HD
ENDBRANCH   2  50
BRANCH   3  54
HETATM   54  C8  UNL     1       6.033  18.424  13.664  1.00  0.00     0.150 C 
BRANCH  54  55
HETATM   55  N2  UNL     1       5.834  17.200  14.366  1.00  0.00    -0.418 N 
HETATM   56  C9  UNL     1       6.152  15.989  13.720  1.00  0.00     0.142 C 
HETATM   57  C10 UNL     1       6.071  17.254  15.776  1.00  0.00     0.142 C 
ENDBRANCH  54  55
ENDBRANCH   3  54
TORSDOF 18
ENDMDL
MODEL 4
REMARK VINA RESULT: -6.832133124      1.331      2.265
REMARK  18 active torsions:
REMARK  status: ('A' for Active; 'I' for Inactive)
REMARK    1  A    between atoms: C2_2  and  O1_3 
REMARK    2  A    between atoms: C2_2  and  C3_5 
REMARK    3  A    between atoms: C4_7  and  O3_8 
REMARK    4  A    between atoms: O3_8  and  C5_9 
REMARK    5  A    between atoms: C6_10  and  N1_11 
REMARK    6  A    between atoms: C7_15  and  C8_16 
REMARK    7  A    between atoms: C8_16  and  N2_17 
REMARK    8  A    between atoms: C11_21  and  N3_22 
REMARK    9  A    between atoms: N3_22  and  C13_24 
REMARK   10  A    between atoms: C18_30  and  O5_31 
REMARK   11  A    between atoms: O5_31  and  C19_32 
REMARK   12  A    between atoms: C20_33  and  N5_34 
REMARK   13  A    between atoms: C22_40  and  O7_41 
REMARK   14  A    between atoms: C23_43  and  O8_44 
REMARK   15  A    between atoms: C24_46  and  O9_47 
REMARK   16  A    between atoms: C25_49  and  O10_50 
REMARK   17  A    between atoms: C26_52  and  O11_53 
REMARK   18  A    between atoms: C27_55  and  O12_56 
ROOT
HETATM    1  C5  UNL     1       2.926  20.778  14.554  1.00  0.00     0.191 C 
HETATM    2  C6  UNL     1       2.806  21.685  15.859  1.00  0.00     0.245 C 
HETATM    3  C7  UNL     1       1.434  22.207  16.031  1.00  0.00     0.174 C 
HETATM    4  O4  UNL     1       0.938  22.875  14.909  1.00  0.00    -0.355 OA
HETATM    5  C11 UNL     1       0.934  21.914  13.888  1.00  0.00     0.251 C 
HETATM    6  C18 UNL     1       2.360  21.697  13.520  1.00  0.00     0.201 C 
ENDROOT
BRANCH   6   7
HETATM    7  O5  UNL     1       2.481  21.377  12.189  1.00  0.00    -0.368 OA
BRANCH   7   8
HETATM    8  C19 UNL     1       3.363  22.160  11.510  1.00  0.00     0.191 C 
HETATM    9  C20 UNL     1       4.243  21.446  10.553  1.00  0.00     0.286 C 
HETATM   10  C21 UNL     1       5.475  22.284  10.472  1.00  0.00     0.190 C 
HETATM   11  O6  UNL     1       6.541  21.833  10.202  1.00  0.00    -0.293 OA
HETATM   12  C22 UNL     1       5.272  23.715  10.749  1.00  0.00     0.221 C 
HETATM   13  C23 UNL     1       3.925  24.186  10.300  1.00  0.00     0.185 C 
HETATM   14  C24 UNL     1       2.760  23.317  10.715  1.00  0.00     0.181 C 
BRANCH   9  15
HETATM   15  N5  UNL     1       4.476  20.061  10.787  1.00  0.00    -0.066 N 
ATOM     16  H53 UNL     1       4.356  19.545   9.915  1.00  0.00     0.275 HD
ATOM     17  H52 UNL     1       5.469  19.910  10.963  1.00  0.00     0.275 HD
ATOM     18  H51 UNL     1       3.930  19.612  11.523  1.00  0.00     0.275 HD
ENDBRANCH   9  15
BRANCH  12  19
HETATM   19  O7  UNL     1       6.225  24.419  10.011  1.00  0.00    -0.385 OA
ATOM     20  H7  UNL     1       5.757  24.945   9.373  1.00  0.00     0.210 HD
ENDBRANCH  12  19
BRANCH  13  21
HETATM   21  O8  UNL     1       3.749  25.505  10.791  1.00  0.00    -0.390 OA
ATOM     22  H8  UNL     1       3.212  25.974  10.163  1.00  0.00     0.210 HD
ENDBRANCH  13  21
BRANCH  14  23
HETATM   23  O9  UNL     1       2.200  22.800   9.551  1.00  0.00    -0.390 OA
ATOM     24  H9  UNL     1       1.812  23.517   9.063  1.00  0.00     0.210 HD
ENDBRANCH  14  23
ENDBRANCH   7   8
ENDBRANCH   6   7
BRANCH   1  25
HETATM   25  O3  UNL     1       4.270  20.506  14.473  1.00  0.00    -0.348 OA
BRANCH  25  26
HETATM   26  C4  UNL     1       4.591  19.135  14.437  1.00  0.00     0.292 C 
HETATM   27  O2  UNL     1       4.518  18.684  15.714  1.00  0.00    -0.348 OA
HETATM   28  C3  UNL     1       5.444  17.893  16.265  1.00  0.00     0.184 C 
HETATM   29  C27 UNL     1       6.105  16.876  15.371  1.00  0.00     0.181 C 
HETATM   30  C26 UNL     1       6.140  17.323  13.936  1.00  0.00     0.183 C 
HETATM   31  C25 UNL     1       5.930  18.838  13.839  1.00  0.00     0.204 C 
BRANCH  28  32
HETATM   32  C2  UNL     1       4.934  17.209  17.556  1.00  0.00     0.145 C 
HETATM   33  C1  UNL     1       5.063  18.216  18.658  1.00  0.00     0.042 C 
BRANCH  32  34
HETATM   34  O1  UNL     1       3.651  16.715  17.396  1.00  0.00    -0.393 OA
ATOM     35  H1  UNL     1       3.215  17.022  16.610  1.00  0.00     0.210 HD
ENDBRANCH  32  34
ENDBRANCH  28  32
BRANCH  29  36
HETATM   36  O12 UNL     1       5.385  15.687  15.447  1.00  0.00    -0.390 OA
ATOM     37  H12 UNL     1       4.828  15.623  14.680  1.00  0.00     0.210 HD
ENDBRANCH  29  36
BRANCH  30  38
HETATM   38  O11 UNL     1       5.267  16.618  13.114  1.00  0.00    -0.390 OA
ATOM     39  H11 UNL     1       4.603  17.179  12.732  1.00  0.00     0.210 HD
ENDBRANCH  30  38
BRANCH  31  40
HETATM   40  O10 UNL     1       6.974  19.428  14.543  1.00  0.00    -0.388 OA
ATOM     41  H10 UNL     1       6.695  20.188  15.042  1.00  0.00     0.210 HD
ENDBRANCH  31  40
ENDBRANCH  25  26
ENDBRANCH   1  25
BRANCH   5  42
HETATM   42  N3  UNL     1       0.059  22.114  12.827  1.00  0.00    -0.384 N 
HETATM   43  C12 UNL     1      -0.477  21.002  12.142  1.00  0.00     0.146 C 
BRANCH  42  44
HETATM   44  C13 UNL     1      -0.696  23.308  12.791  1.00  0.00     0.111 C 
HETATM   45  C14 UNL     1      -0.073  24.276  11.807  1.00  0.00     0.057 C 
HETATM   46  C15 UNL     1      -1.133  24.363  10.709  1.00  0.00     0.274 C 
HETATM   47  N4  UNL     1      -2.396  24.117  11.333  1.00  0.00     0.086 N 
HETATM   48  C16 UNL     1      -3.343  23.470  10.465  1.00  0.00     0.310 C 
HETATM   49  C17 UNL     1      -2.140  23.205  12.446  1.00  0.00     0.296 C 
ENDBRANCH  42  44
ENDBRANCH   5  42
BRANCH   2  50
HETATM   50  N1  UNL     1       3.177  20.943  17.017  1.00  0.00    -0.070 N 
ATOM     51  H13 UNL     1       2.440  20.949  17.723  1.00  0.00     0.274 HD
ATOM     52  H12 UNL     1       3.202  19.940  16.832  1.00  0.00     0.274 HD
ATOM     53  H11 UNL     1       4.063  21.283  17.389  1.00  0.00     0.274 HD
ENDBRANCH   2  50
BRANCH   3  54
HETATM   54  C8  UNL     1       1.412  23.137  17.203  1.00  0.00     0.150 C 
BRANCH  54  55
HETATM   55  N2  UNL     1       0.163  23.060  17.884  1.00  0.00    -0.418 N 
HETATM   56  C9  UNL     1      -0.731  24.144  17.783  1.00  0.00     0.142 C 
HETATM   57  C10 UNL     1      -0.418  21.755  17.955  1.00  0.00     0.142 C 
ENDBRANCH  54  55
ENDBRANCH   3  54
TORSDOF 18
ENDMDL
MODEL 5
REMARK VINA RESULT: -6.787965495      2.484      6.962
REMARK  18 active torsions:
REMARK  status: ('A' for Active; 'I' for Inactive)
REMARK    1  A    between atoms: C2_2  and  O1_3 
REMARK    2  A    between atoms: C2_2  and  C3_5 
REMARK    3  A    between atoms: C4_7  and  O3_8 
REMARK    4  A    between atoms: O3_8  and  C5_9 
REMARK    5  A    between atoms: C6_10  and  N1_11 
REMARK    6  A    between atoms: C7_15  and  C8_16 
REMARK    7  A    between atoms: C8_16  and  N2_17 
REMARK    8  A    between atoms: C11_21  and  N3_22 
REMARK    9  A    between atoms: N3_22  and  C13_24 
REMARK   10  A    between atoms: C18_30  and  O5_31 
REMARK   11  A    between atoms: O5_31  and  C19_32 
REMARK   12  A    between atoms: C20_33  and  N5_34 
REMARK   13  A    between atoms: C22_40  and  O7_41 
REMARK   14  A    between atoms: C23_43  and  O8_44 
REMARK   15  A    between atoms: C24_46  and  O9_47 
REMARK   16  A    between atoms: C25_49  and  O10_50 
REMARK   17  A    between atoms: C26_52  and  O11_53 
REMARK   18  A    between atoms: C27_55  and  O12_56 
ROOT
HETATM    1  C5  UNL     1       1.716  24.384  10.101  1.00  0.00     0.191 C 
HETATM    2  C6  UNL     1       0.380  24.374   9.231  1.00  0.00     0.245 C 
HETATM    3  C7  UNL     1      -0.801  24.722  10.049  1.00  0.00     0.174 C 
HETATM    4  O4  UNL     1      -0.945  23.938  11.196  1.00  0.00    -0.355 OA
HETATM    5  C11 UNL     1       0.214  24.180  11.947  1.00  0.00     0.251 C 
HETATM    6  C18 UNL     1       1.321  23.489  11.232  1.00  0.00     0.201 C 
ENDROOT
BRANCH   6   7
HETATM    7  O5  UNL     1       2.278  23.048  12.114  1.00  0.00    -0.368 OA
BRANCH   7   8
HETATM    8  C19 UNL     1       2.408  21.695  12.160  1.00  0.00     0.191 C 
HETATM    9  C20 UNL     1       3.650  21.154  11.557  1.00  0.00     0.286 C 
HETATM   10  C21 UNL     1       3.288  19.776  11.112  1.00  0.00     0.190 C 
HETATM   11  O6  UNL     1       3.834  19.229  10.209  1.00  0.00    -0.293 OA
HETATM   12  C22 UNL     1       2.205  19.141  11.880  1.00  0.00     0.221 C 
HETATM   13  C23 UNL     1       2.207  19.570  13.312  1.00  0.00     0.185 C 
HETATM   14  C24 UNL     1       2.324  21.058  13.546  1.00  0.00     0.181 C 
BRANCH   9  15
HETATM   15  N5  UNL     1       4.299  21.950  10.570  1.00  0.00    -0.066 N 
ATOM     16  H53 UNL     1       4.789  21.341   9.914  1.00  0.00     0.275 HD
ATOM     17  H52 UNL     1       3.597  22.366   9.957  1.00  0.00     0.275 HD
ATOM     18  H51 UNL     1       4.935  22.676  10.898  1.00  0.00     0.275 HD
ENDBRANCH   9  15
BRANCH  12  19
HETATM   19  O7  UNL     1       2.433  17.764  11.857  1.00  0.00    -0.385 OA
ATOM     20  H7  UNL     1       1.602  17.337  12.030  1.00  0.00     0.210 HD
ENDBRANCH  12  19
BRANCH  13  21
HETATM   21  O8  UNL     1       1.020  19.074  13.908  1.00  0.00    -0.390 OA
ATOM     22  H8  UNL     1       0.870  19.572  14.704  1.00  0.00     0.210 HD
ENDBRANCH  13  21
BRANCH  14  23
HETATM   23  O9  UNL     1       3.533  21.277  14.200  1.00  0.00    -0.390 OA
ATOM     24  H9  UNL     1       3.506  20.824  15.034  1.00  0.00     0.210 HD
ENDBRANCH  14  23
ENDBRANCH   7   8
ENDBRANCH   6   7
BRANCH   1  25
HETATM   25  O3  UNL     1       2.668  23.906   9.235  1.00  0.00    -0.348 OA
BRANCH  25  26
HETATM   26  C4  UNL     1       3.658  24.841   8.875  1.00  0.00     0.292 C 
HETATM   27  O2  UNL     1       4.728  24.130   8.442  1.00  0.00    -0.348 OA
HETATM   28  C3  UNL     1       5.984  24.399   8.812  1.00  0.00     0.184 C 
HETATM   29  C27 UNL     1       6.347  25.847   9.021  1.00  0.00     0.181 C 
HETATM   30  C26 UNL     1       5.163  26.673   9.438  1.00  0.00     0.183 C 
HETATM   31  C25 UNL     1       4.044  25.774   9.979  1.00  0.00     0.204 C 
BRANCH  28  32
HETATM   32  C2  UNL     1       7.023  23.723   7.886  1.00  0.00     0.145 C 
HETATM   33  C1  UNL     1       8.321  23.705   8.634  1.00  0.00     0.042 C 
BRANCH  32  34
HETATM   34  O1  UNL     1       6.597  22.472   7.473  1.00  0.00    -0.393 OA
ATOM     35  H1  UNL     1       7.120  22.100   6.772  1.00  0.00     0.210 HD
ENDBRANCH  32  34
ENDBRANCH  28  32
BRANCH  29  36
HETATM   36  O12 UNL     1       6.842  26.356   7.822  1.00  0.00    -0.390 OA
ATOM     37  H12 UNL     1       6.248  27.029   7.514  1.00  0.00     0.210 HD
ENDBRANCH  29  36
BRANCH  30  38
HETATM   38  O11 UNL     1       4.710  27.534   8.445  1.00  0.00    -0.390 OA
ATOM     39  H11 UNL     1       5.063  28.411   8.542  1.00  0.00     0.210 HD
ENDBRANCH  30  38
BRANCH  31  40
HETATM   40  O10 UNL     1       4.570  25.110  11.083  1.00  0.00    -0.388 OA
ATOM     41  H10 UNL     1       5.495  24.916  10.986  1.00  0.00     0.210 HD
ENDBRANCH  31  40
ENDBRANCH  25  26
ENDBRANCH   1  25
BRANCH   5  42
HETATM   42  N3  UNL     1       0.145  23.955  13.317  1.00  0.00    -0.384 N 
HETATM   43  C12 UNL     1       1.000  24.666  14.187  1.00  0.00     0.146 C 
BRANCH  42  44
HETATM   44  C13 UNL     1      -1.070  23.484  13.863  1.00  0.00     0.111 C 
HETATM   45  C14 UNL     1      -0.996  21.983  14.052  1.00  0.00     0.057 C 
HETATM   46  C15 UNL     1      -1.032  21.837  15.573  1.00  0.00     0.274 C 
HETATM   47  N4  UNL     1      -1.763  22.957  16.079  1.00  0.00     0.086 N 
HETATM   48  C16 UNL     1      -1.323  23.384  17.380  1.00  0.00     0.310 C 
HETATM   49  C17 UNL     1      -1.519  24.065  15.157  1.00  0.00     0.296 C 
ENDBRANCH  42  44
ENDBRANCH   5  42
BRANCH   2  50
HETATM   50  N1  UNL     1       0.488  25.288   8.145  1.00  0.00    -0.070 N 
ATOM     51  H13 UNL     1       1.384  25.202   7.664  1.00  0.00     0.274 HD
ATOM     52  H12 UNL     1      -0.125  25.031   7.370  1.00  0.00     0.274 HD
ATOM     53  H11 UNL     1       0.317  26.241   8.463  1.00  0.00     0.274 HD
ENDBRANCH   2  50
BRANCH   3  54
HETATM   54  C8  UNL     1      -2.030  24.585   9.206  1.00  0.00     0.150 C 
BRANCH  54  55
HETATM   55  N2  UNL     1      -2.229  23.228   8.822  1.00  0.00    -0.418 N 
HETATM   56  C9  UNL     1      -3.074  22.419   9.606  1.00  0.00     0.142 C 
HETATM   57  C10 UNL     1      -2.235  22.982   7.413  1.00  0.00     0.142 C 
ENDBRANCH  54  55
ENDBRANCH   3  54
TORSDOF 18
ENDMDL
