MODEL 1
REMARK VINA RESULT: -8.380691387      0.000      0.000
REMARK  16 active torsions:
REMARK  status: ('A' for Active; 'I' for Inactive)
REMARK    1  A    between atoms: C2_3  and  C3_4 
REMARK    2  A    between atoms: C3_4  and  C4_5 
REMARK    3  A    between atoms: C3_4  and  N2_7 
REMARK    4  A    between atoms: N2_7  and  S1_9 
REMARK    5  A    between atoms: S1_9  and  O4_12 
REMARK    6  A    between atoms: O4_12  and  C5_13 
REMARK    7  A    between atoms: C6_14  and  O5_15 
REMARK    8  A    between atoms: C7_17  and  N3_18 
REMARK    9  A    between atoms: C9_23  and  O6_24 
REMARK   10  A    between atoms: O6_24  and  C10_25 
REMARK   11  A    between atoms: C12_28  and  O8_29 
REMARK   12  A    between atoms: C13_31  and  O9_32 
REMARK   13  A    between atoms: C14_34  and  N4_35 
REMARK   14  A    between atoms: C15_39  and  O10_40 
REMARK   15  A    between atoms: C16_42  and  O11_43 
REMARK   16  A    between atoms: O11_43  and  S2_44 
ROOT
HETATM    1  C5  UNL     1       2.969  23.727  10.888  1.00  0.00     0.206 C 
HETATM    2  C6  UNL     1       2.323  24.473   9.739  1.00  0.00     0.181 C 
HETATM    3  C7  UNL     1       3.262  25.438   9.084  1.00  0.00     0.217 C 
HETATM    4  C8  UNL     1       4.424  25.634  10.066  1.00  0.00     0.070 C 
HETATM    5  C9  UNL     1       5.228  24.348  10.008  1.00  0.00     0.158 C 
HETATM    6  C15 UNL     1       4.356  23.261  10.595  1.00  0.00     0.180 C 
ENDROOT
BRANCH   1   7
HETATM    7  O4  UNL     1       2.179  22.589  11.102  1.00  0.00    -0.249 OA
BRANCH   7   8
HETATM    8  S1  UNL     1       1.404  22.648  12.609  1.00  0.00     0.359 S 
HETATM    9  O2  UNL     1       2.215  23.582  13.464  1.00  0.00    -0.176 OA
HETATM   10  O3  UNL     1       0.009  23.176  12.460  1.00  0.00    -0.176 OA
BRANCH   8  11
HETATM   11  N2  UNL     1       1.344  21.072  13.245  1.00  0.00    -0.284 N 
ATOM     12  H2  UNL     1       0.476  20.555  13.385  1.00  0.00     0.175 HD
BRANCH  11  13
HETATM   13  C3  UNL     1       2.662  20.534  13.572  1.00  0.00     0.177 C 
BRANCH  13  14
HETATM   14  C2  UNL     1       2.692  19.122  13.132  1.00  0.00     0.135 C 
HETATM   15  N1  UNL     1       2.407  18.874  11.745  1.00  0.00    -0.205 NA
HETATM   16  C1  UNL     1       3.414  19.289  10.822  1.00  0.00     0.130 C 
HETATM   17  S3  UNL     1       2.409  17.118  11.803  1.00  0.00     0.214 S 
HETATM   18  C17 UNL     1       3.501  16.890  13.214  1.00  0.00     0.192 C 
HETATM   19  O15 UNL     1       2.986  16.540  10.572  1.00  0.00    -0.211 OA
HETATM   20  O16 UNL     1       1.031  16.666  12.114  1.00  0.00    -0.211 OA
HETATM   21  C16 UNL     1       3.912  18.339  13.492  1.00  0.00     0.181 C 
BRANCH  21  22
HETATM   22  O11 UNL     1       5.045  18.647  12.781  1.00  0.00    -0.249 OA
BRANCH  22  23
HETATM   23  S2  UNL     1       6.322  19.171  13.701  1.00  0.00     0.252 S 
HETATM   24  O12 UNL     1       6.251  20.665  13.936  1.00  0.00    -0.572 OA
HETATM   25  O13 UNL     1       7.595  18.918  12.945  1.00  0.00    -0.572 OA
HETATM   26  O14 UNL     1       6.341  18.445  15.211  1.00  0.00    -0.572 OA
ENDBRANCH  22  23
ENDBRANCH  21  22
ENDBRANCH  13  14
BRANCH  13  27
HETATM   27  C4  UNL     1       2.784  20.550  15.054  1.00  0.00     0.258 C 
HETATM   28  O1  UNL     1       3.589  21.283  15.577  1.00  0.00    -0.305 OA
ENDBRANCH  13  27
ENDBRANCH  11  13
ENDBRANCH   8  11
ENDBRANCH   7   8
ENDBRANCH   1   7
BRANCH   2  29
HETATM   29  O5  UNL     1       1.277  25.220  10.293  1.00  0.00    -0.391 OA
ATOM     30  H5  UNL     1       0.692  25.435   9.576  1.00  0.00     0.210 HD
ENDBRANCH   2  29
BRANCH   6  31
HETATM   31  O10 UNL     1       4.402  22.089   9.844  1.00  0.00    -0.390 OA
ATOM     32  H10 UNL     1       4.548  22.237   8.917  1.00  0.00     0.210 HD
ENDBRANCH   6  31
BRANCH   3  33
HETATM   33  N3  UNL     1       2.686  26.717   8.814  1.00  0.00    -0.072 N 
ATOM     34  H33 UNL     1       1.668  26.663   8.836  1.00  0.00     0.274 HD
ATOM     35  H32 UNL     1       2.841  27.353   9.597  1.00  0.00     0.274 HD
ATOM     36  H31 UNL     1       3.004  27.140   7.941  1.00  0.00     0.274 HD
ENDBRANCH   3  33
BRANCH   5  37
HETATM   37  O6  UNL     1       5.463  24.074   8.684  1.00  0.00    -0.351 OA
BRANCH  37  38
HETATM   38  C10 UNL     1       6.767  24.020   8.296  1.00  0.00     0.293 C 
HETATM   39  O7  UNL     1       7.525  24.635   9.260  1.00  0.00    -0.356 OA
HETATM   40  C11 UNL     1       8.866  24.626   9.071  1.00  0.00     0.205 C 
HETATM   41  C12 UNL     1       9.342  24.068   7.780  1.00  0.00     0.173 C 
HETATM   42  C13 UNL     1       8.657  22.785   7.389  1.00  0.00     0.184 C 
HETATM   43  C14 UNL     1       7.308  22.637   8.073  1.00  0.00     0.269 C 
BRANCH  41  44
HETATM   44  O8  UNL     1       9.280  25.029   6.764  1.00  0.00    -0.391 OA
ATOM     45  H8  UNL     1       9.519  24.654   5.925  1.00  0.00     0.210 HD
ENDBRANCH  41  44
BRANCH  42  46
HETATM   46  O9  UNL     1       9.457  21.676   7.645  1.00  0.00    -0.391 OA
ATOM     47  H9  UNL     1       8.951  20.949   7.988  1.00  0.00     0.210 HD
ENDBRANCH  42  46
BRANCH  43  48
HETATM   48  N4  UNL     1       7.559  22.041   9.370  1.00  0.00    -0.068 N 
ATOM     49  H43 UNL     1       7.153  22.577  10.137  1.00  0.00     0.275 HD
ATOM     50  H42 UNL     1       7.035  21.178   9.516  1.00  0.00     0.275 HD
ATOM     51  H41 UNL     1       8.566  21.913   9.468  1.00  0.00     0.275 HD
ENDBRANCH  43  48
ENDBRANCH  37  38
ENDBRANCH   5  37
TORSDOF 16
ENDMDL
MODEL 2
REMARK VINA RESULT: -8.080746792      2.714      4.563
REMARK  16 active torsions:
REMARK  status: ('A' for Active; 'I' for Inactive)
REMARK    1  A    between atoms: C2_3  and  C3_4 
REMARK    2  A    between atoms: C3_4  and  C4_5 
REMARK    3  A    between atoms: C3_4  and  N2_7 
REMARK    4  A    between atoms: N2_7  and  S1_9 
REMARK    5  A    between atoms: S1_9  and  O4_12 
REMARK    6  A    between atoms: O4_12  and  C5_13 
REMARK    7  A    between atoms: C6_14  and  O5_15 
REMARK    8  A    between atoms: C7_17  and  N3_18 
REMARK    9  A    between atoms: C9_23  and  O6_24 
REMARK   10  A    between atoms: O6_24  and  C10_25 
REMARK   11  A    between atoms: C12_28  and  O8_29 
REMARK   12  A    between atoms: C13_31  and  O9_32 
REMARK   13  A    between atoms: C14_34  and  N4_35 
REMARK   14  A    between atoms: C15_39  and  O10_40 
REMARK   15  A    between atoms: C16_42  and  O11_43 
REMARK   16  A    between atoms: O11_43  and  S2_44 
ROOT
HETATM    1  C5  UNL     1       4.472  21.235  11.742  1.00  0.00     0.206 C 
HETATM    2  C6  UNL     1       3.153  21.047  11.024  1.00  0.00     0.181 C 
HETATM    3  C7  UNL     1       2.560  22.345  10.568  1.00  0.00     0.217 C 
HETATM    4  C8  UNL     1       3.290  23.444  11.350  1.00  0.00     0.070 C 
HETATM    5  C9  UNL     1       4.679  23.520  10.744  1.00  0.00     0.158 C 
HETATM    6  C15 UNL     1       5.377  22.223  11.085  1.00  0.00     0.180 C 
ENDROOT
BRANCH   1   7
HETATM    7  O4  UNL     1       5.113  19.988  11.707  1.00  0.00    -0.249 OA
BRANCH   7   8
HETATM    8  S1  UNL     1       5.723  19.562  13.229  1.00  0.00     0.359 S 
HETATM    9  O2  UNL     1       7.029  18.860  12.979  1.00  0.00    -0.176 OA
HETATM   10  O3  UNL     1       5.955  20.785  14.062  1.00  0.00    -0.176 OA
BRANCH   8  11
HETATM   11  N2  UNL     1       4.586  18.561  14.003  1.00  0.00    -0.284 N 
ATOM     12  H2  UNL     1       3.932  18.896  14.710  1.00  0.00     0.175 HD
BRANCH  11  13
HETATM   13  C3  UNL     1       4.642  17.173  13.552  1.00  0.00     0.177 C 
BRANCH  13  14
HETATM   14  C2  UNL     1       3.251  16.700  13.379  1.00  0.00     0.135 C 
HETATM   15  N1  UNL     1       2.439  17.424  12.439  1.00  0.00    -0.205 NA
HETATM   16  C1  UNL     1       2.778  17.249  11.063  1.00  0.00     0.130 C 
HETATM   17  S3  UNL     1       0.919  16.596  12.737  1.00  0.00     0.214 S 
HETATM   18  C17 UNL     1       1.571  15.022  13.315  1.00  0.00     0.192 C 
HETATM   19  O15 UNL     1       0.141  16.435  11.491  1.00  0.00    -0.211 OA
HETATM   20  O16 UNL     1       0.209  17.312  13.825  1.00  0.00    -0.211 OA
HETATM   21  C16 UNL     1       3.072  15.243  13.105  1.00  0.00     0.181 C 
BRANCH  21  22
HETATM   22  O11 UNL     1       3.434  14.827  11.848  1.00  0.00    -0.249 OA
BRANCH  22  23
HETATM   23  S2  UNL     1       4.281  13.401  11.805  1.00  0.00     0.252 S 
HETATM   24  O12 UNL     1       3.495  12.319  11.096  1.00  0.00    -0.572 OA
HETATM   25  O13 UNL     1       4.491  12.923  13.213  1.00  0.00    -0.572 OA
HETATM   26  O14 UNL     1       5.731  13.564  10.981  1.00  0.00    -0.572 OA
ENDBRANCH  22  23
ENDBRANCH  21  22
ENDBRANCH  13  14
BRANCH  13  27
HETATM   27  C4  UNL     1       5.255  16.381  14.653  1.00  0.00     0.258 C 
HETATM   28  O1  UNL     1       6.296  15.800  14.460  1.00  0.00    -0.305 OA
ENDBRANCH  13  27
ENDBRANCH  11  13
ENDBRANCH   8  11
ENDBRANCH   7   8
ENDBRANCH   1   7
BRANCH   2  29
HETATM   29  O5  UNL     1       2.271  20.490  11.958  1.00  0.00    -0.391 OA
ATOM     30  H5  UNL     1       1.590  21.137  12.101  1.00  0.00     0.210 HD
ENDBRANCH   2  29
BRANCH   6  31
HETATM   31  O10 UNL     1       6.075  21.702   9.999  1.00  0.00    -0.390 OA
ATOM     32  H10 UNL     1       6.596  22.347   9.537  1.00  0.00     0.210 HD
ENDBRANCH   6  31
BRANCH   3  33
HETATM   33  N3  UNL     1       1.160  22.467  10.828  1.00  0.00    -0.072 N 
ATOM     34  H33 UNL     1       0.639  22.546   9.955  1.00  0.00     0.274 HD
ATOM     35  H32 UNL     1       0.782  21.585  11.175  1.00  0.00     0.274 HD
ATOM     36  H31 UNL     1       0.921  23.232  11.459  1.00  0.00     0.274 HD
ENDBRANCH   3  33
BRANCH   5  37
HETATM   37  O6  UNL     1       4.526  23.607   9.383  1.00  0.00    -0.351 OA
BRANCH  37  38
HETATM   38  C10 UNL     1       4.994  24.739   8.789  1.00  0.00     0.293 C 
HETATM   39  O7  UNL     1       4.412  24.844   7.551  1.00  0.00    -0.356 OA
HETATM   40  C11 UNL     1       4.718  25.950   6.832  1.00  0.00     0.205 C 
HETATM   41  C12 UNL     1       5.746  26.848   7.416  1.00  0.00     0.173 C 
HETATM   42  C13 UNL     1       5.556  27.105   8.888  1.00  0.00     0.184 C 
HETATM   43  C14 UNL     1       4.736  26.010   9.548  1.00  0.00     0.269 C 
BRANCH  41  44
HETATM   44  O8  UNL     1       7.037  26.391   7.122  1.00  0.00    -0.391 OA
ATOM     45  H8  UNL     1       7.512  26.178   7.917  1.00  0.00     0.210 HD
ENDBRANCH  41  44
BRANCH  42  46
HETATM   46  O9  UNL     1       4.986  28.351   9.123  1.00  0.00    -0.391 OA
ATOM     47  H9  UNL     1       5.034  28.592  10.041  1.00  0.00     0.210 HD
ENDBRANCH  42  46
BRANCH  43  48
HETATM   48  N4  UNL     1       3.341  26.363   9.365  1.00  0.00    -0.068 N 
ATOM     49  H43 UNL     1       2.794  26.269  10.221  1.00  0.00     0.275 HD
ATOM     50  H42 UNL     1       3.203  27.364   9.225  1.00  0.00     0.275 HD
ATOM     51  H41 UNL     1       2.973  25.803   8.597  1.00  0.00     0.275 HD
ENDBRANCH  43  48
ENDBRANCH  37  38
ENDBRANCH   5  37
TORSDOF 16
ENDMDL
MODEL 3
REMARK VINA RESULT: -8.008307477      3.011      8.929
REMARK  16 active torsions:
REMARK  status: ('A' for Active; 'I' for Inactive)
REMARK    1  A    between atoms: C2_3  and  C3_4 
REMARK    2  A    between atoms: C3_4  and  C4_5 
REMARK    3  A    between atoms: C3_4  and  N2_7 
REMARK    4  A    between atoms: N2_7  and  S1_9 
REMARK    5  A    between atoms: S1_9  and  O4_12 
REMARK    6  A    between atoms: O4_12  and  C5_13 
REMARK    7  A    between atoms: C6_14  and  O5_15 
REMARK    8  A    between atoms: C7_17  and  N3_18 
REMARK    9  A    between atoms: C9_23  and  O6_24 
REMARK   10  A    between atoms: O6_24  and  C10_25 
REMARK   11  A    between atoms: C12_28  and  O8_29 
REMARK   12  A    between atoms: C13_31  and  O9_32 
REMARK   13  A    between atoms: C14_34  and  N4_35 
REMARK   14  A    between atoms: C15_39  and  O10_40 
REMARK   15  A    between atoms: C16_42  and  O11_43 
REMARK   16  A    between atoms: O11_43  and  S2_44 
ROOT
HETATM    1  C5  UNL     1       4.101  19.677  12.136  1.00  0.00     0.206 C 
HETATM    2  C6  UNL     1       5.499  19.391  12.642  1.00  0.00     0.181 C 
HETATM    3  C7  UNL     1       5.519  18.330  13.700  1.00  0.00     0.217 C 
HETATM    4  C8  UNL     1       4.073  18.198  14.196  1.00  0.00     0.070 C 
HETATM    5  C9  UNL     1       3.322  17.494  13.080  1.00  0.00     0.158 C 
HETATM    6  C15 UNL     1       3.283  18.450  11.910  1.00  0.00     0.180 C 
ENDROOT
BRANCH   1   7
HETATM    7  O4  UNL     1       4.260  20.311  10.896  1.00  0.00    -0.249 OA
BRANCH   7   8
HETATM    8  S1  UNL     1       4.042  21.987  11.025  1.00  0.00     0.359 S 
HETATM    9  O2  UNL     1       3.117  22.379   9.905  1.00  0.00    -0.176 OA
HETATM   10  O3  UNL     1       3.419  22.334  12.343  1.00  0.00    -0.176 OA
BRANCH   8  11
HETATM   11  N2  UNL     1       5.562  22.740  10.905  1.00  0.00    -0.284 N 
ATOM     12  H2  UNL     1       6.335  22.548  11.542  1.00  0.00     0.175 HD
BRANCH  11  13
HETATM   13  C3  UNL     1       5.649  23.687   9.797  1.00  0.00     0.177 C 
BRANCH  13  14
HETATM   14  C2  UNL     1       7.024  23.623   9.257  1.00  0.00     0.135 C 
HETATM   15  N1  UNL     1       7.335  22.494   8.423  1.00  0.00    -0.205 NA
HETATM   16  C1  UNL     1       6.721  22.487   7.135  1.00  0.00     0.130 C 
HETATM   17  S3  UNL     1       9.050  22.811   8.209  1.00  0.00     0.214 S 
HETATM   18  C17 UNL     1       9.032  24.595   8.439  1.00  0.00     0.192 C 
HETATM   19  O15 UNL     1       9.499  22.445   6.849  1.00  0.00    -0.211 OA
HETATM   20  O16 UNL     1       9.784  22.137   9.307  1.00  0.00    -0.211 OA
HETATM   21  C16 UNL     1       7.527  24.849   8.568  1.00  0.00     0.181 C 
BRANCH  21  22
HETATM   22  O11 UNL     1       6.988  25.095   7.330  1.00  0.00    -0.249 OA
BRANCH  22  23
HETATM   23  S2  UNL     1       6.194  26.546   7.193  1.00  0.00     0.252 S 
HETATM   24  O12 UNL     1       6.233  27.315   8.496  1.00  0.00    -0.572 OA
HETATM   25  O13 UNL     1       4.746  26.275   6.900  1.00  0.00    -0.572 OA
HETATM   26  O14 UNL     1       6.891  27.529   6.030  1.00  0.00    -0.572 OA
ENDBRANCH  22  23
ENDBRANCH  21  22
ENDBRANCH  13  14
BRANCH  13  27
HETATM   27  C4  UNL     1       5.449  25.046  10.368  1.00  0.00     0.258 C 
HETATM   28  O1  UNL     1       4.328  25.458  10.547  1.00  0.00    -0.305 OA
ENDBRANCH  13  27
ENDBRANCH  11  13
ENDBRANCH   8  11
ENDBRANCH   7   8
ENDBRANCH   1   7
BRANCH   2  29
HETATM   29  O5  UNL     1       5.956  20.576  13.231  1.00  0.00    -0.391 OA
ATOM     30  H5  UNL     1       6.340  21.092  12.531  1.00  0.00     0.210 HD
ENDBRANCH   2  29
BRANCH   6  31
HETATM   31  O10 UNL     1       3.559  17.812  10.703  1.00  0.00    -0.390 OA
ATOM     32  H10 UNL     1       2.996  18.089   9.990  1.00  0.00     0.210 HD
ENDBRANCH   6  31
BRANCH   3  33
HETATM   33  N3  UNL     1       6.348  18.644  14.820  1.00  0.00    -0.072 N 
ATOM     34  H33 UNL     1       7.274  18.233  14.706  1.00  0.00     0.274 HD
ATOM     35  H32 UNL     1       6.596  19.633  14.817  1.00  0.00     0.274 HD
ATOM     36  H31 UNL     1       5.946  18.379  15.720  1.00  0.00     0.274 HD
ENDBRANCH   3  33
BRANCH   5  37
HETATM   37  O6  UNL     1       4.053  16.385  12.735  1.00  0.00    -0.351 OA
BRANCH  37  38
HETATM   38  C10 UNL     1       3.375  15.377  12.121  1.00  0.00     0.293 C 
HETATM   39  O7  UNL     1       4.260  14.358  11.870  1.00  0.00    -0.356 OA
HETATM   40  C11 UNL     1       3.746  13.237  11.310  1.00  0.00     0.205 C 
HETATM   41  C12 UNL     1       2.316  13.297  10.916  1.00  0.00     0.173 C 
HETATM   42  C13 UNL     1       1.429  13.924  11.960  1.00  0.00     0.184 C 
HETATM   43  C14 UNL     1       2.216  14.823  12.899  1.00  0.00     0.269 C 
BRANCH  41  44
HETATM   44  O8  UNL     1       2.165  13.902   9.662  1.00  0.00    -0.391 OA
ATOM     45  H8  UNL     1       1.326  14.342   9.596  1.00  0.00     0.210 HD
ENDBRANCH  41  44
BRANCH  42  46
HETATM   46  O9  UNL     1       0.723  12.966  12.679  1.00  0.00    -0.391 OA
ATOM     47  H9  UNL     1      -0.212  13.027  12.521  1.00  0.00     0.210 HD
ENDBRANCH  42  46
BRANCH  43  48
HETATM   48  N4  UNL     1       2.747  13.971  13.946  1.00  0.00    -0.068 N 
ATOM     49  H43 UNL     1       3.683  13.624  13.736  1.00  0.00     0.275 HD
ATOM     50  H42 UNL     1       2.980  14.486  14.794  1.00  0.00     0.275 HD
ATOM     51  H41 UNL     1       2.077  13.221  14.111  1.00  0.00     0.275 HD
ENDBRANCH  43  48
ENDBRANCH  37  38
ENDBRANCH   5  37
TORSDOF 16
ENDMDL
MODEL 4
REMARK VINA RESULT: -7.976838341      1.448      3.221
REMARK  16 active torsions:
REMARK  status: ('A' for Active; 'I' for Inactive)
REMARK    1  A    between atoms: C2_3  and  C3_4 
REMARK    2  A    between atoms: C3_4  and  C4_5 
REMARK    3  A    between atoms: C3_4  and  N2_7 
REMARK    4  A    between atoms: N2_7  and  S1_9 
REMARK    5  A    between atoms: S1_9  and  O4_12 
REMARK    6  A    between atoms: O4_12  and  C5_13 
REMARK    7  A    between atoms: C6_14  and  O5_15 
REMARK    8  A    between atoms: C7_17  and  N3_18 
REMARK    9  A    between atoms: C9_23  and  O6_24 
REMARK   10  A    between atoms: O6_24  and  C10_25 
REMARK   11  A    between atoms: C12_28  and  O8_29 
REMARK   12  A    between atoms: C13_31  and  O9_32 
REMARK   13  A    between atoms: C14_34  and  N4_35 
REMARK   14  A    between atoms: C15_39  and  O10_40 
REMARK   15  A    between atoms: C16_42  and  O11_43 
REMARK   16  A    between atoms: O11_43  and  S2_44 
ROOT
HETATM    1  C5  UNL     1       2.917  23.418  10.843  1.00  0.00     0.206 C 
HETATM    2  C6  UNL     1       2.257  24.227   9.747  1.00  0.00     0.181 C 
HETATM    3  C7  UNL     1       3.176  25.257   9.165  1.00  0.00     0.217 C 
HETATM    4  C8  UNL     1       4.330  25.411  10.165  1.00  0.00     0.070 C 
HETATM    5  C9  UNL     1       5.164  24.151  10.022  1.00  0.00     0.158 C 
HETATM    6  C15 UNL     1       4.315  23.006  10.526  1.00  0.00     0.180 C 
ENDROOT
BRANCH   1   7
HETATM    7  O4  UNL     1       2.152  22.249  10.974  1.00  0.00    -0.249 OA
BRANCH   7   8
HETATM    8  S1  UNL     1       2.303  21.581  12.524  1.00  0.00     0.359 S 
HETATM    9  O2  UNL     1       2.621  22.724  13.447  1.00  0.00    -0.176 OA
HETATM   10  O3  UNL     1       1.018  20.932  12.942  1.00  0.00    -0.176 OA
BRANCH   8  11
HETATM   11  N2  UNL     1       3.538  20.412  12.489  1.00  0.00    -0.284 N 
ATOM     12  H2  UNL     1       4.531  20.643  12.517  1.00  0.00     0.175 HD
BRANCH  11  13
HETATM   13  C3  UNL     1       3.032  19.044  12.414  1.00  0.00     0.177 C 
BRANCH  13  14
HETATM   14  C2  UNL     1       3.834  18.216  13.341  1.00  0.00     0.135 C 
HETATM   15  N1  UNL     1       3.559  18.372  14.743  1.00  0.00    -0.205 NA
HETATM   16  C1  UNL     1       2.311  17.845  15.193  1.00  0.00     0.130 C 
HETATM   17  S3  UNL     1       4.841  17.342  15.361  1.00  0.00     0.214 S 
HETATM   18  C17 UNL     1       5.029  16.253  13.942  1.00  0.00     0.192 C 
HETATM   19  O15 UNL     1       4.403  16.598  16.560  1.00  0.00    -0.211 OA
HETATM   20  O16 UNL     1       6.051  18.179  15.558  1.00  0.00    -0.211 OA
HETATM   21  C16 UNL     1       3.890  16.752  13.049  1.00  0.00     0.181 C 
BRANCH  21  22
HETATM   22  O11 UNL     1       2.742  16.051  13.321  1.00  0.00    -0.249 OA
BRANCH  22  23
HETATM   23  S2  UNL     1       2.162  15.150  12.054  1.00  0.00     0.252 S 
HETATM   24  O12 UNL     1       3.194  15.025  10.953  1.00  0.00    -0.572 OA
HETATM   25  O13 UNL     1       0.984  15.865  11.455  1.00  0.00    -0.572 OA
HETATM   26  O14 UNL     1       1.768  13.592  12.527  1.00  0.00    -0.572 OA
ENDBRANCH  22  23
ENDBRANCH  21  22
ENDBRANCH  13  14
BRANCH  13  27
HETATM   27  C4  UNL     1       3.292  18.558  11.032  1.00  0.00     0.258 C 
HETATM   28  O1  UNL     1       3.719  19.324  10.202  1.00  0.00    -0.305 OA
ENDBRANCH  13  27
ENDBRANCH  11  13
ENDBRANCH   8  11
ENDBRANCH   7   8
ENDBRANCH   1   7
BRANCH   2  29
HETATM   29  O5  UNL     1       1.192  24.910  10.346  1.00  0.00    -0.391 OA
ATOM     30  H5  UNL     1       1.087  25.721   9.862  1.00  0.00     0.210 HD
ENDBRANCH   2  29
BRANCH   6  31
HETATM   31  O10 UNL     1       4.391  21.891   9.696  1.00  0.00    -0.390 OA
ATOM     32  H10 UNL     1       5.094  21.940   9.058  1.00  0.00     0.210 HD
ENDBRANCH   6  31
BRANCH   3  33
HETATM   33  N3  UNL     1       2.571  26.539   8.983  1.00  0.00    -0.072 N 
ATOM     34  H33 UNL     1       2.510  26.768   7.991  1.00  0.00     0.274 HD
ATOM     35  H32 UNL     1       1.578  26.502   9.212  1.00  0.00     0.274 HD
ATOM     36  H31 UNL     1       3.030  27.291   9.497  1.00  0.00     0.274 HD
ENDBRANCH   3  33
BRANCH   5  37
HETATM   37  O6  UNL     1       5.410  23.976   8.683  1.00  0.00    -0.351 OA
BRANCH  37  38
HETATM   38  C10 UNL     1       6.717  23.970   8.300  1.00  0.00     0.293 C 
HETATM   39  O7  UNL     1       7.447  24.615   9.267  1.00  0.00    -0.356 OA
HETATM   40  C11 UNL     1       8.788  24.656   9.082  1.00  0.00     0.205 C 
HETATM   41  C12 UNL     1       9.290  24.113   7.795  1.00  0.00     0.173 C 
HETATM   42  C13 UNL     1       8.655  22.804   7.405  1.00  0.00     0.184 C 
HETATM   43  C14 UNL     1       7.310  22.607   8.083  1.00  0.00     0.269 C 
BRANCH  41  44
HETATM   44  O8  UNL     1       9.196  25.069   6.776  1.00  0.00    -0.391 OA
ATOM     45  H8  UNL     1       9.936  25.009   6.183  1.00  0.00     0.210 HD
ENDBRANCH  41  44
BRANCH  42  46
HETATM   46  O9  UNL     1       9.495  21.727   7.666  1.00  0.00    -0.391 OA
ATOM     47  H9  UNL     1       9.101  20.903   7.405  1.00  0.00     0.210 HD
ENDBRANCH  42  46
BRANCH  43  48
HETATM   48  N4  UNL     1       7.577  22.024   9.383  1.00  0.00    -0.068 N 
ATOM     49  H43 UNL     1       6.856  22.242  10.070  1.00  0.00     0.275 HD
ATOM     50  H42 UNL     1       7.471  21.010   9.390  1.00  0.00     0.275 HD
ATOM     51  H41 UNL     1       8.506  22.325   9.677  1.00  0.00     0.275 HD
ENDBRANCH  43  48
ENDBRANCH  37  38
ENDBRANCH   5  37
TORSDOF 16
ENDMDL
MODEL 5
REMARK VINA RESULT: -7.963796184      0.853      1.331
REMARK  16 active torsions:
REMARK  status: ('A' for Active; 'I' for Inactive)
REMARK    1  A    between atoms: C2_3  and  C3_4 
REMARK    2  A    between atoms: C3_4  and  C4_5 
REMARK    3  A    between atoms: C3_4  and  N2_7 
REMARK    4  A    between atoms: N2_7  and  S1_9 
REMARK    5  A    between atoms: S1_9  and  O4_12 
REMARK    6  A    between atoms: O4_12  and  C5_13 
REMARK    7  A    between atoms: C6_14  and  O5_15 
REMARK    8  A    between atoms: C7_17  and  N3_18 
REMARK    9  A    between atoms: C9_23  and  O6_24 
REMARK   10  A    between atoms: O6_24  and  C10_25 
REMARK   11  A    between atoms: C12_28  and  O8_29 
REMARK   12  A    between atoms: C13_31  and  O9_32 
REMARK   13  A    between atoms: C14_34  and  N4_35 
REMARK   14  A    between atoms: C15_39  and  O10_40 
REMARK   15  A    between atoms: C16_42  and  O11_43 
REMARK   16  A    between atoms: O11_43  and  S2_44 
ROOT
HETATM    1  C5  UNL     1       2.823  23.615  11.053  1.00  0.00     0.206 C 
HETATM    2  C6  UNL     1       2.314  24.413   9.872  1.00  0.00     0.181 C 
HETATM    3  C7  UNL     1       3.375  25.281   9.268  1.00  0.00     0.217 C 
HETATM    4  C8  UNL     1       4.496  25.371  10.311  1.00  0.00     0.070 C 
HETATM    5  C9  UNL     1       5.175  24.013  10.297  1.00  0.00     0.158 C 
HETATM    6  C15 UNL     1       4.173  23.017  10.835  1.00  0.00     0.180 C 
ENDROOT
BRANCH   1   7
HETATM    7  O4  UNL     1       1.918  22.558  11.225  1.00  0.00    -0.249 OA
BRANCH   7   8
HETATM    8  S1  UNL     1       1.265  22.550  12.789  1.00  0.00     0.359 S 
HETATM    9  O2  UNL     1       2.114  23.485  13.606  1.00  0.00    -0.176 OA
HETATM   10  O3  UNL     1      -0.152  23.038  12.768  1.00  0.00    -0.176 OA
BRANCH   8  11
HETATM   11  N2  UNL     1       1.303  20.955  13.380  1.00  0.00    -0.284 N 
ATOM     12  H2  UNL     1       0.464  20.403  13.559  1.00  0.00     0.175 HD
BRANCH  11  13
HETATM   13  C3  UNL     1       2.657  20.457  13.604  1.00  0.00     0.177 C 
BRANCH  13  14
HETATM   14  C2  UNL     1       2.699  19.049  13.155  1.00  0.00     0.135 C 
HETATM   15  N1  UNL     1       2.404  18.808  11.768  1.00  0.00    -0.205 NA
HETATM   16  C1  UNL     1       3.399  19.240  10.840  1.00  0.00     0.130 C 
HETATM   17  S3  UNL     1       2.426  17.052  11.814  1.00  0.00     0.214 S 
HETATM   18  C17 UNL     1       3.532  16.825  13.213  1.00  0.00     0.192 C 
HETATM   19  O15 UNL     1       2.998  16.488  10.574  1.00  0.00    -0.211 OA
HETATM   20  O16 UNL     1       1.055  16.583  12.133  1.00  0.00    -0.211 OA
HETATM   21  C16 UNL     1       3.930  18.276  13.499  1.00  0.00     0.181 C 
BRANCH  21  22
HETATM   22  O11 UNL     1       5.053  18.601  12.780  1.00  0.00    -0.249 OA
BRANCH  22  23
HETATM   23  S2  UNL     1       6.325  19.154  13.691  1.00  0.00     0.252 S 
HETATM   24  O12 UNL     1       6.251  20.654  13.881  1.00  0.00    -0.572 OA
HETATM   25  O13 UNL     1       7.602  18.880  12.950  1.00  0.00    -0.572 OA
HETATM   26  O14 UNL     1       6.337  18.473  15.222  1.00  0.00    -0.572 OA
ENDBRANCH  22  23
ENDBRANCH  21  22
ENDBRANCH  13  14
BRANCH  13  27
HETATM   27  C4  UNL     1       2.888  20.471  15.074  1.00  0.00     0.258 C 
HETATM   28  O1  UNL     1       3.659  21.271  15.548  1.00  0.00    -0.305 OA
ENDBRANCH  13  27
ENDBRANCH  11  13
ENDBRANCH   8  11
ENDBRANCH   7   8
ENDBRANCH   1   7
BRANCH   2  29
HETATM   29  O5  UNL     1       1.315  25.259  10.369  1.00  0.00    -0.391 OA
ATOM     30  H5  UNL     1       0.690  25.379   9.664  1.00  0.00     0.210 HD
ENDBRANCH   2  29
BRANCH   6  31
HETATM   31  O10 UNL     1       4.148  21.843  10.088  1.00  0.00    -0.390 OA
ATOM     32  H10 UNL     1       4.891  21.274  10.249  1.00  0.00     0.210 HD
ENDBRANCH   6  31
BRANCH   3  33
HETATM   33  N3  UNL     1       2.938  26.608   8.968  1.00  0.00    -0.072 N 
ATOM     34  H33 UNL     1       2.067  26.587   8.439  1.00  0.00     0.274 HD
ATOM     35  H32 UNL     1       2.615  27.079   9.813  1.00  0.00     0.274 HD
ATOM     36  H31 UNL     1       3.636  27.175   8.487  1.00  0.00     0.274 HD
ENDBRANCH   3  33
BRANCH   5  37
HETATM   37  O6  UNL     1       5.454  23.712   8.987  1.00  0.00    -0.351 OA
BRANCH  37  38
HETATM   38  C10 UNL     1       6.708  23.255   8.721  1.00  0.00     0.293 C 
HETATM   39  O7  UNL     1       6.676  22.591   7.521  1.00  0.00    -0.356 OA
HETATM   40  C11 UNL     1       7.857  22.114   7.064  1.00  0.00     0.205 C 
HETATM   41  C12 UNL     1       9.020  22.254   7.977  1.00  0.00     0.173 C 
HETATM   42  C13 UNL     1       9.114  23.608   8.629  1.00  0.00     0.184 C 
HETATM   43  C14 UNL     1       7.770  24.316   8.652  1.00  0.00     0.269 C 
BRANCH  41  44
HETATM   44  O8  UNL     1       9.049  21.214   8.915  1.00  0.00    -0.391 OA
ATOM     45  H8  UNL     1       8.997  21.553   9.801  1.00  0.00     0.210 HD
ENDBRANCH  41  44
BRANCH  42  46
HETATM   46  O9  UNL     1      10.075  24.407   8.018  1.00  0.00    -0.391 OA
ATOM     47  H9  UNL     1       9.784  25.307   7.936  1.00  0.00     0.210 HD
ENDBRANCH  42  46
BRANCH  43  48
HETATM   48  N4  UNL     1       7.635  25.001   7.381  1.00  0.00    -0.068 N 
ATOM     49  H43 UNL     1       7.864  24.405   6.585  1.00  0.00     0.275 HD
ATOM     50  H42 UNL     1       6.663  25.188   7.134  1.00  0.00     0.275 HD
ATOM     51  H41 UNL     1       8.203  25.847   7.417  1.00  0.00     0.275 HD
ENDBRANCH  43  48
ENDBRANCH  37  38
ENDBRANCH   5  37
TORSDOF 16
ENDMDL
