MODEL 1
REMARK VINA RESULT: -8.669212787      0.000      0.000
REMARK  14 active torsions:
REMARK  status: ('A' for Active; 'I' for Inactive)
REMARK    1  A    between atoms: C3_4  and  O2_5 
REMARK    2  A    between atoms: O2_5  and  C4_6 
REMARK    3  A    between atoms: C5_7  and  O3_8 
REMARK    4  A    between atoms: C6_10  and  O4_11 
REMARK    5  A    between atoms: C7_13  and  O5_14 
REMARK    6  A    between atoms: C8_16  and  O6_17 
REMARK    7  A    between atoms: C9_19  and  C10_20 
REMARK    8  A    between atoms: C10_20  and  O7_21 
REMARK    9  A    between atoms: C12_25  and  O9_26 
REMARK   10  A    between atoms: O9_26  and  C13_27 
REMARK   11  A    between atoms: C15_34  and  O12_35 
REMARK   12  A    between atoms: O12_35  and  S2_36 
REMARK   13  A    between atoms: C16_40  and  O16_41 
REMARK   14  A    between atoms: O16_41  and  S3_42 
ROOT
HETATM    1  O1  UNL     1       5.655  20.550  13.520  1.00  0.00    -0.295 OA
HETATM    2  C1  UNL     1       5.113  19.869  12.699  1.00  0.00     0.162 C 
HETATM    3  C2  UNL     1       4.695  18.488  13.006  1.00  0.00     0.142 C 
HETATM    4  C3  UNL     1       3.445  18.247  12.148  1.00  0.00     0.267 C 
HETATM    5  O8  UNL     1       2.759  19.432  12.084  1.00  0.00    -0.358 OA
HETATM    6  C11 UNL     1       3.357  20.238  11.115  1.00  0.00     0.211 C 
HETATM    7  C12 UNL     1       4.837  20.389  11.340  1.00  0.00     0.217 C 
ENDROOT
BRANCH   7   8
HETATM    8  O9  UNL     1       5.181  21.725  11.282  1.00  0.00    -0.348 OA
BRANCH   8   9
HETATM    9  C13 UNL     1       5.715  22.108  10.059  1.00  0.00     0.264 C 
HETATM   10  N1  UNL     1       7.159  21.936  10.152  1.00  0.00    -0.289 N 
HETATM   11  S1  UNL     1       7.969  22.439   8.719  1.00  0.00     0.231 S 
ATOM     12  H1  UNL     1       7.635  21.560  10.972  1.00  0.00     0.174 HD
HETATM   13  O10 UNL     1       8.978  23.511   8.995  1.00  0.00    -0.206 OA
HETATM   14  O11 UNL     1       8.542  21.264   8.011  1.00  0.00    -0.206 OA
HETATM   15  C14 UNL     1       6.664  23.087   7.668  1.00  0.00     0.199 C 
HETATM   16  C15 UNL     1       5.900  24.082   8.513  1.00  0.00     0.195 C 
HETATM   17  C16 UNL     1       5.294  23.480   9.738  1.00  0.00     0.225 C 
BRANCH  16  18
HETATM   18  O12 UNL     1       5.018  24.727   7.663  1.00  0.00    -0.248 OA
BRANCH  18  19
HETATM   19  S2  UNL     1       5.176  26.409   7.833  1.00  0.00     0.252 S 
HETATM   20  O13 UNL     1       3.806  27.038   8.015  1.00  0.00    -0.572 OA
HETATM   21  O14 UNL     1       5.770  27.024   6.602  1.00  0.00    -0.572 OA
HETATM   22  O15 UNL     1       6.181  26.790   9.123  1.00  0.00    -0.572 OA
ENDBRANCH  18  19
ENDBRANCH  16  18
BRANCH  17  23
HETATM   23  O16 UNL     1       3.912  23.519   9.587  1.00  0.00    -0.244 OA
BRANCH  23  24
HETATM   24  S3  UNL     1       3.137  24.432  10.757  1.00  0.00     0.252 S 
HETATM   25  O17 UNL     1       3.995  25.618  11.084  1.00  0.00    -0.572 OA
HETATM   26  O18 UNL     1       1.877  25.004  10.120  1.00  0.00    -0.572 OA
HETATM   27  O19 UNL     1       2.791  23.561  12.134  1.00  0.00    -0.572 OA
ENDBRANCH  23  24
ENDBRANCH  17  23
ENDBRANCH   8   9
ENDBRANCH   7   8
BRANCH   4  28
HETATM   28  O2  UNL     1       2.702  17.185  12.626  1.00  0.00    -0.352 OA
BRANCH  28  29
HETATM   29  C4  UNL     1       3.116  15.949  12.145  1.00  0.00     0.164 C 
HETATM   30  C5  UNL     1       3.030  14.965  13.268  1.00  0.00     0.179 C 
HETATM   31  C6  UNL     1       1.585  15.017  13.785  1.00  0.00     0.180 C 
HETATM   32  C7  UNL     1       0.733  14.436  12.677  1.00  0.00     0.178 C 
HETATM   33  C8  UNL     1       0.837  15.176  11.400  1.00  0.00     0.158 C 
HETATM   34  C9  UNL     1       2.202  15.597  10.996  1.00  0.00     0.072 C 
BRANCH  30  35
HETATM   35  O3  UNL     1       3.834  15.345  14.316  1.00  0.00    -0.390 OA
ATOM     36  H3  UNL     1       4.087  14.593  14.839  1.00  0.00     0.210 HD
ENDBRANCH  30  35
BRANCH  31  37
HETATM   37  O4  UNL     1       1.406  14.253  14.911  1.00  0.00    -0.390 OA
ATOM     38  H4  UNL     1       0.734  13.591  14.796  1.00  0.00     0.210 HD
ENDBRANCH  31  37
BRANCH  32  39
HETATM   39  O5  UNL     1       1.009  13.060  12.544  1.00  0.00    -0.390 OA
ATOM     40  H5  UNL     1       0.745  12.765  11.680  1.00  0.00     0.210 HD
ENDBRANCH  32  39
BRANCH  33  41
HETATM   41  O6  UNL     1      -0.019  16.298  11.484  1.00  0.00    -0.392 OA
ATOM     42  H6  UNL     1       0.488  17.022  11.831  1.00  0.00     0.210 HD
ENDBRANCH  33  41
BRANCH  34  43
HETATM   43  C10 UNL     1       2.854  14.630  10.018  1.00  0.00     0.174 C 
BRANCH  43  44
HETATM   44  O7  UNL     1       1.980  14.106   9.103  1.00  0.00    -0.400 OA
ATOM     45  H7  UNL     1       1.327  14.727   8.805  1.00  0.00     0.209 HD
ENDBRANCH  43  44
ENDBRANCH  34  43
ENDBRANCH  28  29
ENDBRANCH   4  28
TORSDOF 14
ENDMDL
MODEL 2
REMARK VINA RESULT: -8.644867840      1.936      3.879
REMARK  14 active torsions:
REMARK  status: ('A' for Active; 'I' for Inactive)
REMARK    1  A    between atoms: C3_4  and  O2_5 
REMARK    2  A    between atoms: O2_5  and  C4_6 
REMARK    3  A    between atoms: C5_7  and  O3_8 
REMARK    4  A    between atoms: C6_10  and  O4_11 
REMARK    5  A    between atoms: C7_13  and  O5_14 
REMARK    6  A    between atoms: C8_16  and  O6_17 
REMARK    7  A    between atoms: C9_19  and  C10_20 
REMARK    8  A    between atoms: C10_20  and  O7_21 
REMARK    9  A    between atoms: C12_25  and  O9_26 
REMARK   10  A    between atoms: O9_26  and  C13_27 
REMARK   11  A    between atoms: C15_34  and  O12_35 
REMARK   12  A    between atoms: O12_35  and  S2_36 
REMARK   13  A    between atoms: C16_40  and  O16_41 
REMARK   14  A    between atoms: O16_41  and  S3_42 
ROOT
HETATM    1  O1  UNL     1       4.018  19.745   9.750  1.00  0.00    -0.295 OA
HETATM    2  C1  UNL     1       3.987  19.849  10.942  1.00  0.00     0.162 C 
HETATM    3  C2  UNL     1       3.171  18.940  11.768  1.00  0.00     0.142 C 
HETATM    4  C3  UNL     1       3.929  18.817  13.097  1.00  0.00     0.267 C 
HETATM    5  O8  UNL     1       5.269  18.858  12.808  1.00  0.00    -0.358 OA
HETATM    6  C11 UNL     1       5.644  20.191  12.635  1.00  0.00     0.211 C 
HETATM    7  C12 UNL     1       4.771  20.899  11.634  1.00  0.00     0.217 C 
ENDROOT
BRANCH   7   8
HETATM    8  O9  UNL     1       5.560  21.562  10.717  1.00  0.00    -0.348 OA
BRANCH   8   9
HETATM    9  C13 UNL     1       5.274  22.916  10.614  1.00  0.00     0.264 C 
HETATM   10  N1  UNL     1       3.824  23.048  10.648  1.00  0.00    -0.289 N 
HETATM   11  S1  UNL     1       3.313  24.681  10.461  1.00  0.00     0.231 S 
ATOM     12  H1  UNL     1       3.184  22.263  10.769  1.00  0.00     0.174 HD
HETATM   13  O10 UNL     1       2.406  24.852   9.281  1.00  0.00    -0.206 OA
HETATM   14  O11 UNL     1       2.725  25.186  11.730  1.00  0.00    -0.206 OA
HETATM   15  C14 UNL     1       4.834  25.601  10.197  1.00  0.00     0.199 C 
HETATM   16  C15 UNL     1       5.567  24.889   9.083  1.00  0.00     0.195 C 
HETATM   17  C16 UNL     1       5.898  23.468   9.402  1.00  0.00     0.225 C 
BRANCH  16  18
HETATM   18  O12 UNL     1       6.641  25.692   8.740  1.00  0.00    -0.248 OA
BRANCH  18  19
HETATM   19  S2  UNL     1       6.167  26.821   7.564  1.00  0.00     0.252 S 
HETATM   20  O13 UNL     1       5.758  28.121   8.235  1.00  0.00    -0.572 OA
HETATM   21  O14 UNL     1       4.972  26.339   6.799  1.00  0.00    -0.572 OA
HETATM   22  O15 UNL     1       7.401  27.087   6.456  1.00  0.00    -0.572 OA
ENDBRANCH  18  19
ENDBRANCH  16  18
BRANCH  17  23
HETATM   23  O16 UNL     1       7.281  23.371   9.506  1.00  0.00    -0.244 OA
BRANCH  23  24
HETATM   24  S3  UNL     1       7.996  22.585   8.212  1.00  0.00     0.252 S 
HETATM   25  O17 UNL     1       8.800  21.432   8.737  1.00  0.00    -0.572 OA
HETATM   26  O18 UNL     1       6.876  21.959   7.390  1.00  0.00    -0.572 OA
HETATM   27  O19 UNL     1       8.949  23.592   7.290  1.00  0.00    -0.572 OA
ENDBRANCH  23  24
ENDBRANCH  17  23
ENDBRANCH   8   9
ENDBRANCH   7   8
BRANCH   4  28
HETATM   28  O2  UNL     1       3.535  17.697  13.801  1.00  0.00    -0.352 OA
BRANCH  28  29
HETATM   29  C4  UNL     1       4.559  16.785  14.026  1.00  0.00     0.164 C 
HETATM   30  C5  UNL     1       4.618  16.512  15.495  1.00  0.00     0.179 C 
HETATM   31  C6  UNL     1       3.218  16.038  15.908  1.00  0.00     0.180 C 
HETATM   32  C7  UNL     1       3.035  14.684  15.256  1.00  0.00     0.178 C 
HETATM   33  C8  UNL     1       3.138  14.720  13.780  1.00  0.00     0.158 C 
HETATM   34  C9  UNL     1       4.233  15.551  13.220  1.00  0.00     0.072 C 
BRANCH  30  35
HETATM   35  O3  UNL     1       4.865  17.666  16.200  1.00  0.00    -0.390 OA
ATOM     36  H3  UNL     1       5.599  17.552  16.792  1.00  0.00     0.210 HD
ENDBRANCH  30  35
BRANCH  31  37
HETATM   37  O4  UNL     1       3.100  15.880  17.267  1.00  0.00    -0.390 OA
ATOM     38  H4  UNL     1       2.347  15.352  17.506  1.00  0.00     0.210 HD
ENDBRANCH  31  37
BRANCH  32  39
HETATM   39  O5  UNL     1       3.910  13.753  15.851  1.00  0.00    -0.390 OA
ATOM     40  H5  UNL     1       3.553  13.470  16.685  1.00  0.00     0.210 HD
ENDBRANCH  32  39
BRANCH  33  41
HETATM   41  O6  UNL     1       1.889  15.144  13.273  1.00  0.00    -0.392 OA
ATOM     42  H6  UNL     1       2.057  15.792  12.599  1.00  0.00     0.210 HD
ENDBRANCH  33  41
BRANCH  34  43
HETATM   43  C10 UNL     1       5.476  14.741  12.881  1.00  0.00     0.174 C 
BRANCH  43  44
HETATM   44  O7  UNL     1       6.607  15.503  12.751  1.00  0.00    -0.400 OA
ATOM     45  H7  UNL     1       7.405  15.037  12.969  1.00  0.00     0.209 HD
ENDBRANCH  43  44
ENDBRANCH  34  43
ENDBRANCH  28  29
ENDBRANCH   4  28
TORSDOF 14
ENDMDL
MODEL 3
REMARK VINA RESULT: -8.539870359      1.641      3.696
REMARK  14 active torsions:
REMARK  status: ('A' for Active; 'I' for Inactive)
REMARK    1  A    between atoms: C3_4  and  O2_5 
REMARK    2  A    between atoms: O2_5  and  C4_6 
REMARK    3  A    between atoms: C5_7  and  O3_8 
REMARK    4  A    between atoms: C6_10  and  O4_11 
REMARK    5  A    between atoms: C7_13  and  O5_14 
REMARK    6  A    between atoms: C8_16  and  O6_17 
REMARK    7  A    between atoms: C9_19  and  C10_20 
REMARK    8  A    between atoms: C10_20  and  O7_21 
REMARK    9  A    between atoms: C12_25  and  O9_26 
REMARK   10  A    between atoms: O9_26  and  C13_27 
REMARK   11  A    between atoms: C15_34  and  O12_35 
REMARK   12  A    between atoms: O12_35  and  S2_36 
REMARK   13  A    between atoms: C16_40  and  O16_41 
REMARK   14  A    between atoms: O16_41  and  S3_42 
ROOT
HETATM    1  O1  UNL     1       4.049  19.670   9.457  1.00  0.00    -0.295 OA
HETATM    2  C1  UNL     1       3.922  19.769  10.642  1.00  0.00     0.162 C 
HETATM    3  C2  UNL     1       3.144  18.782  11.414  1.00  0.00     0.142 C 
HETATM    4  C3  UNL     1       3.814  18.734  12.794  1.00  0.00     0.267 C 
HETATM    5  O8  UNL     1       5.160  18.909  12.601  1.00  0.00    -0.358 OA
HETATM    6  C11 UNL     1       5.412  20.273  12.447  1.00  0.00     0.211 C 
HETATM    7  C12 UNL     1       4.547  20.891  11.383  1.00  0.00     0.217 C 
ENDROOT
BRANCH   7   8
HETATM    8  O9  UNL     1       5.330  21.630  10.520  1.00  0.00    -0.348 OA
BRANCH   8   9
HETATM    9  C13 UNL     1       5.037  22.987  10.529  1.00  0.00     0.264 C 
HETATM   10  N1  UNL     1       3.586  23.110  10.528  1.00  0.00    -0.289 N 
HETATM   11  S1  UNL     1       3.071  24.751  10.473  1.00  0.00     0.231 S 
ATOM     12  H1  UNL     1       2.948  22.315  10.558  1.00  0.00     0.174 HD
HETATM   13  O10 UNL     1       2.200  25.024   9.284  1.00  0.00    -0.206 OA
HETATM   14  O11 UNL     1       2.438  25.138  11.761  1.00  0.00    -0.206 OA
HETATM   15  C14 UNL     1       4.593  25.697  10.341  1.00  0.00     0.199 C 
HETATM   16  C15 UNL     1       5.365  25.091   9.192  1.00  0.00     0.195 C 
HETATM   17  C16 UNL     1       5.696  23.649   9.393  1.00  0.00     0.225 C 
BRANCH  16  18
HETATM   18  O12 UNL     1       6.444  25.925   8.957  1.00  0.00    -0.248 OA
BRANCH  18  19
HETATM   19  S2  UNL     1       6.129  26.916   7.615  1.00  0.00     0.252 S 
HETATM   20  O13 UNL     1       5.772  28.317   8.082  1.00  0.00    -0.572 OA
HETATM   21  O14 UNL     1       4.954  26.412   6.834  1.00  0.00    -0.572 OA
HETATM   22  O15 UNL     1       7.447  26.954   6.575  1.00  0.00    -0.572 OA
ENDBRANCH  18  19
ENDBRANCH  16  18
BRANCH  17  23
HETATM   23  O16 UNL     1       7.076  23.547   9.533  1.00  0.00    -0.244 OA
BRANCH  23  24
HETATM   24  S3  UNL     1       7.828  22.806   8.234  1.00  0.00     0.252 S 
HETATM   25  O17 UNL     1       8.652  21.663   8.747  1.00  0.00    -0.572 OA
HETATM   26  O18 UNL     1       6.735  22.169   7.384  1.00  0.00    -0.572 OA
HETATM   27  O19 UNL     1       8.768  23.854   7.345  1.00  0.00    -0.572 OA
ENDBRANCH  23  24
ENDBRANCH  17  23
ENDBRANCH   8   9
ENDBRANCH   7   8
BRANCH   4  28
HETATM   28  O2  UNL     1       3.484  17.579  13.475  1.00  0.00    -0.352 OA
BRANCH  28  29
HETATM   29  C4  UNL     1       3.729  16.414  12.756  1.00  0.00     0.164 C 
HETATM   30  C5  UNL     1       4.875  15.706  13.404  1.00  0.00     0.179 C 
HETATM   31  C6  UNL     1       4.487  15.499  14.875  1.00  0.00     0.180 C 
HETATM   32  C7  UNL     1       3.353  14.496  14.861  1.00  0.00     0.178 C 
HETATM   33  C8  UNL     1       2.174  14.947  14.089  1.00  0.00     0.158 C 
HETATM   34  C9  UNL     1       2.456  15.603  12.788  1.00  0.00     0.072 C 
BRANCH  30  35
HETATM   35  O3  UNL     1       6.002  16.493  13.405  1.00  0.00    -0.390 OA
ATOM     36  H3  UNL     1       5.788  17.393  13.623  1.00  0.00     0.210 HD
ENDBRANCH  30  35
BRANCH  31  37
HETATM   37  O4  UNL     1       5.516  14.975  15.618  1.00  0.00    -0.390 OA
ATOM     38  H4  UNL     1       5.208  14.532  16.401  1.00  0.00     0.210 HD
ENDBRANCH  31  37
BRANCH  32  39
HETATM   39  O5  UNL     1       3.841  13.240  14.447  1.00  0.00    -0.390 OA
ATOM     40  H5  UNL     1       3.911  12.663  15.199  1.00  0.00     0.210 HD
ENDBRANCH  32  39
BRANCH  33  41
HETATM   41  O6  UNL     1       1.418  15.805  14.920  1.00  0.00    -0.392 OA
ATOM     42  H6  UNL     1       1.968  16.051  15.655  1.00  0.00     0.210 HD
ENDBRANCH  33  41
BRANCH  34  43
HETATM   43  C10 UNL     1       2.354  14.647  11.608  1.00  0.00     0.174 C 
BRANCH  43  44
HETATM   44  O7  UNL     1       2.021  13.369  11.968  1.00  0.00    -0.400 OA
ATOM     45  H7  UNL     1       2.099  12.743  11.258  1.00  0.00     0.209 HD
ENDBRANCH  43  44
ENDBRANCH  34  43
ENDBRANCH  28  29
ENDBRANCH   4  28
TORSDOF 14
ENDMDL
MODEL 4
REMARK VINA RESULT: -8.514075893      1.283      3.331
REMARK  14 active torsions:
REMARK  status: ('A' for Active; 'I' for Inactive)
REMARK    1  A    between atoms: C3_4  and  O2_5 
REMARK    2  A    between atoms: O2_5  and  C4_6 
REMARK    3  A    between atoms: C5_7  and  O3_8 
REMARK    4  A    between atoms: C6_10  and  O4_11 
REMARK    5  A    between atoms: C7_13  and  O5_14 
REMARK    6  A    between atoms: C8_16  and  O6_17 
REMARK    7  A    between atoms: C9_19  and  C10_20 
REMARK    8  A    between atoms: C10_20  and  O7_21 
REMARK    9  A    between atoms: C12_25  and  O9_26 
REMARK   10  A    between atoms: O9_26  and  C13_27 
REMARK   11  A    between atoms: C15_34  and  O12_35 
REMARK   12  A    between atoms: O12_35  and  S2_36 
REMARK   13  A    between atoms: C16_40  and  O16_41 
REMARK   14  A    between atoms: O16_41  and  S3_42 
ROOT
HETATM    1  O1  UNL     1       4.097  20.049   9.183  1.00  0.00    -0.295 OA
HETATM    2  C1  UNL     1       3.788  19.932  10.332  1.00  0.00     0.162 C 
HETATM    3  C2  UNL     1       2.749  18.972  10.751  1.00  0.00     0.142 C 
HETATM    4  C3  UNL     1       3.160  18.528  12.162  1.00  0.00     0.267 C 
HETATM    5  O8  UNL     1       4.530  18.487  12.195  1.00  0.00    -0.358 OA
HETATM    6  C11 UNL     1       5.008  19.784  12.386  1.00  0.00     0.211 C 
HETATM    7  C12 UNL     1       4.439  20.750  11.383  1.00  0.00     0.217 C 
ENDROOT
BRANCH   7   8
HETATM    8  O9  UNL     1       5.461  21.488  10.820  1.00  0.00    -0.348 OA
BRANCH   8   9
HETATM    9  C13 UNL     1       5.177  22.844  10.724  1.00  0.00     0.264 C 
HETATM   10  N1  UNL     1       3.727  22.979  10.760  1.00  0.00    -0.289 N 
HETATM   11  S1  UNL     1       3.220  24.614  10.581  1.00  0.00     0.231 S 
ATOM     12  H1  UNL     1       3.086  22.195  10.878  1.00  0.00     0.174 HD
HETATM   13  O10 UNL     1       2.312  24.792   9.403  1.00  0.00    -0.206 OA
HETATM   14  O11 UNL     1       2.634  25.115  11.853  1.00  0.00    -0.206 OA
HETATM   15  C14 UNL     1       4.743  25.532  10.319  1.00  0.00     0.199 C 
HETATM   16  C15 UNL     1       5.472  24.823   9.201  1.00  0.00     0.195 C 
HETATM   17  C16 UNL     1       5.801  23.400   9.513  1.00  0.00     0.225 C 
BRANCH  16  18
HETATM   18  O12 UNL     1       6.548  25.625   8.861  1.00  0.00    -0.248 OA
BRANCH  18  19
HETATM   19  S2  UNL     1       6.081  26.745   7.673  1.00  0.00     0.252 S 
HETATM   20  O13 UNL     1       5.660  28.047   8.332  1.00  0.00    -0.572 OA
HETATM   21  O14 UNL     1       4.897  26.253   6.899  1.00  0.00    -0.572 OA
HETATM   22  O15 UNL     1       7.326  27.009   6.576  1.00  0.00    -0.572 OA
ENDBRANCH  18  19
ENDBRANCH  16  18
BRANCH  17  23
HETATM   23  O16 UNL     1       7.184  23.299   9.616  1.00  0.00    -0.244 OA
BRANCH  23  24
HETATM   24  S3  UNL     1       7.901  22.563   8.294  1.00  0.00     0.252 S 
HETATM   25  O17 UNL     1       8.730  21.411   8.779  1.00  0.00    -0.572 OA
HETATM   26  O18 UNL     1       6.785  21.941   7.465  1.00  0.00    -0.572 OA
HETATM   27  O19 UNL     1       8.827  23.613   7.392  1.00  0.00    -0.572 OA
ENDBRANCH  23  24
ENDBRANCH  17  23
ENDBRANCH   8   9
ENDBRANCH   7   8
BRANCH   4  28
HETATM   28  O2  UNL     1       2.547  17.342  12.515  1.00  0.00    -0.352 OA
BRANCH  28  29
HETATM   29  C4  UNL     1       3.134  16.217  11.948  1.00  0.00     0.164 C 
HETATM   30  C5  UNL     1       3.462  15.262  13.051  1.00  0.00     0.179 C 
HETATM   31  C6  UNL     1       2.153  15.006  13.811  1.00  0.00     0.180 C 
HETATM   32  C7  UNL     1       1.272  14.228  12.857  1.00  0.00     0.178 C 
HETATM   33  C8  UNL     1       0.987  14.946  11.595  1.00  0.00     0.158 C 
HETATM   34  C9  UNL     1       2.135  15.648  10.968  1.00  0.00     0.072 C 
BRANCH  30  35
HETATM   35  O3  UNL     1       4.331  15.831  13.951  1.00  0.00    -0.390 OA
ATOM     36  H3  UNL     1       4.057  15.657  14.844  1.00  0.00     0.210 HD
ENDBRANCH  30  35
BRANCH  31  37
HETATM   37  O4  UNL     1       2.343  14.245  14.938  1.00  0.00    -0.390 OA
ATOM     38  H4  UNL     1       2.783  13.424  14.750  1.00  0.00     0.210 HD
ENDBRANCH  31  37
BRANCH  32  39
HETATM   39  O5  UNL     1       1.816  12.943  12.654  1.00  0.00    -0.390 OA
ATOM     40  H5  UNL     1       1.645  12.402  13.416  1.00  0.00     0.210 HD
ENDBRANCH  32  39
BRANCH  33  41
HETATM   41  O6  UNL     1      -0.067  15.853  11.845  1.00  0.00    -0.392 OA
ATOM     42  H6  UNL     1       0.071  16.225  12.708  1.00  0.00     0.210 HD
ENDBRANCH  33  41
BRANCH  34  43
HETATM   43  C10 UNL     1       2.806  14.828   9.875  1.00  0.00     0.174 C 
BRANCH  43  44
HETATM   44  O7  UNL     1       1.928  14.079   9.138  1.00  0.00    -0.400 OA
ATOM     45  H7  UNL     1       1.295  14.600   8.659  1.00  0.00     0.209 HD
ENDBRANCH  43  44
ENDBRANCH  34  43
ENDBRANCH  28  29
ENDBRANCH   4  28
TORSDOF 14
ENDMDL
MODEL 5
REMARK VINA RESULT: -8.437146573      2.052      4.118
REMARK  14 active torsions:
REMARK  status: ('A' for Active; 'I' for Inactive)
REMARK    1  A    between atoms: C3_4  and  O2_5 
REMARK    2  A    between atoms: O2_5  and  C4_6 
REMARK    3  A    between atoms: C5_7  and  O3_8 
REMARK    4  A    between atoms: C6_10  and  O4_11 
REMARK    5  A    between atoms: C7_13  and  O5_14 
REMARK    6  A    between atoms: C8_16  and  O6_17 
REMARK    7  A    between atoms: C9_19  and  C10_20 
REMARK    8  A    between atoms: C10_20  and  O7_21 
REMARK    9  A    between atoms: C12_25  and  O9_26 
REMARK   10  A    between atoms: O9_26  and  C13_27 
REMARK   11  A    between atoms: C15_34  and  O12_35 
REMARK   12  A    between atoms: O12_35  and  S2_36 
REMARK   13  A    between atoms: C16_40  and  O16_41 
REMARK   14  A    between atoms: O16_41  and  S3_42 
ROOT
HETATM    1  O1  UNL     1       4.073  19.870   9.493  1.00  0.00    -0.295 OA
HETATM    2  C1  UNL     1       3.943  19.878  10.682  1.00  0.00     0.162 C 
HETATM    3  C2  UNL     1       3.060  18.911  11.362  1.00  0.00     0.142 C 
HETATM    4  C3  UNL     1       3.705  18.676  12.735  1.00  0.00     0.267 C 
HETATM    5  O8  UNL     1       5.064  18.730  12.562  1.00  0.00    -0.358 OA
HETATM    6  C11 UNL     1       5.453  20.069  12.529  1.00  0.00     0.211 C 
HETATM    7  C12 UNL     1       4.667  20.862  11.520  1.00  0.00     0.217 C 
ENDROOT
BRANCH   7   8
HETATM    8  O9  UNL     1       5.531  21.591  10.728  1.00  0.00    -0.348 OA
BRANCH   8   9
HETATM    9  C13 UNL     1       5.217  22.941  10.660  1.00  0.00     0.264 C 
HETATM   10  N1  UNL     1       3.764  23.042  10.689  1.00  0.00    -0.289 N 
HETATM   11  S1  UNL     1       3.220  24.669  10.544  1.00  0.00     0.231 S 
ATOM     12  H1  UNL     1       3.140  22.241  10.785  1.00  0.00     0.174 HD
HETATM   13  O10 UNL     1       2.316  24.852   9.364  1.00  0.00    -0.206 OA
HETATM   14  O11 UNL     1       2.614  25.126  11.822  1.00  0.00    -0.206 OA
HETATM   15  C14 UNL     1       4.723  25.627  10.314  1.00  0.00     0.199 C 
HETATM   16  C15 UNL     1       5.476  24.961   9.186  1.00  0.00     0.195 C 
HETATM   17  C16 UNL     1       5.835  23.539   9.467  1.00  0.00     0.225 C 
BRANCH  16  18
HETATM   18  O12 UNL     1       6.535  25.795   8.871  1.00  0.00    -0.248 OA
BRANCH  18  19
HETATM   19  S2  UNL     1       6.081  26.866   7.634  1.00  0.00     0.252 S 
HETATM   20  O13 UNL     1       5.664  28.198   8.235  1.00  0.00    -0.572 OA
HETATM   21  O14 UNL     1       4.897  26.348   6.877  1.00  0.00    -0.572 OA
HETATM   22  O15 UNL     1       7.331  27.076   6.533  1.00  0.00    -0.572 OA
ENDBRANCH  18  19
ENDBRANCH  16  18
BRANCH  17  23
HETATM   23  O16 UNL     1       7.220  23.468   9.578  1.00  0.00    -0.244 OA
BRANCH  23  24
HETATM   24  S3  UNL     1       7.957  22.718   8.275  1.00  0.00     0.252 S 
HETATM   25  O17 UNL     1       8.769  21.564   8.784  1.00  0.00    -0.572 OA
HETATM   26  O18 UNL     1       6.853  22.097   7.428  1.00  0.00    -0.572 OA
HETATM   27  O19 UNL     1       8.907  23.756   7.384  1.00  0.00    -0.572 OA
ENDBRANCH  23  24
ENDBRANCH  17  23
ENDBRANCH   8   9
ENDBRANCH   7   8
BRANCH   4  28
HETATM   28  O2  UNL     1       3.252  17.505  13.310  1.00  0.00    -0.352 OA
BRANCH  28  29
HETATM   29  C4  UNL     1       3.870  17.197  14.517  1.00  0.00     0.164 C 
HETATM   30  C5  UNL     1       2.903  16.409  15.341  1.00  0.00     0.179 C 
HETATM   31  C6  UNL     1       2.486  15.201  14.491  1.00  0.00     0.180 C 
HETATM   32  C7  UNL     1       3.720  14.331  14.383  1.00  0.00     0.178 C 
HETATM   33  C8  UNL     1       4.872  15.015  13.753  1.00  0.00     0.158 C 
HETATM   34  C9  UNL     1       5.118  16.415  14.183  1.00  0.00     0.072 C 
BRANCH  30  35
HETATM   35  O3  UNL     1       1.758  17.132  15.581  1.00  0.00    -0.390 OA
ATOM     36  H3  UNL     1       1.333  16.840  16.378  1.00  0.00     0.210 HD
ENDBRANCH  30  35
BRANCH  31  37
HETATM   37  O4  UNL     1       1.491  14.463  15.084  1.00  0.00    -0.390 OA
ATOM     38  H4  UNL     1       0.819  15.009  15.475  1.00  0.00     0.210 HD
ENDBRANCH  31  37
BRANCH  32  39
HETATM   39  O5  UNL     1       4.023  13.784  15.646  1.00  0.00    -0.390 OA
ATOM     40  H5  UNL     1       4.565  13.012  15.535  1.00  0.00     0.210 HD
ENDBRANCH  32  39
BRANCH  33  41
HETATM   41  O6  UNL     1       4.694  14.955  12.352  1.00  0.00    -0.392 OA
ATOM     42  H6  UNL     1       5.542  15.094  11.948  1.00  0.00     0.210 HD
ENDBRANCH  33  41
BRANCH  34  43
HETATM   43  C10 UNL     1       6.172  16.522  15.275  1.00  0.00     0.174 C 
BRANCH  43  44
HETATM   44  O7  UNL     1       7.439  16.720  14.795  1.00  0.00    -0.400 OA
ATOM     45  H7  UNL     1       8.080  16.887  15.475  1.00  0.00     0.209 HD
ENDBRANCH  43  44
ENDBRANCH  34  43
ENDBRANCH  28  29
ENDBRANCH   4  28
TORSDOF 14
ENDMDL
