MODEL 1
REMARK VINA RESULT: -9.267179323      0.000      0.000
REMARK  16 active torsions:
REMARK  status: ('A' for Active; 'I' for Inactive)
REMARK    1  A    between atoms: C1_2  and  C2_4 
REMARK       I    between atoms: C2_4  and  N2_6 
REMARK    2  A    between atoms: C3_7  and  O3_8 
REMARK    3  A    between atoms: C4_10  and  O4_11 
REMARK    4  A    between atoms: O4_11  and  C5_12 
REMARK    5  A    between atoms: C9_16  and  O5_17 
REMARK    6  A    between atoms: C12_22  and  O7_23 
REMARK    7  A    between atoms: O7_23  and  C13_24 
REMARK    8  A    between atoms: C13_24  and  C14_26 
REMARK       I    between atoms: N3_28  and  C16_29 
REMARK    9  A    between atoms: C16_29  and  C17_31 
REMARK   10  A    between atoms: C17_31  and  O10_32 
REMARK   11  A    between atoms: C17_31  and  C18_34 
REMARK   12  A    between atoms: C18_34  and  O11_35 
REMARK   13  A    between atoms: C18_34  and  C19_37 
REMARK   14  A    between atoms: C19_37  and  O12_38 
REMARK   15  A    between atoms: C22_44  and  O15_45 
REMARK   16  A    between atoms: C23_47  and  C24_48 
ROOT
HETATM    1  C5  UNL     1       3.168  19.530  12.006  1.00  0.00     0.185 C 
HETATM    2  C6  UNL     1       2.361  20.274  13.027  1.00  0.00     0.153 C 
HETATM    3  C7  UNL     1       3.056  20.301  14.344  1.00  0.00     0.037 C 
HETATM    4  C8  UNL     1       4.338  19.541  14.403  1.00  0.00     0.037 C 
HETATM    5  C9  UNL     1       5.255  19.747  13.242  1.00  0.00     0.149 C 
HETATM    6  C10 UNL     1       4.551  20.149  11.966  1.00  0.00     0.182 C 
HETATM    7  O6  UNL     1       4.494  21.527  11.920  1.00  0.00    -0.370 OA
HETATM    8  C11 UNL     1       3.636  21.994  10.927  1.00  0.00     0.180 C 
HETATM    9  C12 UNL     1       3.469  23.476  10.961  1.00  0.00     0.165 C 
HETATM   10  C20 UNL     1       1.986  23.293  11.019  1.00  0.00     0.070 C 
HETATM   11  C21 UNL     1       2.208  21.827  11.319  1.00  0.00     0.156 C 
HETATM   12  O13 UNL     1       2.029  21.556  12.665  1.00  0.00    -0.375 OA
ENDROOT
BRANCH   1  13
HETATM   13  O4  UNL     1       3.235  18.188  12.377  1.00  0.00    -0.346 OA
BRANCH  13  14
HETATM   14  C4  UNL     1       2.401  17.392  11.619  1.00  0.00     0.312 C 
HETATM   15  C3  UNL     1       1.190  16.940  12.434  1.00  0.00     0.279 C 
HETATM   16  N2  UNL     1       1.436  15.729  13.169  1.00  0.00    -0.293 N 
HETATM   17  C2  UNL     1       0.536  15.294  14.190  1.00  0.00     0.311 C 
HETATM   18  C23 UNL     1       2.609  14.876  12.901  1.00  0.00     0.246 C 
HETATM   19  O2  UNL     1       0.818  14.219  14.813  1.00  0.00    -0.263 OA
HETATM   20  C22 UNL     1       3.671  15.623  12.143  1.00  0.00     0.293 C 
HETATM   21  O14 UNL     1       3.004  16.271  11.088  1.00  0.00    -0.325 OA
BRANCH  15  22
HETATM   22  O3  UNL     1       0.132  16.756  11.512  1.00  0.00    -0.371 OA
ATOM     23  H3  UNL     1       0.028  17.527  10.966  1.00  0.00     0.212 HD
ENDBRANCH  15  22
BRANCH  17  24
HETATM   24  C1  UNL     1      -0.663  15.970  14.569  1.00  0.00     0.322 C 
HETATM   25  N1  UNL     1      -1.859  15.741  13.786  1.00  0.00    -0.053 NA
HETATM   26  O1  UNL     1      -0.782  16.744  15.515  1.00  0.00    -0.266 OA
ENDBRANCH  17  24
BRANCH  18  27
HETATM   27  C24 UNL     1       2.232  13.695  12.113  1.00  0.00     0.202 C 
HETATM   28  O16 UNL     1       2.920  12.654  12.178  1.00  0.00    -0.646 OA
HETATM   29  O17 UNL     1       1.121  13.734  11.304  1.00  0.00    -0.646 OA
ENDBRANCH  18  27
BRANCH  20  30
HETATM   30  O15 UNL     1       4.621  14.760  11.597  1.00  0.00    -0.368 OA
ATOM     31  H15 UNL     1       5.476  15.011  11.926  1.00  0.00     0.212 HD
ENDBRANCH  20  30
ENDBRANCH  13  14
ENDBRANCH   1  13
BRANCH   5  32
HETATM   32  O5  UNL     1       6.257  20.693  13.547  1.00  0.00    -0.393 OA
ATOM     33  H5  UNL     1       6.775  20.904  12.779  1.00  0.00     0.210 HD
ENDBRANCH   5  32
BRANCH   9  34
HETATM   34  O7  UNL     1       3.955  24.174   9.832  1.00  0.00    -0.311 OA
BRANCH  34  35
HETATM   35  C13 UNL     1       5.294  24.449   9.604  1.00  0.00     0.284 C 
HETATM   36  O8  UNL     1       6.013  24.618  10.621  1.00  0.00    -0.263 OA
BRANCH  35  37
HETATM   37  C14 UNL     1       5.889  24.550   8.256  1.00  0.00     0.205 A 
HETATM   38  C15 UNL     1       6.541  25.771   7.782  1.00  0.00     0.162 A 
HETATM   39  N3  UNL     1       7.305  24.544   8.086  1.00  0.00    -0.332 N 
HETATM   40  C16 UNL     1       8.609  23.945   8.120  1.00  0.00     0.252 C 
HETATM   41  O9  UNL     1       9.620  24.615   7.782  1.00  0.00    -0.270 OA
BRANCH  40  42
HETATM   42  C17 UNL     1       8.778  22.550   8.547  1.00  0.00     0.240 C 
BRANCH  42  43
HETATM   43  O10 UNL     1       7.678  22.216   9.401  1.00  0.00    -0.383 OA
ATOM     44  H10 UNL     1       7.199  21.505   8.992  1.00  0.00     0.210 HD
ENDBRANCH  42  43
BRANCH  42  45
HETATM   45  C18 UNL     1       8.728  21.539   7.410  1.00  0.00     0.179 C 
BRANCH  45  46
HETATM   46  O11 UNL     1       7.491  20.865   7.445  1.00  0.00    -0.390 OA
ATOM     47  H11 UNL     1       7.501  20.161   6.807  1.00  0.00     0.210 HD
ENDBRANCH  45  46
BRANCH  45  48
HETATM   48  C19 UNL     1       9.855  20.546   7.554  1.00  0.00     0.199 C 
BRANCH  48  49
HETATM   49  O12 UNL     1       9.836  20.109   8.909  1.00  0.00    -0.398 OA
ATOM     50  H12 UNL     1      10.295  19.277   8.930  1.00  0.00     0.209 HD
ENDBRANCH  48  49
ENDBRANCH  45  48
ENDBRANCH  42  45
ENDBRANCH  40  42
ENDBRANCH  35  37
ENDBRANCH  34  35
ENDBRANCH   9  34
TORSDOF 16
ENDMDL
MODEL 2
REMARK VINA RESULT: -9.198565770      1.673      2.270
REMARK  16 active torsions:
REMARK  status: ('A' for Active; 'I' for Inactive)
REMARK    1  A    between atoms: C1_2  and  C2_4 
REMARK       I    between atoms: C2_4  and  N2_6 
REMARK    2  A    between atoms: C3_7  and  O3_8 
REMARK    3  A    between atoms: C4_10  and  O4_11 
REMARK    4  A    between atoms: O4_11  and  C5_12 
REMARK    5  A    between atoms: C9_16  and  O5_17 
REMARK    6  A    between atoms: C12_22  and  O7_23 
REMARK    7  A    between atoms: O7_23  and  C13_24 
REMARK    8  A    between atoms: C13_24  and  C14_26 
REMARK       I    between atoms: N3_28  and  C16_29 
REMARK    9  A    between atoms: C16_29  and  C17_31 
REMARK   10  A    between atoms: C17_31  and  O10_32 
REMARK   11  A    between atoms: C17_31  and  C18_34 
REMARK   12  A    between atoms: C18_34  and  O11_35 
REMARK   13  A    between atoms: C18_34  and  C19_37 
REMARK   14  A    between atoms: C19_37  and  O12_38 
REMARK   15  A    between atoms: C22_44  and  O15_45 
REMARK   16  A    between atoms: C23_47  and  C24_48 
ROOT
HETATM    1  C5  UNL     1       2.672  19.991  11.943  1.00  0.00     0.185 C 
HETATM    2  C6  UNL     1       1.423  20.816  11.860  1.00  0.00     0.153 C 
HETATM    3  C7  UNL     1       0.870  21.090  13.216  1.00  0.00     0.037 C 
HETATM    4  C8  UNL     1       1.603  20.446  14.344  1.00  0.00     0.037 C 
HETATM    5  C9  UNL     1       3.091  20.546  14.277  1.00  0.00     0.149 C 
HETATM    6  C10 UNL     1       3.636  20.700  12.875  1.00  0.00     0.182 C 
HETATM    7  O6  UNL     1       3.723  22.048  12.591  1.00  0.00    -0.370 OA
HETATM    8  C11 UNL     1       3.956  22.296  11.242  1.00  0.00     0.180 C 
HETATM    9  C12 UNL     1       3.919  23.751  10.908  1.00  0.00     0.165 C 
HETATM   10  C20 UNL     1       2.906  23.466   9.846  1.00  0.00     0.070 C 
HETATM   11  C21 UNL     1       2.726  22.082  10.428  1.00  0.00     0.156 C 
HETATM   12  O13 UNL     1       1.568  22.001  11.183  1.00  0.00    -0.375 OA
ENDROOT
BRANCH   1  13
HETATM   13  O4  UNL     1       2.346  18.729  12.435  1.00  0.00    -0.346 OA
BRANCH  13  14
HETATM   14  C4  UNL     1       3.233  17.758  12.016  1.00  0.00     0.312 C 
HETATM   15  C3  UNL     1       2.494  16.577  11.390  1.00  0.00     0.279 C 
HETATM   16  N2  UNL     1       2.101  15.591  12.361  1.00  0.00    -0.293 N 
HETATM   17  C2  UNL     1       1.174  14.556  12.023  1.00  0.00     0.311 C 
HETATM   18  C23 UNL     1       2.637  15.588  13.735  1.00  0.00     0.246 C 
HETATM   19  O2  UNL     1       0.857  13.722  12.932  1.00  0.00    -0.263 OA
HETATM   20  C22 UNL     1       3.240  16.918  14.092  1.00  0.00     0.293 C 
HETATM   21  O14 UNL     1       4.060  17.271  13.007  1.00  0.00    -0.325 OA
BRANCH  15  22
HETATM   22  O3  UNL     1       3.373  16.011  10.436  1.00  0.00    -0.371 OA
ATOM     23  H3  UNL     1       2.944  15.934   9.592  1.00  0.00     0.212 HD
ENDBRANCH  15  22
BRANCH  17  24
HETATM   24  C1  UNL     1       0.573  14.380  10.740  1.00  0.00     0.322 C 
HETATM   25  N1  UNL     1      -0.859  14.553  10.623  1.00  0.00    -0.053 NA
HETATM   26  O1  UNL     1       1.164  14.090   9.704  1.00  0.00    -0.266 OA
ENDBRANCH  17  24
BRANCH  18  27
HETATM   27  C24 UNL     1       3.674  14.560  13.893  1.00  0.00     0.202 C 
HETATM   28  O16 UNL     1       3.905  14.073  15.020  1.00  0.00    -0.646 OA
HETATM   29  O17 UNL     1       4.391  14.133  12.800  1.00  0.00    -0.646 OA
ENDBRANCH  18  27
BRANCH  20  30
HETATM   30  O15 UNL     1       4.034  16.835  15.235  1.00  0.00    -0.368 OA
ATOM     31  H15 UNL     1       4.551  17.630  15.298  1.00  0.00     0.212 HD
ENDBRANCH  20  30
ENDBRANCH  13  14
ENDBRANCH   1  13
BRANCH   5  32
HETATM   32  O5  UNL     1       3.568  21.600  15.087  1.00  0.00    -0.393 OA
ATOM     33  H5  UNL     1       2.906  21.883  15.707  1.00  0.00     0.210 HD
ENDBRANCH   5  32
BRANCH   9  34
HETATM   34  O7  UNL     1       5.138  24.307  10.458  1.00  0.00    -0.311 OA
BRANCH  34  35
HETATM   35  C13 UNL     1       5.229  25.400   9.609  1.00  0.00     0.284 C 
HETATM   36  O8  UNL     1       4.852  26.504  10.076  1.00  0.00    -0.263 OA
BRANCH  35  37
HETATM   37  C14 UNL     1       5.732  25.318   8.224  1.00  0.00     0.205 A 
HETATM   38  C15 UNL     1       6.554  26.373   7.630  1.00  0.00     0.162 A 
HETATM   39  N3  UNL     1       7.109  25.045   7.968  1.00  0.00    -0.332 N 
HETATM   40  C16 UNL     1       8.285  24.223   7.962  1.00  0.00     0.252 C 
HETATM   41  O9  UNL     1       9.372  24.679   7.519  1.00  0.00    -0.270 OA
BRANCH  40  42
HETATM   42  C17 UNL     1       8.235  22.846   8.470  1.00  0.00     0.240 C 
BRANCH  42  43
HETATM   43  O10 UNL     1       7.211  22.784   9.469  1.00  0.00    -0.383 OA
ATOM     44  H10 UNL     1       6.839  21.910   9.450  1.00  0.00     0.210 HD
ENDBRANCH  42  43
BRANCH  42  45
HETATM   45  C18 UNL     1       7.842  21.809   7.426  1.00  0.00     0.179 C 
BRANCH  45  46
HETATM   46  O11 UNL     1       6.675  21.145   7.850  1.00  0.00    -0.390 OA
ATOM     47  H11 UNL     1       5.926  21.715   7.719  1.00  0.00     0.210 HD
ENDBRANCH  45  46
BRANCH  45  48
HETATM   48  C19 UNL     1       8.960  20.813   7.245  1.00  0.00     0.199 C 
BRANCH  48  49
HETATM   49  O12 UNL     1      10.175  21.554   7.307  1.00  0.00    -0.398 OA
ATOM     50  H12 UNL     1      10.878  20.916   7.362  1.00  0.00     0.209 HD
ENDBRANCH  48  49
ENDBRANCH  45  48
ENDBRANCH  42  45
ENDBRANCH  40  42
ENDBRANCH  35  37
ENDBRANCH  34  35
ENDBRANCH   9  34
TORSDOF 16
ENDMDL
MODEL 3
REMARK VINA RESULT: -9.161169327      1.218      1.436
REMARK  16 active torsions:
REMARK  status: ('A' for Active; 'I' for Inactive)
REMARK    1  A    between atoms: C1_2  and  C2_4 
REMARK       I    between atoms: C2_4  and  N2_6 
REMARK    2  A    between atoms: C3_7  and  O3_8 
REMARK    3  A    between atoms: C4_10  and  O4_11 
REMARK    4  A    between atoms: O4_11  and  C5_12 
REMARK    5  A    between atoms: C9_16  and  O5_17 
REMARK    6  A    between atoms: C12_22  and  O7_23 
REMARK    7  A    between atoms: O7_23  and  C13_24 
REMARK    8  A    between atoms: C13_24  and  C14_26 
REMARK       I    between atoms: N3_28  and  C16_29 
REMARK    9  A    between atoms: C16_29  and  C17_31 
REMARK   10  A    between atoms: C17_31  and  O10_32 
REMARK   11  A    between atoms: C17_31  and  C18_34 
REMARK   12  A    between atoms: C18_34  and  O11_35 
REMARK   13  A    between atoms: C18_34  and  C19_37 
REMARK   14  A    between atoms: C19_37  and  O12_38 
REMARK   15  A    between atoms: C22_44  and  O15_45 
REMARK   16  A    between atoms: C23_47  and  C24_48 
ROOT
HETATM    1  C5  UNL     1       3.523  19.384  11.985  1.00  0.00     0.185 C 
HETATM    2  C6  UNL     1       2.593  20.052  12.954  1.00  0.00     0.153 C 
HETATM    3  C7  UNL     1       3.219  20.171  14.301  1.00  0.00     0.037 C 
HETATM    4  C8  UNL     1       4.571  19.554  14.431  1.00  0.00     0.037 C 
HETATM    5  C9  UNL     1       5.514  19.842  13.310  1.00  0.00     0.149 C 
HETATM    6  C10 UNL     1       4.832  20.149  11.996  1.00  0.00     0.182 C 
HETATM    7  O6  UNL     1       4.630  21.511  11.922  1.00  0.00    -0.370 OA
HETATM    8  C11 UNL     1       3.775  21.870  10.882  1.00  0.00     0.180 C 
HETATM    9  C12 UNL     1       3.448  23.326  10.881  1.00  0.00     0.165 C 
HETATM   10  C20 UNL     1       1.993  22.984  10.875  1.00  0.00     0.070 C 
HETATM   11  C21 UNL     1       2.356  21.555  11.212  1.00  0.00     0.156 C 
HETATM   12  O13 UNL     1       2.143  21.285  12.553  1.00  0.00    -0.375 OA
ENDROOT
BRANCH   1  13
HETATM   13  O4  UNL     1       3.716  18.063  12.384  1.00  0.00    -0.346 OA
BRANCH  13  14
HETATM   14  C4  UNL     1       2.549  17.326  12.338  1.00  0.00     0.312 C 
HETATM   15  C3  UNL     1       2.229  16.728  13.707  1.00  0.00     0.279 C 
HETATM   16  N2  UNL     1       2.855  15.450  13.914  1.00  0.00    -0.293 N 
HETATM   17  C2  UNL     1       2.901  14.857  15.214  1.00  0.00     0.311 C 
HETATM   18  C23 UNL     1       3.463  14.687  12.807  1.00  0.00     0.246 C 
HETATM   19  O2  UNL     1       3.483  13.730  15.333  1.00  0.00    -0.263 OA
HETATM   20  C22 UNL     1       3.731  15.566  11.617  1.00  0.00     0.293 C 
HETATM   21  O14 UNL     1       2.552  16.304  11.412  1.00  0.00    -0.325 OA
BRANCH  15  22
HETATM   22  O3  UNL     1       0.820  16.608  13.773  1.00  0.00    -0.371 OA
ATOM     23  H3  UNL     1       0.409  17.113  13.080  1.00  0.00     0.212 HD
ENDBRANCH  15  22
BRANCH  17  24
HETATM   24  C1  UNL     1       2.344  15.430  16.397  1.00  0.00     0.322 C 
HETATM   25  N1  UNL     1       3.235  16.090  17.327  1.00  0.00    -0.053 NA
HETATM   26  O1  UNL     1       1.157  15.417  16.710  1.00  0.00    -0.266 OA
ENDBRANCH  17  24
BRANCH  18  27
HETATM   27  C24 UNL     1       2.583  13.593  12.377  1.00  0.00     0.202 C 
HETATM   28  O16 UNL     1       3.068  12.578  11.834  1.00  0.00    -0.646 OA
HETATM   29  O17 UNL     1       1.226  13.685  12.573  1.00  0.00    -0.646 OA
ENDBRANCH  18  27
BRANCH  20  30
HETATM   30  O15 UNL     1       3.986  14.817  10.469  1.00  0.00    -0.368 OA
ATOM     31  H15 UNL     1       4.595  14.123  10.693  1.00  0.00     0.212 HD
ENDBRANCH  20  30
ENDBRANCH  13  14
ENDBRANCH   1  13
BRANCH   5  32
HETATM   32  O5  UNL     1       6.394  20.895  13.642  1.00  0.00    -0.393 OA
ATOM     33  H5  UNL     1       6.126  21.326  14.445  1.00  0.00     0.210 HD
ENDBRANCH   5  32
BRANCH   9  34
HETATM   34  O7  UNL     1       3.910  24.056   9.762  1.00  0.00    -0.311 OA
BRANCH  34  35
HETATM   35  C13 UNL     1       5.234  24.414   9.558  1.00  0.00     0.284 C 
HETATM   36  O8  UNL     1       5.910  24.668  10.586  1.00  0.00    -0.263 OA
BRANCH  35  37
HETATM   37  C14 UNL     1       5.857  24.507   8.223  1.00  0.00     0.205 A 
HETATM   38  C15 UNL     1       6.521  25.726   7.756  1.00  0.00     0.162 A 
HETATM   39  N3  UNL     1       7.277  24.500   8.084  1.00  0.00    -0.332 N 
HETATM   40  C16 UNL     1       8.579  23.900   8.150  1.00  0.00     0.252 C 
HETATM   41  O9  UNL     1       9.598  24.568   7.830  1.00  0.00    -0.270 OA
BRANCH  40  42
HETATM   42  C17 UNL     1       8.739  22.508   8.588  1.00  0.00     0.240 C 
BRANCH  42  43
HETATM   43  O10 UNL     1       7.638  22.190   9.447  1.00  0.00    -0.383 OA
ATOM     44  H10 UNL     1       7.894  21.452   9.988  1.00  0.00     0.210 HD
ENDBRANCH  42  43
BRANCH  42  45
HETATM   45  C18 UNL     1       8.677  21.487   7.459  1.00  0.00     0.179 C 
BRANCH  45  46
HETATM   46  O11 UNL     1       7.419  20.854   7.476  1.00  0.00    -0.390 OA
ATOM     47  H11 UNL     1       7.446  20.122   8.082  1.00  0.00     0.210 HD
ENDBRANCH  45  46
BRANCH  45  48
HETATM   48  C19 UNL     1       9.768  20.460   7.634  1.00  0.00     0.199 C 
BRANCH  48  49
HETATM   49  O12 UNL     1      10.079  20.434   9.024  1.00  0.00    -0.398 OA
ATOM     50  H12 UNL     1      10.853  20.973   9.138  1.00  0.00     0.209 HD
ENDBRANCH  48  49
ENDBRANCH  45  48
ENDBRANCH  42  45
ENDBRANCH  40  42
ENDBRANCH  35  37
ENDBRANCH  34  35
ENDBRANCH   9  34
TORSDOF 16
ENDMDL
MODEL 4
REMARK VINA RESULT: -9.083288861      1.720      2.559
REMARK  16 active torsions:
REMARK  status: ('A' for Active; 'I' for Inactive)
REMARK    1  A    between atoms: C1_2  and  C2_4 
REMARK       I    between atoms: C2_4  and  N2_6 
REMARK    2  A    between atoms: C3_7  and  O3_8 
REMARK    3  A    between atoms: C4_10  and  O4_11 
REMARK    4  A    between atoms: O4_11  and  C5_12 
REMARK    5  A    between atoms: C9_16  and  O5_17 
REMARK    6  A    between atoms: C12_22  and  O7_23 
REMARK    7  A    between atoms: O7_23  and  C13_24 
REMARK    8  A    between atoms: C13_24  and  C14_26 
REMARK       I    between atoms: N3_28  and  C16_29 
REMARK    9  A    between atoms: C16_29  and  C17_31 
REMARK   10  A    between atoms: C17_31  and  O10_32 
REMARK   11  A    between atoms: C17_31  and  C18_34 
REMARK   12  A    between atoms: C18_34  and  O11_35 
REMARK   13  A    between atoms: C18_34  and  C19_37 
REMARK   14  A    between atoms: C19_37  and  O12_38 
REMARK   15  A    between atoms: C22_44  and  O15_45 
REMARK   16  A    between atoms: C23_47  and  C24_48 
ROOT
HETATM    1  C5  UNL     1       2.341  20.823  12.036  1.00  0.00     0.185 C 
HETATM    2  C6  UNL     1       0.965  21.370  11.800  1.00  0.00     0.153 C 
HETATM    3  C7  UNL     1       0.261  21.624  13.088  1.00  0.00     0.037 C 
HETATM    4  C8  UNL     1       1.011  21.224  14.313  1.00  0.00     0.037 C 
HETATM    5  C9  UNL     1       2.451  21.618  14.335  1.00  0.00     0.149 C 
HETATM    6  C10 UNL     1       3.067  21.777  12.964  1.00  0.00     0.182 C 
HETATM    7  O6  UNL     1       2.911  23.091  12.571  1.00  0.00    -0.370 OA
HETATM    8  C11 UNL     1       3.201  23.284  11.223  1.00  0.00     0.180 C 
HETATM    9  C12 UNL     1       2.906  24.672  10.763  1.00  0.00     0.165 C 
HETATM   10  C20 UNL     1       2.059  24.114   9.665  1.00  0.00     0.070 C 
HETATM   11  C21 UNL     1       2.107  22.767  10.352  1.00  0.00     0.156 C 
HETATM   12  O13 UNL     1       0.929  22.508  11.034  1.00  0.00    -0.375 OA
ENDROOT
BRANCH   1  13
HETATM   13  O4  UNL     1       2.229  19.559  12.613  1.00  0.00    -0.346 OA
BRANCH  13  14
HETATM   14  C4  UNL     1       3.203  18.691  12.164  1.00  0.00     0.312 C 
HETATM   15  C3  UNL     1       2.581  17.398  11.637  1.00  0.00     0.279 C 
HETATM   16  N2  UNL     1       2.387  16.415  12.669  1.00  0.00    -0.293 N 
HETATM   17  C2  UNL     1       1.581  15.258  12.439  1.00  0.00     0.311 C 
HETATM   18  C23 UNL     1       3.014  16.542  13.999  1.00  0.00     0.246 C 
HETATM   19  O2  UNL     1       1.439  14.432  13.399  1.00  0.00    -0.263 OA
HETATM   20  C22 UNL     1       3.464  17.952  14.262  1.00  0.00     0.293 C 
HETATM   21  O14 UNL     1       4.154  18.357  13.105  1.00  0.00    -0.325 OA
BRANCH  15  22
HETATM   22  O3  UNL     1       3.457  16.907  10.641  1.00  0.00    -0.371 OA
ATOM     23  H3  UNL     1       2.990  16.771   9.824  1.00  0.00     0.212 HD
ENDBRANCH  15  22
BRANCH  17  24
HETATM   24  C1  UNL     1       0.919  14.950  11.212  1.00  0.00     0.322 C 
HETATM   25  N1  UNL     1       1.684  14.317  10.159  1.00  0.00    -0.053 NA
HETATM   26  O1  UNL     1      -0.260  15.174  10.957  1.00  0.00    -0.266 OA
ENDBRANCH  17  24
BRANCH  18  27
HETATM   27  C24 UNL     1       4.185  15.662  14.114  1.00  0.00     0.202 C 
HETATM   28  O16 UNL     1       4.501  15.186  15.225  1.00  0.00    -0.646 OA
HETATM   29  O17 UNL     1       4.931  15.361  13.000  1.00  0.00    -0.646 OA
ENDBRANCH  18  27
BRANCH  20  30
HETATM   30  O15 UNL     1       4.341  18.022  15.343  1.00  0.00    -0.368 OA
ATOM     31  H15 UNL     1       4.858  18.815  15.259  1.00  0.00     0.212 HD
ENDBRANCH  20  30
ENDBRANCH  13  14
ENDBRANCH   1  13
BRANCH   5  32
HETATM   32  O5  UNL     1       2.644  22.802  15.080  1.00  0.00    -0.393 OA
ATOM     33  H5  UNL     1       1.832  23.286  15.171  1.00  0.00     0.210 HD
ENDBRANCH   5  32
BRANCH   9  34
HETATM   34  O7  UNL     1       4.025  25.430  10.347  1.00  0.00    -0.311 OA
BRANCH  34  35
HETATM   35  C13 UNL     1       5.208  24.879   9.878  1.00  0.00     0.284 C 
HETATM   36  O8  UNL     1       5.946  24.328  10.732  1.00  0.00    -0.263 OA
BRANCH  35  37
HETATM   37  C14 UNL     1       5.619  24.916   8.460  1.00  0.00     0.205 A 
HETATM   38  C15 UNL     1       6.308  26.069   7.879  1.00  0.00     0.162 A 
HETATM   39  N3  UNL     1       6.993  24.779   8.100  1.00  0.00    -0.332 N 
HETATM   40  C16 UNL     1       8.230  24.064   7.969  1.00  0.00     0.252 C 
HETATM   41  O9  UNL     1       9.242  24.636   7.485  1.00  0.00    -0.270 OA
BRANCH  40  42
HETATM   42  C17 UNL     1       8.330  22.662   8.397  1.00  0.00     0.240 C 
BRANCH  42  43
HETATM   43  O10 UNL     1       7.441  22.476   9.503  1.00  0.00    -0.383 OA
ATOM     44  H10 UNL     1       7.915  22.010  10.182  1.00  0.00     0.210 HD
ENDBRANCH  42  43
BRANCH  42  45
HETATM   45  C18 UNL     1       7.881  21.656   7.345  1.00  0.00     0.179 C 
BRANCH  45  46
HETATM   46  O11 UNL     1       6.603  21.171   7.685  1.00  0.00    -0.390 OA
ATOM     47  H11 UNL     1       6.401  20.418   7.143  1.00  0.00     0.210 HD
ENDBRANCH  45  46
BRANCH  45  48
HETATM   48  C19 UNL     1       8.860  20.510   7.278  1.00  0.00     0.199 C 
BRANCH  48  49
HETATM   49  O12 UNL     1       9.501  20.452   8.549  1.00  0.00    -0.398 OA
ATOM     50  H12 UNL     1      10.432  20.373   8.379  1.00  0.00     0.209 HD
ENDBRANCH  48  49
ENDBRANCH  45  48
ENDBRANCH  42  45
ENDBRANCH  40  42
ENDBRANCH  35  37
ENDBRANCH  34  35
ENDBRANCH   9  34
TORSDOF 16
ENDMDL
MODEL 5
REMARK VINA RESULT: -9.030126833      1.892      2.853
REMARK  16 active torsions:
REMARK  status: ('A' for Active; 'I' for Inactive)
REMARK    1  A    between atoms: C1_2  and  C2_4 
REMARK       I    between atoms: C2_4  and  N2_6 
REMARK    2  A    between atoms: C3_7  and  O3_8 
REMARK    3  A    between atoms: C4_10  and  O4_11 
REMARK    4  A    between atoms: O4_11  and  C5_12 
REMARK    5  A    between atoms: C9_16  and  O5_17 
REMARK    6  A    between atoms: C12_22  and  O7_23 
REMARK    7  A    between atoms: O7_23  and  C13_24 
REMARK    8  A    between atoms: C13_24  and  C14_26 
REMARK       I    between atoms: N3_28  and  C16_29 
REMARK    9  A    between atoms: C16_29  and  C17_31 
REMARK   10  A    between atoms: C17_31  and  O10_32 
REMARK   11  A    between atoms: C17_31  and  C18_34 
REMARK   12  A    between atoms: C18_34  and  O11_35 
REMARK   13  A    between atoms: C18_34  and  C19_37 
REMARK   14  A    between atoms: C19_37  and  O12_38 
REMARK   15  A    between atoms: C22_44  and  O15_45 
REMARK   16  A    between atoms: C23_47  and  C24_48 
ROOT
HETATM    1  C5  UNL     1       2.593  20.538  12.359  1.00  0.00     0.185 C 
HETATM    2  C6  UNL     1       1.175  20.917  12.050  1.00  0.00     0.153 C 
HETATM    3  C7  UNL     1       0.391  21.121  13.300  1.00  0.00     0.037 C 
HETATM    4  C8  UNL     1       1.128  20.843  14.567  1.00  0.00     0.037 C 
HETATM    5  C9  UNL     1       2.511  21.400  14.635  1.00  0.00     0.149 C 
HETATM    6  C10 UNL     1       3.165  21.594  13.285  1.00  0.00     0.182 C 
HETATM    7  O6  UNL     1       2.877  22.870  12.845  1.00  0.00    -0.370 OA
HETATM    8  C11 UNL     1       3.202  23.059  11.504  1.00  0.00     0.180 C 
HETATM    9  C12 UNL     1       2.771  24.392  10.990  1.00  0.00     0.165 C 
HETATM   10  C20 UNL     1       2.042  23.711   9.877  1.00  0.00     0.070 C 
HETATM   11  C21 UNL     1       2.213  22.397  10.607  1.00  0.00     0.156 C 
HETATM   12  O13 UNL     1       1.044  22.022  11.248  1.00  0.00    -0.375 OA
ENDROOT
BRANCH   1  13
HETATM   13  O4  UNL     1       2.601  19.285  12.969  1.00  0.00    -0.346 OA
BRANCH  13  14
HETATM   14  C4  UNL     1       3.540  18.438  12.416  1.00  0.00     0.312 C 
HETATM   15  C3  UNL     1       3.006  17.009  12.340  1.00  0.00     0.279 C 
HETATM   16  N2  UNL     1       3.255  16.259  13.542  1.00  0.00    -0.293 N 
HETATM   17  C2  UNL     1       2.606  15.007  13.774  1.00  0.00     0.311 C 
HETATM   18  C23 UNL     1       4.190  16.732  14.580  1.00  0.00     0.246 C 
HETATM   19  O2  UNL     1       2.859  14.399  14.865  1.00  0.00    -0.263 OA
HETATM   20  C22 UNL     1       4.470  18.202  14.439  1.00  0.00     0.293 C 
HETATM   21  O14 UNL     1       4.749  18.411  13.077  1.00  0.00    -0.325 OA
BRANCH  15  22
HETATM   22  O3  UNL     1       3.645  16.399  11.234  1.00  0.00    -0.371 OA
ATOM     23  H3  UNL     1       3.004  16.125  10.588  1.00  0.00     0.212 HD
ENDBRANCH  15  22
BRANCH  17  24
HETATM   24  C1  UNL     1       1.693  14.377  12.875  1.00  0.00     0.322 C 
HETATM   25  N1  UNL     1       2.228  13.513  11.845  1.00  0.00    -0.053 NA
HETATM   26  O1  UNL     1       0.471  14.499  12.890  1.00  0.00    -0.266 OA
ENDBRANCH  17  24
BRANCH  18  27
HETATM   27  C24 UNL     1       5.470  16.015  14.500  1.00  0.00     0.202 C 
HETATM   28  O16 UNL     1       5.884  15.597  13.397  1.00  0.00    -0.646 OA
HETATM   29  O17 UNL     1       6.214  15.806  15.636  1.00  0.00    -0.646 OA
ENDBRANCH  18  27
BRANCH  20  30
HETATM   30  O15 UNL     1       5.585  18.590  15.181  1.00  0.00    -0.368 OA
ATOM     31  H15 UNL     1       6.365  18.354  14.694  1.00  0.00     0.212 HD
ENDBRANCH  20  30
ENDBRANCH  13  14
ENDBRANCH   1  13
BRANCH   5  32
HETATM   32  O5  UNL     1       2.535  22.618  15.349  1.00  0.00    -0.393 OA
ATOM     33  H5  UNL     1       2.829  23.334  14.798  1.00  0.00     0.210 HD
ENDBRANCH   5  32
BRANCH   9  34
HETATM   34  O7  UNL     1       3.813  25.262  10.596  1.00  0.00    -0.311 OA
BRANCH  34  35
HETATM   35  C13 UNL     1       4.953  24.856   9.919  1.00  0.00     0.284 C 
HETATM   36  O8  UNL     1       5.926  24.494  10.628  1.00  0.00    -0.263 OA
BRANCH  35  37
HETATM   37  C14 UNL     1       5.065  24.835   8.447  1.00  0.00     0.205 A 
HETATM   38  C15 UNL     1       4.951  26.051   7.640  1.00  0.00     0.162 A 
HETATM   39  N3  UNL     1       6.234  25.336   7.801  1.00  0.00    -0.332 N 
HETATM   40  C16 UNL     1       7.626  25.319   7.453  1.00  0.00     0.252 C 
HETATM   41  O9  UNL     1       8.102  26.220   6.713  1.00  0.00    -0.270 OA
BRANCH  40  42
HETATM   42  C17 UNL     1       8.508  24.257   7.953  1.00  0.00     0.240 C 
BRANCH  42  43
HETATM   43  O10 UNL     1       8.858  24.577   9.304  1.00  0.00    -0.383 OA
ATOM     44  H10 UNL     1       9.368  23.855   9.651  1.00  0.00     0.210 HD
ENDBRANCH  42  43
BRANCH  42  45
HETATM   45  C18 UNL     1       7.853  22.883   8.021  1.00  0.00     0.179 C 
BRANCH  45  46
HETATM   46  O11 UNL     1       7.593  22.561   9.367  1.00  0.00    -0.390 OA
ATOM     47  H11 UNL     1       7.786  21.642   9.512  1.00  0.00     0.210 HD
ENDBRANCH  45  46
BRANCH  45  48
HETATM   48  C19 UNL     1       8.768  21.847   7.416  1.00  0.00     0.199 C 
BRANCH  48  49
HETATM   49  O12 UNL     1      10.094  22.346   7.561  1.00  0.00    -0.398 OA
ATOM     50  H12 UNL     1      10.673  21.594   7.500  1.00  0.00     0.209 HD
ENDBRANCH  48  49
ENDBRANCH  45  48
ENDBRANCH  42  45
ENDBRANCH  40  42
ENDBRANCH  35  37
ENDBRANCH  34  35
ENDBRANCH   9  34
TORSDOF 16
ENDMDL
