MODEL 1
REMARK VINA RESULT: -7.097637746      0.000      0.000
REMARK  8 active torsions:
REMARK  status: ('A' for Active; 'I' for Inactive)
REMARK    1  A    between atoms: C2_2  and  C3_3 
REMARK    2  A    between atoms: C3_3  and  C4_4 
REMARK    3  A    between atoms: C4_4  and  C5_5 
REMARK    4  A    between atoms: C5_5  and  C6_6 
REMARK    5  A    between atoms: C6_6  and  C7_7 
REMARK    6  A    between atoms: C11_15  and  N3_16 
REMARK    7  A    between atoms: N5_22  and  C13_23 
REMARK    8  A    between atoms: C13_23  and  C14_24 
ROOT
HETATM    1  C7  UNL     1     -51.819  23.680 -32.785  1.00  0.00     0.085 A 
HETATM    2  N1  UNL     1     -50.762  22.990 -33.287  1.00  0.00    -0.341 N 
ATOM      3  H1  UNL     1     -50.672  22.694 -34.259  1.00  0.00     0.167 HD
HETATM    4  C8  UNL     1     -49.856  22.755 -32.332  1.00  0.00     0.102 A 
HETATM    5  C9  UNL     1     -48.639  22.108 -32.331  1.00  0.00     0.053 A 
HETATM    6  C10 UNL     1     -48.053  21.489 -33.531  1.00  0.00     0.071 C 
HETATM    7  N2  UNL     1     -47.955  22.043 -31.170  1.00  0.00    -0.194 N 
ATOM      8  H2  UNL     1     -47.052  21.571 -31.145  1.00  0.00     0.184 HD
HETATM    9  C11 UNL     1     -48.448  22.593 -30.046  1.00  0.00     0.677 A 
HETATM   10  N4  UNL     1     -49.638  23.217 -30.076  1.00  0.00    -0.174 N 
ATOM     11  H4  UNL     1     -49.995  23.628 -29.213  1.00  0.00     0.186 HD
HETATM   12  C12 UNL     1     -50.377  23.324 -31.192  1.00  0.00     0.153 A 
HETATM   13  N5  UNL     1     -51.592  23.893 -31.492  1.00  0.00    -0.318 N 
ENDROOT
BRANCH   1  14
HETATM   14  C6  UNL     1     -52.991  24.044 -33.623  1.00  0.00     0.076 C 
BRANCH  14  15
HETATM   15  C5  UNL     1     -53.953  22.851 -33.664  1.00  0.00     0.007 C 
BRANCH  15  16
HETATM   16  C4  UNL     1     -54.485  22.577 -35.039  1.00  0.00     0.000 C 
BRANCH  16  17
HETATM   17  C3  UNL     1     -53.431  22.808 -36.066  1.00  0.00    -0.000 C 
BRANCH  17  18
HETATM   18  C2  UNL     1     -53.517  21.821 -37.216  1.00  0.00    -0.005 C 
HETATM   19  C1  UNL     1     -54.413  20.651 -36.862  1.00  0.00     0.005 C 
ENDBRANCH  17  18
ENDBRANCH  16  17
ENDBRANCH  15  16
ENDBRANCH  14  15
ENDBRANCH   1  14
BRANCH  13  20
HETATM   20  C13 UNL     1     -52.377  24.609 -30.523  1.00  0.00     0.164 C 
BRANCH  20  21
HETATM   21  C14 UNL     1     -53.689  24.012 -30.201  1.00  0.00     0.140 C 
HETATM   22  C15 UNL     1     -54.090  24.022 -28.751  1.00  0.00     0.035 C 
HETATM   23  C16 UNL     1     -55.614  23.901 -28.850  1.00  0.00     0.029 C 
HETATM   24  C17 UNL     1     -55.880  24.164 -30.288  1.00  0.00     0.168 C 
HETATM   25  O1  UNL     1     -54.743  24.732 -30.813  1.00  0.00    -0.384 OA
ENDBRANCH  20  21
ENDBRANCH  13  20
BRANCH   9  26
HETATM   26  N3  UNL     1     -47.741  22.494 -28.970  1.00  0.00    -0.234 N 
ATOM     27  H32 UNL     1     -46.722  22.537 -28.976  1.00  0.00     0.174 HD
ATOM     28  H31 UNL     1     -48.237  22.367 -28.088  1.00  0.00     0.174 HD
ENDBRANCH   9  26
TORSDOF 8
ENDMDL
MODEL 2
REMARK VINA RESULT: -6.969810326      1.187      1.545
REMARK  8 active torsions:
REMARK  status: ('A' for Active; 'I' for Inactive)
REMARK    1  A    between atoms: C2_2  and  C3_3 
REMARK    2  A    between atoms: C3_3  and  C4_4 
REMARK    3  A    between atoms: C4_4  and  C5_5 
REMARK    4  A    between atoms: C5_5  and  C6_6 
REMARK    5  A    between atoms: C6_6  and  C7_7 
REMARK    6  A    between atoms: C11_15  and  N3_16 
REMARK    7  A    between atoms: N5_22  and  C13_23 
REMARK    8  A    between atoms: C13_23  and  C14_24 
ROOT
HETATM    1  C7  UNL     1     -51.819  23.773 -32.975  1.00  0.00     0.085 A 
HETATM    2  N1  UNL     1     -50.755  23.065 -33.435  1.00  0.00    -0.341 N 
ATOM      3  H1  UNL     1     -50.627  22.773 -34.404  1.00  0.00     0.167 HD
HETATM    4  C8  UNL     1     -49.898  22.803 -32.442  1.00  0.00     0.102 A 
HETATM    5  C9  UNL     1     -48.696  22.130 -32.392  1.00  0.00     0.053 A 
HETATM    6  C10 UNL     1     -48.070  21.508 -33.570  1.00  0.00     0.071 C 
HETATM    7  N2  UNL     1     -48.067  22.043 -31.202  1.00  0.00    -0.194 N 
ATOM      8  H2  UNL     1     -47.176  21.551 -31.140  1.00  0.00     0.184 HD
HETATM    9  C11 UNL     1     -48.598  22.595 -30.097  1.00  0.00     0.677 A 
HETATM   10  N4  UNL     1     -49.772  23.245 -30.175  1.00  0.00    -0.174 N 
ATOM     11  H4  UNL     1     -50.159  23.656 -29.325  1.00  0.00     0.186 HD
HETATM   12  C12 UNL     1     -50.458  23.376 -31.323  1.00  0.00     0.153 A 
HETATM   13  N5  UNL     1     -51.646  23.972 -31.672  1.00  0.00    -0.318 N 
ENDROOT
BRANCH   1  14
HETATM   14  C6  UNL     1     -52.944  24.168 -33.862  1.00  0.00     0.076 C 
BRANCH  14  15
HETATM   15  C5  UNL     1     -53.595  22.899 -34.422  1.00  0.00     0.007 C 
BRANCH  15  16
HETATM   16  C4  UNL     1     -54.514  22.232 -33.442  1.00  0.00     0.000 C 
BRANCH  16  17
HETATM   17  C3  UNL     1     -55.401  21.256 -34.134  1.00  0.00    -0.000 C 
BRANCH  17  18
HETATM   18  C2  UNL     1     -56.042  20.273 -33.170  1.00  0.00    -0.005 C 
HETATM   19  C1  UNL     1     -55.742  18.844 -33.573  1.00  0.00     0.005 C 
ENDBRANCH  17  18
ENDBRANCH  16  17
ENDBRANCH  15  16
ENDBRANCH  14  15
ENDBRANCH   1  14
BRANCH  13  20
HETATM   20  C13 UNL     1     -52.458  24.698 -30.733  1.00  0.00     0.164 C 
BRANCH  20  21
HETATM   21  C14 UNL     1     -53.720  24.038 -30.341  1.00  0.00     0.140 C 
HETATM   22  C15 UNL     1     -54.060  24.063 -28.876  1.00  0.00     0.035 C 
HETATM   23  C16 UNL     1     -55.577  23.854 -28.905  1.00  0.00     0.029 C 
HETATM   24  C17 UNL     1     -55.918  24.065 -30.336  1.00  0.00     0.168 C 
HETATM   25  O1  UNL     1     -54.838  24.682 -30.923  1.00  0.00    -0.384 OA
ENDBRANCH  20  21
ENDBRANCH  13  20
BRANCH   9  26
HETATM   26  N3  UNL     1     -47.943  22.473 -28.991  1.00  0.00    -0.234 N 
ATOM     27  H32 UNL     1     -47.244  21.744 -28.844  1.00  0.00     0.174 HD
ATOM     28  H31 UNL     1     -48.144  23.139 -28.245  1.00  0.00     0.174 HD
ENDBRANCH   9  26
TORSDOF 8
ENDMDL
MODEL 3
REMARK VINA RESULT: -6.841958371      2.353      5.097
REMARK  8 active torsions:
REMARK  status: ('A' for Active; 'I' for Inactive)
REMARK    1  A    between atoms: C2_2  and  C3_3 
REMARK    2  A    between atoms: C3_3  and  C4_4 
REMARK    3  A    between atoms: C4_4  and  C5_5 
REMARK    4  A    between atoms: C5_5  and  C6_6 
REMARK    5  A    between atoms: C6_6  and  C7_7 
REMARK    6  A    between atoms: C11_15  and  N3_16 
REMARK    7  A    between atoms: N5_22  and  C13_23 
REMARK    8  A    between atoms: C13_23  and  C14_24 
ROOT
HETATM    1  C7  UNL     1     -53.082  24.386 -32.680  1.00  0.00     0.085 A 
HETATM    2  N1  UNL     1     -54.410  24.303 -32.407  1.00  0.00    -0.341 N 
ATOM      3  H1  UNL     1     -55.148  24.290 -33.111  1.00  0.00     0.167 HD
HETATM    4  C8  UNL     1     -54.617  24.242 -31.087  1.00  0.00     0.102 A 
HETATM    5  C9  UNL     1     -55.757  24.151 -30.318  1.00  0.00     0.053 A 
HETATM    6  C10 UNL     1     -57.113  24.100 -30.888  1.00  0.00     0.071 C 
HETATM    7  N2  UNL     1     -55.617  24.107 -28.977  1.00  0.00    -0.194 N 
ATOM      8  H2  UNL     1     -56.446  24.039 -28.387  1.00  0.00     0.184 HD
HETATM    9  C11 UNL     1     -54.400  24.151 -28.408  1.00  0.00     0.677 A 
HETATM   10  N4  UNL     1     -53.304  24.240 -29.182  1.00  0.00    -0.174 N 
ATOM     11  H4  UNL     1     -52.390  24.273 -28.730  1.00  0.00     0.186 HD
HETATM   12  C12 UNL     1     -53.362  24.288 -30.523  1.00  0.00     0.153 A 
HETATM   13  N5  UNL     1     -52.425  24.376 -31.524  1.00  0.00    -0.318 N 
ENDROOT
BRANCH   1  14
HETATM   14  C6  UNL     1     -52.571  24.504 -34.071  1.00  0.00     0.076 C 
BRANCH  14  15
HETATM   15  C5  UNL     1     -52.897  23.209 -34.823  1.00  0.00     0.007 C 
BRANCH  15  16
HETATM   16  C4  UNL     1     -53.518  23.454 -36.166  1.00  0.00     0.000 C 
BRANCH  16  17
HETATM   17  C3  UNL     1     -53.496  22.213 -36.989  1.00  0.00    -0.000 C 
BRANCH  17  18
HETATM   18  C2  UNL     1     -54.491  21.175 -36.499  1.00  0.00    -0.005 C 
HETATM   19  C1  UNL     1     -54.259  19.839 -37.176  1.00  0.00     0.005 C 
ENDBRANCH  17  18
ENDBRANCH  16  17
ENDBRANCH  15  16
ENDBRANCH  14  15
ENDBRANCH   1  14
BRANCH  13  20
HETATM   20  C13 UNL     1     -51.010  24.399 -31.267  1.00  0.00     0.164 C 
BRANCH  20  21
HETATM   21  C14 UNL     1     -50.352  23.078 -31.217  1.00  0.00     0.140 C 
HETATM   22  C15 UNL     1     -49.713  22.602 -32.493  1.00  0.00     0.035 C 
HETATM   23  C16 UNL     1     -48.694  21.585 -31.969  1.00  0.00     0.029 C 
HETATM   24  C17 UNL     1     -48.666  21.859 -30.509  1.00  0.00     0.168 C 
HETATM   25  O1  UNL     1     -49.261  23.082 -30.315  1.00  0.00    -0.384 OA
ENDBRANCH  20  21
ENDBRANCH  13  20
BRANCH   9  26
HETATM   26  N3  UNL     1     -54.338  24.106 -27.118  1.00  0.00    -0.234 N 
ATOM     27  H32 UNL     1     -53.760  23.429 -26.620  1.00  0.00     0.174 HD
ATOM     28  H31 UNL     1     -54.896  24.779 -26.593  1.00  0.00     0.174 HD
ENDBRANCH   9  26
TORSDOF 8
ENDMDL
MODEL 4
REMARK VINA RESULT: -6.825930017      2.350      6.314
REMARK  8 active torsions:
REMARK  status: ('A' for Active; 'I' for Inactive)
REMARK    1  A    between atoms: C2_2  and  C3_3 
REMARK    2  A    between atoms: C3_3  and  C4_4 
REMARK    3  A    between atoms: C4_4  and  C5_5 
REMARK    4  A    between atoms: C5_5  and  C6_6 
REMARK    5  A    between atoms: C6_6  and  C7_7 
REMARK    6  A    between atoms: C11_15  and  N3_16 
REMARK    7  A    between atoms: N5_22  and  C13_23 
REMARK    8  A    between atoms: C13_23  and  C14_24 
ROOT
HETATM    1  C7  UNL     1     -51.983  24.371 -31.176  1.00  0.00     0.085 A 
HETATM    2  N1  UNL     1     -52.610  24.080 -30.007  1.00  0.00    -0.341 N 
ATOM      3  H1  UNL     1     -52.144  23.735 -29.169  1.00  0.00     0.167 HD
HETATM    4  C8  UNL     1     -53.924  24.310 -30.107  1.00  0.00     0.102 A 
HETATM    5  C9  UNL     1     -54.971  24.173 -29.222  1.00  0.00     0.053 A 
HETATM    6  C10 UNL     1     -54.803  23.693 -27.841  1.00  0.00     0.071 C 
HETATM    7  N2  UNL     1     -56.209  24.499 -29.648  1.00  0.00    -0.194 N 
ATOM      8  H2  UNL     1     -57.000  24.407 -29.010  1.00  0.00     0.184 HD
HETATM    9  C11 UNL     1     -56.415  24.943 -30.900  1.00  0.00     0.677 A 
HETATM   10  N4  UNL     1     -55.375  25.065 -31.743  1.00  0.00    -0.174 N 
ATOM     11  H4  UNL     1     -55.552  25.403 -32.689  1.00  0.00     0.186 HD
HETATM   12  C12 UNL     1     -54.114  24.762 -31.394  1.00  0.00     0.153 A 
HETATM   13  N5  UNL     1     -52.901  24.795 -32.039  1.00  0.00    -0.318 N 
ENDROOT
BRANCH   1  14
HETATM   14  C6  UNL     1     -50.521  24.173 -31.355  1.00  0.00     0.076 C 
BRANCH  14  15
HETATM   15  C5  UNL     1     -49.924  23.706 -30.023  1.00  0.00     0.007 C 
BRANCH  15  16
HETATM   16  C4  UNL     1     -49.506  22.266 -30.042  1.00  0.00     0.000 C 
BRANCH  16  17
HETATM   17  C3  UNL     1     -48.402  22.053 -31.019  1.00  0.00    -0.000 C 
BRANCH  17  18
HETATM   18  C2  UNL     1     -48.891  21.440 -32.320  1.00  0.00    -0.005 C 
HETATM   19  C1  UNL     1     -47.955  21.775 -33.463  1.00  0.00     0.005 C 
ENDBRANCH  17  18
ENDBRANCH  16  17
ENDBRANCH  15  16
ENDBRANCH  14  15
ENDBRANCH   1  14
BRANCH  13  20
HETATM   20  C13 UNL     1     -52.751  25.264 -33.391  1.00  0.00     0.164 C 
BRANCH  20  21
HETATM   21  C14 UNL     1     -52.749  24.216 -34.431  1.00  0.00     0.140 C 
HETATM   22  C15 UNL     1     -53.666  23.046 -34.203  1.00  0.00     0.035 C 
HETATM   23  C16 UNL     1     -53.850  22.512 -35.626  1.00  0.00     0.029 C 
HETATM   24  C17 UNL     1     -53.302  23.608 -36.469  1.00  0.00     0.168 C 
HETATM   25  O1  UNL     1     -53.206  24.723 -35.671  1.00  0.00    -0.384 OA
ENDBRANCH  20  21
ENDBRANCH  13  20
BRANCH   9  26
HETATM   26  N3  UNL     1     -57.625  25.236 -31.242  1.00  0.00    -0.234 N 
ATOM     27  H32 UNL     1     -57.859  26.080 -31.765  1.00  0.00     0.174 HD
ATOM     28  H31 UNL     1     -58.365  24.588 -30.970  1.00  0.00     0.174 HD
ENDBRANCH   9  26
TORSDOF 8
ENDMDL
MODEL 5
REMARK VINA RESULT: -6.806627616      1.005      1.301
REMARK  8 active torsions:
REMARK  status: ('A' for Active; 'I' for Inactive)
REMARK    1  A    between atoms: C2_2  and  C3_3 
REMARK    2  A    between atoms: C3_3  and  C4_4 
REMARK    3  A    between atoms: C4_4  and  C5_5 
REMARK    4  A    between atoms: C5_5  and  C6_6 
REMARK    5  A    between atoms: C6_6  and  C7_7 
REMARK    6  A    between atoms: C11_15  and  N3_16 
REMARK    7  A    between atoms: N5_22  and  C13_23 
REMARK    8  A    between atoms: C13_23  and  C14_24 
ROOT
HETATM    1  C7  UNL     1     -52.426  23.778 -33.592  1.00  0.00     0.085 A 
HETATM    2  N1  UNL     1     -51.244  23.140 -33.796  1.00  0.00    -0.341 N 
ATOM      3  H1  UNL     1     -50.947  22.740 -34.686  1.00  0.00     0.167 HD
HETATM    4  C8  UNL     1     -50.525  23.109 -32.669  1.00  0.00     0.102 A 
HETATM    5  C9  UNL     1     -49.286  22.588 -32.360  1.00  0.00     0.053 A 
HETATM    6  C10 UNL     1     -48.437  21.890 -33.338  1.00  0.00     0.071 C 
HETATM    7  N2  UNL     1     -48.836  22.729 -31.096  1.00  0.00    -0.194 N 
ATOM      8  H2  UNL     1     -47.922  22.353 -30.843  1.00  0.00     0.184 HD
HETATM    9  C11 UNL     1     -49.575  23.359 -30.165  1.00  0.00     0.677 A 
HETATM   10  N4  UNL     1     -50.779  23.856 -30.495  1.00  0.00    -0.174 N 
ATOM     11  H4  UNL     1     -51.324  24.330 -29.774  1.00  0.00     0.186 HD
HETATM   12  C12 UNL     1     -51.296  23.757 -31.731  1.00  0.00     0.153 A 
HETATM   13  N5  UNL     1     -52.468  24.165 -32.320  1.00  0.00    -0.318 N 
ENDROOT
BRANCH   1  14
HETATM   14  C6  UNL     1     -53.438  23.925 -34.671  1.00  0.00     0.076 C 
BRANCH  14  15
HETATM   15  C5  UNL     1     -53.724  22.540 -35.263  1.00  0.00     0.007 C 
BRANCH  15  16
HETATM   16  C4  UNL     1     -53.438  22.463 -36.733  1.00  0.00     0.000 C 
BRANCH  16  17
HETATM   17  C3  UNL     1     -53.774  21.113 -37.264  1.00  0.00    -0.000 C 
BRANCH  17  18
HETATM   18  C2  UNL     1     -54.734  20.359 -36.361  1.00  0.00    -0.005 C 
HETATM   19  C1  UNL     1     -54.623  18.864 -36.579  1.00  0.00     0.005 C 
ENDBRANCH  17  18
ENDBRANCH  16  17
ENDBRANCH  15  16
ENDBRANCH  14  15
ENDBRANCH   1  14
BRANCH  13  20
HETATM   20  C13 UNL     1     -53.475  24.912 -31.616  1.00  0.00     0.164 C 
BRANCH  20  21
HETATM   21  C14 UNL     1     -54.345  24.120 -30.723  1.00  0.00     0.140 C 
HETATM   22  C15 UNL     1     -54.045  24.204 -29.251  1.00  0.00     0.035 C 
HETATM   23  C16 UNL     1     -55.387  23.795 -28.636  1.00  0.00     0.029 C 
HETATM   24  C17 UNL     1     -56.319  23.858 -29.792  1.00  0.00     0.168 C 
HETATM   25  O1  UNL     1     -55.687  24.568 -30.785  1.00  0.00    -0.384 OA
ENDBRANCH  20  21
ENDBRANCH  13  20
BRANCH   9  26
HETATM   26  N3  UNL     1     -49.083  23.458 -28.975  1.00  0.00    -0.234 N 
ATOM     27  H32 UNL     1     -48.787  22.645 -28.434  1.00  0.00     0.174 HD
ATOM     28  H31 UNL     1     -48.995  24.392 -28.575  1.00  0.00     0.174 HD
ENDBRANCH   9  26
TORSDOF 8
ENDMDL
