MODEL 1
REMARK VINA RESULT: -6.419501294      0.000      0.000
REMARK  11 active torsions:
REMARK  status: ('A' for Active; 'I' for Inactive)
REMARK    1  A    between atoms: C2_2  and  C3_3 
REMARK    2  A    between atoms: C3_3  and  C4_4 
REMARK    3  A    between atoms: C4_4  and  C5_5 
REMARK    4  A    between atoms: C4_4  and  O3_20 
REMARK    5  A    between atoms: C6_6  and  C7_7 
REMARK    6  A    between atoms: C8_8  and  O1_9 
REMARK    7  A    between atoms: C10_12  and  O2_13 
REMARK    8  A    between atoms: C11_15  and  C12_16 
REMARK    9  A    between atoms: O3_20  and  C16_21 
REMARK   10  A    between atoms: C16_21  and  O5_23 
REMARK   11  A    between atoms: O5_23  and  C17_24 
ROOT
HETATM    1  C7  UNL     1     -51.581  24.123 -30.201  1.00  0.00     0.047 C 
HETATM    2  C8  UNL     1     -50.235  23.427 -30.057  1.00  0.00     0.129 C 
HETATM    3  C9  UNL     1     -49.721  23.488 -31.497  1.00  0.00     0.065 C 
HETATM    4  C10 UNL     1     -50.945  22.984 -32.227  1.00  0.00     0.129 C 
HETATM    5  C11 UNL     1     -52.087  23.695 -31.552  1.00  0.00     0.047 C 
ENDROOT
BRANCH   1   6
HETATM    6  C6  UNL     1     -52.495  23.840 -29.086  1.00  0.00    -0.020 C 
HETATM    7  C5  UNL     1     -53.771  24.130 -29.165  1.00  0.00     0.002 C 
BRANCH   7   8
HETATM    8  C4  UNL     1     -54.751  23.871 -28.077  1.00  0.00     0.160 C 
BRANCH   8   9
HETATM    9  C3  UNL     1     -56.090  23.621 -28.732  1.00  0.00     0.063 C 
BRANCH   9  10
HETATM   10  C2  UNL     1     -56.163  24.525 -29.936  1.00  0.00    -0.034 C 
HETATM   11  C1  UNL     1     -57.168  25.363 -30.085  1.00  0.00     0.007 C 
ENDBRANCH   9  10
ENDBRANCH   8   9
BRANCH   8  12
HETATM   12  O3  UNL     1     -54.794  24.900 -27.129  1.00  0.00    -0.288 OA
BRANCH  12  13
HETATM   13  C16 UNL     1     -55.871  25.004 -26.259  1.00  0.00     0.407 C 
HETATM   14  O4  UNL     1     -56.794  25.846 -26.525  1.00  0.00    -0.229 OA
BRANCH  13  15
HETATM   15  O5  UNL     1     -56.011  24.252 -25.118  1.00  0.00    -0.298 OA
BRANCH  15  16
HETATM   16  C17 UNL     1     -56.916  23.138 -25.115  1.00  0.00     0.176 C 
HETATM   17  C18 UNL     1     -56.201  21.843 -25.304  1.00  0.00     0.034 C 
ENDBRANCH  15  16
ENDBRANCH  13  15
ENDBRANCH  12  13
ENDBRANCH   8  12
ENDBRANCH   7   8
ENDBRANCH   1   6
BRANCH   2  18
HETATM   18  O1  UNL     1     -49.447  24.099 -29.164  1.00  0.00    -0.395 OA
ATOM     19  H1  UNL     1     -48.620  24.335 -29.567  1.00  0.00     0.210 HD
ENDBRANCH   2  18
BRANCH   5  20
HETATM   20  C12 UNL     1     -52.411  24.888 -32.398  1.00  0.00    -0.017 C 
HETATM   21  C13 UNL     1     -53.551  24.962 -33.069  1.00  0.00    -0.091 C 
HETATM   22  C14 UNL     1     -54.505  23.832 -32.963  1.00  0.00     0.042 C 
HETATM   23  C15 UNL     1     -53.897  26.132 -33.914  1.00  0.00     0.042 C 
ENDBRANCH   5  20
BRANCH   4  24
HETATM   24  O2  UNL     1     -50.889  23.293 -33.594  1.00  0.00    -0.395 OA
ATOM     25  H2  UNL     1     -51.727  23.145 -34.017  1.00  0.00     0.210 HD
ENDBRANCH   4  24
TORSDOF 11
ENDMDL
MODEL 2
REMARK VINA RESULT: -6.380510476      1.851      6.384
REMARK  11 active torsions:
REMARK  status: ('A' for Active; 'I' for Inactive)
REMARK    1  A    between atoms: C2_2  and  C3_3 
REMARK    2  A    between atoms: C3_3  and  C4_4 
REMARK    3  A    between atoms: C4_4  and  C5_5 
REMARK    4  A    between atoms: C4_4  and  O3_20 
REMARK    5  A    between atoms: C6_6  and  C7_7 
REMARK    6  A    between atoms: C8_8  and  O1_9 
REMARK    7  A    between atoms: C10_12  and  O2_13 
REMARK    8  A    between atoms: C11_15  and  C12_16 
REMARK    9  A    between atoms: O3_20  and  C16_21 
REMARK   10  A    between atoms: C16_21  and  O5_23 
REMARK   11  A    between atoms: O5_23  and  C17_24 
ROOT
HETATM    1  C7  UNL     1     -55.058  23.975 -28.685  1.00  0.00     0.047 C 
HETATM    2  C8  UNL     1     -55.403  24.874 -27.506  1.00  0.00     0.129 C 
HETATM    3  C9  UNL     1     -56.930  24.897 -27.594  1.00  0.00     0.065 C 
HETATM    4  C10 UNL     1     -57.097  25.203 -29.065  1.00  0.00     0.129 C 
HETATM    5  C11 UNL     1     -56.079  24.321 -29.735  1.00  0.00     0.047 C 
ENDROOT
BRANCH   1   6
HETATM    6  C6  UNL     1     -53.662  24.109 -29.119  1.00  0.00    -0.020 C 
HETATM    7  C5  UNL     1     -53.348  24.147 -30.391  1.00  0.00     0.002 C 
BRANCH   7   8
HETATM    8  C4  UNL     1     -51.957  24.281 -30.901  1.00  0.00     0.160 C 
BRANCH   8   9
HETATM    9  C3  UNL     1     -52.048  24.795 -32.319  1.00  0.00     0.063 C 
BRANCH   9  10
HETATM   10  C2  UNL     1     -51.894  23.601 -33.227  1.00  0.00    -0.034 C 
HETATM   11  C1  UNL     1     -52.722  23.414 -34.234  1.00  0.00     0.007 C 
ENDBRANCH   9  10
ENDBRANCH   8   9
BRANCH   8  12
HETATM   12  O3  UNL     1     -51.225  23.092 -30.800  1.00  0.00    -0.288 OA
BRANCH  12  13
HETATM   13  C16 UNL     1     -50.105  23.028 -29.983  1.00  0.00     0.407 C 
HETATM   14  O4  UNL     1     -49.718  24.092 -29.391  1.00  0.00    -0.229 OA
BRANCH  13  15
HETATM   15  O5  UNL     1     -49.376  21.884 -29.768  1.00  0.00    -0.298 OA
BRANCH  15  16
HETATM   16  C17 UNL     1     -48.212  21.629 -30.568  1.00  0.00     0.176 C 
HETATM   17  C18 UNL     1     -48.500  21.765 -32.024  1.00  0.00     0.034 C 
ENDBRANCH  15  16
ENDBRANCH  13  15
ENDBRANCH  12  13
ENDBRANCH   8  12
ENDBRANCH   7   8
ENDBRANCH   1   6
BRANCH   2  18
HETATM   18  O1  UNL     1     -54.929  24.334 -26.343  1.00  0.00    -0.395 OA
ATOM     19  H1  UNL     1     -55.411  24.677 -25.600  1.00  0.00     0.210 HD
ENDBRANCH   2  18
BRANCH   5  20
HETATM   20  C12 UNL     1     -56.807  23.092 -30.189  1.00  0.00    -0.017 C 
HETATM   21  C13 UNL     1     -56.807  22.728 -31.464  1.00  0.00    -0.091 C 
HETATM   22  C14 UNL     1     -56.065  23.567 -32.435  1.00  0.00     0.042 C 
HETATM   23  C15 UNL     1     -57.519  21.516 -31.940  1.00  0.00     0.042 C 
ENDBRANCH   5  20
BRANCH   4  24
HETATM   24  O2  UNL     1     -58.396  24.909 -29.506  1.00  0.00    -0.395 OA
ATOM     25  H2  UNL     1     -58.577  25.314 -30.345  1.00  0.00     0.210 HD
ENDBRANCH   4  24
TORSDOF 11
ENDMDL
MODEL 3
REMARK VINA RESULT: -6.375917858      0.885      1.348
REMARK  11 active torsions:
REMARK  status: ('A' for Active; 'I' for Inactive)
REMARK    1  A    between atoms: C2_2  and  C3_3 
REMARK    2  A    between atoms: C3_3  and  C4_4 
REMARK    3  A    between atoms: C4_4  and  C5_5 
REMARK    4  A    between atoms: C4_4  and  O3_20 
REMARK    5  A    between atoms: C6_6  and  C7_7 
REMARK    6  A    between atoms: C8_8  and  O1_9 
REMARK    7  A    between atoms: C10_12  and  O2_13 
REMARK    8  A    between atoms: C11_15  and  C12_16 
REMARK    9  A    between atoms: O3_20  and  C16_21 
REMARK   10  A    between atoms: C16_21  and  O5_23 
REMARK   11  A    between atoms: O5_23  and  C17_24 
ROOT
HETATM    1  C7  UNL     1     -51.598  24.136 -30.198  1.00  0.00     0.047 C 
HETATM    2  C8  UNL     1     -50.249  23.446 -30.053  1.00  0.00     0.129 C 
HETATM    3  C9  UNL     1     -49.733  23.509 -31.492  1.00  0.00     0.065 C 
HETATM    4  C10 UNL     1     -50.954  22.999 -32.224  1.00  0.00     0.129 C 
HETATM    5  C11 UNL     1     -52.099  23.705 -31.550  1.00  0.00     0.047 C 
ENDROOT
BRANCH   1   6
HETATM    6  C6  UNL     1     -52.511  23.849 -29.085  1.00  0.00    -0.020 C 
HETATM    7  C5  UNL     1     -53.789  24.130 -29.166  1.00  0.00     0.002 C 
BRANCH   7   8
HETATM    8  C4  UNL     1     -54.769  23.867 -28.080  1.00  0.00     0.160 C 
BRANCH   8   9
HETATM    9  C3  UNL     1     -56.110  23.626 -28.735  1.00  0.00     0.063 C 
BRANCH   9  10
HETATM   10  C2  UNL     1     -56.157  24.499 -29.964  1.00  0.00    -0.034 C 
HETATM   11  C1  UNL     1     -57.144  25.353 -30.141  1.00  0.00     0.007 C 
ENDBRANCH   9  10
ENDBRANCH   8   9
BRANCH   8  12
HETATM   12  O3  UNL     1     -54.808  24.890 -27.124  1.00  0.00    -0.288 OA
BRANCH  12  13
HETATM   13  C16 UNL     1     -55.904  25.016 -26.281  1.00  0.00     0.407 C 
HETATM   14  O4  UNL     1     -55.940  24.315 -25.214  1.00  0.00    -0.229 OA
BRANCH  13  15
HETATM   15  O5  UNL     1     -56.964  25.855 -26.522  1.00  0.00    -0.298 OA
BRANCH  15  16
HETATM   16  C17 UNL     1     -58.254  25.537 -25.975  1.00  0.00     0.176 C 
HETATM   17  C18 UNL     1     -59.230  25.167 -27.039  1.00  0.00     0.034 C 
ENDBRANCH  15  16
ENDBRANCH  13  15
ENDBRANCH  12  13
ENDBRANCH   8  12
ENDBRANCH   7   8
ENDBRANCH   1   6
BRANCH   2  18
HETATM   18  O1  UNL     1     -49.465  24.121 -29.159  1.00  0.00    -0.395 OA
ATOM     19  H1  UNL     1     -48.701  23.602 -28.934  1.00  0.00     0.210 HD
ENDBRANCH   2  18
BRANCH   5  20
HETATM   20  C12 UNL     1     -52.428  24.897 -32.396  1.00  0.00    -0.017 C 
HETATM   21  C13 UNL     1     -53.562  24.959 -33.081  1.00  0.00    -0.091 C 
HETATM   22  C14 UNL     1     -54.503  23.818 -32.989  1.00  0.00     0.042 C 
HETATM   23  C15 UNL     1     -53.911  26.128 -33.926  1.00  0.00     0.042 C 
ENDBRANCH   5  20
BRANCH   4  24
HETATM   24  O2  UNL     1     -50.897  23.308 -33.591  1.00  0.00    -0.395 OA
ATOM     25  H2  UNL     1     -51.672  23.002 -34.048  1.00  0.00     0.210 HD
ENDBRANCH   4  24
TORSDOF 11
ENDMDL
MODEL 4
REMARK VINA RESULT: -6.248698434      2.870      5.856
REMARK  11 active torsions:
REMARK  status: ('A' for Active; 'I' for Inactive)
REMARK    1  A    between atoms: C2_2  and  C3_3 
REMARK    2  A    between atoms: C3_3  and  C4_4 
REMARK    3  A    between atoms: C4_4  and  C5_5 
REMARK    4  A    between atoms: C4_4  and  O3_20 
REMARK    5  A    between atoms: C6_6  and  C7_7 
REMARK    6  A    between atoms: C8_8  and  O1_9 
REMARK    7  A    between atoms: C10_12  and  O2_13 
REMARK    8  A    between atoms: C11_15  and  C12_16 
REMARK    9  A    between atoms: O3_20  and  C16_21 
REMARK   10  A    between atoms: C16_21  and  O5_23 
REMARK   11  A    between atoms: O5_23  and  C17_24 
ROOT
HETATM    1  C7  UNL     1     -53.740  24.387 -33.269  1.00  0.00     0.047 C 
HETATM    2  C8  UNL     1     -53.236  23.930 -34.631  1.00  0.00     0.129 C 
HETATM    3  C9  UNL     1     -54.389  24.376 -35.533  1.00  0.00     0.065 C 
HETATM    4  C10 UNL     1     -55.556  23.820 -34.749  1.00  0.00     0.129 C 
HETATM    5  C11 UNL     1     -55.227  24.160 -33.321  1.00  0.00     0.047 C 
ENDROOT
BRANCH   1   6
HETATM    6  C6  UNL     1     -53.056  23.722 -32.152  1.00  0.00    -0.020 C 
HETATM    7  C5  UNL     1     -52.699  24.391 -31.082  1.00  0.00     0.002 C 
BRANCH   7   8
HETATM    8  C4  UNL     1     -52.005  23.782 -29.916  1.00  0.00     0.160 C 
BRANCH   8   9
HETATM    9  C3  UNL     1     -52.568  24.431 -28.673  1.00  0.00     0.063 C 
BRANCH   9  10
HETATM   10  C2  UNL     1     -54.019  24.030 -28.590  1.00  0.00    -0.034 C 
HETATM   11  C1  UNL     1     -54.676  24.123 -27.452  1.00  0.00     0.007 C 
ENDBRANCH   9  10
ENDBRANCH   8   9
BRANCH   8  12
HETATM   12  O3  UNL     1     -50.611  23.886 -29.999  1.00  0.00    -0.288 OA
BRANCH  12  13
HETATM   13  C16 UNL     1     -49.833  22.747 -30.155  1.00  0.00     0.407 C 
HETATM   14  O4  UNL     1     -48.960  22.475 -29.263  1.00  0.00    -0.229 OA
BRANCH  13  15
HETATM   15  O5  UNL     1     -49.941  21.884 -31.218  1.00  0.00    -0.298 OA
BRANCH  15  16
HETATM   16  C17 UNL     1     -49.637  22.353 -32.541  1.00  0.00     0.176 C 
HETATM   17  C18 UNL     1     -48.298  21.886 -32.999  1.00  0.00     0.034 C 
ENDBRANCH  15  16
ENDBRANCH  13  15
ENDBRANCH  12  13
ENDBRANCH   8  12
ENDBRANCH   7   8
ENDBRANCH   1   6
BRANCH   2  18
HETATM   18  O1  UNL     1     -52.045  24.536 -34.923  1.00  0.00    -0.395 OA
ATOM     19  H1  UNL     1     -51.984  24.710 -35.854  1.00  0.00     0.210 HD
ENDBRANCH   2  18
BRANCH   5  20
HETATM   20  C12 UNL     1     -55.966  25.423 -32.998  1.00  0.00    -0.017 C 
HETATM   21  C13 UNL     1     -56.644  25.549 -31.866  1.00  0.00    -0.091 C 
HETATM   22  C14 UNL     1     -56.653  24.409 -30.920  1.00  0.00     0.042 C 
HETATM   23  C15 UNL     1     -57.384  26.790 -31.522  1.00  0.00     0.042 C 
ENDBRANCH   5  20
BRANCH   4  24
HETATM   24  O2  UNL     1     -56.766  24.407 -35.148  1.00  0.00    -0.395 OA
ATOM     25  H2  UNL     1     -57.512  23.924 -34.812  1.00  0.00     0.210 HD
ENDBRANCH   4  24
TORSDOF 11
ENDMDL
MODEL 5
REMARK VINA RESULT: -6.237221643      1.780      3.356
REMARK  11 active torsions:
REMARK  status: ('A' for Active; 'I' for Inactive)
REMARK    1  A    between atoms: C2_2  and  C3_3 
REMARK    2  A    between atoms: C3_3  and  C4_4 
REMARK    3  A    between atoms: C4_4  and  C5_5 
REMARK    4  A    between atoms: C4_4  and  O3_20 
REMARK    5  A    between atoms: C6_6  and  C7_7 
REMARK    6  A    between atoms: C8_8  and  O1_9 
REMARK    7  A    between atoms: C10_12  and  O2_13 
REMARK    8  A    between atoms: C11_15  and  C12_16 
REMARK    9  A    between atoms: O3_20  and  C16_21 
REMARK   10  A    between atoms: C16_21  and  O5_23 
REMARK   11  A    between atoms: O5_23  and  C17_24 
ROOT
HETATM    1  C7  UNL     1     -53.700  24.035 -31.073  1.00  0.00     0.047 C 
HETATM    2  C8  UNL     1     -54.813  24.790 -31.787  1.00  0.00     0.129 C 
HETATM    3  C9  UNL     1     -54.259  24.846 -33.212  1.00  0.00     0.065 C 
HETATM    4  C10 UNL     1     -52.857  25.331 -32.922  1.00  0.00     0.129 C 
HETATM    5  C11 UNL     1     -52.435  24.521 -31.726  1.00  0.00     0.047 C 
ENDROOT
BRANCH   1   6
HETATM    6  C6  UNL     1     -53.741  24.200 -29.614  1.00  0.00    -0.020 C 
HETATM    7  C5  UNL     1     -54.854  24.029 -28.943  1.00  0.00     0.002 C 
BRANCH   7   8
HETATM    8  C4  UNL     1     -54.967  24.179 -27.468  1.00  0.00     0.160 C 
BRANCH   8   9
HETATM    9  C3  UNL     1     -55.372  22.834 -26.911  1.00  0.00     0.063 C 
BRANCH   9  10
HETATM   10  C2  UNL     1     -56.515  22.337 -27.760  1.00  0.00    -0.034 C 
HETATM   11  C1  UNL     1     -57.626  21.904 -27.200  1.00  0.00     0.007 C 
ENDBRANCH   9  10
ENDBRANCH   8   9
BRANCH   8  12
HETATM   12  O3  UNL     1     -55.840  25.208 -27.092  1.00  0.00    -0.288 OA
BRANCH  12  13
HETATM   13  C16 UNL     1     -56.177  25.384 -25.757  1.00  0.00     0.407 C 
HETATM   14  O4  UNL     1     -55.366  26.015 -24.999  1.00  0.00    -0.229 OA
BRANCH  13  15
HETATM   15  O5  UNL     1     -57.339  24.919 -25.192  1.00  0.00    -0.298 OA
BRANCH  15  16
HETATM   16  C17 UNL     1     -57.335  24.497 -23.819  1.00  0.00     0.176 C 
HETATM   17  C18 UNL     1     -56.932  23.069 -23.681  1.00  0.00     0.034 C 
ENDBRANCH  15  16
ENDBRANCH  13  15
ENDBRANCH  12  13
ENDBRANCH   8  12
ENDBRANCH   7   8
ENDBRANCH   1   6
BRANCH   2  18
HETATM   18  O1  UNL     1     -55.992  24.105 -31.683  1.00  0.00    -0.395 OA
ATOM     19  H1  UNL     1     -55.849  23.178 -31.834  1.00  0.00     0.210 HD
ENDBRANCH   2  18
BRANCH   5  20
HETATM   20  C12 UNL     1     -51.633  23.368 -32.249  1.00  0.00    -0.017 C 
HETATM   21  C13 UNL     1     -50.530  22.966 -31.633  1.00  0.00    -0.091 C 
HETATM   22  C14 UNL     1     -50.106  23.685 -30.408  1.00  0.00     0.042 C 
HETATM   23  C15 UNL     1     -49.719  21.827 -32.129  1.00  0.00     0.042 C 
ENDBRANCH   5  20
BRANCH   4  24
HETATM   24  O2  UNL     1     -52.004  25.112 -34.014  1.00  0.00    -0.395 OA
ATOM     25  H2  UNL     1     -51.091  25.191 -33.761  1.00  0.00     0.210 HD
ENDBRANCH   4  24
TORSDOF 11
ENDMDL
