MODEL 1
REMARK VINA RESULT: -7.319743920      0.000      0.000
REMARK  7 active torsions:
REMARK  status: ('A' for Active; 'I' for Inactive)
REMARK    1  A    between atoms: C2_2  and  C3_3 
REMARK    2  A    between atoms: C8_11  and  N2_12 
REMARK    3  A    between atoms: C10_17  and  C11_18 
REMARK    4  A    between atoms: C11_18  and  C12_19 
REMARK    5  A    between atoms: C12_19  and  C13_20 
REMARK    6  A    between atoms: C13_20  and  N3_21 
REMARK    7  A    between atoms: N3_21  and  C14_23 
ROOT
HETATM    1  C3  UNL     1     -54.165  24.760 -33.237  1.00  0.00     0.021 A 
HETATM    2  N1  UNL     1     -55.520  24.613 -33.236  1.00  0.00    -0.326 N 
ATOM      3  H1  UNL     1     -56.018  24.685 -34.125  1.00  0.00     0.169 HD
HETATM    4  C4  UNL     1     -56.236  24.378 -32.118  1.00  0.00     0.259 A 
HETATM    5  O1  UNL     1     -57.492  24.248 -32.152  1.00  0.00    -0.267 OA
HETATM    6  C5  UNL     1     -55.539  24.284 -30.926  1.00  0.00     0.077 A 
HETATM    7  C6  UNL     1     -55.943  24.055 -29.605  1.00  0.00     0.014 A 
HETATM    8  C7  UNL     1     -57.327  23.833 -29.144  1.00  0.00     0.054 C 
HETATM    9  C8  UNL     1     -54.773  24.078 -28.874  1.00  0.00     0.222 A 
HETATM   10  O4  UNL     1     -53.739  24.304 -29.687  1.00  0.00    -0.287 OA
HETATM   11  C9  UNL     1     -54.171  24.432 -30.920  1.00  0.00     0.102 A 
HETATM   12  C10 UNL     1     -53.430  24.677 -32.084  1.00  0.00    -0.000 A 
ENDROOT
BRANCH  12  13
HETATM   13  C11 UNL     1     -51.977  24.835 -32.015  1.00  0.00     0.045 C 
BRANCH  13  14
HETATM   14  C12 UNL     1     -51.182  23.630 -31.666  1.00  0.00     0.024 C 
BRANCH  14  15
HETATM   15  C13 UNL     1     -49.777  24.144 -31.322  1.00  0.00     0.114 C 
BRANCH  15  16
HETATM   16  N3  UNL     1     -48.738  23.559 -32.091  1.00  0.00    -0.418 N 
ATOM     17  H3  UNL     1     -47.994  24.117 -32.509  1.00  0.00     0.153 HD
BRANCH  16  18
HETATM   18  C14 UNL     1     -48.797  22.128 -32.244  1.00  0.00     0.068 C 
HETATM   19  C15 UNL     1     -47.940  21.662 -33.403  1.00  0.00     0.031 C 
HETATM   20  C16 UNL     1     -48.195  21.558 -30.950  1.00  0.00     0.031 C 
ENDBRANCH  16  18
ENDBRANCH  15  16
ENDBRANCH  14  15
ENDBRANCH  13  14
ENDBRANCH  12  13
BRANCH   1  21
HETATM   21  C2  UNL     1     -53.433  25.011 -34.514  1.00  0.00     0.053 C 
HETATM   22  C1  UNL     1     -53.173  23.740 -35.299  1.00  0.00     0.011 C 
ENDBRANCH   1  21
BRANCH   9  23
HETATM   23  N2  UNL     1     -54.691  23.888 -27.464  1.00  0.00    -0.090 N 
HETATM   24  O2  UNL     1     -54.260  24.815 -26.743  1.00  0.00    -0.530 OA
HETATM   25  O3  UNL     1     -55.054  22.738 -26.819  1.00  0.00    -0.530 OA
ENDBRANCH   9  23
TORSDOF 7
ENDMDL
MODEL 2
REMARK VINA RESULT: -6.704343473      1.468      1.608
REMARK  7 active torsions:
REMARK  status: ('A' for Active; 'I' for Inactive)
REMARK    1  A    between atoms: C2_2  and  C3_3 
REMARK    2  A    between atoms: C8_11  and  N2_12 
REMARK    3  A    between atoms: C10_17  and  C11_18 
REMARK    4  A    between atoms: C11_18  and  C12_19 
REMARK    5  A    between atoms: C12_19  and  C13_20 
REMARK    6  A    between atoms: C13_20  and  N3_21 
REMARK    7  A    between atoms: N3_21  and  C14_23 
ROOT
HETATM    1  C3  UNL     1     -55.099  23.404 -32.490  1.00  0.00     0.021 A 
HETATM    2  N1  UNL     1     -56.310  23.103 -31.940  1.00  0.00    -0.326 N 
ATOM      3  H1  UNL     1     -57.037  22.721 -32.545  1.00  0.00     0.169 HD
HETATM    4  C4  UNL     1     -56.592  23.284 -30.633  1.00  0.00     0.259 A 
HETATM    5  O1  UNL     1     -57.725  22.995 -30.156  1.00  0.00    -0.267 OA
HETATM    6  C5  UNL     1     -55.590  23.802 -29.833  1.00  0.00     0.077 A 
HETATM    7  C6  UNL     1     -55.529  24.116 -28.470  1.00  0.00     0.014 A 
HETATM    8  C7  UNL     1     -56.616  23.942 -27.487  1.00  0.00     0.054 C 
HETATM    9  C8  UNL     1     -54.251  24.599 -28.280  1.00  0.00     0.222 A 
HETATM   10  O4  UNL     1     -53.586  24.581 -29.437  1.00  0.00    -0.287 OA
HETATM   11  C9  UNL     1     -54.365  24.109 -30.382  1.00  0.00     0.102 A 
HETATM   12  C10 UNL     1     -54.075  23.919 -31.740  1.00  0.00    -0.000 A 
ENDROOT
BRANCH  12  13
HETATM   13  C11 UNL     1     -52.758  24.274 -32.270  1.00  0.00     0.045 C 
BRANCH  13  14
HETATM   14  C12 UNL     1     -51.617  23.406 -31.879  1.00  0.00     0.024 C 
BRANCH  14  15
HETATM   15  C13 UNL     1     -50.447  24.360 -31.599  1.00  0.00     0.114 C 
BRANCH  15  16
HETATM   16  N3  UNL     1     -49.250  23.712 -31.199  1.00  0.00    -0.418 N 
ATOM     17  H3  UNL     1     -48.498  24.210 -30.722  1.00  0.00     0.153 HD
BRANCH  16  18
HETATM   18  C14 UNL     1     -49.161  22.308 -31.506  1.00  0.00     0.068 C 
HETATM   19  C15 UNL     1     -48.435  22.076 -32.816  1.00  0.00     0.031 C 
HETATM   20  C16 UNL     1     -48.312  21.701 -30.379  1.00  0.00     0.031 C 
ENDBRANCH  16  18
ENDBRANCH  15  16
ENDBRANCH  14  15
ENDBRANCH  13  14
ENDBRANCH  12  13
BRANCH   1  21
HETATM   21  C2  UNL     1     -54.850  23.171 -33.943  1.00  0.00     0.053 C 
HETATM   22  C1  UNL     1     -54.843  21.698 -34.306  1.00  0.00     0.011 C 
ENDBRANCH   1  21
BRANCH   9  23
HETATM   23  N2  UNL     1     -53.728  25.048 -27.032  1.00  0.00    -0.090 N 
HETATM   24  O2  UNL     1     -54.496  25.569 -26.195  1.00  0.00    -0.530 OA
HETATM   25  O3  UNL     1     -52.412  24.953 -26.670  1.00  0.00    -0.530 OA
ENDBRANCH   9  23
TORSDOF 7
ENDMDL
MODEL 3
REMARK VINA RESULT: -6.663407026      3.025      5.930
REMARK  7 active torsions:
REMARK  status: ('A' for Active; 'I' for Inactive)
REMARK    1  A    between atoms: C2_2  and  C3_3 
REMARK    2  A    between atoms: C8_11  and  N2_12 
REMARK    3  A    between atoms: C10_17  and  C11_18 
REMARK    4  A    between atoms: C11_18  and  C12_19 
REMARK    5  A    between atoms: C12_19  and  C13_20 
REMARK    6  A    between atoms: C13_20  and  N3_21 
REMARK    7  A    between atoms: N3_21  and  C14_23 
ROOT
HETATM    1  C3  UNL     1     -54.464  23.874 -32.333  1.00  0.00     0.021 A 
HETATM    2  N1  UNL     1     -54.260  24.260 -31.041  1.00  0.00    -0.326 N 
ATOM      3  H1  UNL     1     -55.048  24.644 -30.519  1.00  0.00     0.169 HD
HETATM    4  C4  UNL     1     -53.067  24.159 -30.421  1.00  0.00     0.259 A 
HETATM    5  O1  UNL     1     -52.913  24.528 -29.223  1.00  0.00    -0.267 OA
HETATM    6  C5  UNL     1     -52.014  23.635 -31.149  1.00  0.00     0.077 A 
HETATM    7  C6  UNL     1     -50.671  23.391 -30.837  1.00  0.00     0.014 A 
HETATM    8  C7  UNL     1     -50.017  23.654 -29.541  1.00  0.00     0.054 C 
HETATM    9  C8  UNL     1     -50.137  22.858 -31.991  1.00  0.00     0.222 A 
HETATM   10  O4  UNL     1     -51.081  22.784 -32.933  1.00  0.00    -0.287 OA
HETATM   11  C9  UNL     1     -52.212  23.244 -32.454  1.00  0.00     0.102 A 
HETATM   12  C10 UNL     1     -53.454  23.350 -33.096  1.00  0.00    -0.000 A 
ENDROOT
BRANCH  12  13
HETATM   13  C11 UNL     1     -53.602  22.927 -34.489  1.00  0.00     0.045 C 
BRANCH  13  14
HETATM   14  C12 UNL     1     -53.180  23.891 -35.537  1.00  0.00     0.024 C 
BRANCH  14  15
HETATM   15  C13 UNL     1     -54.029  23.560 -36.773  1.00  0.00     0.114 C 
BRANCH  15  16
HETATM   16  N3  UNL     1     -53.583  22.425 -37.498  1.00  0.00    -0.418 N 
ATOM     17  H3  UNL     1     -52.606  22.300 -37.762  1.00  0.00     0.153 HD
BRANCH  16  18
HETATM   18  C14 UNL     1     -54.596  21.459 -37.839  1.00  0.00     0.068 C 
HETATM   19  C15 UNL     1     -54.377  20.150 -37.107  1.00  0.00     0.031 C 
HETATM   20  C16 UNL     1     -55.917  22.066 -37.343  1.00  0.00     0.031 C 
ENDBRANCH  16  18
ENDBRANCH  15  16
ENDBRANCH  14  15
ENDBRANCH  13  14
ENDBRANCH  12  13
BRANCH   1  21
HETATM   21  C2  UNL     1     -55.813  24.006 -32.958  1.00  0.00     0.053 C 
HETATM   22  C1  UNL     1     -56.830  23.054 -32.358  1.00  0.00     0.011 C 
ENDBRANCH   1  21
BRANCH   9  23
HETATM   23  N2  UNL     1     -48.779  22.451 -32.147  1.00  0.00    -0.090 N 
HETATM   24  O2  UNL     1     -48.076  22.983 -33.034  1.00  0.00    -0.530 OA
HETATM   25  O3  UNL     1     -48.170  21.494 -31.382  1.00  0.00    -0.530 OA
ENDBRANCH   9  23
TORSDOF 7
ENDMDL
MODEL 4
REMARK VINA RESULT: -6.638997565      1.025      1.373
REMARK  7 active torsions:
REMARK  status: ('A' for Active; 'I' for Inactive)
REMARK    1  A    between atoms: C2_2  and  C3_3 
REMARK    2  A    between atoms: C8_11  and  N2_12 
REMARK    3  A    between atoms: C10_17  and  C11_18 
REMARK    4  A    between atoms: C11_18  and  C12_19 
REMARK    5  A    between atoms: C12_19  and  C13_20 
REMARK    6  A    between atoms: C13_20  and  N3_21 
REMARK    7  A    between atoms: N3_21  and  C14_23 
ROOT
HETATM    1  C3  UNL     1     -54.560  25.397 -33.102  1.00  0.00     0.021 A 
HETATM    2  N1  UNL     1     -55.866  25.743 -32.923  1.00  0.00    -0.326 N 
ATOM      3  H1  UNL     1     -56.366  26.174 -33.701  1.00  0.00     0.169 HD
HETATM    4  C4  UNL     1     -56.530  25.541 -31.766  1.00  0.00     0.259 A 
HETATM    5  O1  UNL     1     -57.741  25.874 -31.634  1.00  0.00    -0.267 OA
HETATM    6  C5  UNL     1     -55.832  24.954 -30.727  1.00  0.00     0.077 A 
HETATM    7  C6  UNL     1     -56.191  24.606 -29.419  1.00  0.00     0.014 A 
HETATM    8  C7  UNL     1     -57.517  24.794 -28.800  1.00  0.00     0.054 C 
HETATM    9  C8  UNL     1     -55.047  24.056 -28.879  1.00  0.00     0.222 A 
HETATM   10  O4  UNL     1     -54.068  24.071 -29.786  1.00  0.00    -0.287 OA
HETATM   11  C9  UNL     1     -54.512  24.604 -30.900  1.00  0.00     0.102 A 
HETATM   12  C10 UNL     1     -53.824  24.815 -32.103  1.00  0.00    -0.000 A 
ENDROOT
BRANCH  12  13
HETATM   13  C11 UNL     1     -52.418  24.430 -32.226  1.00  0.00     0.045 C 
BRANCH  13  14
HETATM   14  C12 UNL     1     -52.133  23.015 -32.576  1.00  0.00     0.024 C 
BRANCH  14  15
HETATM   15  C13 UNL     1     -50.623  22.951 -32.847  1.00  0.00     0.114 C 
BRANCH  15  16
HETATM   16  N3  UNL     1     -49.849  23.837 -32.053  1.00  0.00    -0.418 N 
ATOM     17  H3  UNL     1     -49.878  24.847 -32.187  1.00  0.00     0.153 HD
BRANCH  16  18
HETATM   18  C14 UNL     1     -49.023  23.222 -31.047  1.00  0.00     0.068 C 
HETATM   19  C15 UNL     1     -49.750  23.126 -29.721  1.00  0.00     0.031 C 
HETATM   20  C16 UNL     1     -48.766  21.794 -31.553  1.00  0.00     0.031 C 
ENDBRANCH  16  18
ENDBRANCH  15  16
ENDBRANCH  14  15
ENDBRANCH  13  14
ENDBRANCH  12  13
BRANCH   1  21
HETATM   21  C2  UNL     1     -53.885  25.641 -34.411  1.00  0.00     0.053 C 
HETATM   22  C1  UNL     1     -54.243  24.600 -35.455  1.00  0.00     0.011 C 
ENDBRANCH   1  21
BRANCH   9  23
HETATM   23  N2  UNL     1     -54.935  23.552 -27.550  1.00  0.00    -0.090 N 
HETATM   24  O2  UNL     1     -54.342  24.231 -26.683  1.00  0.00    -0.530 OA
HETATM   25  O3  UNL     1     -55.439  22.349 -27.138  1.00  0.00    -0.530 OA
ENDBRANCH   9  23
TORSDOF 7
ENDMDL
MODEL 5
REMARK VINA RESULT: -6.634112097      2.878      5.786
REMARK  7 active torsions:
REMARK  status: ('A' for Active; 'I' for Inactive)
REMARK    1  A    between atoms: C2_2  and  C3_3 
REMARK    2  A    between atoms: C8_11  and  N2_12 
REMARK    3  A    between atoms: C10_17  and  C11_18 
REMARK    4  A    between atoms: C11_18  and  C12_19 
REMARK    5  A    between atoms: C12_19  and  C13_20 
REMARK    6  A    between atoms: C13_20  and  N3_21 
REMARK    7  A    between atoms: N3_21  and  C14_23 
ROOT
HETATM    1  C3  UNL     1     -54.146  24.807 -32.679  1.00  0.00     0.021 A 
HETATM    2  N1  UNL     1     -54.077  24.819 -31.317  1.00  0.00    -0.326 N 
ATOM      3  H1  UNL     1     -54.875  25.180 -30.793  1.00  0.00     0.169 HD
HETATM    4  C4  UNL     1     -53.006  24.374 -30.630  1.00  0.00     0.259 A 
HETATM    5  O1  UNL     1     -52.974  24.399 -29.367  1.00  0.00    -0.267 OA
HETATM    6  C5  UNL     1     -51.938  23.888 -31.362  1.00  0.00     0.077 A 
HETATM    7  C6  UNL     1     -50.694  23.361 -30.993  1.00  0.00     0.014 A 
HETATM    8  C7  UNL     1     -50.199  23.180 -29.615  1.00  0.00     0.054 C 
HETATM    9  C8  UNL     1     -50.076  23.057 -32.189  1.00  0.00     0.222 A 
HETATM   10  O4  UNL     1     -50.881  23.375 -33.205  1.00  0.00    -0.287 OA
HETATM   11  C9  UNL     1     -52.000  23.875 -32.737  1.00  0.00     0.102 A 
HETATM   12  C10 UNL     1     -53.115  24.338 -33.449  1.00  0.00    -0.000 A 
ENDROOT
BRANCH  12  13
HETATM   13  C11 UNL     1     -53.121  24.308 -34.912  1.00  0.00     0.045 C 
BRANCH  13  14
HETATM   14  C12 UNL     1     -53.297  22.984 -35.560  1.00  0.00     0.024 C 
BRANCH  14  15
HETATM   15  C13 UNL     1     -54.706  23.003 -36.170  1.00  0.00     0.114 C 
BRANCH  15  16
HETATM   16  N3  UNL     1     -55.648  22.190 -35.488  1.00  0.00    -0.418 N 
ATOM     17  H3  UNL     1     -56.650  22.263 -35.659  1.00  0.00     0.153 HD
BRANCH  16  18
HETATM   18  C14 UNL     1     -55.101  21.254 -34.540  1.00  0.00     0.068 C 
HETATM   19  C15 UNL     1     -55.709  21.444 -33.165  1.00  0.00     0.031 C 
HETATM   20  C16 UNL     1     -55.517  19.868 -35.056  1.00  0.00     0.031 C 
ENDBRANCH  16  18
ENDBRANCH  15  16
ENDBRANCH  14  15
ENDBRANCH  13  14
ENDBRANCH  12  13
BRANCH   1  21
HETATM   21  C2  UNL     1     -55.367  25.308 -33.378  1.00  0.00     0.053 C 
HETATM   22  C1  UNL     1     -56.310  26.047 -32.449  1.00  0.00     0.011 C 
ENDBRANCH   1  21
BRANCH   9  23
HETATM   23  N2  UNL     1     -48.774  22.489 -32.310  1.00  0.00    -0.090 N 
HETATM   24  O2  UNL     1     -47.978  22.952 -33.156  1.00  0.00    -0.530 OA
HETATM   25  O3  UNL     1     -48.315  21.445 -31.554  1.00  0.00    -0.530 OA
ENDBRANCH   9  23
TORSDOF 7
ENDMDL
