MODEL 1
REMARK VINA RESULT: -8.172878365      0.000      0.000
REMARK  4 active torsions:
REMARK  status: ('A' for Active; 'I' for Inactive)
REMARK    1  A    between atoms: C2_2  and  C4_4 
REMARK    2  A    between atoms: C4_4  and  O1_5 
REMARK    3  A    between atoms: O1_5  and  C5_6 
REMARK    4  A    between atoms: C5_6  and  C6_8 
ROOT
HETATM    1  C4  UNL     1      -2.758   0.690  21.486  1.00  0.00     0.067 C 
HETATM    2  C11 UNL     1      -2.765   1.705  22.343  1.00  0.00    -0.017 C 
HETATM    3  C12 UNL     1      -2.957   3.034  21.795  1.00  0.00     0.014 C 
HETATM    4  C13 UNL     1      -2.849   4.182  22.420  1.00  0.00    -0.060 C 
HETATM    5  C14 UNL     1      -2.989   5.634  22.102  1.00  0.00     0.043 C 
HETATM    6  C15 UNL     1      -3.818   6.085  23.291  1.00  0.00     0.084 C 
HETATM    7  C16 UNL     1      -3.199   5.342  24.413  1.00  0.00     0.142 C 
HETATM    8  O3  UNL     1      -3.257   5.653  25.577  1.00  0.00    -0.297 OA
HETATM    9  C17 UNL     1      -2.491   4.146  23.885  1.00  0.00     0.154 C 
HETATM   10  C18 UNL     1      -3.016   2.869  24.431  1.00  0.00     0.150 C 
HETATM   11  O4  UNL     1      -3.764   2.920  25.387  1.00  0.00    -0.296 OA
HETATM   12  C19 UNL     1      -2.597   1.602  23.778  1.00  0.00     0.088 C 
HETATM   13  C20 UNL     1      -1.228   1.263  24.272  1.00  0.00     0.023 C 
ENDROOT
BRANCH   1  14
HETATM   14  C2  UNL     1      -2.571  -0.717  21.924  1.00  0.00     0.035 C 
HETATM   15  C1  UNL     1      -3.834  -1.219  22.629  1.00  0.00     0.016 C 
HETATM   16  C3  UNL     1      -2.306  -1.674  20.790  1.00  0.00     0.016 C 
ENDBRANCH   1  14
BRANCH   1  17
HETATM   17  O1  UNL     1      -2.929   0.904  20.124  1.00  0.00    -0.282 OA
BRANCH  17  18
HETATM   18  C5  UNL     1      -4.150   0.760  19.479  1.00  0.00     0.268 C 
HETATM   19  O2  UNL     1      -5.218   1.077  20.053  1.00  0.00    -0.264 OA
BRANCH  18  20
HETATM   20  C6  UNL     1      -4.237   0.231  18.099  1.00  0.00     0.086 C 
HETATM   21  C7  UNL     1      -5.529   0.657  17.457  1.00  0.00     0.014 C 
HETATM   22  C8  UNL     1      -5.183   1.302  16.138  1.00  0.00     0.001 C 
HETATM   23  C9  UNL     1      -3.732   1.001  15.881  1.00  0.00     0.001 C 
HETATM   24  C10 UNL     1      -3.121   0.767  17.231  1.00  0.00     0.014 C 
ENDBRANCH  18  20
ENDBRANCH  17  18
ENDBRANCH   1  17
TORSDOF 4
ENDMDL
MODEL 2
REMARK VINA RESULT: -7.983796069      2.145      2.590
REMARK  4 active torsions:
REMARK  status: ('A' for Active; 'I' for Inactive)
REMARK    1  A    between atoms: C2_2  and  C4_4 
REMARK    2  A    between atoms: C4_4  and  O1_5 
REMARK    3  A    between atoms: O1_5  and  C5_6 
REMARK    4  A    between atoms: C5_6  and  C6_8 
ROOT
HETATM    1  C4  UNL     1      -1.942  -0.497  21.843  1.00  0.00     0.067 C 
HETATM    2  C11 UNL     1      -1.323   0.314  22.694  1.00  0.00    -0.017 C 
HETATM    3  C12 UNL     1      -1.258   1.719  22.341  1.00  0.00     0.014 C 
HETATM    4  C13 UNL     1      -0.576   2.665  22.942  1.00  0.00    -0.060 C 
HETATM    5  C14 UNL     1      -0.346   4.133  22.788  1.00  0.00     0.043 C 
HETATM    6  C15 UNL     1      -0.515   4.577  24.229  1.00  0.00     0.084 C 
HETATM    7  C16 UNL     1       0.185   3.509  24.978  1.00  0.00     0.142 C 
HETATM    8  O3  UNL     1       0.641   3.614  26.090  1.00  0.00    -0.297 OA
HETATM    9  C17 UNL     1       0.240   2.276  24.149  1.00  0.00     0.154 C 
HETATM   10  C18 UNL     1      -0.440   1.117  24.780  1.00  0.00     0.150 C 
HETATM   11  O4  UNL     1      -0.747   1.203  25.953  1.00  0.00    -0.296 OA
HETATM   12  C19 UNL     1      -0.706  -0.081  23.943  1.00  0.00     0.088 C 
HETATM   13  C20 UNL     1       0.564  -0.864  23.848  1.00  0.00     0.023 C 
ENDROOT
BRANCH   1  14
HETATM   14  C2  UNL     1      -2.074  -1.956  22.091  1.00  0.00     0.035 C 
HETATM   15  C1  UNL     1      -3.155  -2.212  23.146  1.00  0.00     0.016 C 
HETATM   16  C3  UNL     1      -2.474  -2.744  20.871  1.00  0.00     0.016 C 
ENDBRANCH   1  14
BRANCH   1  17
HETATM   17  O1  UNL     1      -2.500  -0.009  20.668  1.00  0.00    -0.282 OA
BRANCH  17  18
HETATM   18  C5  UNL     1      -3.804   0.461  20.584  1.00  0.00     0.268 C 
HETATM   19  O2  UNL     1      -4.593   0.335  21.549  1.00  0.00    -0.264 OA
BRANCH  18  20
HETATM   20  C6  UNL     1      -4.309   1.124  19.361  1.00  0.00     0.086 C 
HETATM   21  C7  UNL     1      -3.286   1.038  18.261  1.00  0.00     0.014 C 
HETATM   22  C8  UNL     1      -3.978   0.462  17.050  1.00  0.00     0.001 C 
HETATM   23  C9  UNL     1      -5.451   0.479  17.349  1.00  0.00     0.001 C 
HETATM   24  C10 UNL     1      -5.562   0.452  18.845  1.00  0.00     0.014 C 
ENDBRANCH  18  20
ENDBRANCH  17  18
ENDBRANCH   1  17
TORSDOF 4
ENDMDL
MODEL 3
REMARK VINA RESULT: -7.954998614      1.334      1.798
REMARK  4 active torsions:
REMARK  status: ('A' for Active; 'I' for Inactive)
REMARK    1  A    between atoms: C2_2  and  C4_4 
REMARK    2  A    between atoms: C4_4  and  O1_5 
REMARK    3  A    between atoms: O1_5  and  C5_6 
REMARK    4  A    between atoms: C5_6  and  C6_8 
ROOT
HETATM    1  C4  UNL     1      -3.145  -0.332  22.127  1.00  0.00     0.067 C 
HETATM    2  C11 UNL     1      -2.594   0.740  22.686  1.00  0.00    -0.017 C 
HETATM    3  C12 UNL     1      -3.020   2.036  22.195  1.00  0.00     0.014 C 
HETATM    4  C13 UNL     1      -2.510   3.210  22.485  1.00  0.00    -0.060 C 
HETATM    5  C14 UNL     1      -2.752   4.640  22.130  1.00  0.00     0.043 C 
HETATM    6  C15 UNL     1      -2.683   5.268  23.510  1.00  0.00     0.084 C 
HETATM    7  C16 UNL     1      -1.547   4.549  24.132  1.00  0.00     0.142 C 
HETATM    8  O3  UNL     1      -0.882   4.953  25.055  1.00  0.00    -0.297 OA
HETATM    9  C17 UNL     1      -1.347   3.246  23.444  1.00  0.00     0.154 C 
HETATM   10  C18 UNL     1      -1.494   2.080  24.352  1.00  0.00     0.150 C 
HETATM   11  O4  UNL     1      -1.516   2.285  25.549  1.00  0.00    -0.296 OA
HETATM   12  C19 UNL     1      -1.604   0.729  23.744  1.00  0.00     0.088 C 
HETATM   13  C20 UNL     1      -0.228   0.281  23.371  1.00  0.00     0.023 C 
ENDROOT
BRANCH   1  14
HETATM   14  C2  UNL     1      -2.792  -1.714  22.544  1.00  0.00     0.035 C 
HETATM   15  C1  UNL     1      -3.670  -2.147  23.721  1.00  0.00     0.016 C 
HETATM   16  C3  UNL     1      -2.992  -2.742  21.460  1.00  0.00     0.016 C 
ENDBRANCH   1  14
BRANCH   1  17
HETATM   17  O1  UNL     1      -4.089  -0.205  21.116  1.00  0.00    -0.282 OA
BRANCH  17  18
HETATM   18  C5  UNL     1      -3.757   0.086  19.799  1.00  0.00     0.268 C 
HETATM   19  O2  UNL     1      -2.645  -0.250  19.330  1.00  0.00    -0.264 OA
BRANCH  18  20
HETATM   20  C6  UNL     1      -4.697   0.799  18.905  1.00  0.00     0.086 C 
HETATM   21  C7  UNL     1      -4.132   0.884  17.514  1.00  0.00     0.014 C 
HETATM   22  C8  UNL     1      -5.181   0.349  16.570  1.00  0.00     0.001 C 
HETATM   23  C9  UNL     1      -6.449   0.220  17.367  1.00  0.00     0.001 C 
HETATM   24  C10 UNL     1      -6.017   0.067  18.796  1.00  0.00     0.014 C 
ENDBRANCH  18  20
ENDBRANCH  17  18
ENDBRANCH   1  17
TORSDOF 4
ENDMDL
MODEL 4
REMARK VINA RESULT: -7.882082020      0.819      1.181
REMARK  4 active torsions:
REMARK  status: ('A' for Active; 'I' for Inactive)
REMARK    1  A    between atoms: C2_2  and  C4_4 
REMARK    2  A    between atoms: C4_4  and  O1_5 
REMARK    3  A    between atoms: O1_5  and  C5_6 
REMARK    4  A    between atoms: C5_6  and  C6_8 
ROOT
HETATM    1  C4  UNL     1      -2.315   0.332  22.139  1.00  0.00     0.067 C 
HETATM    2  C11 UNL     1      -2.445   1.447  22.849  1.00  0.00    -0.017 C 
HETATM    3  C12 UNL     1      -2.672   2.677  22.116  1.00  0.00     0.014 C 
HETATM    4  C13 UNL     1      -2.678   3.901  22.587  1.00  0.00    -0.060 C 
HETATM    5  C14 UNL     1      -2.878   5.287  22.068  1.00  0.00     0.043 C 
HETATM    6  C15 UNL     1      -3.819   5.831  23.128  1.00  0.00     0.084 C 
HETATM    7  C16 UNL     1      -3.243   5.284  24.378  1.00  0.00     0.142 C 
HETATM    8  O3  UNL     1      -3.407   5.739  25.483  1.00  0.00    -0.297 OA
HETATM    9  C17 UNL     1      -2.429   4.080  24.064  1.00  0.00     0.154 C 
HETATM   10  C18 UNL     1      -2.919   2.852  24.741  1.00  0.00     0.150 C 
HETATM   11  O4  UNL     1      -3.738   2.977  25.629  1.00  0.00    -0.296 OA
HETATM   12  C19 UNL     1      -2.380   1.543  24.294  1.00  0.00     0.088 C 
HETATM   13  C20 UNL     1      -1.034   1.364  24.919  1.00  0.00     0.023 C 
ENDROOT
BRANCH   1  14
HETATM   14  C2  UNL     1      -2.079  -0.991  22.774  1.00  0.00     0.035 C 
HETATM   15  C1  UNL     1      -3.409  -1.594  23.238  1.00  0.00     0.016 C 
HETATM   16  C3  UNL     1      -1.451  -2.002  21.850  1.00  0.00     0.016 C 
ENDBRANCH   1  14
BRANCH   1  17
HETATM   17  O1  UNL     1      -2.395   0.355  20.752  1.00  0.00    -0.282 OA
BRANCH  17  18
HETATM   18  C5  UNL     1      -3.577   0.142  20.056  1.00  0.00     0.268 C 
HETATM   19  O2  UNL     1      -4.319  -0.828  20.335  1.00  0.00    -0.264 OA
BRANCH  18  20
HETATM   20  C6  UNL     1      -4.004   1.047  18.965  1.00  0.00     0.086 C 
HETATM   21  C7  UNL     1      -3.062   0.936  17.797  1.00  0.00     0.014 C 
HETATM   22  C8  UNL     1      -3.899   0.665  16.571  1.00  0.00     0.001 C 
HETATM   23  C9  UNL     1      -5.330   0.898  16.968  1.00  0.00     0.001 C 
HETATM   24  C10 UNL     1      -5.380   0.683  18.452  1.00  0.00     0.014 C 
ENDBRANCH  18  20
ENDBRANCH  17  18
ENDBRANCH   1  17
TORSDOF 4
ENDMDL
MODEL 5
REMARK VINA RESULT: -7.872984631      1.814      1.957
REMARK  4 active torsions:
REMARK  status: ('A' for Active; 'I' for Inactive)
REMARK    1  A    between atoms: C2_2  and  C4_4 
REMARK    2  A    between atoms: C4_4  and  O1_5 
REMARK    3  A    between atoms: O1_5  and  C5_6 
REMARK    4  A    between atoms: C5_6  and  C6_8 
ROOT
HETATM    1  C4  UNL     1      -2.092   0.682  21.300  1.00  0.00     0.067 C 
HETATM    2  C11 UNL     1      -1.528   1.730  21.890  1.00  0.00    -0.017 C 
HETATM    3  C12 UNL     1      -1.199   2.865  21.050  1.00  0.00     0.014 C 
HETATM    4  C13 UNL     1      -0.508   3.931  21.378  1.00  0.00    -0.060 C 
HETATM    5  C14 UNL     1      -0.045   5.194  20.729  1.00  0.00     0.043 C 
HETATM    6  C15 UNL     1      -0.406   6.193  21.813  1.00  0.00     0.084 C 
HETATM    7  C16 UNL     1      -0.013   5.479  23.050  1.00  0.00     0.142 C 
HETATM    8  O3  UNL     1       0.245   5.999  24.108  1.00  0.00    -0.297 OA
HETATM    9  C17 UNL     1       0.013   4.015  22.791  1.00  0.00     0.154 C 
HETATM   10  C18 UNL     1      -0.929   3.254  23.650  1.00  0.00     0.150 C 
HETATM   11  O4  UNL     1      -1.427   3.825  24.599  1.00  0.00    -0.296 OA
HETATM   12  C19 UNL     1      -1.209   1.838  23.299  1.00  0.00     0.088 C 
HETATM   13  C20 UNL     1      -0.069   1.009  23.796  1.00  0.00     0.023 C 
ENDROOT
BRANCH   1  14
HETATM   14  C2  UNL     1      -2.476  -0.541  22.052  1.00  0.00     0.035 C 
HETATM   15  C1  UNL     1      -3.898  -0.394  22.602  1.00  0.00     0.016 C 
HETATM   16  C3  UNL     1      -2.469  -1.793  21.215  1.00  0.00     0.016 C 
ENDBRANCH   1  14
BRANCH   1  17
HETATM   17  O1  UNL     1      -2.354   0.685  19.936  1.00  0.00    -0.282 OA
BRANCH  17  18
HETATM   18  C5  UNL     1      -3.607   0.959  19.403  1.00  0.00     0.268 C 
HETATM   19  O2  UNL     1      -4.373   1.780  19.958  1.00  0.00    -0.264 OA
BRANCH  18  20
HETATM   20  C6  UNL     1      -4.082   0.297  18.167  1.00  0.00     0.086 C 
HETATM   21  C7  UNL     1      -5.568   0.473  18.018  1.00  0.00     0.014 C 
HETATM   22  C8  UNL     1      -5.818   1.036  16.641  1.00  0.00     0.001 C 
HETATM   23  C9  UNL     1      -4.520   0.922  15.889  1.00  0.00     0.001 C 
HETATM   24  C10 UNL     1      -3.445   0.904  16.936  1.00  0.00     0.014 C 
ENDBRANCH  18  20
ENDBRANCH  17  18
ENDBRANCH   1  17
TORSDOF 4
ENDMDL
