MODEL 1
REMARK VINA RESULT: -7.413177398      0.000      0.000
REMARK  3 active torsions:
REMARK  status: ('A' for Active; 'I' for Inactive)
REMARK    1  A    between atoms: N1_4  and  C4_5 
REMARK    2  A    between atoms: N2_15  and  C14_16 
REMARK    3  A    between atoms: C14_16  and  C15_17 
ROOT
HETATM    1  C1  UNL     1      -3.458   3.222  25.325  1.00  0.00     0.017 C 
HETATM    2  C2  UNL     1      -3.071   2.477  24.327  1.00  0.00    -0.049 C 
HETATM    3  C3  UNL     1      -3.291   1.017  24.165  1.00  0.00     0.307 C 
HETATM    4  N1  UNL     1      -2.923   0.719  22.782  1.00  0.00     0.098 N 
HETATM    5  C10 UNL     1      -2.994   1.996  22.088  1.00  0.00     0.289 C 
HETATM    6  C11 UNL     1      -2.329   2.907  23.133  1.00  0.00     0.038 C 
HETATM    7  C12 UNL     1      -0.853   2.607  23.215  1.00  0.00     0.048 C 
HETATM    8  C13 UNL     1      -0.183   3.848  22.740  1.00  0.00     0.274 C 
HETATM    9  N2  UNL     1      -1.183   4.691  22.110  1.00  0.00     0.095 N 
HETATM   10  C19 UNL     1      -2.439   4.342  22.766  1.00  0.00     0.288 C 
ENDROOT
BRANCH   4  11
HETATM   11  C4  UNL     1      -3.837  -0.260  22.241  1.00  0.00     0.223 C 
HETATM   12  C5  UNL     1      -3.766  -0.370  20.751  1.00  0.00     0.036 C 
HETATM   13  C6  UNL     1      -2.506  -1.032  20.303  1.00  0.00     0.002 C 
HETATM   14  C7  UNL     1      -2.332  -2.400  20.927  1.00  0.00     0.000 C 
HETATM   15  C8  UNL     1      -2.460  -2.368  22.417  1.00  0.00     0.002 C 
HETATM   16  C9  UNL     1      -3.610  -1.569  22.929  1.00  0.00     0.036 C 
ENDBRANCH   4  11
BRANCH   9  17
HETATM   17  C14 UNL     1      -0.855   6.106  22.298  1.00  0.00     0.329 C 
BRANCH  17  18
HETATM   18  C15 UNL     1      -0.412   6.622  20.944  1.00  0.00     0.044 A 
HETATM   19  C16 UNL     1      -1.320   7.210  20.102  1.00  0.00     0.078 A 
HETATM   20  S1  UNL     1      -0.332   7.598  18.756  1.00  0.00    -0.087 SA
HETATM   21  C17 UNL     1       1.151   6.994  19.348  1.00  0.00     0.047 A 
HETATM   22  C18 UNL     1       2.515   6.981  18.698  1.00  0.00     0.076 C 
HETATM   23  N3  UNL     1       0.813   6.529  20.540  1.00  0.00    -0.356 N 
ATOM     24  H3  UNL     1       1.517   6.098  21.139  1.00  0.00     0.166 HD
ENDBRANCH  17  18
ENDBRANCH   9  17
TORSDOF 3
ENDMDL
MODEL 2
REMARK VINA RESULT: -7.132490010      1.368      1.772
REMARK  3 active torsions:
REMARK  status: ('A' for Active; 'I' for Inactive)
REMARK    1  A    between atoms: N1_4  and  C4_5 
REMARK    2  A    between atoms: N2_15  and  C14_16 
REMARK    3  A    between atoms: C14_16  and  C15_17 
ROOT
HETATM    1  C1  UNL     1      -3.422   2.939  25.184  1.00  0.00     0.017 C 
HETATM    2  C2  UNL     1      -3.076   2.472  24.017  1.00  0.00    -0.049 C 
HETATM    3  C3  UNL     1      -3.414   1.140  23.453  1.00  0.00     0.307 C 
HETATM    4  N1  UNL     1      -3.039   1.210  22.041  1.00  0.00     0.098 N 
HETATM    5  C10 UNL     1      -2.986   2.631  21.733  1.00  0.00     0.289 C 
HETATM    6  C11 UNL     1      -2.271   3.151  22.992  1.00  0.00     0.038 C 
HETATM    7  C12 UNL     1      -0.828   2.713  22.985  1.00  0.00     0.048 C 
HETATM    8  C13 UNL     1      -0.046   3.973  22.877  1.00  0.00     0.274 C 
HETATM    9  N2  UNL     1      -0.956   5.043  22.509  1.00  0.00     0.095 N 
HETATM   10  C19 UNL     1      -2.252   4.636  23.042  1.00  0.00     0.288 C 
ENDROOT
BRANCH   4  11
HETATM   11  C4  UNL     1      -4.020   0.505  21.247  1.00  0.00     0.223 C 
HETATM   12  C5  UNL     1      -4.349   1.202  19.966  1.00  0.00     0.036 C 
HETATM   13  C6  UNL     1      -3.229   1.119  18.985  1.00  0.00     0.002 C 
HETATM   14  C7  UNL     1      -2.830  -0.313  18.701  1.00  0.00     0.000 C 
HETATM   15  C8  UNL     1      -2.551  -1.086  19.950  1.00  0.00     0.002 C 
HETATM   16  C9  UNL     1      -3.555  -0.902  21.038  1.00  0.00     0.036 C 
ENDBRANCH   4  11
BRANCH   9  17
HETATM   17  C14 UNL     1      -0.513   6.314  23.086  1.00  0.00     0.329 C 
BRANCH  17  18
HETATM   18  C15 UNL     1       0.328   6.993  22.024  1.00  0.00     0.044 A 
HETATM   19  C16 UNL     1       1.630   7.330  22.291  1.00  0.00     0.078 A 
HETATM   20  S1  UNL     1       2.105   8.045  20.806  1.00  0.00    -0.087 SA
HETATM   21  C17 UNL     1       0.634   7.868  19.957  1.00  0.00     0.047 A 
HETATM   22  C18 UNL     1       0.279   8.276  18.547  1.00  0.00     0.076 C 
HETATM   23  N3  UNL     1      -0.140   7.273  20.852  1.00  0.00    -0.356 N 
ATOM     24  H3  UNL     1      -1.104   7.037  20.617  1.00  0.00     0.166 HD
ENDBRANCH  17  18
ENDBRANCH   9  17
TORSDOF 3
ENDMDL
MODEL 3
REMARK VINA RESULT: -7.129517903      1.032      1.123
REMARK  3 active torsions:
REMARK  status: ('A' for Active; 'I' for Inactive)
REMARK    1  A    between atoms: N1_4  and  C4_5 
REMARK    2  A    between atoms: N2_15  and  C14_16 
REMARK    3  A    between atoms: C14_16  and  C15_17 
ROOT
HETATM    1  C1  UNL     1      -3.438   2.950  25.739  1.00  0.00     0.017 C 
HETATM    2  C2  UNL     1      -3.047   2.271  24.697  1.00  0.00    -0.049 C 
HETATM    3  C3  UNL     1      -3.321   0.839  24.411  1.00  0.00     0.307 C 
HETATM    4  N1  UNL     1      -2.917   0.636  23.020  1.00  0.00     0.098 N 
HETATM    5  C10 UNL     1      -2.910   1.966  22.430  1.00  0.00     0.289 C 
HETATM    6  C11 UNL     1      -2.245   2.761  23.567  1.00  0.00     0.038 C 
HETATM    7  C12 UNL     1      -0.787   2.391  23.671  1.00  0.00     0.048 C 
HETATM    8  C13 UNL     1      -0.051   3.635  23.321  1.00  0.00     0.274 C 
HETATM    9  N2  UNL     1      -0.992   4.569  22.729  1.00  0.00     0.095 N 
HETATM   10  C19 UNL     1      -2.284   4.224  23.314  1.00  0.00     0.288 C 
ENDROOT
BRANCH   4  11
HETATM   11  C4  UNL     1      -3.851  -0.255  22.372  1.00  0.00     0.223 C 
HETATM   12  C5  UNL     1      -3.768  -0.209  20.880  1.00  0.00     0.036 C 
HETATM   13  C6  UNL     1      -2.522  -0.852  20.372  1.00  0.00     0.002 C 
HETATM   14  C7  UNL     1      -2.389  -2.283  20.849  1.00  0.00     0.000 C 
HETATM   15  C8  UNL     1      -2.530  -2.406  22.333  1.00  0.00     0.002 C 
HETATM   16  C9  UNL     1      -3.664  -1.636  22.920  1.00  0.00     0.036 C 
ENDBRANCH   4  11
BRANCH   9  17
HETATM   17  C14 UNL     1      -0.612   5.948  23.042  1.00  0.00     0.329 C 
BRANCH  17  18
HETATM   18  C15 UNL     1      -1.064   6.790  21.866  1.00  0.00     0.044 A 
HETATM   19  C16 UNL     1      -2.324   7.330  21.851  1.00  0.00     0.078 A 
HETATM   20  S1  UNL     1      -2.320   8.158  20.350  1.00  0.00    -0.087 SA
HETATM   21  C17 UNL     1      -0.736   7.766  19.848  1.00  0.00     0.047 A 
HETATM   22  C18 UNL     1      -0.000   8.152  18.587  1.00  0.00     0.076 C 
HETATM   23  N3  UNL     1      -0.295   7.025  20.853  1.00  0.00    -0.356 N 
ATOM     24  H3  UNL     1       0.649   6.640  20.829  1.00  0.00     0.166 HD
ENDBRANCH  17  18
ENDBRANCH   9  17
TORSDOF 3
ENDMDL
MODEL 4
REMARK VINA RESULT: -7.120892925      1.030      1.209
REMARK  3 active torsions:
REMARK  status: ('A' for Active; 'I' for Inactive)
REMARK    1  A    between atoms: N1_4  and  C4_5 
REMARK    2  A    between atoms: N2_15  and  C14_16 
REMARK    3  A    between atoms: C14_16  and  C15_17 
ROOT
HETATM    1  C1  UNL     1      -3.713   3.083  25.561  1.00  0.00     0.017 C 
HETATM    2  C2  UNL     1      -3.248   2.443  24.525  1.00  0.00    -0.049 C 
HETATM    3  C3  UNL     1      -3.426   1.001  24.212  1.00  0.00     0.307 C 
HETATM    4  N1  UNL     1      -2.964   0.843  22.833  1.00  0.00     0.098 N 
HETATM    5  C10 UNL     1      -3.018   2.179  22.260  1.00  0.00     0.289 C 
HETATM    6  C11 UNL     1      -2.441   2.996  23.428  1.00  0.00     0.038 C 
HETATM    7  C12 UNL     1      -0.967   2.713  23.577  1.00  0.00     0.048 C 
HETATM    8  C13 UNL     1      -0.295   4.003  23.267  1.00  0.00     0.274 C 
HETATM    9  N2  UNL     1      -1.271   4.888  22.655  1.00  0.00     0.095 N 
HETATM   10  C19 UNL     1      -2.558   4.458  23.192  1.00  0.00     0.288 C 
ENDROOT
BRANCH   4  11
HETATM   11  C4  UNL     1      -3.820  -0.094  22.143  1.00  0.00     0.223 C 
HETATM   12  C5  UNL     1      -3.527  -0.191  20.681  1.00  0.00     0.036 C 
HETATM   13  C6  UNL     1      -2.239  -0.896  20.418  1.00  0.00     0.002 C 
HETATM   14  C7  UNL     1      -2.213  -2.276  21.039  1.00  0.00     0.000 C 
HETATM   15  C8  UNL     1      -2.566  -2.256  22.492  1.00  0.00     0.002 C 
HETATM   16  C9  UNL     1      -3.750  -1.418  22.837  1.00  0.00     0.036 C 
ENDBRANCH   4  11
BRANCH   9  17
HETATM   17  C14 UNL     1      -0.985   6.282  22.997  1.00  0.00     0.329 C 
BRANCH  17  18
HETATM   18  C15 UNL     1      -0.088   6.814  21.898  1.00  0.00     0.044 A 
HETATM   19  C16 UNL     1       1.260   6.946  22.115  1.00  0.00     0.078 A 
HETATM   20  S1  UNL     1       1.786   7.567  20.606  1.00  0.00    -0.087 SA
HETATM   21  C17 UNL     1       0.276   7.616  19.811  1.00  0.00     0.047 A 
HETATM   22  C18 UNL     1      -0.062   8.064  18.409  1.00  0.00     0.076 C 
HETATM   23  N3  UNL     1      -0.549   7.155  20.739  1.00  0.00    -0.356 N 
ATOM     24  H3  UNL     1      -1.546   7.071  20.541  1.00  0.00     0.166 HD
ENDBRANCH  17  18
ENDBRANCH   9  17
TORSDOF 3
ENDMDL
MODEL 5
REMARK VINA RESULT: -7.100514464      0.998      1.087
REMARK  3 active torsions:
REMARK  status: ('A' for Active; 'I' for Inactive)
REMARK    1  A    between atoms: N1_4  and  C4_5 
REMARK    2  A    between atoms: N2_15  and  C14_16 
REMARK    3  A    between atoms: C14_16  and  C15_17 
ROOT
HETATM    1  C1  UNL     1      -2.943   4.216  24.873  1.00  0.00     0.017 C 
HETATM    2  C2  UNL     1      -2.662   3.404  23.894  1.00  0.00    -0.049 C 
HETATM    3  C3  UNL     1      -3.116   1.997  23.742  1.00  0.00     0.307 C 
HETATM    4  N1  UNL     1      -2.770   1.622  22.371  1.00  0.00     0.098 N 
HETATM    5  C10 UNL     1      -2.614   2.883  21.662  1.00  0.00     0.289 C 
HETATM    6  C11 UNL     1      -1.831   3.688  22.715  1.00  0.00     0.038 C 
HETATM    7  C12 UNL     1      -0.427   3.150  22.836  1.00  0.00     0.048 C 
HETATM    8  C13 UNL     1       0.449   4.256  22.366  1.00  0.00     0.274 C 
HETATM    9  N2  UNL     1      -0.383   5.243  21.702  1.00  0.00     0.095 N 
HETATM   10  C19 UNL     1      -1.695   5.115  22.330  1.00  0.00     0.288 C 
ENDROOT
BRANCH   4  11
HETATM   11  C4  UNL     1      -3.821   0.800  21.817  1.00  0.00     0.223 C 
HETATM   12  C5  UNL     1      -3.779   0.719  20.325  1.00  0.00     0.036 C 
HETATM   13  C6  UNL     1      -2.632  -0.104  19.845  1.00  0.00     0.002 C 
HETATM   14  C7  UNL     1      -2.652  -1.499  20.433  1.00  0.00     0.000 C 
HETATM   15  C8  UNL     1      -2.761  -1.488  21.924  1.00  0.00     0.002 C 
HETATM   16  C9  UNL     1      -3.780  -0.546  22.471  1.00  0.00     0.036 C 
ENDBRANCH   4  11
BRANCH   9  17
HETATM   17  C14 UNL     1       0.170   6.587  21.883  1.00  0.00     0.329 C 
BRANCH  17  18
HETATM   18  C15 UNL     1       0.567   7.072  20.504  1.00  0.00     0.044 A 
HETATM   19  C16 UNL     1      -0.305   7.830  19.765  1.00  0.00     0.078 A 
HETATM   20  S1  UNL     1       0.606   8.100  18.338  1.00  0.00    -0.087 SA
HETATM   21  C17 UNL     1       2.017   7.242  18.772  1.00  0.00     0.047 A 
HETATM   22  C18 UNL     1       3.294   7.030  17.994  1.00  0.00     0.076 C 
HETATM   23  N3  UNL     1       1.717   6.796  19.982  1.00  0.00    -0.356 N 
ATOM     24  H3  UNL     1       2.391   6.235  20.502  1.00  0.00     0.166 HD
ENDBRANCH  17  18
ENDBRANCH   9  17
TORSDOF 3
ENDMDL
