MODEL 1
REMARK VINA RESULT: -6.255629230      0.000      0.000
REMARK  4 active torsions:
REMARK  status: ('A' for Active; 'I' for Inactive)
REMARK    1  A    between atoms: C2_2  and  C3_3 
REMARK    2  A    between atoms: C4_5  and  S2_6 
REMARK    3  A    between atoms: C8_12  and  C9_13 
REMARK    4  A    between atoms: C9_13  and  N2_14 
ROOT
HETATM    1  C3  UNL     1      -2.445  -1.276  22.997  1.00  0.00     0.002 A 
HETATM    2  S1  UNL     1      -1.070  -1.471  23.942  1.00  0.00    -0.069 SA
HETATM    3  C4  UNL     1      -0.716  -0.071  24.929  1.00  0.00     0.116 A 
HETATM    4  N1  UNL     1      -1.596   0.907  24.759  1.00  0.00    -0.307 N 
HETATM    5  C6  UNL     1      -1.356   2.119  25.566  1.00  0.00     0.161 C 
HETATM    6  C7  UNL     1      -2.670   0.922  23.949  1.00  0.00     0.261 A 
HETATM    7  O1  UNL     1      -3.349   2.012  23.976  1.00  0.00    -0.267 OA
HETATM    8  C8  UNL     1      -3.128  -0.037  23.112  1.00  0.00     0.061 A 
ENDROOT
BRANCH   8   9
HETATM    9  C9  UNL     1      -4.287   0.065  22.218  1.00  0.00     0.108 C 
BRANCH   9  10
HETATM   10  N2  UNL     1      -4.235   0.552  20.936  1.00  0.00    -0.369 N 
HETATM   11  C10 UNL     1      -4.863  -0.081  19.862  1.00  0.00     0.063 C 
HETATM   12  C11 UNL     1      -5.094   0.734  18.634  1.00  0.00     0.044 C 
HETATM   13  C12 UNL     1      -3.894   1.090  17.843  1.00  0.00     0.005 C 
HETATM   14  C13 UNL     1      -2.683   0.255  18.058  1.00  0.00     0.000 C 
HETATM   15  C14 UNL     1      -1.935   0.498  19.312  1.00  0.00     0.002 C 
HETATM   16  C15 UNL     1      -2.276   1.753  20.040  1.00  0.00     0.020 C 
HETATM   17  C16 UNL     1      -3.593   1.796  20.699  1.00  0.00     0.127 C 
ENDBRANCH   9  10
ENDBRANCH   8   9
BRANCH   1  18
HETATM   18  C2  UNL     1      -2.954  -2.342  22.065  1.00  0.00     0.043 C 
HETATM   19  C1  UNL     1      -1.923  -2.455  20.959  1.00  0.00     0.010 C 
ENDBRANCH   1  18
BRANCH   3  20
HETATM   20  S2  UNL     1       0.585  -0.117  25.888  1.00  0.00    -0.109 SA
HETATM   21  C5  UNL     1       0.619  -0.230  27.676  1.00  0.00     0.097 C 
ENDBRANCH   3  20
TORSDOF 4
ENDMDL
MODEL 2
REMARK VINA RESULT: -6.241733894      3.623      5.420
REMARK  4 active torsions:
REMARK  status: ('A' for Active; 'I' for Inactive)
REMARK    1  A    between atoms: C2_2  and  C3_3 
REMARK    2  A    between atoms: C4_5  and  S2_6 
REMARK    3  A    between atoms: C8_12  and  C9_13 
REMARK    4  A    between atoms: C9_13  and  N2_14 
ROOT
HETATM    1  C3  UNL     1      -2.916   3.490  24.002  1.00  0.00     0.002 A 
HETATM    2  S1  UNL     1      -3.087   5.120  23.633  1.00  0.00    -0.069 SA
HETATM    3  C4  UNL     1      -2.136   5.610  22.250  1.00  0.00     0.116 A 
HETATM    4  N1  UNL     1      -1.441   4.608  21.730  1.00  0.00    -0.307 N 
HETATM    5  C6  UNL     1      -0.617   4.954  20.555  1.00  0.00     0.161 C 
HETATM    6  C7  UNL     1      -1.401   3.327  22.141  1.00  0.00     0.261 A 
HETATM    7  O1  UNL     1      -0.629   2.565  21.453  1.00  0.00    -0.267 OA
HETATM    8  C8  UNL     1      -2.047   2.735  23.171  1.00  0.00     0.061 A 
ENDROOT
BRANCH   8   9
HETATM    9  C9  UNL     1      -1.921   1.336  23.593  1.00  0.00     0.108 C 
BRANCH   9  10
HETATM   10  N2  UNL     1      -2.333   0.262  22.844  1.00  0.00    -0.369 N 
HETATM   11  C10 UNL     1      -1.455  -0.725  22.392  1.00  0.00     0.063 C 
HETATM   12  C11 UNL     1      -2.053  -2.023  21.968  1.00  0.00     0.044 C 
HETATM   13  C12 UNL     1      -2.834  -2.011  20.710  1.00  0.00     0.005 C 
HETATM   14  C13 UNL     1      -2.575  -0.883  19.777  1.00  0.00     0.000 C 
HETATM   15  C14 UNL     1      -3.155   0.425  20.156  1.00  0.00     0.002 C 
HETATM   16  C15 UNL     1      -4.191   0.393  21.226  1.00  0.00     0.020 C 
HETATM   17  C16 UNL     1      -3.720   0.093  22.590  1.00  0.00     0.127 C 
ENDBRANCH   9  10
ENDBRANCH   8   9
BRANCH   1  18
HETATM   18  C2  UNL     1      -3.635   2.832  25.148  1.00  0.00     0.043 C 
HETATM   19  C1  UNL     1      -3.087   3.475  26.407  1.00  0.00     0.010 C 
ENDBRANCH   1  18
BRANCH   3  20
HETATM   20  S2  UNL     1      -2.200   7.157  21.784  1.00  0.00    -0.109 SA
HETATM   21  C5  UNL     1      -3.372   7.909  20.656  1.00  0.00     0.097 C 
ENDBRANCH   3  20
TORSDOF 4
ENDMDL
MODEL 3
REMARK VINA RESULT: -6.224383906      1.938      2.814
REMARK  4 active torsions:
REMARK  status: ('A' for Active; 'I' for Inactive)
REMARK    1  A    between atoms: C2_2  and  C3_3 
REMARK    2  A    between atoms: C4_5  and  S2_6 
REMARK    3  A    between atoms: C8_12  and  C9_13 
REMARK    4  A    between atoms: C9_13  and  N2_14 
ROOT
HETATM    1  C3  UNL     1      -2.803  -0.091  21.789  1.00  0.00     0.002 A 
HETATM    2  S1  UNL     1      -1.487  -0.005  22.831  1.00  0.00    -0.069 SA
HETATM    3  C4  UNL     1      -0.947   1.633  23.115  1.00  0.00     0.116 A 
HETATM    4  N1  UNL     1      -1.670   2.529  22.457  1.00  0.00    -0.307 N 
HETATM    5  C6  UNL     1      -1.268   3.934  22.656  1.00  0.00     0.161 C 
HETATM    6  C7  UNL     1      -2.717   2.309  21.639  1.00  0.00     0.261 A 
HETATM    7  O1  UNL     1      -3.228   3.368  21.123  1.00  0.00    -0.267 OA
HETATM    8  C8  UNL     1      -3.297   1.140  21.284  1.00  0.00     0.061 A 
ENDROOT
BRANCH   8   9
HETATM    9  C9  UNL     1      -4.413   0.969  20.347  1.00  0.00     0.108 C 
BRANCH   9  10
HETATM   10  N2  UNL     1      -4.269   0.628  19.025  1.00  0.00    -0.369 N 
HETATM   11  C10 UNL     1      -3.250   1.141  18.220  1.00  0.00     0.063 C 
HETATM   12  C11 UNL     1      -2.939   0.401  16.964  1.00  0.00     0.044 C 
HETATM   13  C12 UNL     1      -3.953   0.474  15.887  1.00  0.00     0.005 C 
HETATM   14  C13 UNL     1      -4.920   1.600  15.958  1.00  0.00     0.000 C 
HETATM   15  C14 UNL     1      -5.994   1.478  16.969  1.00  0.00     0.002 C 
HETATM   16  C15 UNL     1      -6.184   0.121  17.556  1.00  0.00     0.020 C 
HETATM   17  C16 UNL     1      -5.131  -0.354  18.470  1.00  0.00     0.127 C 
ENDBRANCH   9  10
ENDBRANCH   8   9
BRANCH   1  18
HETATM   18  C2  UNL     1      -3.448  -1.390  21.392  1.00  0.00     0.043 C 
HETATM   19  C1  UNL     1      -2.359  -2.209  20.726  1.00  0.00     0.010 C 
ENDBRANCH   1  18
BRANCH   3  20
HETATM   20  S2  UNL     1       0.316   1.865  24.097  1.00  0.00    -0.109 SA
HETATM   21  C5  UNL     1       0.768   0.904  25.540  1.00  0.00     0.097 C 
ENDBRANCH   3  20
TORSDOF 4
ENDMDL
MODEL 4
REMARK VINA RESULT: -6.152040058      3.069      6.584
REMARK  4 active torsions:
REMARK  status: ('A' for Active; 'I' for Inactive)
REMARK    1  A    between atoms: C2_2  and  C3_3 
REMARK    2  A    between atoms: C4_5  and  S2_6 
REMARK    3  A    between atoms: C8_12  and  C9_13 
REMARK    4  A    between atoms: C9_13  and  N2_14 
ROOT
HETATM    1  C3  UNL     1      -2.733   1.207  19.863  1.00  0.00     0.002 A 
HETATM    2  S1  UNL     1      -2.610   1.174  18.188  1.00  0.00    -0.069 SA
HETATM    3  C4  UNL     1      -4.118   0.767  17.401  1.00  0.00     0.116 A 
HETATM    4  N1  UNL     1      -5.101   0.552  18.265  1.00  0.00    -0.307 N 
HETATM    5  C6  UNL     1      -6.404   0.206  17.666  1.00  0.00     0.161 C 
HETATM    6  C7  UNL     1      -5.051   0.615  19.609  1.00  0.00     0.261 A 
HETATM    7  O1  UNL     1      -6.158   0.349  20.202  1.00  0.00    -0.267 OA
HETATM    8  C8  UNL     1      -4.006   0.909  20.416  1.00  0.00     0.061 A 
ENDROOT
BRANCH   8   9
HETATM    9  C9  UNL     1      -4.010   0.915  21.883  1.00  0.00     0.108 C 
BRANCH   9  10
HETATM   10  N2  UNL     1      -3.442  -0.063  22.662  1.00  0.00    -0.369 N 
HETATM   11  C10 UNL     1      -2.725   0.221  23.826  1.00  0.00     0.063 C 
HETATM   12  C11 UNL     1      -2.526  -0.898  24.791  1.00  0.00     0.044 C 
HETATM   13  C12 UNL     1      -1.600  -1.975  24.371  1.00  0.00     0.005 C 
HETATM   14  C13 UNL     1      -0.633  -1.638  23.294  1.00  0.00     0.000 C 
HETATM   15  C14 UNL     1      -1.180  -1.567  21.921  1.00  0.00     0.002 C 
HETATM   16  C15 UNL     1      -2.535  -2.158  21.729  1.00  0.00     0.020 C 
HETATM   17  C16 UNL     1      -3.665  -1.424  22.326  1.00  0.00     0.127 C 
ENDBRANCH   9  10
ENDBRANCH   8   9
BRANCH   1  18
HETATM   18  C2  UNL     1      -1.571   1.533  20.761  1.00  0.00     0.043 C 
HETATM   19  C1  UNL     1      -1.212   2.978  20.470  1.00  0.00     0.010 C 
ENDBRANCH   1  18
BRANCH   3  20
HETATM   20  S2  UNL     1      -4.146   0.694  15.786  1.00  0.00    -0.109 SA
HETATM   21  C5  UNL     1      -4.820  -0.616  14.765  1.00  0.00     0.097 C 
ENDBRANCH   3  20
TORSDOF 4
ENDMDL
MODEL 5
REMARK VINA RESULT: -6.105618227      3.247      4.807
REMARK  4 active torsions:
REMARK  status: ('A' for Active; 'I' for Inactive)
REMARK    1  A    between atoms: C2_2  and  C3_3 
REMARK    2  A    between atoms: C4_5  and  S2_6 
REMARK    3  A    between atoms: C8_12  and  C9_13 
REMARK    4  A    between atoms: C9_13  and  N2_14 
ROOT
HETATM    1  C3  UNL     1      -1.514   2.949  24.602  1.00  0.00     0.002 A 
HETATM    2  S1  UNL     1      -0.537   4.295  24.839  1.00  0.00    -0.069 SA
HETATM    3  C4  UNL     1      -0.655   5.462  23.542  1.00  0.00     0.116 A 
HETATM    4  N1  UNL     1      -1.497   5.082  22.591  1.00  0.00    -0.307 N 
HETATM    5  C6  UNL     1      -1.645   6.025  21.465  1.00  0.00     0.161 C 
HETATM    6  C7  UNL     1      -2.225   3.951  22.533  1.00  0.00     0.261 A 
HETATM    7  O1  UNL     1      -2.956   3.834  21.483  1.00  0.00    -0.267 OA
HETATM    8  C8  UNL     1      -2.291   2.926  23.413  1.00  0.00     0.061 A 
ENDROOT
BRANCH   8   9
HETATM    9  C9  UNL     1      -3.076   1.696  23.264  1.00  0.00     0.108 C 
BRANCH   9  10
HETATM   10  N2  UNL     1      -2.794   0.703  22.360  1.00  0.00    -0.369 N 
HETATM   11  C10 UNL     1      -3.767   0.130  21.539  1.00  0.00     0.063 C 
HETATM   12  C11 UNL     1      -3.291  -0.610  20.336  1.00  0.00     0.044 C 
HETATM   13  C12 UNL     1      -2.607  -1.900  20.582  1.00  0.00     0.005 C 
HETATM   14  C13 UNL     1      -2.858  -2.546  21.897  1.00  0.00     0.000 C 
HETATM   15  C14 UNL     1      -2.166  -1.951  23.062  1.00  0.00     0.002 C 
HETATM   16  C15 UNL     1      -1.057  -1.005  22.747  1.00  0.00     0.020 C 
HETATM   17  C16 UNL     1      -1.444   0.299  22.182  1.00  0.00     0.127 C 
ENDBRANCH   9  10
ENDBRANCH   8   9
BRANCH   1  18
HETATM   18  C2  UNL     1      -1.587   1.809  25.580  1.00  0.00     0.043 C 
HETATM   19  C1  UNL     1      -0.186   1.234  25.653  1.00  0.00     0.010 C 
ENDBRANCH   1  18
BRANCH   3  20
HETATM   20  S2  UNL     1       0.236   6.808  23.637  1.00  0.00    -0.109 SA
HETATM   21  C5  UNL     1       1.717   7.203  22.709  1.00  0.00     0.097 C 
ENDBRANCH   3  20
TORSDOF 4
ENDMDL
