MODEL 1
REMARK VINA RESULT: -7.709230763      0.000      0.000
REMARK  6 active torsions:
REMARK  status: ('A' for Active; 'I' for Inactive)
REMARK    1  A    between atoms: C2_2  and  O1_4 
REMARK    2  A    between atoms: O1_4  and  C4_5 
REMARK       I    between atoms: C4_5  and  N1_7 
REMARK    3  A    between atoms: C5_9  and  O3_10 
REMARK    4  A    between atoms: O3_10  and  C6_11 
REMARK    5  A    between atoms: C6_11  and  C7_13 
REMARK    6  A    between atoms: C7_13  and  C8_14 
ROOT
HETATM    1  C7  UNL     1      -1.915  -1.804  23.066  1.00  0.00     0.121 C 
ENDROOT
BRANCH   1   2
HETATM    2  C6  UNL     1      -2.465  -2.241  21.764  1.00  0.00     0.265 C 
HETATM    3  O4  UNL     1      -3.384  -3.128  21.841  1.00  0.00    -0.265 OA
BRANCH   2   4
HETATM    4  O3  UNL     1      -2.113  -1.819  20.522  1.00  0.00    -0.274 OA
BRANCH   4   5
HETATM    5  C5  UNL     1      -2.784  -0.756  19.888  1.00  0.00     0.241 C 
HETATM    6  N1  UNL     1      -4.048  -0.683  20.075  1.00  0.00    -0.293 N 
HETATM    7  C4  UNL     1      -4.934   0.263  19.565  1.00  0.00     0.366 C 
ATOM      8  H1  UNL     1      -4.456  -1.405  20.669  1.00  0.00     0.172 HD
HETATM    9  O2  UNL     1      -6.016   0.532  20.132  1.00  0.00    -0.238 OA
BRANCH   7  10
HETATM   10  O1  UNL     1      -4.628   0.941  18.393  1.00  0.00    -0.299 OA
BRANCH  10  11
HETATM   11  C2  UNL     1      -4.818   0.372  17.113  1.00  0.00     0.125 C 
HETATM   12  C1  UNL     1      -6.260   0.123  16.797  1.00  0.00     0.040 C 
HETATM   13  C3  UNL     1      -4.194   1.170  16.013  1.00  0.00     0.040 C 
ENDBRANCH  10  11
ENDBRANCH   7  10
ENDBRANCH   4   5
ENDBRANCH   2   4
ENDBRANCH   1   2
BRANCH   1  14
HETATM   14  C8  UNL     1      -2.533  -0.552  23.614  1.00  0.00    -0.028 C 
HETATM   15  C9  UNL     1      -4.027  -0.785  23.665  1.00  0.00     0.016 C 
HETATM   16  C10 UNL     1      -2.110   0.605  22.784  1.00  0.00    -0.005 C 
HETATM   17  C11 UNL     1      -2.972   1.798  23.116  1.00  0.00     0.006 C 
HETATM   18  C17 UNL     1      -0.643   0.885  22.991  1.00  0.00     0.014 C 
HETATM   19  C12 UNL     1      -3.297   1.892  24.571  1.00  0.00     0.005 C 
HETATM   20  C13 UNL     1      -2.305   1.159  25.439  1.00  0.00    -0.009 C 
HETATM   21  C14 UNL     1      -0.966   1.863  25.253  1.00  0.00     0.014 C 
HETATM   22  C19 UNL     1      -2.119  -0.281  25.044  1.00  0.00    -0.001 C 
HETATM   23  C15 UNL     1      -0.198   0.836  24.409  1.00  0.00    -0.043 C 
HETATM   24  C16 UNL     1       1.283   1.050  24.466  1.00  0.00     0.015 C 
HETATM   25  C18 UNL     1      -0.623  -0.428  25.147  1.00  0.00     0.015 C 
ENDBRANCH   1  14
TORSDOF 6
ENDMDL
MODEL 2
REMARK VINA RESULT: -7.635119753      0.749      2.321
REMARK  6 active torsions:
REMARK  status: ('A' for Active; 'I' for Inactive)
REMARK    1  A    between atoms: C2_2  and  O1_4 
REMARK    2  A    between atoms: O1_4  and  C4_5 
REMARK       I    between atoms: C4_5  and  N1_7 
REMARK    3  A    between atoms: C5_9  and  O3_10 
REMARK    4  A    between atoms: O3_10  and  C6_11 
REMARK    5  A    between atoms: C6_11  and  C7_13 
REMARK    6  A    between atoms: C7_13  and  C8_14 
ROOT
HETATM    1  C7  UNL     1      -2.815  -1.110  23.037  1.00  0.00     0.121 C 
ENDROOT
BRANCH   1   2
HETATM    2  C6  UNL     1      -2.772  -1.825  21.743  1.00  0.00     0.265 C 
HETATM    3  O4  UNL     1      -3.159  -3.044  21.792  1.00  0.00    -0.265 OA
BRANCH   2   4
HETATM    4  O3  UNL     1      -2.379  -1.347  20.535  1.00  0.00    -0.274 OA
BRANCH   4   5
HETATM    5  C5  UNL     1      -3.133  -0.380  19.843  1.00  0.00     0.241 C 
HETATM    6  N1  UNL     1      -4.407  -0.478  19.929  1.00  0.00    -0.293 N 
HETATM    7  C4  UNL     1      -5.368   0.344  19.345  1.00  0.00     0.366 C 
ATOM      8  H1  UNL     1      -4.761  -1.251  20.492  1.00  0.00     0.172 HD
HETATM    9  O2  UNL     1      -6.517   0.463  19.822  1.00  0.00    -0.238 OA
BRANCH   7  10
HETATM   10  O1  UNL     1      -5.063   1.064  18.197  1.00  0.00    -0.299 OA
BRANCH  10  11
HETATM   11  C2  UNL     1      -4.994   0.464  16.919  1.00  0.00     0.125 C 
HETATM   12  C1  UNL     1      -6.288  -0.162  16.501  1.00  0.00     0.040 C 
HETATM   13  C3  UNL     1      -4.520   1.399  15.852  1.00  0.00     0.040 C 
ENDBRANCH  10  11
ENDBRANCH   7  10
ENDBRANCH   4   5
ENDBRANCH   2   4
ENDBRANCH   1   2
BRANCH   1  14
HETATM   14  C8  UNL     1      -1.531  -0.436  23.419  1.00  0.00    -0.028 C 
HETATM   15  C9  UNL     1      -0.408  -1.262  22.829  1.00  0.00     0.016 C 
HETATM   16  C10 UNL     1      -1.481  -0.281  24.896  1.00  0.00    -0.005 C 
HETATM   17  C11 UNL     1      -0.077   0.085  25.311  1.00  0.00     0.006 C 
HETATM   18  C17 UNL     1      -2.494   0.740  25.345  1.00  0.00     0.014 C 
HETATM   19  C12 UNL     1       0.587   1.020  24.353  1.00  0.00     0.005 C 
HETATM   20  C13 UNL     1      -0.400   1.804  23.525  1.00  0.00    -0.009 C 
HETATM   21  C14 UNL     1      -1.183   2.675  24.500  1.00  0.00     0.014 C 
HETATM   22  C19 UNL     1      -1.390   0.936  22.797  1.00  0.00    -0.001 C 
HETATM   23  C15 UNL     1      -2.547   1.970  24.510  1.00  0.00    -0.043 C 
HETATM   24  C16 UNL     1      -3.641   2.859  25.013  1.00  0.00     0.015 C 
HETATM   25  C18 UNL     1      -2.672   1.696  23.015  1.00  0.00     0.015 C 
ENDBRANCH   1  14
TORSDOF 6
ENDMDL
MODEL 3
REMARK VINA RESULT: -7.460171085      1.763      2.761
REMARK  6 active torsions:
REMARK  status: ('A' for Active; 'I' for Inactive)
REMARK    1  A    between atoms: C2_2  and  O1_4 
REMARK    2  A    between atoms: O1_4  and  C4_5 
REMARK       I    between atoms: C4_5  and  N1_7 
REMARK    3  A    between atoms: C5_9  and  O3_10 
REMARK    4  A    between atoms: O3_10  and  C6_11 
REMARK    5  A    between atoms: C6_11  and  C7_13 
REMARK    6  A    between atoms: C7_13  and  C8_14 
ROOT
HETATM    1  C7  UNL     1      -1.416   1.517  22.028  1.00  0.00     0.121 C 
ENDROOT
BRANCH   1   2
HETATM    2  C6  UNL     1      -2.197   2.041  20.887  1.00  0.00     0.265 C 
HETATM    3  O4  UNL     1      -3.177   2.797  21.209  1.00  0.00    -0.265 OA
BRANCH   2   4
HETATM    4  O3  UNL     1      -1.998   1.816  19.562  1.00  0.00    -0.274 OA
BRANCH   4   5
HETATM    5  C5  UNL     1      -3.033   1.348  18.731  1.00  0.00     0.241 C 
HETATM    6  N1  UNL     1      -4.104   0.956  19.314  1.00  0.00    -0.293 N 
HETATM    7  C4  UNL     1      -5.262   0.453  18.725  1.00  0.00     0.366 C 
ATOM      8  H1  UNL     1      -4.109   1.018  20.332  1.00  0.00     0.172 HD
HETATM    9  O2  UNL     1      -6.376   0.523  19.289  1.00  0.00    -0.238 OA
BRANCH   7  10
HETATM   10  O1  UNL     1      -5.203  -0.147  17.475  1.00  0.00    -0.299 OA
BRANCH  10  11
HETATM   11  C2  UNL     1      -5.765   0.442  16.320  1.00  0.00     0.125 C 
HETATM   12  C1  UNL     1      -5.002   1.641  15.850  1.00  0.00     0.040 C 
HETATM   13  C3  UNL     1      -5.935  -0.520  15.188  1.00  0.00     0.040 C 
ENDBRANCH  10  11
ENDBRANCH   7  10
ENDBRANCH   4   5
ENDBRANCH   2   4
ENDBRANCH   1   2
BRANCH   1  14
HETATM   14  C8  UNL     1      -1.974   0.269  22.644  1.00  0.00    -0.028 C 
HETATM   15  C9  UNL     1      -2.146  -0.735  21.525  1.00  0.00     0.016 C 
HETATM   16  C10 UNL     1      -3.222   0.603  23.380  1.00  0.00    -0.005 C 
HETATM   17  C11 UNL     1      -3.957  -0.671  23.717  1.00  0.00     0.006 C 
HETATM   18  C17 UNL     1      -2.899   1.418  24.606  1.00  0.00     0.014 C 
HETATM   19  C12 UNL     1      -3.040  -1.788  24.096  1.00  0.00     0.005 C 
HETATM   20  C13 UNL     1      -1.699  -1.300  24.586  1.00  0.00    -0.009 C 
HETATM   21  C14 UNL     1      -1.967  -0.513  25.863  1.00  0.00     0.014 C 
HETATM   22  C19 UNL     1      -1.013  -0.375  23.618  1.00  0.00    -0.001 C 
HETATM   23  C15 UNL     1      -1.732   0.928  25.386  1.00  0.00    -0.043 C 
HETATM   24  C16 UNL     1      -1.474   1.866  26.524  1.00  0.00     0.015 C 
HETATM   25  C18 UNL     1      -0.483   0.688  24.545  1.00  0.00     0.015 C 
ENDBRANCH   1  14
TORSDOF 6
ENDMDL
MODEL 4
REMARK VINA RESULT: -7.382802003      1.580      2.583
REMARK  6 active torsions:
REMARK  status: ('A' for Active; 'I' for Inactive)
REMARK    1  A    between atoms: C2_2  and  O1_4 
REMARK    2  A    between atoms: O1_4  and  C4_5 
REMARK       I    between atoms: C4_5  and  N1_7 
REMARK    3  A    between atoms: C5_9  and  O3_10 
REMARK    4  A    between atoms: O3_10  and  C6_11 
REMARK    5  A    between atoms: C6_11  and  C7_13 
REMARK    6  A    between atoms: C7_13  and  C8_14 
ROOT
HETATM    1  C7  UNL     1      -1.186   1.056  22.534  1.00  0.00     0.121 C 
ENDROOT
BRANCH   1   2
HETATM    2  C6  UNL     1      -2.379   0.832  21.688  1.00  0.00     0.265 C 
HETATM    3  O4  UNL     1      -3.483   1.221  22.205  1.00  0.00    -0.265 OA
BRANCH   2   4
HETATM    4  O3  UNL     1      -2.436   0.272  20.452  1.00  0.00    -0.274 OA
BRANCH   4   5
HETATM    5  C5  UNL     1      -3.354   0.720  19.483  1.00  0.00     0.241 C 
HETATM    6  N1  UNL     1      -4.503   0.154  19.476  1.00  0.00    -0.293 N 
HETATM    7  C4  UNL     1      -5.577   0.412  18.627  1.00  0.00     0.366 C 
ATOM      8  H1  UNL     1      -4.649  -0.573  20.176  1.00  0.00     0.172 HD
HETATM    9  O2  UNL     1      -6.757   0.165  18.958  1.00  0.00    -0.238 OA
BRANCH   7  10
HETATM   10  O1  UNL     1      -5.355   0.960  17.371  1.00  0.00    -0.299 OA
BRANCH  10  11
HETATM   11  C2  UNL     1      -4.771   0.226  16.313  1.00  0.00     0.125 C 
HETATM   12  C1  UNL     1      -5.788  -0.344  15.374  1.00  0.00     0.040 C 
HETATM   13  C3  UNL     1      -3.757   1.007  15.541  1.00  0.00     0.040 C 
ENDBRANCH  10  11
ENDBRANCH   7  10
ENDBRANCH   4   5
ENDBRANCH   2   4
ENDBRANCH   1   2
BRANCH   1  14
HETATM   14  C8  UNL     1      -0.905  -0.040  23.518  1.00  0.00    -0.028 C 
HETATM   15  C9  UNL     1      -1.039  -1.349  22.769  1.00  0.00     0.016 C 
HETATM   16  C10 UNL     1      -1.814   0.106  24.685  1.00  0.00    -0.005 C 
HETATM   17  C11 UNL     1      -1.772  -1.157  25.509  1.00  0.00     0.006 C 
HETATM   18  C17 UNL     1      -1.437   1.325  25.486  1.00  0.00     0.014 C 
HETATM   19  C12 UNL     1      -0.404  -1.753  25.589  1.00  0.00     0.005 C 
HETATM   20  C13 UNL     1       0.687  -0.746  25.328  1.00  0.00    -0.009 C 
HETATM   21  C14 UNL     1       0.603   0.282  26.449  1.00  0.00     0.014 C 
HETATM   22  C19 UNL     1       0.519  -0.011  24.026  1.00  0.00    -0.001 C 
HETATM   23  C15 UNL     1       0.024   1.495  25.707  1.00  0.00    -0.043 C 
HETATM   24  C16 UNL     1       0.263   2.776  26.442  1.00  0.00     0.015 C 
HETATM   25  C18 UNL     1       0.856   1.399  24.433  1.00  0.00     0.015 C 
ENDBRANCH   1  14
TORSDOF 6
ENDMDL
MODEL 5
REMARK VINA RESULT: -7.326588909      3.926      5.604
REMARK  6 active torsions:
REMARK  status: ('A' for Active; 'I' for Inactive)
REMARK    1  A    between atoms: C2_2  and  O1_4 
REMARK    2  A    between atoms: O1_4  and  C4_5 
REMARK       I    between atoms: C4_5  and  N1_7 
REMARK    3  A    between atoms: C5_9  and  O3_10 
REMARK    4  A    between atoms: O3_10  and  C6_11 
REMARK    5  A    between atoms: C6_11  and  C7_13 
REMARK    6  A    between atoms: C7_13  and  C8_14 
ROOT
HETATM    1  C7  UNL     1      -3.447   1.458  24.025  1.00  0.00     0.121 C 
ENDROOT
BRANCH   1   2
HETATM    2  C6  UNL     1      -3.111   2.718  24.722  1.00  0.00     0.265 C 
HETATM    3  O4  UNL     1      -3.997   3.125  25.552  1.00  0.00    -0.265 OA
BRANCH   2   4
HETATM    4  O3  UNL     1      -1.995   3.479  24.585  1.00  0.00    -0.274 OA
BRANCH   4   5
HETATM    5  C5  UNL     1      -1.854   4.398  23.527  1.00  0.00     0.241 C 
HETATM    6  N1  UNL     1      -2.935   4.881  23.040  1.00  0.00    -0.293 N 
HETATM    7  C4  UNL     1      -3.067   5.799  22.001  1.00  0.00     0.366 C 
ATOM      8  H1  UNL     1      -3.803   4.556  23.464  1.00  0.00     0.172 HD
HETATM    9  O2  UNL     1      -4.070   6.539  21.893  1.00  0.00    -0.238 OA
BRANCH   7  10
HETATM   10  O1  UNL     1      -2.069   5.914  21.043  1.00  0.00    -0.299 OA
BRANCH  10  11
HETATM   11  C2  UNL     1      -1.235   7.051  20.945  1.00  0.00     0.125 C 
HETATM   12  C1  UNL     1       0.173   6.775  21.374  1.00  0.00     0.040 C 
HETATM   13  C3  UNL     1      -1.233   7.668  19.584  1.00  0.00     0.040 C 
ENDBRANCH  10  11
ENDBRANCH   7  10
ENDBRANCH   4   5
ENDBRANCH   2   4
ENDBRANCH   1   2
BRANCH   1  14
HETATM   14  C8  UNL     1      -2.388   0.399  24.107  1.00  0.00    -0.028 C 
HETATM   15  C9  UNL     1      -1.993   0.285  25.563  1.00  0.00     0.016 C 
HETATM   16  C10 UNL     1      -1.276   0.747  23.184  1.00  0.00    -0.005 C 
HETATM   17  C11 UNL     1      -0.080  -0.117  23.497  1.00  0.00     0.006 C 
HETATM   18  C17 UNL     1      -1.726   0.604  21.753  1.00  0.00     0.014 C 
HETATM   19  C12 UNL     1      -0.455  -1.517  23.859  1.00  0.00     0.005 C 
HETATM   20  C13 UNL     1      -1.807  -1.916  23.325  1.00  0.00    -0.009 C 
HETATM   21  C14 UNL     1      -1.698  -1.880  21.806  1.00  0.00     0.014 C 
HETATM   22  C19 UNL     1      -2.907  -0.969  23.722  1.00  0.00    -0.001 C 
HETATM   23  C15 UNL     1      -2.515  -0.625  21.471  1.00  0.00    -0.043 C 
HETATM   24  C16 UNL     1      -2.963  -0.603  20.043  1.00  0.00     0.015 C 
HETATM   25  C18 UNL     1      -3.677  -0.846  22.434  1.00  0.00     0.015 C 
ENDBRANCH   1  14
TORSDOF 6
ENDMDL
