MODEL 1
REMARK VINA RESULT: -7.848383460      0.000      0.000
REMARK  4 active torsions:
REMARK  status: ('A' for Active; 'I' for Inactive)
REMARK    1  A    between atoms: C2_2  and  C3_3 
REMARK    2  A    between atoms: C3_3  and  C5_5 
REMARK    3  A    between atoms: C5_5  and  O2_7 
REMARK    4  A    between atoms: O2_7  and  C6_8 
ROOT
HETATM    1  C6  UNL     1      -2.941   2.034  19.860  1.00  0.00     0.169 C 
HETATM    2  C7  UNL     1      -3.180   3.221  20.809  1.00  0.00     0.044 C 
HETATM    3  C8  UNL     1      -2.084   3.774  21.577  1.00  0.00    -0.042 C 
HETATM    4  C9  UNL     1      -2.232   5.318  21.414  1.00  0.00     0.015 C 
HETATM    5  C10 UNL     1      -0.685   3.558  20.978  1.00  0.00     0.015 C 
HETATM    6  C11 UNL     1      -1.969   3.521  23.066  1.00  0.00     0.036 C 
HETATM    7  C12 UNL     1      -3.099   3.033  23.817  1.00  0.00    -0.026 C 
HETATM    8  C13 UNL     1      -3.519   1.693  24.064  1.00  0.00     0.003 C 
HETATM    9  C14 UNL     1      -3.345   0.473  23.630  1.00  0.00    -0.030 C 
HETATM   10  C15 UNL     1      -4.059  -0.717  24.256  1.00  0.00     0.048 C 
HETATM   11  C16 UNL     1      -2.489  -0.009  22.512  1.00  0.00     0.291 C 
HETATM   12  O3  UNL     1      -3.032  -1.004  21.704  1.00  0.00    -0.354 OA
HETATM   13  C17 UNL     1      -2.859  -0.532  20.350  1.00  0.00     0.211 C 
HETATM   14  C18 UNL     1      -3.373   0.847  20.642  1.00  0.00     0.108 C 
HETATM   15  C19 UNL     1      -4.797   0.701  20.898  1.00  0.00     0.051 C 
HETATM   16  O4  UNL     1      -2.478   1.012  21.666  1.00  0.00    -0.342 OA
ENDROOT
BRANCH   1  17
HETATM   17  O2  UNL     1      -3.772   2.096  18.716  1.00  0.00    -0.312 OA
BRANCH  17  18
HETATM   18  C5  UNL     1      -3.518   1.438  17.545  1.00  0.00     0.263 C 
HETATM   19  O1  UNL     1      -2.364   1.486  17.063  1.00  0.00    -0.265 OA
BRANCH  18  20
HETATM   20  C3  UNL     1      -4.574   0.658  16.817  1.00  0.00     0.081 C 
HETATM   21  C4  UNL     1      -5.934   0.889  17.411  1.00  0.00     0.020 C 
BRANCH  20  22
HETATM   22  C2  UNL     1      -4.595   1.026  15.350  1.00  0.00     0.010 C 
HETATM   23  C1  UNL     1      -4.263  -0.246  14.580  1.00  0.00     0.006 C 
ENDBRANCH  20  22
ENDBRANCH  18  20
ENDBRANCH  17  18
ENDBRANCH   1  17
TORSDOF 4
ENDMDL
MODEL 2
REMARK VINA RESULT: -7.565824042      2.107      4.236
REMARK  4 active torsions:
REMARK  status: ('A' for Active; 'I' for Inactive)
REMARK    1  A    between atoms: C2_2  and  C3_3 
REMARK    2  A    between atoms: C3_3  and  C5_5 
REMARK    3  A    between atoms: C5_5  and  O2_7 
REMARK    4  A    between atoms: O2_7  and  C6_8 
ROOT
HETATM    1  C6  UNL     1      -3.335   1.295  22.144  1.00  0.00     0.169 C 
HETATM    2  C7  UNL     1      -2.585  -0.018  21.861  1.00  0.00     0.044 C 
HETATM    3  C8  UNL     1      -2.751  -1.159  22.737  1.00  0.00    -0.042 C 
HETATM    4  C9  UNL     1      -2.949  -2.368  21.773  1.00  0.00     0.015 C 
HETATM    5  C10 UNL     1      -4.074  -1.201  23.520  1.00  0.00     0.015 C 
HETATM    6  C11 UNL     1      -1.657  -1.569  23.700  1.00  0.00     0.036 C 
HETATM    7  C12 UNL     1      -0.313  -1.073  23.538  1.00  0.00    -0.026 C 
HETATM    8  C13 UNL     1       0.287   0.117  24.046  1.00  0.00     0.003 C 
HETATM    9  C14 UNL     1      -0.024   1.276  24.562  1.00  0.00    -0.030 C 
HETATM   10  C15 UNL     1       1.037   2.285  24.982  1.00  0.00     0.048 C 
HETATM   11  C16 UNL     1      -1.370   1.846  24.837  1.00  0.00     0.291 C 
HETATM   12  O3  UNL     1      -1.538   3.199  24.549  1.00  0.00    -0.354 OA
HETATM   13  C17 UNL     1      -2.735   3.272  23.744  1.00  0.00     0.211 C 
HETATM   14  C18 UNL     1      -2.334   2.146  22.838  1.00  0.00     0.108 C 
HETATM   15  C19 UNL     1      -1.220   2.642  22.047  1.00  0.00     0.051 C 
HETATM   16  O4  UNL     1      -2.136   1.303  23.900  1.00  0.00    -0.342 OA
ENDROOT
BRANCH   1  17
HETATM   17  O2  UNL     1      -3.691   1.969  20.953  1.00  0.00    -0.312 OA
BRANCH  17  18
HETATM   18  C5  UNL     1      -4.470   1.430  19.966  1.00  0.00     0.263 C 
HETATM   19  O1  UNL     1      -5.558   0.898  20.280  1.00  0.00    -0.265 OA
BRANCH  18  20
HETATM   20  C3  UNL     1      -4.066   1.455  18.521  1.00  0.00     0.081 C 
HETATM   21  C4  UNL     1      -2.900   0.545  18.262  1.00  0.00     0.020 C 
BRANCH  20  22
HETATM   22  C2  UNL     1      -5.225   1.054  17.635  1.00  0.00     0.010 C 
HETATM   23  C1  UNL     1      -4.791   1.332  16.202  1.00  0.00     0.006 C 
ENDBRANCH  20  22
ENDBRANCH  18  20
ENDBRANCH  17  18
ENDBRANCH   1  17
TORSDOF 4
ENDMDL
MODEL 3
REMARK VINA RESULT: -7.531042977      2.099      4.102
REMARK  4 active torsions:
REMARK  status: ('A' for Active; 'I' for Inactive)
REMARK    1  A    between atoms: C2_2  and  C3_3 
REMARK    2  A    between atoms: C3_3  and  C5_5 
REMARK    3  A    between atoms: C5_5  and  O2_7 
REMARK    4  A    between atoms: O2_7  and  C6_8 
ROOT
HETATM    1  C6  UNL     1      -3.247   1.258  22.170  1.00  0.00     0.169 C 
HETATM    2  C7  UNL     1      -2.168   0.272  21.690  1.00  0.00     0.044 C 
HETATM    3  C8  UNL     1      -2.146  -1.088  22.189  1.00  0.00    -0.042 C 
HETATM    4  C9  UNL     1      -1.928  -1.968  20.920  1.00  0.00     0.015 C 
HETATM    5  C10 UNL     1      -3.498  -1.631  22.681  1.00  0.00     0.015 C 
HETATM    6  C11 UNL     1      -1.102  -1.534  23.191  1.00  0.00     0.036 C 
HETATM    7  C12 UNL     1       0.088  -0.749  23.410  1.00  0.00    -0.026 C 
HETATM    8  C13 UNL     1       0.314   0.330  24.313  1.00  0.00     0.003 C 
HETATM    9  C14 UNL     1      -0.332   1.193  25.053  1.00  0.00    -0.030 C 
HETATM   10  C15 UNL     1       0.392   2.225  25.908  1.00  0.00     0.048 C 
HETATM   11  C16 UNL     1      -1.799   1.369  25.221  1.00  0.00     0.291 C 
HETATM   12  O3  UNL     1      -2.262   2.681  25.275  1.00  0.00    -0.354 OA
HETATM   13  C17 UNL     1      -3.340   2.746  24.316  1.00  0.00     0.211 C 
HETATM   14  C18 UNL     1      -2.573   2.048  23.233  1.00  0.00     0.108 C 
HETATM   15  C19 UNL     1      -1.532   2.974  22.815  1.00  0.00     0.051 C 
HETATM   16  O4  UNL     1      -2.295   0.985  24.052  1.00  0.00    -0.342 OA
ENDROOT
BRANCH   1  17
HETATM   17  O2  UNL     1      -3.620   2.170  21.155  1.00  0.00    -0.312 OA
BRANCH  17  18
HETATM   18  C5  UNL     1      -3.680   1.858  19.825  1.00  0.00     0.263 C 
HETATM   19  O1  UNL     1      -2.920   2.455  19.030  1.00  0.00    -0.265 OA
BRANCH  18  20
HETATM   20  C3  UNL     1      -4.625   0.824  19.285  1.00  0.00     0.081 C 
HETATM   21  C4  UNL     1      -5.979   0.931  19.925  1.00  0.00     0.020 C 
BRANCH  20  22
HETATM   22  C2  UNL     1      -4.763   0.957  17.785  1.00  0.00     0.010 C 
HETATM   23  C1  UNL     1      -6.203   0.589  17.448  1.00  0.00     0.006 C 
ENDBRANCH  20  22
ENDBRANCH  18  20
ENDBRANCH  17  18
ENDBRANCH   1  17
TORSDOF 4
ENDMDL
MODEL 4
REMARK VINA RESULT: -7.483100588      1.698      2.197
REMARK  4 active torsions:
REMARK  status: ('A' for Active; 'I' for Inactive)
REMARK    1  A    between atoms: C2_2  and  C3_3 
REMARK    2  A    between atoms: C3_3  and  C5_5 
REMARK    3  A    between atoms: C5_5  and  O2_7 
REMARK    4  A    between atoms: O2_7  and  C6_8 
ROOT
HETATM    1  C6  UNL     1      -3.423   0.955  20.903  1.00  0.00     0.169 C 
HETATM    2  C7  UNL     1      -3.158   2.200  21.766  1.00  0.00     0.044 C 
HETATM    3  C8  UNL     1      -1.959   2.987  21.565  1.00  0.00    -0.042 C 
HETATM    4  C9  UNL     1      -2.455   4.465  21.567  1.00  0.00     0.015 C 
HETATM    5  C10 UNL     1      -1.339   2.897  20.161  1.00  0.00     0.015 C 
HETATM    6  C11 UNL     1      -0.814   2.930  22.555  1.00  0.00     0.036 C 
HETATM    7  C12 UNL     1      -1.012   2.383  23.875  1.00  0.00    -0.026 C 
HETATM    8  C13 UNL     1      -0.897   1.037  24.330  1.00  0.00     0.003 C 
HETATM    9  C14 UNL     1      -0.849  -0.190  23.883  1.00  0.00    -0.030 C 
HETATM   10  C15 UNL     1      -0.710  -1.385  24.817  1.00  0.00     0.048 C 
HETATM   11  C16 UNL     1      -0.920  -0.678  22.479  1.00  0.00     0.291 C 
HETATM   12  O3  UNL     1      -1.675  -1.827  22.262  1.00  0.00    -0.354 OA
HETATM   13  C17 UNL     1      -2.564  -1.499  21.172  1.00  0.00     0.211 C 
HETATM   14  C18 UNL     1      -2.978  -0.180  21.754  1.00  0.00     0.108 C 
HETATM   15  C19 UNL     1      -3.783  -0.490  22.924  1.00  0.00     0.051 C 
HETATM   16  O4  UNL     1      -1.675   0.227  21.872  1.00  0.00    -0.342 OA
ENDROOT
BRANCH   1  17
HETATM   17  O2  UNL     1      -4.803   0.765  20.656  1.00  0.00    -0.312 OA
BRANCH  17  18
HETATM   18  C5  UNL     1      -5.369   0.773  19.411  1.00  0.00     0.263 C 
HETATM   19  O1  UNL     1      -6.527   0.318  19.272  1.00  0.00    -0.265 OA
BRANCH  18  20
HETATM   20  C3  UNL     1      -4.652   1.308  18.206  1.00  0.00     0.081 C 
HETATM   21  C4  UNL     1      -3.425   0.500  17.895  1.00  0.00     0.020 C 
BRANCH  20  22
HETATM   22  C2  UNL     1      -5.567   1.320  17.001  1.00  0.00     0.010 C 
HETATM   23  C1  UNL     1      -4.785   0.688  15.857  1.00  0.00     0.006 C 
ENDBRANCH  20  22
ENDBRANCH  18  20
ENDBRANCH  17  18
ENDBRANCH   1  17
TORSDOF 4
ENDMDL
MODEL 5
REMARK VINA RESULT: -7.481567520      2.351      4.786
REMARK  4 active torsions:
REMARK  status: ('A' for Active; 'I' for Inactive)
REMARK    1  A    between atoms: C2_2  and  C3_3 
REMARK    2  A    between atoms: C3_3  and  C5_5 
REMARK    3  A    between atoms: C5_5  and  O2_7 
REMARK    4  A    between atoms: O2_7  and  C6_8 
ROOT
HETATM    1  C6  UNL     1      -2.605   2.272  22.223  1.00  0.00     0.169 C 
HETATM    2  C7  UNL     1      -2.146   1.328  21.098  1.00  0.00     0.044 C 
HETATM    3  C8  UNL     1      -3.022   0.276  20.624  1.00  0.00    -0.042 C 
HETATM    4  C9  UNL     1      -2.928   0.360  19.070  1.00  0.00     0.015 C 
HETATM    5  C10 UNL     1      -4.524   0.526  20.832  1.00  0.00     0.015 C 
HETATM    6  C11 UNL     1      -2.763  -1.173  20.980  1.00  0.00     0.036 C 
HETATM    7  C12 UNL     1      -1.479  -1.585  21.491  1.00  0.00    -0.026 C 
HETATM    8  C13 UNL     1      -1.003  -1.625  22.834  1.00  0.00     0.003 C 
HETATM    9  C14 UNL     1      -1.272  -1.161  24.025  1.00  0.00    -0.030 C 
HETATM   10  C15 UNL     1      -0.417  -1.505  25.238  1.00  0.00     0.048 C 
HETATM   11  C16 UNL     1      -2.375  -0.257  24.451  1.00  0.00     0.291 C 
HETATM   12  O3  UNL     1      -2.043   0.729  25.376  1.00  0.00    -0.354 OA
HETATM   13  C17 UNL     1      -2.548   1.962  24.817  1.00  0.00     0.211 C 
HETATM   14  C18 UNL     1      -1.986   1.707  23.450  1.00  0.00     0.108 C 
HETATM   15  C19 UNL     1      -0.542   1.821  23.579  1.00  0.00     0.051 C 
HETATM   16  O4  UNL     1      -2.602   0.485  23.375  1.00  0.00    -0.342 OA
ENDROOT
BRANCH   1  17
HETATM   17  O2  UNL     1      -2.084   3.578  22.064  1.00  0.00    -0.312 OA
BRANCH  17  18
HETATM   18  C5  UNL     1      -2.191   4.314  20.917  1.00  0.00     0.263 C 
HETATM   19  O1  UNL     1      -3.321   4.470  20.402  1.00  0.00    -0.265 OA
BRANCH  18  20
HETATM   20  C3  UNL     1      -1.000   4.945  20.254  1.00  0.00     0.081 C 
HETATM   21  C4  UNL     1      -0.273   5.864  21.193  1.00  0.00     0.020 C 
BRANCH  20  22
HETATM   22  C2  UNL     1      -0.048   3.885  19.746  1.00  0.00     0.010 C 
HETATM   23  C1  UNL     1      -0.572   3.451  18.383  1.00  0.00     0.006 C 
ENDBRANCH  20  22
ENDBRANCH  18  20
ENDBRANCH  17  18
ENDBRANCH   1  17
TORSDOF 4
ENDMDL
