MODEL 1
REMARK VINA RESULT: -7.663955613      0.000      0.000
REMARK  2 active torsions:
REMARK  status: ('A' for Active; 'I' for Inactive)
REMARK    1  A    between atoms: C2_2  and  C3_3 
REMARK    2  A    between atoms: C7_9  and  O2_10 
ROOT
HETATM    1  C3  UNL     1      -3.470   1.162  20.605  1.00  0.00     0.022 C 
HETATM    2  C4  UNL     1      -3.531   2.453  19.778  1.00  0.00     0.090 C 
HETATM    3  S1  UNL     1      -1.774   2.818  19.381  1.00  0.00    -0.104 SA
HETATM    4  C5  UNL     1      -1.078   3.310  20.985  1.00  0.00     0.121 A 
HETATM    5  O1  UNL     1       0.063   3.919  21.105  1.00  0.00    -0.312 OA
HETATM    6  C6  UNL     1       0.369   4.181  22.340  1.00  0.00     0.180 A 
HETATM    7  C7  UNL     1      -0.668   3.702  23.123  1.00  0.00     0.100 A 
HETATM    8  C9  UNL     1      -1.608   3.136  22.260  1.00  0.00     0.022 A 
HETATM    9  C10 UNL     1      -2.851   2.531  22.686  1.00  0.00     0.030 C 
HETATM   10  C11 UNL     1      -2.773   2.280  24.184  1.00  0.00     0.011 C 
HETATM   11  C12 UNL     1      -3.762   1.204  24.637  1.00  0.00     0.018 C 
HETATM   12  C13 UNL     1      -3.299  -0.143  24.102  1.00  0.00     0.021 C 
HETATM   13  C14 UNL     1      -4.362  -1.158  24.391  1.00  0.00     0.024 C 
HETATM   14  C15 UNL     1      -2.047  -0.588  24.781  1.00  0.00     0.135 C 
HETATM   15  O3  UNL     1      -1.807  -0.588  25.954  1.00  0.00    -0.297 OA
HETATM   16  C16 UNL     1      -1.075  -1.060  23.735  1.00  0.00     0.079 C 
HETATM   17  C17 UNL     1      -1.487  -0.260  22.487  1.00  0.00     0.013 C 
HETATM   18  C18 UNL     1      -2.950   0.019  22.661  1.00  0.00     0.007 C 
HETATM   19  C19 UNL     1      -3.418   1.339  22.056  1.00  0.00     0.008 C 
ENDROOT
BRANCH   1  20
HETATM   20  C2  UNL     1      -4.688   0.433  20.168  1.00  0.00    -0.031 C 
HETATM   21  C1  UNL     1      -5.856   0.922  19.866  1.00  0.00     0.007 C 
ENDBRANCH   1  20
BRANCH   7  22
HETATM   22  O2  UNL     1      -0.653   3.826  24.495  1.00  0.00    -0.353 OA
HETATM   23  C8  UNL     1       0.493   3.798  25.284  1.00  0.00     0.210 C 
ENDBRANCH   7  22
TORSDOF 2
ENDMDL
MODEL 2
REMARK VINA RESULT: -7.491321138      2.543      4.452
REMARK  2 active torsions:
REMARK  status: ('A' for Active; 'I' for Inactive)
REMARK    1  A    between atoms: C2_2  and  C3_3 
REMARK    2  A    between atoms: C7_9  and  O2_10 
ROOT
HETATM    1  C3  UNL     1      -0.860   2.557  23.212  1.00  0.00     0.022 C 
HETATM    2  C4  UNL     1      -0.495   3.540  24.333  1.00  0.00     0.090 C 
HETATM    3  S1  UNL     1       0.933   2.749  25.177  1.00  0.00    -0.104 SA
HETATM    4  C5  UNL     1       0.182   1.325  26.018  1.00  0.00     0.121 A 
HETATM    5  O1  UNL     1       0.785   0.659  26.957  1.00  0.00    -0.312 OA
HETATM    6  C6  UNL     1       0.068  -0.320  27.423  1.00  0.00     0.180 A 
HETATM    7  C7  UNL     1      -1.131  -0.307  26.729  1.00  0.00     0.100 A 
HETATM    8  C9  UNL     1      -1.069   0.749  25.819  1.00  0.00     0.022 A 
HETATM    9  C10 UNL     1      -2.133   1.108  24.906  1.00  0.00     0.030 C 
HETATM   10  C11 UNL     1      -3.119  -0.048  24.842  1.00  0.00     0.011 C 
HETATM   11  C12 UNL     1      -3.962  -0.013  23.566  1.00  0.00     0.018 C 
HETATM   12  C13 UNL     1      -3.067  -0.341  22.380  1.00  0.00     0.021 C 
HETATM   13  C14 UNL     1      -3.851  -0.126  21.122  1.00  0.00     0.024 C 
HETATM   14  C15 UNL     1      -2.639  -1.770  22.411  1.00  0.00     0.135 C 
HETATM   15  O3  UNL     1      -3.318  -2.737  22.602  1.00  0.00    -0.297 OA
HETATM   16  C16 UNL     1      -1.158  -1.833  22.158  1.00  0.00     0.079 C 
HETATM   17  C17 UNL     1      -0.658  -0.468  22.664  1.00  0.00     0.013 C 
HETATM   18  C18 UNL     1      -1.818   0.466  22.496  1.00  0.00     0.007 C 
HETATM   19  C19 UNL     1      -1.894   1.575  23.541  1.00  0.00     0.008 C 
ENDROOT
BRANCH   1  20
HETATM   20  C2  UNL     1      -1.270   3.458  22.104  1.00  0.00    -0.031 C 
HETATM   21  C1  UNL     1      -2.446   3.964  21.869  1.00  0.00     0.007 C 
ENDBRANCH   1  20
BRANCH   7  22
HETATM   22  O2  UNL     1      -2.124  -1.225  26.988  1.00  0.00    -0.353 OA
HETATM   23  C8  UNL     1      -2.436  -1.726  28.249  1.00  0.00     0.210 C 
ENDBRANCH   7  22
TORSDOF 2
ENDMDL
MODEL 3
REMARK VINA RESULT: -7.421436574      2.161      4.007
REMARK  2 active torsions:
REMARK  status: ('A' for Active; 'I' for Inactive)
REMARK    1  A    between atoms: C2_2  and  C3_3 
REMARK    2  A    between atoms: C7_9  and  O2_10 
ROOT
HETATM    1  C3  UNL     1      -3.480   0.764  21.433  1.00  0.00     0.022 C 
HETATM    2  C4  UNL     1      -2.867  -0.399  20.642  1.00  0.00     0.090 C 
HETATM    3  S1  UNL     1      -2.843  -1.794  21.839  1.00  0.00    -0.104 SA
HETATM    4  C5  UNL     1      -1.563  -1.299  23.029  1.00  0.00     0.121 A 
HETATM    5  O1  UNL     1      -1.027  -2.125  23.877  1.00  0.00    -0.312 OA
HETATM    6  C6  UNL     1      -0.131  -1.563  24.633  1.00  0.00     0.180 A 
HETATM    7  C7  UNL     1      -0.060  -0.233  24.252  1.00  0.00     0.100 A 
HETATM    8  C9  UNL     1      -0.979  -0.050  23.219  1.00  0.00     0.022 A 
HETATM    9  C10 UNL     1      -1.204   1.206  22.536  1.00  0.00     0.030 C 
HETATM   10  C11 UNL     1      -0.580   2.319  23.362  1.00  0.00     0.011 C 
HETATM   11  C12 UNL     1      -1.189   3.685  23.037  1.00  0.00     0.018 C 
HETATM   12  C13 UNL     1      -2.620   3.719  23.553  1.00  0.00     0.021 C 
HETATM   13  C14 UNL     1      -3.266   4.981  23.072  1.00  0.00     0.024 C 
HETATM   14  C15 UNL     1      -2.651   3.730  25.045  1.00  0.00     0.135 C 
HETATM   15  O3  UNL     1      -2.005   4.411  25.788  1.00  0.00    -0.297 OA
HETATM   16  C16 UNL     1      -3.657   2.715  25.512  1.00  0.00     0.079 C 
HETATM   17  C17 UNL     1      -3.675   1.687  24.367  1.00  0.00     0.013 C 
HETATM   18  C18 UNL     1      -3.299   2.458  23.138  1.00  0.00     0.007 C 
HETATM   19  C19 UNL     1      -2.526   1.653  22.098  1.00  0.00     0.008 C 
ENDROOT
BRANCH   1  20
HETATM   20  C2  UNL     1      -4.289   1.471  20.407  1.00  0.00    -0.031 C 
HETATM   21  C1  UNL     1      -5.387   1.074  19.831  1.00  0.00     0.007 C 
ENDBRANCH   1  20
BRANCH   7  22
HETATM   22  O2  UNL     1       0.807   0.645  24.864  1.00  0.00    -0.353 OA
HETATM   23  C8  UNL     1       0.858   0.891  26.233  1.00  0.00     0.210 C 
ENDBRANCH   7  22
TORSDOF 2
ENDMDL
MODEL 4
REMARK VINA RESULT: -7.341423944      1.062      1.105
REMARK  2 active torsions:
REMARK  status: ('A' for Active; 'I' for Inactive)
REMARK    1  A    between atoms: C2_2  and  C3_3 
REMARK    2  A    between atoms: C7_9  and  O2_10 
ROOT
HETATM    1  C3  UNL     1      -3.196   1.408  20.715  1.00  0.00     0.022 C 
HETATM    2  C4  UNL     1      -3.572   2.823  20.255  1.00  0.00     0.090 C 
HETATM    3  S1  UNL     1      -1.983   3.745  20.291  1.00  0.00    -0.104 SA
HETATM    4  C5  UNL     1      -1.630   3.897  22.067  1.00  0.00     0.121 A 
HETATM    5  O1  UNL     1      -0.749   4.723  22.545  1.00  0.00    -0.312 OA
HETATM    6  C6  UNL     1      -0.658   4.672  23.840  1.00  0.00     0.180 A 
HETATM    7  C7  UNL     1      -1.568   3.720  24.271  1.00  0.00     0.100 A 
HETATM    8  C9  UNL     1      -2.200   3.212  23.135  1.00  0.00     0.022 A 
HETATM    9  C10 UNL     1      -3.232   2.197  23.157  1.00  0.00     0.030 C 
HETATM   10  C11 UNL     1      -3.224   1.536  24.526  1.00  0.00     0.011 C 
HETATM   11  C12 UNL     1      -3.872   0.150  24.498  1.00  0.00     0.018 C 
HETATM   12  C13 UNL     1      -2.968  -0.797  23.723  1.00  0.00     0.021 C 
HETATM   13  C14 UNL     1      -3.690  -2.097  23.541  1.00  0.00     0.024 C 
HETATM   14  C15 UNL     1      -1.711  -1.075  24.478  1.00  0.00     0.135 C 
HETATM   15  O3  UNL     1      -1.597  -1.365  25.633  1.00  0.00    -0.297 OA
HETATM   16  C16 UNL     1      -0.545  -0.932  23.538  1.00  0.00     0.079 C 
HETATM   17  C17 UNL     1      -1.062   0.068  22.488  1.00  0.00     0.013 C 
HETATM   18  C18 UNL     1      -2.549  -0.120  22.461  1.00  0.00     0.007 C 
HETATM   19  C19 UNL     1      -3.341   1.145  22.147  1.00  0.00     0.008 C 
ENDROOT
BRANCH   1  20
HETATM   20  C2  UNL     1      -4.083   0.547  19.891  1.00  0.00    -0.031 C 
HETATM   21  C1  UNL     1      -5.380   0.590  19.787  1.00  0.00     0.007 C 
ENDBRANCH   1  20
BRANCH   7  22
HETATM   22  O2  UNL     1      -1.723   3.423  25.607  1.00  0.00    -0.353 OA
HETATM   23  C8  UNL     1      -0.698   3.428  26.548  1.00  0.00     0.210 C 
ENDBRANCH   7  22
TORSDOF 2
ENDMDL
MODEL 5
REMARK VINA RESULT: -7.277068816      2.575      4.877
REMARK  2 active torsions:
REMARK  status: ('A' for Active; 'I' for Inactive)
REMARK    1  A    between atoms: C2_2  and  C3_3 
REMARK    2  A    between atoms: C7_9  and  O2_10 
ROOT
HETATM    1  C3  UNL     1      -1.613   0.832  22.777  1.00  0.00     0.022 C 
HETATM    2  C4  UNL     1      -0.755   1.603  23.789  1.00  0.00     0.090 C 
HETATM    3  S1  UNL     1      -1.966   2.635  24.711  1.00  0.00    -0.104 SA
HETATM    4  C5  UNL     1      -2.481   3.869  23.482  1.00  0.00     0.121 A 
HETATM    5  O1  UNL     1      -3.113   4.960  23.797  1.00  0.00    -0.312 OA
HETATM    6  C6  UNL     1      -3.383   5.703  22.766  1.00  0.00     0.180 A 
HETATM    7  C7  UNL     1      -2.882   5.047  21.653  1.00  0.00     0.100 A 
HETATM    8  C9  UNL     1      -2.299   3.862  22.102  1.00  0.00     0.022 A 
HETATM    9  C10 UNL     1      -1.650   2.893  21.246  1.00  0.00     0.030 C 
HETATM   10  C11 UNL     1      -2.043   3.186  19.807  1.00  0.00     0.011 C 
HETATM   11  C12 UNL     1      -1.864   1.964  18.903  1.00  0.00     0.018 C 
HETATM   12  C13 UNL     1      -2.911   0.924  19.274  1.00  0.00     0.021 C 
HETATM   13  C14 UNL     1      -2.616  -0.334  18.516  1.00  0.00     0.024 C 
HETATM   14  C15 UNL     1      -4.278   1.379  18.888  1.00  0.00     0.135 C 
HETATM   15  O3  UNL     1      -4.627   1.856  17.847  1.00  0.00    -0.297 OA
HETATM   16  C16 UNL     1      -5.207   1.144  20.047  1.00  0.00     0.079 C 
HETATM   17  C17 UNL     1      -4.271   1.214  21.266  1.00  0.00     0.013 C 
HETATM   18  C18 UNL     1      -2.928   0.784  20.759  1.00  0.00     0.007 C 
HETATM   19  C19 UNL     1      -1.745   1.448  21.456  1.00  0.00     0.008 C 
ENDROOT
BRANCH   1  20
HETATM   20  C2  UNL     1      -0.941  -0.492  22.717  1.00  0.00    -0.031 C 
HETATM   21  C1  UNL     1      -1.405  -1.650  23.089  1.00  0.00     0.007 C 
ENDBRANCH   1  20
BRANCH   7  22
HETATM   22  O2  UNL     1      -3.003   5.578  20.388  1.00  0.00    -0.353 OA
HETATM   23  C8  UNL     1      -2.698   6.892  20.043  1.00  0.00     0.210 C 
ENDBRANCH   7  22
TORSDOF 2
ENDMDL
