MODEL 1
REMARK VINA RESULT: -7.219578790      0.000      0.000
REMARK  5 active torsions:
REMARK  status: ('A' for Active; 'I' for Inactive)
REMARK    1  A    between atoms: O1_2  and  C2_3 
REMARK    2  A    between atoms: C2_3  and  C3_5 
REMARK    3  A    between atoms: C4_6  and  C5_7 
REMARK    4  A    between atoms: C5_7  and  C6_8 
REMARK    5  A    between atoms: C6_8  and  C7_9 
ROOT
HETATM    1  C3  UNL     1      -2.708   1.805  20.721  1.00  0.00     0.117 A 
HETATM    2  C4  UNL     1      -3.729   1.091  20.135  1.00  0.00    -0.023 A 
HETATM    3  C11 UNL     1      -4.013   0.062  21.042  1.00  0.00     0.038 A 
HETATM    4  C12 UNL     1      -3.173   0.177  22.136  1.00  0.00     0.047 A 
HETATM    5  N1  UNL     1      -2.398   1.242  21.904  1.00  0.00    -0.339 N 
HETATM    6  C13 UNL     1      -1.402   1.626  22.870  1.00  0.00     0.166 C 
HETATM    7  C14 UNL     1      -1.142   0.582  23.920  1.00  0.00     0.071 C 
HETATM    8  C15 UNL     1      -0.058  -0.369  23.391  1.00  0.00     0.047 C 
HETATM    9  C16 UNL     1      -0.541   1.284  25.120  1.00  0.00     0.047 C 
HETATM   10  O3  UNL     1      -2.254  -0.087  24.331  1.00  0.00    -0.363 OA
HETATM   11  C17 UNL     1      -3.043  -0.623  23.368  1.00  0.00     0.097 C 
HETATM   12  C18 UNL     1      -4.448  -0.758  23.986  1.00  0.00     0.052 C 
HETATM   13  C19 UNL     1      -2.652  -2.031  22.965  1.00  0.00     0.052 C 
ENDROOT
BRANCH   2  14
HETATM   14  C5  UNL     1      -4.393   1.303  18.817  1.00  0.00     0.042 C 
BRANCH  14  15
HETATM   15  C6  UNL     1      -3.662   0.594  17.735  1.00  0.00     0.013 C 
BRANCH  15  16
HETATM   16  C7  UNL     1      -4.096   0.992  16.349  1.00  0.00    -0.051 C 
HETATM   17  C8  UNL     1      -5.440   1.720  16.443  1.00  0.00     0.014 C 
HETATM   18  C9  UNL     1      -4.304  -0.171  15.435  1.00  0.00     0.014 C 
HETATM   19  C10 UNL     1      -3.109   1.986  15.764  1.00  0.00     0.014 C 
ENDBRANCH  15  16
ENDBRANCH  14  15
ENDBRANCH   2  14
BRANCH   1  20
HETATM   20  C2  UNL     1      -2.079   3.012  20.166  1.00  0.00     0.310 C 
HETATM   21  O2  UNL     1      -2.722   4.111  20.189  1.00  0.00    -0.258 OA
BRANCH  20  22
HETATM   22  O1  UNL     1      -0.833   3.058  19.612  1.00  0.00    -0.321 OA
HETATM   23  C1  UNL     1      -0.641   3.280  18.225  1.00  0.00     0.213 C 
ENDBRANCH  20  22
ENDBRANCH   1  20
TORSDOF 5
ENDMDL
MODEL 2
REMARK VINA RESULT: -7.179916051      1.586      6.935
REMARK  5 active torsions:
REMARK  status: ('A' for Active; 'I' for Inactive)
REMARK    1  A    between atoms: O1_2  and  C2_3 
REMARK    2  A    between atoms: C2_3  and  C3_5 
REMARK    3  A    between atoms: C4_6  and  C5_7 
REMARK    4  A    between atoms: C5_7  and  C6_8 
REMARK    5  A    between atoms: C6_8  and  C7_9 
ROOT
HETATM    1  C3  UNL     1      -2.461  -0.459  22.048  1.00  0.00     0.117 A 
HETATM    2  C4  UNL     1      -1.421   0.203  22.661  1.00  0.00    -0.023 A 
HETATM    3  C11 UNL     1      -1.362   1.448  22.021  1.00  0.00     0.038 A 
HETATM    4  C12 UNL     1      -2.350   1.509  21.054  1.00  0.00     0.047 A 
HETATM    5  N1  UNL     1      -2.993   0.337  21.100  1.00  0.00    -0.339 N 
HETATM    6  C13 UNL     1      -4.088   0.085  20.201  1.00  0.00     0.166 C 
HETATM    7  C14 UNL     1      -4.195   1.084  19.082  1.00  0.00     0.071 C 
HETATM    8  C15 UNL     1      -3.314   0.599  17.921  1.00  0.00     0.047 C 
HETATM    9  C16 UNL     1      -5.622   1.049  18.576  1.00  0.00     0.047 C 
HETATM   10  O3  UNL     1      -3.904   2.364  19.446  1.00  0.00    -0.363 OA
HETATM   11  C17 UNL     1      -2.737   2.568  20.104  1.00  0.00     0.097 C 
HETATM   12  C18 UNL     1      -2.916   3.872  20.905  1.00  0.00     0.052 C 
HETATM   13  C19 UNL     1      -1.553   2.824  19.192  1.00  0.00     0.052 C 
ENDROOT
BRANCH   2  14
HETATM   14  C5  UNL     1      -0.509  -0.268  23.742  1.00  0.00     0.042 C 
BRANCH  14  15
HETATM   15  C6  UNL     1      -0.910   0.296  25.057  1.00  0.00     0.013 C 
BRANCH  15  16
HETATM   16  C7  UNL     1       0.133   1.190  25.676  1.00  0.00    -0.051 C 
HETATM   17  C8  UNL     1      -0.518   2.527  26.042  1.00  0.00     0.014 C 
HETATM   18  C9  UNL     1       1.266   1.505  24.756  1.00  0.00     0.014 C 
HETATM   19  C10 UNL     1       0.628   0.582  26.976  1.00  0.00     0.014 C 
ENDBRANCH  15  16
ENDBRANCH  14  15
ENDBRANCH   2  14
BRANCH   1  20
HETATM   20  C2  UNL     1      -2.942  -1.803  22.394  1.00  0.00     0.310 C 
HETATM   21  O2  UNL     1      -2.768  -2.754  21.565  1.00  0.00    -0.258 OA
BRANCH  20  22
HETATM   22  O1  UNL     1      -3.578  -2.130  23.556  1.00  0.00    -0.321 OA
HETATM   23  C1  UNL     1      -4.330  -1.178  24.289  1.00  0.00     0.213 C 
ENDBRANCH  20  22
ENDBRANCH   1  20
TORSDOF 5
ENDMDL
MODEL 3
REMARK VINA RESULT: -6.967871778      1.784      6.850
REMARK  5 active torsions:
REMARK  status: ('A' for Active; 'I' for Inactive)
REMARK    1  A    between atoms: O1_2  and  C2_3 
REMARK    2  A    between atoms: C2_3  and  C3_5 
REMARK    3  A    between atoms: C4_6  and  C5_7 
REMARK    4  A    between atoms: C5_7  and  C6_8 
REMARK    5  A    between atoms: C6_8  and  C7_9 
ROOT
HETATM    1  C3  UNL     1      -3.380   0.536  23.064  1.00  0.00     0.117 A 
HETATM    2  C4  UNL     1      -2.569   1.363  23.808  1.00  0.00    -0.023 A 
HETATM    3  C11 UNL     1      -2.271   2.434  22.956  1.00  0.00     0.038 A 
HETATM    4  C12 UNL     1      -2.898   2.233  21.738  1.00  0.00     0.047 A 
HETATM    5  N1  UNL     1      -3.558   1.075  21.842  1.00  0.00    -0.339 N 
HETATM    6  C13 UNL     1      -4.316   0.580  20.723  1.00  0.00     0.166 C 
HETATM    7  C14 UNL     1      -4.030   1.297  19.433  1.00  0.00     0.071 C 
HETATM    8  C15 UNL     1      -2.841   0.603  18.753  1.00  0.00     0.047 C 
HETATM    9  C16 UNL     1      -5.222   1.087  18.522  1.00  0.00     0.047 C 
HETATM   10  O3  UNL     1      -3.831   2.637  19.571  1.00  0.00    -0.363 OA
HETATM   11  C17 UNL     1      -2.929   3.034  20.501  1.00  0.00     0.097 C 
HETATM   12  C18 UNL     1      -3.313   4.476  20.887  1.00  0.00     0.052 C 
HETATM   13  C19 UNL     1      -1.509   3.131  19.978  1.00  0.00     0.052 C 
ENDROOT
BRANCH   2  14
HETATM   14  C5  UNL     1      -2.065   1.186  25.200  1.00  0.00     0.042 C 
BRANCH  14  15
HETATM   15  C6  UNL     1      -0.580   1.236  25.236  1.00  0.00     0.013 C 
BRANCH  15  16
HETATM   16  C7  UNL     1       0.058  -0.039  25.720  1.00  0.00    -0.051 C 
HETATM   17  C8  UNL     1       1.166  -0.438  24.741  1.00  0.00     0.014 C 
HETATM   18  C9  UNL     1      -0.891  -1.191  25.783  1.00  0.00     0.014 C 
HETATM   19  C10 UNL     1       0.731   0.196  27.060  1.00  0.00     0.014 C 
ENDBRANCH  15  16
ENDBRANCH  14  15
ENDBRANCH   2  14
BRANCH   1  20
HETATM   20  C2  UNL     1      -3.987  -0.717  23.534  1.00  0.00     0.310 C 
HETATM   21  O2  UNL     1      -5.007  -0.662  24.294  1.00  0.00    -0.258 OA
BRANCH  20  22
HETATM   22  O1  UNL     1      -3.539  -1.967  23.220  1.00  0.00    -0.321 OA
HETATM   23  C1  UNL     1      -2.405  -2.169  22.396  1.00  0.00     0.213 C 
ENDBRANCH  20  22
ENDBRANCH   1  20
TORSDOF 5
ENDMDL
MODEL 4
REMARK VINA RESULT: -6.843312942      1.452      2.280
REMARK  5 active torsions:
REMARK  status: ('A' for Active; 'I' for Inactive)
REMARK    1  A    between atoms: O1_2  and  C2_3 
REMARK    2  A    between atoms: C2_3  and  C3_5 
REMARK    3  A    between atoms: C4_6  and  C5_7 
REMARK    4  A    between atoms: C5_7  and  C6_8 
REMARK    5  A    between atoms: C6_8  and  C7_9 
ROOT
HETATM    1  C3  UNL     1      -2.029   2.289  22.122  1.00  0.00     0.117 A 
HETATM    2  C4  UNL     1      -3.109   1.958  21.335  1.00  0.00    -0.023 A 
HETATM    3  C11 UNL     1      -3.576   0.746  21.860  1.00  0.00     0.038 A 
HETATM    4  C12 UNL     1      -2.782   0.379  22.932  1.00  0.00     0.047 A 
HETATM    5  N1  UNL     1      -1.857   1.336  23.059  1.00  0.00    -0.339 N 
HETATM    6  C13 UNL     1      -0.865   1.240  24.098  1.00  0.00     0.166 C 
HETATM    7  C14 UNL     1      -0.803  -0.112  24.753  1.00  0.00     0.071 C 
HETATM    8  C15 UNL     1       0.163  -0.991  23.944  1.00  0.00     0.047 C 
HETATM    9  C16 UNL     1      -0.170   0.072  26.116  1.00  0.00     0.047 C 
HETATM   10  O3  UNL     1      -2.016  -0.707  24.924  1.00  0.00    -0.363 OA
HETATM   11  C17 UNL     1      -2.824  -0.784  23.838  1.00  0.00     0.097 C 
HETATM   12  C18 UNL     1      -4.262  -0.903  24.378  1.00  0.00     0.052 C 
HETATM   13  C19 UNL     1      -2.612  -2.029  23.000  1.00  0.00     0.052 C 
ENDROOT
BRANCH   2  14
HETATM   14  C5  UNL     1      -3.672   2.677  20.157  1.00  0.00     0.042 C 
BRANCH  14  15
HETATM   15  C6  UNL     1      -4.258   1.720  19.183  1.00  0.00     0.013 C 
BRANCH  15  16
HETATM   16  C7  UNL     1      -3.296   1.281  18.110  1.00  0.00    -0.051 C 
HETATM   17  C8  UNL     1      -2.849  -0.153  18.406  1.00  0.00     0.014 C 
HETATM   18  C9  UNL     1      -2.056   2.111  18.051  1.00  0.00     0.014 C 
HETATM   19  C10 UNL     1      -4.002   1.244  16.767  1.00  0.00     0.014 C 
ENDBRANCH  15  16
ENDBRANCH  14  15
ENDBRANCH   2  14
BRANCH   1  20
HETATM   20  C2  UNL     1      -1.213   3.503  21.989  1.00  0.00     0.310 C 
HETATM   21  O2  UNL     1      -0.360   3.576  21.046  1.00  0.00    -0.258 OA
BRANCH  20  22
HETATM   22  O1  UNL     1      -1.289   4.589  22.813  1.00  0.00    -0.321 OA
HETATM   23  C1  UNL     1      -2.496   4.952  23.459  1.00  0.00     0.213 C 
ENDBRANCH  20  22
ENDBRANCH   1  20
TORSDOF 5
ENDMDL
MODEL 5
REMARK VINA RESULT: -6.790592489      1.443      2.061
REMARK  5 active torsions:
REMARK  status: ('A' for Active; 'I' for Inactive)
REMARK    1  A    between atoms: O1_2  and  C2_3 
REMARK    2  A    between atoms: C2_3  and  C3_5 
REMARK    3  A    between atoms: C4_6  and  C5_7 
REMARK    4  A    between atoms: C5_7  and  C6_8 
REMARK    5  A    between atoms: C6_8  and  C7_9 
ROOT
HETATM    1  C3  UNL     1      -2.096   2.304  22.406  1.00  0.00     0.117 A 
HETATM    2  C4  UNL     1      -3.092   1.982  21.512  1.00  0.00    -0.023 A 
HETATM    3  C11 UNL     1      -3.582   0.745  21.952  1.00  0.00     0.038 A 
HETATM    4  C12 UNL     1      -2.883   0.355  23.081  1.00  0.00     0.047 A 
HETATM    5  N1  UNL     1      -1.993   1.323  23.324  1.00  0.00    -0.339 N 
HETATM    6  C13 UNL     1      -1.100   1.208  24.447  1.00  0.00     0.166 C 
HETATM    7  C14 UNL     1      -1.071  -0.165  25.060  1.00  0.00     0.071 C 
HETATM    8  C15 UNL     1      -0.018  -1.000  24.317  1.00  0.00     0.047 C 
HETATM    9  C16 UNL     1      -0.570  -0.017  26.482  1.00  0.00     0.047 C 
HETATM   10  O3  UNL     1      -2.283  -0.785  25.098  1.00  0.00    -0.363 OA
HETATM   11  C17 UNL     1      -2.986  -0.838  23.940  1.00  0.00     0.097 C 
HETATM   12  C18 UNL     1      -4.465  -1.000  24.341  1.00  0.00     0.052 C 
HETATM   13  C19 UNL     1      -2.673  -2.051  23.086  1.00  0.00     0.052 C 
ENDROOT
BRANCH   2  14
HETATM   14  C5  UNL     1      -3.559   2.731  20.311  1.00  0.00     0.042 C 
BRANCH  14  15
HETATM   15  C6  UNL     1      -4.211   1.818  19.337  1.00  0.00     0.013 C 
BRANCH  15  16
HETATM   16  C7  UNL     1      -3.293   1.348  18.239  1.00  0.00    -0.051 C 
HETATM   17  C8  UNL     1      -2.846  -0.083  18.549  1.00  0.00     0.014 C 
HETATM   18  C9  UNL     1      -2.050   2.166  18.113  1.00  0.00     0.014 C 
HETATM   19  C10 UNL     1      -4.050   1.286  16.924  1.00  0.00     0.014 C 
ENDBRANCH  15  16
ENDBRANCH  14  15
ENDBRANCH   2  14
BRANCH   1  20
HETATM   20  C2  UNL     1      -1.295   3.535  22.389  1.00  0.00     0.310 C 
HETATM   21  O2  UNL     1      -1.734   4.567  22.995  1.00  0.00    -0.258 OA
BRANCH  20  22
HETATM   22  O1  UNL     1      -0.091   3.675  21.763  1.00  0.00    -0.321 OA
HETATM   23  C1  UNL     1       0.014   4.241  20.467  1.00  0.00     0.213 C 
ENDBRANCH  20  22
ENDBRANCH   1  20
TORSDOF 5
ENDMDL
