MODEL 1
REMARK VINA RESULT: -7.989304408      0.000      0.000
REMARK  4 active torsions:
REMARK  status: ('A' for Active; 'I' for Inactive)
REMARK    1  A    between atoms: C2_2  and  O2_4 
REMARK    2  A    between atoms: O2_4  and  C3_5 
REMARK    3  A    between atoms: C3_5  and  C4_6 
REMARK    4  A    between atoms: C4_6  and  C5_7 
ROOT
HETATM    1  C5  UNL     1      -2.408   0.261  20.378  1.00  0.00    -0.004 C 
HETATM    2  C6  UNL     1      -2.673  -1.150  20.010  1.00  0.00     0.005 C 
HETATM    3  C7  UNL     1      -2.048  -2.158  20.920  1.00  0.00     0.001 C 
HETATM    4  C8  UNL     1      -1.270  -1.419  22.009  1.00  0.00     0.010 C 
HETATM    5  C9  UNL     1      -2.278  -0.524  22.744  1.00  0.00    -0.030 C 
HETATM    6  C10 UNL     1      -3.453  -1.462  23.068  1.00  0.00     0.016 C 
HETATM    7  C11 UNL     1      -1.703  -0.132  24.071  1.00  0.00     0.024 C 
HETATM    8  C12 UNL     1      -1.300  -1.259  24.930  1.00  0.00     0.018 C 
HETATM    9  C13 UNL     1       0.206  -1.213  25.224  1.00  0.00     0.111 C 
HETATM   10  C14 UNL     1       0.466   0.132  25.798  1.00  0.00     0.259 C 
HETATM   11  O3  UNL     1       1.047   0.219  26.908  1.00  0.00    -0.265 OA
HETATM   12  O4  UNL     1       0.039   1.219  25.050  1.00  0.00    -0.316 OA
HETATM   13  C15 UNL     1      -0.601   0.879  23.809  1.00  0.00     0.136 C 
HETATM   14  C16 UNL     1      -1.307   2.115  23.339  1.00  0.00     0.034 C 
HETATM   15  C17 UNL     1      -2.122   1.925  22.108  1.00  0.00     0.013 C 
HETATM   16  C18 UNL     1      -2.675   0.577  21.858  1.00  0.00    -0.033 C 
HETATM   17  C19 UNL     1      -4.211   0.687  21.937  1.00  0.00     0.016 C 
ENDROOT
BRANCH   1  18
HETATM   18  C4  UNL     1      -3.122   1.208  19.478  1.00  0.00     0.032 C 
BRANCH  18  19
HETATM   19  C3  UNL     1      -2.723   0.995  18.056  1.00  0.00     0.179 C 
BRANCH  19  20
HETATM   20  O2  UNL     1      -2.400   2.235  17.417  1.00  0.00    -0.322 OA
BRANCH  20  21
HETATM   21  C2  UNL     1      -1.053   2.594  17.422  1.00  0.00     0.254 C 
HETATM   22  C1  UNL     1      -0.481   3.533  18.425  1.00  0.00     0.126 C 
HETATM   23  O1  UNL     1      -0.246   2.132  16.564  1.00  0.00    -0.266 OA
ENDBRANCH  20  21
ENDBRANCH  19  20
ENDBRANCH  18  19
ENDBRANCH   1  18
TORSDOF 4
ENDMDL
MODEL 2
REMARK VINA RESULT: -7.962219403      1.434      2.254
REMARK  4 active torsions:
REMARK  status: ('A' for Active; 'I' for Inactive)
REMARK    1  A    between atoms: C2_2  and  O2_4 
REMARK    2  A    between atoms: O2_4  and  C3_5 
REMARK    3  A    between atoms: C3_5  and  C4_6 
REMARK    4  A    between atoms: C4_6  and  C5_7 
ROOT
HETATM    1  C5  UNL     1      -2.245   0.404  20.466  1.00  0.00    -0.004 C 
HETATM    2  C6  UNL     1      -2.818  -0.934  20.184  1.00  0.00     0.005 C 
HETATM    3  C7  UNL     1      -2.457  -1.987  21.181  1.00  0.00     0.001 C 
HETATM    4  C8  UNL     1      -1.551  -1.366  22.244  1.00  0.00     0.010 C 
HETATM    5  C9  UNL     1      -2.342  -0.215  22.882  1.00  0.00    -0.030 C 
HETATM    6  C10 UNL     1      -3.706  -0.835  23.227  1.00  0.00     0.016 C 
HETATM    7  C11 UNL     1      -1.717   0.133  24.198  1.00  0.00     0.024 C 
HETATM    8  C12 UNL     1      -1.599  -0.990  25.145  1.00  0.00     0.018 C 
HETATM    9  C13 UNL     1      -0.127  -1.264  25.487  1.00  0.00     0.111 C 
HETATM   10  C14 UNL     1       0.422   0.025  25.979  1.00  0.00     0.259 C 
HETATM   11  O3  UNL     1       0.987   0.059  27.100  1.00  0.00    -0.265 OA
HETATM   12  O4  UNL     1       0.269   1.122  25.145  1.00  0.00    -0.316 OA
HETATM   13  C15 UNL     1      -0.409   0.847  23.908  1.00  0.00     0.136 C 
HETATM   14  C16 UNL     1      -0.805   2.173  23.332  1.00  0.00     0.034 C 
HETATM   15  C17 UNL     1      -1.618   2.082  22.089  1.00  0.00     0.013 C 
HETATM   16  C18 UNL     1      -2.460   0.880  21.911  1.00  0.00    -0.033 C 
HETATM   17  C19 UNL     1      -3.932   1.340  21.929  1.00  0.00     0.016 C 
ENDROOT
BRANCH   1  18
HETATM   18  C4  UNL     1      -2.707   1.420  19.479  1.00  0.00     0.032 C 
BRANCH  18  19
HETATM   19  C3  UNL     1      -3.270   0.764  18.264  1.00  0.00     0.179 C 
BRANCH  19  20
HETATM   20  O2  UNL     1      -4.451   1.435  17.813  1.00  0.00    -0.322 OA
BRANCH  20  21
HETATM   21  C2  UNL     1      -5.641   0.718  17.917  1.00  0.00     0.254 C 
HETATM   22  C1  UNL     1      -6.308   0.462  19.223  1.00  0.00     0.126 C 
HETATM   23  O1  UNL     1      -6.217   0.246  16.894  1.00  0.00    -0.266 OA
ENDBRANCH  20  21
ENDBRANCH  19  20
ENDBRANCH  18  19
ENDBRANCH   1  18
TORSDOF 4
ENDMDL
MODEL 3
REMARK VINA RESULT: -7.851286087      1.202      1.932
REMARK  4 active torsions:
REMARK  status: ('A' for Active; 'I' for Inactive)
REMARK    1  A    between atoms: C2_2  and  O2_4 
REMARK    2  A    between atoms: O2_4  and  C3_5 
REMARK    3  A    between atoms: C3_5  and  C4_6 
REMARK    4  A    between atoms: C4_6  and  C5_7 
ROOT
HETATM    1  C5  UNL     1      -2.341   0.282  20.467  1.00  0.00    -0.004 C 
HETATM    2  C6  UNL     1      -2.664  -1.117  20.099  1.00  0.00     0.005 C 
HETATM    3  C7  UNL     1      -2.106  -2.148  21.026  1.00  0.00     0.001 C 
HETATM    4  C8  UNL     1      -1.317  -1.441  22.128  1.00  0.00     0.010 C 
HETATM    5  C9  UNL     1      -2.298  -0.497  22.839  1.00  0.00    -0.030 C 
HETATM    6  C10 UNL     1      -3.522  -1.376  23.141  1.00  0.00     0.016 C 
HETATM    7  C11 UNL     1      -1.732  -0.124  24.175  1.00  0.00     0.024 C 
HETATM    8  C12 UNL     1      -1.401  -1.265  25.048  1.00  0.00     0.018 C 
HETATM    9  C13 UNL     1       0.099  -1.288  25.373  1.00  0.00     0.111 C 
HETATM   10  C14 UNL     1       0.410   0.047  25.947  1.00  0.00     0.259 C 
HETATM   11  O3  UNL     1       0.970   0.111  27.068  1.00  0.00    -0.265 OA
HETATM   12  O4  UNL     1       0.050   1.148  25.186  1.00  0.00    -0.316 OA
HETATM   13  C15 UNL     1      -0.579   0.833  23.933  1.00  0.00     0.136 C 
HETATM   14  C16 UNL     1      -1.216   2.098  23.443  1.00  0.00     0.034 C 
HETATM   15  C17 UNL     1      -2.013   1.940  22.196  1.00  0.00     0.013 C 
HETATM   16  C18 UNL     1      -2.624   0.618  21.940  1.00  0.00    -0.033 C 
HETATM   17  C19 UNL     1      -4.154   0.800  21.986  1.00  0.00     0.016 C 
ENDROOT
BRANCH   1  18
HETATM   18  C4  UNL     1      -2.990   1.257  19.548  1.00  0.00     0.032 C 
BRANCH  18  19
HETATM   19  C3  UNL     1      -2.825   0.839  18.125  1.00  0.00     0.179 C 
BRANCH  19  20
HETATM   20  O2  UNL     1      -3.567   1.691  17.245  1.00  0.00    -0.322 OA
BRANCH  20  21
HETATM   21  C2  UNL     1      -4.639   1.101  16.579  1.00  0.00     0.254 C 
HETATM   22  C1  UNL     1      -4.480   0.397  15.276  1.00  0.00     0.126 C 
HETATM   23  O1  UNL     1      -5.810   1.135  17.056  1.00  0.00    -0.266 OA
ENDBRANCH  20  21
ENDBRANCH  19  20
ENDBRANCH  18  19
ENDBRANCH   1  18
TORSDOF 4
ENDMDL
MODEL 4
REMARK VINA RESULT: -7.535736966      2.043      2.516
REMARK  4 active torsions:
REMARK  status: ('A' for Active; 'I' for Inactive)
REMARK    1  A    between atoms: C2_2  and  O2_4 
REMARK    2  A    between atoms: O2_4  and  C3_5 
REMARK    3  A    between atoms: C3_5  and  C4_6 
REMARK    4  A    between atoms: C4_6  and  C5_7 
ROOT
HETATM    1  C5  UNL     1      -3.019   0.646  19.464  1.00  0.00    -0.004 C 
HETATM    2  C6  UNL     1      -2.798  -0.783  19.791  1.00  0.00     0.005 C 
HETATM    3  C7  UNL     1      -2.113  -1.023  21.098  1.00  0.00     0.001 C 
HETATM    4  C8  UNL     1      -1.810   0.327  21.747  1.00  0.00     0.010 C 
HETATM    5  C9  UNL     1      -3.155   1.045  21.925  1.00  0.00    -0.030 C 
HETATM    6  C10 UNL     1      -4.061  -0.002  22.593  1.00  0.00     0.016 C 
HETATM    7  C11 UNL     1      -2.994   2.138  22.937  1.00  0.00     0.024 C 
HETATM    8  C12 UNL     1      -2.474   1.700  24.244  1.00  0.00     0.018 C 
HETATM    9  C13 UNL     1      -1.133   2.380  24.555  1.00  0.00     0.111 C 
HETATM   10  C14 UNL     1      -1.382   3.840  24.441  1.00  0.00     0.259 C 
HETATM   11  O3  UNL     1      -1.085   4.586  25.406  1.00  0.00    -0.265 OA
HETATM   12  O4  UNL     1      -1.936   4.283  23.250  1.00  0.00    -0.316 OA
HETATM   13  C15 UNL     1      -2.190   3.249  22.284  1.00  0.00     0.136 C 
HETATM   14  C16 UNL     1      -3.104   3.840  21.254  1.00  0.00     0.034 C 
HETATM   15  C17 UNL     1      -3.567   2.876  20.219  1.00  0.00     0.013 C 
HETATM   16  C18 UNL     1      -3.657   1.452  20.606  1.00  0.00    -0.033 C 
HETATM   17  C19 UNL     1      -5.145   1.052  20.549  1.00  0.00     0.016 C 
ENDROOT
BRANCH   1  18
HETATM   18  C4  UNL     1      -3.772   0.809  18.190  1.00  0.00     0.032 C 
BRANCH  18  19
HETATM   19  C3  UNL     1      -2.841   1.021  17.044  1.00  0.00     0.179 C 
BRANCH  19  20
HETATM   20  O2  UNL     1      -2.400   2.382  16.980  1.00  0.00    -0.322 OA
BRANCH  20  21
HETATM   21  C2  UNL     1      -1.036   2.594  17.171  1.00  0.00     0.254 C 
HETATM   22  C1  UNL     1      -0.506   3.432  18.282  1.00  0.00     0.126 C 
HETATM   23  O1  UNL     1      -0.176   2.078  16.400  1.00  0.00    -0.266 OA
ENDBRANCH  20  21
ENDBRANCH  19  20
ENDBRANCH  18  19
ENDBRANCH   1  18
TORSDOF 4
ENDMDL
MODEL 5
REMARK VINA RESULT: -7.515163380      2.030      2.358
REMARK  4 active torsions:
REMARK  status: ('A' for Active; 'I' for Inactive)
REMARK    1  A    between atoms: C2_2  and  O2_4 
REMARK    2  A    between atoms: O2_4  and  C3_5 
REMARK    3  A    between atoms: C3_5  and  C4_6 
REMARK    4  A    between atoms: C4_6  and  C5_7 
ROOT
HETATM    1  C5  UNL     1      -2.930   0.350  21.047  1.00  0.00    -0.004 C 
HETATM    2  C6  UNL     1      -2.735  -0.975  20.411  1.00  0.00     0.005 C 
HETATM    3  C7  UNL     1      -1.700  -1.832  21.064  1.00  0.00     0.001 C 
HETATM    4  C8  UNL     1      -1.100  -1.065  22.242  1.00  0.00     0.010 C 
HETATM    5  C9  UNL     1      -2.261  -0.737  23.193  1.00  0.00    -0.030 C 
HETATM    6  C10 UNL     1      -2.996  -2.075  23.374  1.00  0.00     0.016 C 
HETATM    7  C11 UNL     1      -1.704  -0.401  24.543  1.00  0.00     0.024 C 
HETATM    8  C12 UNL     1      -0.841  -1.439  25.133  1.00  0.00     0.018 C 
HETATM    9  C13 UNL     1       0.581  -0.906  25.358  1.00  0.00     0.111 C 
HETATM   10  C14 UNL     1       0.428   0.320  26.182  1.00  0.00     0.259 C 
HETATM   11  O3  UNL     1       1.070   0.415  27.257  1.00  0.00    -0.265 OA
HETATM   12  O4  UNL     1      -0.430   1.293  25.694  1.00  0.00    -0.316 OA
HETATM   13  C15 UNL     1      -1.056   0.968  24.442  1.00  0.00     0.136 C 
HETATM   14  C16 UNL     1      -2.194   1.928  24.269  1.00  0.00     0.034 C 
HETATM   15  C17 UNL     1      -3.032   1.676  23.066  1.00  0.00     0.013 C 
HETATM   16  C18 UNL     1      -3.114   0.285  22.572  1.00  0.00    -0.033 C 
HETATM   17  C19 UNL     1      -4.573  -0.182  22.745  1.00  0.00     0.016 C 
ENDROOT
BRANCH   1  18
HETATM   18  C4  UNL     1      -4.027   1.118  20.395  1.00  0.00     0.032 C 
BRANCH  18  19
HETATM   19  C3  UNL     1      -4.145   0.757  18.953  1.00  0.00     0.179 C 
BRANCH  19  20
HETATM   20  O2  UNL     1      -5.439   1.091  18.439  1.00  0.00    -0.322 OA
BRANCH  20  21
HETATM   21  C2  UNL     1      -5.690   0.719  17.120  1.00  0.00     0.254 C 
HETATM   22  C1  UNL     1      -4.978   1.337  15.967  1.00  0.00     0.126 C 
HETATM   23  O1  UNL     1      -6.542  -0.172  16.837  1.00  0.00    -0.266 OA
ENDBRANCH  20  21
ENDBRANCH  19  20
ENDBRANCH  18  19
ENDBRANCH   1  18
TORSDOF 4
ENDMDL
