MODEL 1
REMARK VINA RESULT: -7.533921073      0.000      0.000
REMARK  7 active torsions:
REMARK  status: ('A' for Active; 'I' for Inactive)
REMARK    1  A    between atoms: C1_2  and  C2_3 
REMARK       I    between atoms: C1_2  and  N4_20 
REMARK    2  A    between atoms: C2_3  and  S1_4 
REMARK    3  A    between atoms: S1_4  and  C3_5 
REMARK    4  A    between atoms: C4_10  and  C5_11 
REMARK    5  A    between atoms: C5_11  and  C6_12 
REMARK    6  A    between atoms: C6_12  and  C7_13 
REMARK    7  A    between atoms: N4_20  and  C12_22 
ROOT
HETATM    1  C3  UNL     1     -30.628  -2.528  38.411  1.00  0.00     0.160 A 
HETATM    2  N1  UNL     1     -30.730  -2.801  37.101  1.00  0.00    -0.278 N 
ATOM      3  H1  UNL     1     -30.607  -2.124  36.348  1.00  0.00     0.189 HD
HETATM    4  N2  UNL     1     -31.014  -4.085  36.933  1.00  0.00    -0.287 N 
ATOM      5  H2  UNL     1     -31.147  -4.561  36.040  1.00  0.00     0.188 HD
HETATM    6  C4  UNL     1     -31.094  -4.645  38.146  1.00  0.00     0.097 A 
HETATM    7  N3  UNL     1     -30.858  -3.696  39.048  1.00  0.00    -0.324 N 
ATOM      8  H3  UNL     1     -30.852  -3.829  40.059  1.00  0.00     0.169 HD
ENDROOT
BRANCH   1   9
HETATM    9  S1  UNL     1     -30.264  -0.963  39.146  1.00  0.00    -0.083 SA
BRANCH   9  10
HETATM   10  C2  UNL     1     -31.090  -0.892  40.778  1.00  0.00     0.185 C 
BRANCH  10  11
HETATM   11  C1  UNL     1     -30.098  -0.452  41.793  1.00  0.00     0.227 C 
HETATM   12  O1  UNL     1     -30.417   0.525  42.523  1.00  0.00    -0.273 OA
HETATM   13  N4  UNL     1     -28.831  -1.107  41.942  1.00  0.00    -0.356 N 
ATOM     14  H4  UNL     1     -28.594  -1.896  41.341  1.00  0.00     0.162 HD
BRANCH  13  15
HETATM   15  C12 UNL     1     -27.897  -0.659  42.930  1.00  0.00     0.084 C 
HETATM   16  C13 UNL     1     -28.388  -0.804  44.334  1.00  0.00     0.025 C 
HETATM   17  C14 UNL     1     -27.836  -2.123  44.835  1.00  0.00     0.002 C 
HETATM   18  C15 UNL     1     -26.738  -2.499  43.893  1.00  0.00     0.002 C 
HETATM   19  C16 UNL     1     -26.572  -1.378  42.894  1.00  0.00     0.025 C 
ENDBRANCH  13  15
ENDBRANCH  10  11
ENDBRANCH   9  10
ENDBRANCH   1   9
BRANCH   6  20
HETATM   20  C5  UNL     1     -31.389  -6.061  38.456  1.00  0.00     0.078 C 
BRANCH  20  21
HETATM   21  C6  UNL     1     -31.014  -6.318  39.891  1.00  0.00     0.012 C 
BRANCH  21  22
HETATM   22  C7  UNL     1     -31.840  -7.436  40.490  1.00  0.00    -0.014 C 
HETATM   23  C8  UNL     1     -32.514  -7.001  41.773  1.00  0.00     0.004 C 
HETATM   24  C9  UNL     1     -32.652  -8.259  42.589  1.00  0.00     0.000 C 
HETATM   25  C10 UNL     1     -31.830  -9.317  41.898  1.00  0.00     0.000 C 
HETATM   26  C11 UNL     1     -30.906  -8.532  41.015  1.00  0.00     0.004 C 
ENDBRANCH  21  22
ENDBRANCH  20  21
ENDBRANCH   6  20
TORSDOF 7
ENDMDL
MODEL 2
REMARK VINA RESULT: -7.493101914      2.260      6.842
REMARK  7 active torsions:
REMARK  status: ('A' for Active; 'I' for Inactive)
REMARK    1  A    between atoms: C1_2  and  C2_3 
REMARK       I    between atoms: C1_2  and  N4_20 
REMARK    2  A    between atoms: C2_3  and  S1_4 
REMARK    3  A    between atoms: S1_4  and  C3_5 
REMARK    4  A    between atoms: C4_10  and  C5_11 
REMARK    5  A    between atoms: C5_11  and  C6_12 
REMARK    6  A    between atoms: C6_12  and  C7_13 
REMARK    7  A    between atoms: N4_20  and  C12_22 
ROOT
HETATM    1  C3  UNL     1     -32.583   0.103  40.148  1.00  0.00     0.160 A 
HETATM    2  N1  UNL     1     -33.297   0.770  41.067  1.00  0.00    -0.278 N 
ATOM      3  H1  UNL     1     -34.269   1.061  40.957  1.00  0.00     0.189 HD
HETATM    4  N2  UNL     1     -32.551   0.993  42.140  1.00  0.00    -0.287 N 
ATOM      5  H2  UNL     1     -32.843   1.481  42.987  1.00  0.00     0.188 HD
HETATM    6  C4  UNL     1     -31.342   0.464  41.910  1.00  0.00     0.097 A 
HETATM    7  N3  UNL     1     -31.362  -0.080  40.696  1.00  0.00    -0.324 N 
ATOM      8  H3  UNL     1     -30.579  -0.559  40.250  1.00  0.00     0.169 HD
ENDROOT
BRANCH   1   9
HETATM    9  S1  UNL     1     -33.129  -0.428  38.554  1.00  0.00    -0.083 SA
BRANCH   9  10
HETATM   10  C2  UNL     1     -31.658  -0.629  37.483  1.00  0.00     0.185 C 
BRANCH  10  11
HETATM   11  C1  UNL     1     -30.929  -1.854  37.903  1.00  0.00     0.227 C 
HETATM   12  O1  UNL     1     -29.814  -1.693  38.469  1.00  0.00    -0.273 OA
HETATM   13  N4  UNL     1     -31.464  -3.165  37.679  1.00  0.00    -0.356 N 
ATOM     14  H4  UNL     1     -32.369  -3.271  37.220  1.00  0.00     0.162 HD
BRANCH  13  15
HETATM   15  C12 UNL     1     -30.737  -4.325  38.096  1.00  0.00     0.084 C 
HETATM   16  C13 UNL     1     -30.908  -4.655  39.544  1.00  0.00     0.025 C 
HETATM   17  C14 UNL     1     -32.014  -5.688  39.608  1.00  0.00     0.002 C 
HETATM   18  C15 UNL     1     -32.167  -6.220  38.220  1.00  0.00     0.002 C 
HETATM   19  C16 UNL     1     -31.106  -5.582  37.353  1.00  0.00     0.025 C 
ENDBRANCH  13  15
ENDBRANCH  10  11
ENDBRANCH   9  10
ENDBRANCH   1   9
BRANCH   6  20
HETATM   20  C5  UNL     1     -30.181   0.467  42.825  1.00  0.00     0.078 C 
BRANCH  20  21
HETATM   21  C6  UNL     1     -29.039  -0.236  42.140  1.00  0.00     0.012 C 
BRANCH  21  22
HETATM   22  C7  UNL     1     -27.924  -0.562  43.111  1.00  0.00    -0.014 C 
HETATM   23  C8  UNL     1     -27.748  -2.057  43.270  1.00  0.00     0.004 C 
HETATM   24  C9  UNL     1     -27.216  -2.242  44.666  1.00  0.00     0.000 C 
HETATM   25  C10 UNL     1     -27.353  -0.912  45.364  1.00  0.00     0.000 C 
HETATM   26  C11 UNL     1     -28.357  -0.173  44.529  1.00  0.00     0.004 C 
ENDBRANCH  21  22
ENDBRANCH  20  21
ENDBRANCH   6  20
TORSDOF 7
ENDMDL
MODEL 3
REMARK VINA RESULT: -7.462087281      2.407      6.272
REMARK  7 active torsions:
REMARK  status: ('A' for Active; 'I' for Inactive)
REMARK    1  A    between atoms: C1_2  and  C2_3 
REMARK       I    between atoms: C1_2  and  N4_20 
REMARK    2  A    between atoms: C2_3  and  S1_4 
REMARK    3  A    between atoms: S1_4  and  C3_5 
REMARK    4  A    between atoms: C4_10  and  C5_11 
REMARK    5  A    between atoms: C5_11  and  C6_12 
REMARK    6  A    between atoms: C6_12  and  C7_13 
REMARK    7  A    between atoms: N4_20  and  C12_22 
ROOT
HETATM    1  C3  UNL     1     -31.781  -0.232  38.880  1.00  0.00     0.160 A 
HETATM    2  N1  UNL     1     -32.887   0.091  39.568  1.00  0.00    -0.278 N 
ATOM      3  H1  UNL     1     -33.826   0.153  39.175  1.00  0.00     0.189 HD
HETATM    4  N2  UNL     1     -32.575   0.315  40.837  1.00  0.00    -0.287 N 
ATOM      5  H2  UNL     1     -33.223   0.578  41.579  1.00  0.00     0.188 HD
HETATM    6  C4  UNL     1     -31.255   0.135  40.968  1.00  0.00     0.097 A 
HETATM    7  N3  UNL     1     -30.770  -0.199  39.775  1.00  0.00    -0.324 N 
ATOM      8  H3  UNL     1     -29.792  -0.399  39.569  1.00  0.00     0.169 HD
ENDROOT
BRANCH   1   9
HETATM    9  S1  UNL     1     -31.673  -0.621  37.160  1.00  0.00    -0.083 SA
BRANCH   9  10
HETATM   10  C2  UNL     1     -31.398  -2.424  36.997  1.00  0.00     0.185 C 
BRANCH  10  11
HETATM   11  C1  UNL     1     -31.103  -2.982  38.342  1.00  0.00     0.227 C 
HETATM   12  O1  UNL     1     -29.905  -2.934  38.734  1.00  0.00    -0.273 OA
HETATM   13  N4  UNL     1     -32.130  -3.550  39.165  1.00  0.00    -0.356 N 
ATOM     14  H4  UNL     1     -33.092  -3.577  38.828  1.00  0.00     0.162 HD
BRANCH  13  15
HETATM   15  C12 UNL     1     -31.813  -4.079  40.457  1.00  0.00     0.084 C 
HETATM   16  C13 UNL     1     -32.341  -3.259  41.590  1.00  0.00     0.025 C 
HETATM   17  C14 UNL     1     -33.661  -3.890  41.981  1.00  0.00     0.002 C 
HETATM   18  C15 UNL     1     -33.668  -5.254  41.368  1.00  0.00     0.002 C 
HETATM   19  C16 UNL     1     -32.333  -5.473  40.695  1.00  0.00     0.025 C 
ENDBRANCH  13  15
ENDBRANCH  10  11
ENDBRANCH   9  10
ENDBRANCH   1   9
BRANCH   6  20
HETATM   20  C5  UNL     1     -30.456   0.274  42.205  1.00  0.00     0.078 C 
BRANCH  20  21
HETATM   21  C6  UNL     1     -29.188  -0.521  42.039  1.00  0.00     0.012 C 
BRANCH  21  22
HETATM   22  C7  UNL     1     -28.817  -1.248  43.314  1.00  0.00    -0.014 C 
HETATM   23  C8  UNL     1     -28.314  -0.290  44.372  1.00  0.00     0.004 C 
HETATM   24  C9  UNL     1     -27.357  -1.098  45.209  1.00  0.00     0.000 C 
HETATM   25  C10 UNL     1     -27.122  -2.392  44.472  1.00  0.00     0.000 C 
HETATM   26  C11 UNL     1     -27.559  -2.090  43.070  1.00  0.00     0.004 C 
ENDBRANCH  21  22
ENDBRANCH  20  21
ENDBRANCH   6  20
TORSDOF 7
ENDMDL
MODEL 4
REMARK VINA RESULT: -7.377278930      5.847      8.376
REMARK  7 active torsions:
REMARK  status: ('A' for Active; 'I' for Inactive)
REMARK    1  A    between atoms: C1_2  and  C2_3 
REMARK       I    between atoms: C1_2  and  N4_20 
REMARK    2  A    between atoms: C2_3  and  S1_4 
REMARK    3  A    between atoms: S1_4  and  C3_5 
REMARK    4  A    between atoms: C4_10  and  C5_11 
REMARK    5  A    between atoms: C5_11  and  C6_12 
REMARK    6  A    between atoms: C6_12  and  C7_13 
REMARK    7  A    between atoms: N4_20  and  C12_22 
ROOT
HETATM    1  C3  UNL     1     -32.971   0.832  41.571  1.00  0.00     0.160 A 
HETATM    2  N1  UNL     1     -32.953   0.433  40.290  1.00  0.00    -0.278 N 
ATOM      3  H1  UNL     1     -33.729   0.528  39.634  1.00  0.00     0.189 HD
HETATM    4  N2  UNL     1     -31.775  -0.103  40.005  1.00  0.00    -0.287 N 
ATOM      5  H2  UNL     1     -31.490  -0.488  39.104  1.00  0.00     0.188 HD
HETATM    6  C4  UNL     1     -31.025  -0.048  41.113  1.00  0.00     0.097 A 
HETATM    7  N3  UNL     1     -31.755   0.522  42.068  1.00  0.00    -0.324 N 
ATOM      8  H3  UNL     1     -31.444   0.698  43.024  1.00  0.00     0.169 HD
ENDROOT
BRANCH   1   9
HETATM    9  S1  UNL     1     -34.310   1.605  42.426  1.00  0.00    -0.083 SA
BRANCH   9  10
HETATM   10  C2  UNL     1     -33.635   2.445  43.906  1.00  0.00     0.185 C 
BRANCH  10  11
HETATM   11  C1  UNL     1     -34.271   3.783  44.024  1.00  0.00     0.227 C 
HETATM   12  O1  UNL     1     -33.559   4.784  43.739  1.00  0.00    -0.273 OA
HETATM   13  N4  UNL     1     -35.633   3.937  44.441  1.00  0.00    -0.356 N 
ATOM     14  H4  UNL     1     -36.190   3.113  44.666  1.00  0.00     0.162 HD
BRANCH  13  15
HETATM   15  C12 UNL     1     -36.216   5.240  44.544  1.00  0.00     0.084 C 
HETATM   16  C13 UNL     1     -37.436   5.422  43.699  1.00  0.00     0.025 C 
HETATM   17  C14 UNL     1     -38.617   5.145  44.607  1.00  0.00     0.002 C 
HETATM   18  C15 UNL     1     -38.091   5.214  46.005  1.00  0.00     0.002 C 
HETATM   19  C16 UNL     1     -36.636   5.617  45.941  1.00  0.00     0.025 C 
ENDBRANCH  13  15
ENDBRANCH  10  11
ENDBRANCH   9  10
ENDBRANCH   1   9
BRANCH   6  20
HETATM   20  C5  UNL     1     -29.635  -0.527  41.272  1.00  0.00     0.078 C 
BRANCH  20  21
HETATM   21  C6  UNL     1     -29.059   0.101  42.513  1.00  0.00     0.012 C 
BRANCH  21  22
HETATM   22  C7  UNL     1     -28.738  -0.939  43.565  1.00  0.00    -0.014 C 
HETATM   23  C8  UNL     1     -28.179  -0.304  44.820  1.00  0.00     0.004 C 
HETATM   24  C9  UNL     1     -27.278  -1.351  45.421  1.00  0.00     0.000 C 
HETATM   25  C10 UNL     1     -27.123  -2.436  44.385  1.00  0.00     0.000 C 
HETATM   26  C11 UNL     1     -27.536  -1.771  43.106  1.00  0.00     0.004 C 
ENDBRANCH  21  22
ENDBRANCH  20  21
ENDBRANCH   6  20
TORSDOF 7
ENDMDL
MODEL 5
REMARK VINA RESULT: -7.362697481      2.377      6.664
REMARK  7 active torsions:
REMARK  status: ('A' for Active; 'I' for Inactive)
REMARK    1  A    between atoms: C1_2  and  C2_3 
REMARK       I    between atoms: C1_2  and  N4_20 
REMARK    2  A    between atoms: C2_3  and  S1_4 
REMARK    3  A    between atoms: S1_4  and  C3_5 
REMARK    4  A    between atoms: C4_10  and  C5_11 
REMARK    5  A    between atoms: C5_11  and  C6_12 
REMARK    6  A    between atoms: C6_12  and  C7_13 
REMARK    7  A    between atoms: N4_20  and  C12_22 
ROOT
HETATM    1  C3  UNL     1     -31.722  -0.309  38.752  1.00  0.00     0.160 A 
HETATM    2  N1  UNL     1     -30.447  -0.678  38.555  1.00  0.00    -0.278 N 
ATOM      3  H1  UNL     1     -30.053  -0.974  37.662  1.00  0.00     0.189 HD
HETATM    4  N2  UNL     1     -29.778  -0.599  39.697  1.00  0.00    -0.287 N 
ATOM      5  H2  UNL     1     -28.791  -0.822  39.833  1.00  0.00     0.188 HD
HETATM    6  C4  UNL     1     -30.629  -0.173  40.638  1.00  0.00     0.097 A 
HETATM    7  N3  UNL     1     -31.815   0.004  40.062  1.00  0.00    -0.324 N 
ATOM      8  H3  UNL     1     -32.660   0.325  40.535  1.00  0.00     0.169 HD
ENDROOT
BRANCH   1   9
HETATM    9  S1  UNL     1     -33.010  -0.244  37.544  1.00  0.00    -0.083 SA
BRANCH   9  10
HETATM   10  C2  UNL     1     -33.604  -1.950  37.247  1.00  0.00     0.185 C 
BRANCH  10  11
HETATM   11  C1  UNL     1     -32.437  -2.869  37.278  1.00  0.00     0.227 C 
HETATM   12  O1  UNL     1     -31.560  -2.714  36.386  1.00  0.00    -0.273 OA
HETATM   13  N4  UNL     1     -32.307  -3.891  38.275  1.00  0.00    -0.356 N 
ATOM     14  H4  UNL     1     -33.029  -3.998  38.988  1.00  0.00     0.162 HD
BRANCH  13  15
HETATM   15  C12 UNL     1     -31.171  -4.760  38.277  1.00  0.00     0.084 C 
HETATM   16  C13 UNL     1     -30.701  -5.134  39.646  1.00  0.00     0.025 C 
HETATM   17  C14 UNL     1     -31.350  -6.466  39.961  1.00  0.00     0.002 C 
HETATM   18  C15 UNL     1     -31.831  -7.013  38.655  1.00  0.00     0.002 C 
HETATM   19  C16 UNL     1     -31.395  -6.067  37.560  1.00  0.00     0.025 C 
ENDBRANCH  13  15
ENDBRANCH  10  11
ENDBRANCH   9  10
ENDBRANCH   1   9
BRANCH   6  20
HETATM   20  C5  UNL     1     -30.330   0.065  42.066  1.00  0.00     0.078 C 
BRANCH  20  21
HETATM   21  C6  UNL     1     -28.864  -0.190  42.290  1.00  0.00     0.012 C 
BRANCH  21  22
HETATM   22  C7  UNL     1     -28.630  -1.062  43.506  1.00  0.00    -0.014 C 
HETATM   23  C8  UNL     1     -28.161  -0.247  44.690  1.00  0.00     0.004 C 
HETATM   24  C9  UNL     1     -27.315  -1.190  45.505  1.00  0.00     0.000 C 
HETATM   25  C10 UNL     1     -27.092  -2.417  44.656  1.00  0.00     0.000 C 
HETATM   26  C11 UNL     1     -27.403  -1.949  43.265  1.00  0.00     0.004 C 
ENDBRANCH  21  22
ENDBRANCH  20  21
ENDBRANCH   6  20
TORSDOF 7
ENDMDL
