MODEL 1
REMARK VINA RESULT: -7.167585276      0.000      0.000
REMARK  9 active torsions:
REMARK  status: ('A' for Active; 'I' for Inactive)
REMARK    1  A    between atoms: C2_2  and  O1_3 
REMARK    2  A    between atoms: O1_3  and  C3_4 
REMARK    3  A    between atoms: C3_4  and  C4_5 
REMARK    4  A    between atoms: C4_5  and  C5_6 
REMARK    5  A    between atoms: C5_6  and  N1_7 
REMARK       I    between atoms: N1_7  and  C6_9 
REMARK    6  A    between atoms: C6_9  and  C7_11 
REMARK    7  A    between atoms: C7_11  and  N2_12 
REMARK    8  A    between atoms: C11_20  and  C12_21 
REMARK    9  A    between atoms: C12_21  and  C13_22 
ROOT
HETATM    1  C7  UNL     1     -27.328  -0.493  43.369  1.00  0.00     0.379 C 
HETATM    2  C8  UNL     1     -27.888  -0.442  44.712  1.00  0.00     0.102 C 
HETATM    3  N3  UNL     1     -28.348  -0.414  45.770  1.00  0.00    -0.195 NA
ENDROOT
BRANCH   1   4
HETATM    4  C6  UNL     1     -28.345  -1.088  42.450  1.00  0.00     0.263 C 
HETATM    5  N1  UNL     1     -29.343  -0.286  41.887  1.00  0.00    -0.347 N 
ATOM      6  H1  UNL     1     -29.321   0.703  42.135  1.00  0.00     0.163 HD
HETATM    7  O2  UNL     1     -28.253  -2.302  42.225  1.00  0.00    -0.270 OA
BRANCH   5   8
HETATM    8  C5  UNL     1     -30.398  -0.699  40.995  1.00  0.00     0.056 C 
HETATM    9  C9  UNL     1     -31.002  -1.969  41.546  1.00  0.00     0.036 C 
HETATM   10  C10 UNL     1     -31.703  -2.641  40.355  1.00  0.00     0.034 C 
HETATM   11  C11 UNL     1     -30.570  -3.200  39.519  1.00  0.00     0.122 C 
HETATM   12  O3  UNL     1     -29.626  -2.231  39.256  1.00  0.00    -0.383 OA
HETATM   13  C17 UNL     1     -29.902  -0.961  39.598  1.00  0.00     0.199 C 
BRANCH   8  14
HETATM   14  C4  UNL     1     -31.429   0.391  40.902  1.00  0.00     0.059 C 
BRANCH  14  15
HETATM   15  C3  UNL     1     -32.250   0.703  42.075  1.00  0.00     0.170 C 
BRANCH  15  16
HETATM   16  O1  UNL     1     -31.716   1.490  43.054  1.00  0.00    -0.391 OA
BRANCH  16  17
HETATM   17  C2  UNL     1     -32.635   2.391  43.586  1.00  0.00     0.163 C 
HETATM   18  C1  UNL     1     -34.041   1.977  43.240  1.00  0.00     0.033 C 
ENDBRANCH  16  17
ENDBRANCH  15  16
ENDBRANCH  14  15
ENDBRANCH   8  14
BRANCH  11  19
HETATM   19  C12 UNL     1     -30.955  -4.055  38.393  1.00  0.00     0.040 C 
BRANCH  19  20
HETATM   20  C13 UNL     1     -31.523  -5.390  38.597  1.00  0.00    -0.049 C 
HETATM   21  C14 UNL     1     -31.037  -6.164  39.775  1.00  0.00     0.014 C 
HETATM   22  C15 UNL     1     -31.101  -6.209  37.356  1.00  0.00     0.014 C 
HETATM   23  C16 UNL     1     -33.032  -5.453  38.566  1.00  0.00     0.014 C 
ENDBRANCH  19  20
ENDBRANCH  11  19
ENDBRANCH   5   8
ENDBRANCH   1   4
BRANCH   1  24
HETATM   24  N2  UNL     1     -26.138  -1.337  43.434  1.00  0.00    -0.054 N 
ATOM     25  H23 UNL     1     -26.298  -2.251  43.011  1.00  0.00     0.276 HD
ATOM     26  H22 UNL     1     -25.404  -1.006  42.807  1.00  0.00     0.276 HD
ATOM     27  H21 UNL     1     -25.807  -1.417  44.395  1.00  0.00     0.276 HD
ENDBRANCH   1  24
TORSDOF 9
ENDMDL
MODEL 2
REMARK VINA RESULT: -6.872837510      0.871      1.035
REMARK  9 active torsions:
REMARK  status: ('A' for Active; 'I' for Inactive)
REMARK    1  A    between atoms: C2_2  and  O1_3 
REMARK    2  A    between atoms: O1_3  and  C3_4 
REMARK    3  A    between atoms: C3_4  and  C4_5 
REMARK    4  A    between atoms: C4_5  and  C5_6 
REMARK    5  A    between atoms: C5_6  and  N1_7 
REMARK       I    between atoms: N1_7  and  C6_9 
REMARK    6  A    between atoms: C6_9  and  C7_11 
REMARK    7  A    between atoms: C7_11  and  N2_12 
REMARK    8  A    between atoms: C11_20  and  C12_21 
REMARK    9  A    between atoms: C12_21  and  C13_22 
ROOT
HETATM    1  C7  UNL     1     -27.337  -0.512  43.410  1.00  0.00     0.379 C 
HETATM    2  C8  UNL     1     -27.898  -0.496  44.753  1.00  0.00     0.102 C 
HETATM    3  N3  UNL     1     -28.356  -0.495  45.812  1.00  0.00    -0.195 NA
ENDROOT
BRANCH   1   4
HETATM    4  C6  UNL     1     -28.351  -1.092  42.478  1.00  0.00     0.263 C 
HETATM    5  N1  UNL     1     -29.355  -0.284  41.933  1.00  0.00    -0.347 N 
ATOM      6  H1  UNL     1     -29.339   0.699  42.203  1.00  0.00     0.163 HD
HETATM    7  O2  UNL     1     -28.252  -2.300  42.226  1.00  0.00    -0.270 OA
BRANCH   5   8
HETATM    8  C5  UNL     1     -30.407  -0.684  41.032  1.00  0.00     0.056 C 
HETATM    9  C9  UNL     1     -31.002  -1.970  41.554  1.00  0.00     0.036 C 
HETATM   10  C10 UNL     1     -31.700  -2.619  40.348  1.00  0.00     0.034 C 
HETATM   11  C11 UNL     1     -30.563  -3.151  39.498  1.00  0.00     0.122 C 
HETATM   12  O3  UNL     1     -29.626  -2.170  39.258  1.00  0.00    -0.383 OA
HETATM   13  C17 UNL     1     -29.911  -0.910  39.629  1.00  0.00     0.199 C 
BRANCH   8  14
HETATM   14  C4  UNL     1     -31.446   0.401  40.965  1.00  0.00     0.059 C 
BRANCH  14  15
HETATM   15  C3  UNL     1     -32.087   0.857  42.201  1.00  0.00     0.170 C 
BRANCH  15  16
HETATM   16  O1  UNL     1     -33.411   1.184  42.167  1.00  0.00    -0.391 OA
BRANCH  16  17
HETATM   17  C2  UNL     1     -34.101   0.544  41.140  1.00  0.00     0.163 C 
HETATM   18  C1  UNL     1     -35.131  -0.399  41.704  1.00  0.00     0.033 C 
ENDBRANCH  16  17
ENDBRANCH  15  16
ENDBRANCH  14  15
ENDBRANCH   8  14
BRANCH  11  19
HETATM   19  C12 UNL     1     -30.943  -3.982  38.353  1.00  0.00     0.040 C 
BRANCH  19  20
HETATM   20  C13 UNL     1     -31.522  -5.317  38.527  1.00  0.00    -0.049 C 
HETATM   21  C14 UNL     1     -31.042  -6.122  39.687  1.00  0.00     0.014 C 
HETATM   22  C15 UNL     1     -31.108  -6.111  37.267  1.00  0.00     0.014 C 
HETATM   23  C16 UNL     1     -33.032  -5.367  38.496  1.00  0.00     0.014 C 
ENDBRANCH  19  20
ENDBRANCH  11  19
ENDBRANCH   5   8
ENDBRANCH   1   4
BRANCH   1  24
HETATM   24  N2  UNL     1     -26.142  -1.349  43.454  1.00  0.00    -0.054 N 
ATOM     25  H23 UNL     1     -25.982  -1.828  42.568  1.00  0.00     0.276 HD
ATOM     26  H22 UNL     1     -25.289  -0.790  43.481  1.00  0.00     0.276 HD
ATOM     27  H21 UNL     1     -26.191  -2.003  44.235  1.00  0.00     0.276 HD
ENDBRANCH   1  24
TORSDOF 9
ENDMDL
MODEL 3
REMARK VINA RESULT: -6.721577358      0.750      1.268
REMARK  9 active torsions:
REMARK  status: ('A' for Active; 'I' for Inactive)
REMARK    1  A    between atoms: C2_2  and  O1_3 
REMARK    2  A    between atoms: O1_3  and  C3_4 
REMARK    3  A    between atoms: C3_4  and  C4_5 
REMARK    4  A    between atoms: C4_5  and  C5_6 
REMARK    5  A    between atoms: C5_6  and  N1_7 
REMARK       I    between atoms: N1_7  and  C6_9 
REMARK    6  A    between atoms: C6_9  and  C7_11 
REMARK    7  A    between atoms: C7_11  and  N2_12 
REMARK    8  A    between atoms: C11_20  and  C12_21 
REMARK    9  A    between atoms: C12_21  and  C13_22 
ROOT
HETATM    1  C7  UNL     1     -27.486  -0.390  43.304  1.00  0.00     0.379 C 
HETATM    2  C8  UNL     1     -27.953  -0.496  44.678  1.00  0.00     0.102 C 
HETATM    3  N3  UNL     1     -28.336  -0.594  45.763  1.00  0.00    -0.195 NA
ENDROOT
BRANCH   1   4
HETATM    4  C6  UNL     1     -28.463  -1.087  42.413  1.00  0.00     0.263 C 
HETATM    5  N1  UNL     1     -29.471  -0.363  41.768  1.00  0.00    -0.347 N 
ATOM      6  H1  UNL     1     -29.484   0.643  41.938  1.00  0.00     0.163 HD
HETATM    7  O2  UNL     1     -28.330  -2.311  42.286  1.00  0.00    -0.270 OA
BRANCH   5   8
HETATM    8  C5  UNL     1     -30.492  -0.877  40.889  1.00  0.00     0.056 C 
HETATM    9  C9  UNL     1     -31.104  -2.090  41.547  1.00  0.00     0.036 C 
HETATM   10  C10 UNL     1     -31.760  -2.889  40.409  1.00  0.00     0.034 C 
HETATM   11  C11 UNL     1     -30.594  -3.517  39.672  1.00  0.00     0.122 C 
HETATM   12  O3  UNL     1     -29.650  -2.569  39.342  1.00  0.00    -0.383 OA
HETATM   13  C17 UNL     1     -29.948  -1.274  39.543  1.00  0.00     0.199 C 
BRANCH   8  14
HETATM   14  C4  UNL     1     -31.529   0.187  40.651  1.00  0.00     0.059 C 
BRANCH  14  15
HETATM   15  C3  UNL     1     -32.431   0.563  41.742  1.00  0.00     0.170 C 
BRANCH  15  16
HETATM   16  O1  UNL     1     -31.951   1.358  42.742  1.00  0.00    -0.391 OA
BRANCH  16  17
HETATM   17  C2  UNL     1     -32.949   2.095  43.374  1.00  0.00     0.163 C 
HETATM   18  C1  UNL     1     -32.373   3.339  43.996  1.00  0.00     0.033 C 
ENDBRANCH  16  17
ENDBRANCH  15  16
ENDBRANCH  14  15
ENDBRANCH   8  14
BRANCH  11  19
HETATM   19  C12 UNL     1     -30.935  -4.486  38.627  1.00  0.00     0.040 C 
BRANCH  19  20
HETATM   20  C13 UNL     1     -31.821  -4.140  37.512  1.00  0.00    -0.049 C 
HETATM   21  C14 UNL     1     -33.289  -4.213  37.762  1.00  0.00     0.014 C 
HETATM   22  C15 UNL     1     -31.531  -5.192  36.417  1.00  0.00     0.014 C 
HETATM   23  C16 UNL     1     -31.510  -2.827  36.833  1.00  0.00     0.014 C 
ENDBRANCH  19  20
ENDBRANCH  11  19
ENDBRANCH   5   8
ENDBRANCH   1   4
BRANCH   1  24
HETATM   24  N2  UNL     1     -26.181  -1.043  43.243  1.00  0.00    -0.054 N 
ATOM     25  H23 UNL     1     -26.267  -2.057  43.183  1.00  0.00     0.276 HD
ATOM     26  H22 UNL     1     -25.714  -0.876  42.351  1.00  0.00     0.276 HD
ATOM     27  H21 UNL     1     -25.601  -0.758  44.033  1.00  0.00     0.276 HD
ENDBRANCH   1  24
TORSDOF 9
ENDMDL
MODEL 4
REMARK VINA RESULT: -6.707079438      2.119      3.153
REMARK  9 active torsions:
REMARK  status: ('A' for Active; 'I' for Inactive)
REMARK    1  A    between atoms: C2_2  and  O1_3 
REMARK    2  A    between atoms: O1_3  and  C3_4 
REMARK    3  A    between atoms: C3_4  and  C4_5 
REMARK    4  A    between atoms: C4_5  and  C5_6 
REMARK    5  A    between atoms: C5_6  and  N1_7 
REMARK       I    between atoms: N1_7  and  C6_9 
REMARK    6  A    between atoms: C6_9  and  C7_11 
REMARK    7  A    between atoms: C7_11  and  N2_12 
REMARK    8  A    between atoms: C11_20  and  C12_21 
REMARK    9  A    between atoms: C12_21  and  C13_22 
ROOT
HETATM    1  C7  UNL     1     -27.939   0.042  43.112  1.00  0.00     0.379 C 
HETATM    2  C8  UNL     1     -28.160  -0.196  44.531  1.00  0.00     0.102 C 
HETATM    3  N3  UNL     1     -28.352  -0.395  45.651  1.00  0.00    -0.195 NA
ENDROOT
BRANCH   1   4
HETATM    4  C6  UNL     1     -29.206  -0.253  42.376  1.00  0.00     0.263 C 
HETATM    5  N1  UNL     1     -29.226  -1.218  41.363  1.00  0.00    -0.347 N 
ATOM      6  H1  UNL     1     -28.344  -1.694  41.176  1.00  0.00     0.163 HD
HETATM    7  O2  UNL     1     -30.208   0.392  42.708  1.00  0.00    -0.270 OA
BRANCH   5   8
HETATM    8  C5  UNL     1     -30.353  -1.615  40.556  1.00  0.00     0.056 C 
HETATM    9  C9  UNL     1     -31.449  -2.082  41.484  1.00  0.00     0.036 C 
HETATM   10  C10 UNL     1     -32.367  -2.965  40.624  1.00  0.00     0.034 C 
HETATM   11  C11 UNL     1     -31.584  -4.248  40.434  1.00  0.00     0.122 C 
HETATM   12  O3  UNL     1     -30.313  -3.986  39.971  1.00  0.00    -0.383 OA
HETATM   13  C17 UNL     1     -30.014  -2.729  39.602  1.00  0.00     0.199 C 
BRANCH   8  14
HETATM   14  C4  UNL     1     -30.811  -0.446  39.727  1.00  0.00     0.059 C 
BRANCH  14  15
HETATM   15  C3  UNL     1     -30.813  -0.561  38.267  1.00  0.00     0.170 C 
BRANCH  15  16
HETATM   16  O1  UNL     1     -31.880  -0.066  37.575  1.00  0.00    -0.391 OA
BRANCH  16  17
HETATM   17  C2  UNL     1     -32.924  -0.980  37.462  1.00  0.00     0.163 C 
HETATM   18  C1  UNL     1     -32.429  -2.279  36.885  1.00  0.00     0.033 C 
ENDBRANCH  16  17
ENDBRANCH  15  16
ENDBRANCH  14  15
ENDBRANCH   8  14
BRANCH  11  19
HETATM   19  C12 UNL     1     -32.296  -5.353  39.788  1.00  0.00     0.040 C 
BRANCH  19  20
HETATM   20  C13 UNL     1     -32.310  -6.702  40.361  1.00  0.00    -0.049 C 
HETATM   21  C14 UNL     1     -31.084  -7.531  40.180  1.00  0.00     0.014 C 
HETATM   22  C15 UNL     1     -33.436  -7.453  39.615  1.00  0.00     0.014 C 
HETATM   23  C16 UNL     1     -32.734  -6.776  41.809  1.00  0.00     0.014 C 
ENDBRANCH  19  20
ENDBRANCH  11  19
ENDBRANCH   5   8
ENDBRANCH   1   4
BRANCH   1  24
HETATM   24  N2  UNL     1     -26.875  -0.863  42.686  1.00  0.00    -0.054 N 
ATOM     25  H23 UNL     1     -27.239  -1.647  42.144  1.00  0.00     0.276 HD
ATOM     26  H22 UNL     1     -26.285  -0.442  41.968  1.00  0.00     0.276 HD
ATOM     27  H21 UNL     1     -26.330  -1.177  43.488  1.00  0.00     0.276 HD
ENDBRANCH   1  24
TORSDOF 9
ENDMDL
MODEL 5
REMARK VINA RESULT: -6.614959740      1.691      5.409
REMARK  9 active torsions:
REMARK  status: ('A' for Active; 'I' for Inactive)
REMARK    1  A    between atoms: C2_2  and  O1_3 
REMARK    2  A    between atoms: O1_3  and  C3_4 
REMARK    3  A    between atoms: C3_4  and  C4_5 
REMARK    4  A    between atoms: C4_5  and  C5_6 
REMARK    5  A    between atoms: C5_6  and  N1_7 
REMARK       I    between atoms: N1_7  and  C6_9 
REMARK    6  A    between atoms: C6_9  and  C7_11 
REMARK    7  A    between atoms: C7_11  and  N2_12 
REMARK    8  A    between atoms: C11_20  and  C12_21 
REMARK    9  A    between atoms: C12_21  and  C13_22 
ROOT
HETATM    1  C7  UNL     1     -27.378  -0.986  43.425  1.00  0.00     0.379 C 
HETATM    2  C8  UNL     1     -27.781  -0.777  44.808  1.00  0.00     0.102 C 
HETATM    3  N3  UNL     1     -28.120  -0.614  45.899  1.00  0.00    -0.195 NA
ENDROOT
BRANCH   1   4
HETATM    4  C6  UNL     1     -28.579  -0.830  42.550  1.00  0.00     0.263 C 
HETATM    5  N1  UNL     1     -28.900  -1.815  41.610  1.00  0.00    -0.347 N 
ATOM      6  H1  UNL     1     -28.279  -2.623  41.572  1.00  0.00     0.163 HD
HETATM    7  O2  UNL     1     -29.253   0.196  42.703  1.00  0.00    -0.270 OA
BRANCH   5   8
HETATM    8  C5  UNL     1     -30.010  -1.817  40.689  1.00  0.00     0.056 C 
HETATM    9  C9  UNL     1     -29.950  -0.538  39.887  1.00  0.00     0.036 C 
HETATM   10  C10 UNL     1     -31.372  -0.330  39.340  1.00  0.00     0.034 C 
HETATM   11  C11 UNL     1     -32.174   0.121  40.543  1.00  0.00     0.122 C 
HETATM   12  O3  UNL     1     -32.004  -0.743  41.602  1.00  0.00    -0.383 OA
HETATM   13  C17 UNL     1     -31.340  -1.892  41.388  1.00  0.00     0.199 C 
BRANCH   8  14
HETATM   14  C4  UNL     1     -29.913  -3.020  39.792  1.00  0.00     0.059 C 
BRANCH  14  15
HETATM   15  C3  UNL     1     -30.977  -4.026  39.825  1.00  0.00     0.170 C 
BRANCH  15  16
HETATM   16  O1  UNL     1     -30.659  -5.322  39.542  1.00  0.00    -0.391 OA
BRANCH  16  17
HETATM   17  C2  UNL     1     -31.642  -6.222  39.947  1.00  0.00     0.163 C 
HETATM   18  C1  UNL     1     -31.026  -7.547  40.314  1.00  0.00     0.033 C 
ENDBRANCH  16  17
ENDBRANCH  15  16
ENDBRANCH  14  15
ENDBRANCH   8  14
BRANCH  11  19
HETATM   19  C12 UNL     1     -33.545   0.565  40.280  1.00  0.00     0.040 C 
BRANCH  19  20
HETATM   20  C13 UNL     1     -34.458   0.936  41.364  1.00  0.00    -0.049 C 
HETATM   21  C14 UNL     1     -35.369  -0.126  41.880  1.00  0.00     0.014 C 
HETATM   22  C15 UNL     1     -35.381   2.025  40.769  1.00  0.00     0.014 C 
HETATM   23  C16 UNL     1     -33.807   1.628  42.539  1.00  0.00     0.014 C 
ENDBRANCH  19  20
ENDBRANCH  11  19
ENDBRANCH   5   8
ENDBRANCH   1   4
BRANCH   1  24
HETATM   24  N2  UNL     1     -26.848  -2.343  43.333  1.00  0.00    -0.054 N 
ATOM     25  H23 UNL     1     -26.456  -2.536  42.411  1.00  0.00     0.276 HD
ATOM     26  H22 UNL     1     -25.998  -2.457  43.887  1.00  0.00     0.276 HD
ATOM     27  H21 UNL     1     -27.561  -3.025  43.591  1.00  0.00     0.276 HD
ENDBRANCH   1  24
TORSDOF 9
ENDMDL
