MODEL 1
REMARK VINA RESULT: -6.353561250      0.000      0.000
REMARK  7 active torsions:
REMARK  status: ('A' for Active; 'I' for Inactive)
REMARK    1  A    between atoms: N1_4  and  N2_6 
REMARK    2  A    between atoms: C4_8  and  C5_9 
REMARK    3  A    between atoms: C4_8  and  C11_20 
REMARK       I    between atoms: C5_9  and  N3_11 
REMARK    4  A    between atoms: N3_11  and  C6_12 
REMARK    5  A    between atoms: N3_11  and  C9_16 
REMARK    6  A    between atoms: C6_12  and  C7_13 
REMARK    7  A    between atoms: C9_16  and  C10_17 
ROOT
HETATM    1  C7  UNL     1     -32.130   1.270  42.566  1.00  0.00     0.143 C 
HETATM    2  C8  UNL     1     -32.962   1.996  43.515  1.00  0.00     0.060 C 
HETATM    3  N4  UNL     1     -33.602   2.569  44.289  1.00  0.00    -0.197 NA
ENDROOT
BRANCH   1   4
HETATM    4  C6  UNL     1     -32.829   0.364  41.625  1.00  0.00     0.141 C 
BRANCH   4   5
HETATM    5  N3  UNL     1     -32.492   0.327  40.256  1.00  0.00    -0.336 N 
HETATM    6  C5  UNL     1     -31.357  -0.340  39.745  1.00  0.00     0.268 C 
HETATM    7  O1  UNL     1     -31.133  -0.284  38.472  1.00  0.00    -0.266 OA
BRANCH   6   8
HETATM    8  C4  UNL     1     -30.368  -1.120  40.532  1.00  0.00     0.097 C 
HETATM    9  N2  UNL     1     -29.391  -0.584  41.086  1.00  0.00    -0.299 N 
ATOM     10  H2  UNL     1     -29.385   0.422  40.916  1.00  0.00     0.186 HD
BRANCH   9  11
HETATM   11  N1  UNL     1     -28.367  -0.938  41.824  1.00  0.00    -0.309 N 
HETATM   12  C2  UNL     1     -28.022  -0.647  43.010  1.00  0.00    -0.004 C 
HETATM   13  C1  UNL     1     -26.763  -1.247  43.542  1.00  0.00     0.064 C 
HETATM   14  C3  UNL     1     -28.773   0.246  43.926  1.00  0.00     0.064 C 
ATOM     15  H1  UNL     1     -27.721  -1.571  41.352  1.00  0.00     0.186 HD
ENDBRANCH   9  11
BRANCH   8  16
HETATM   16  C11 UNL     1     -30.673  -2.577  40.626  1.00  0.00     0.043 C 
HETATM   17  C12 UNL     1     -32.066  -2.939  40.976  1.00  0.00     0.011 C 
HETATM   18  C13 UNL     1     -32.877  -3.348  39.744  1.00  0.00     0.001 C 
HETATM   19  C14 UNL     1     -32.323  -4.692  39.251  1.00  0.00     0.000 C 
HETATM   20  C15 UNL     1     -30.813  -4.718  39.471  1.00  0.00     0.001 C 
HETATM   21  C16 UNL     1     -30.304  -3.278  39.295  1.00  0.00     0.011 C 
ENDBRANCH   8  16
ENDBRANCH   6   8
BRANCH   5  22
HETATM   22  C9  UNL     1     -33.365   0.901  39.215  1.00  0.00     0.239 C 
BRANCH  22  23
HETATM   23  C10 UNL     1     -34.743   1.110  39.580  1.00  0.00     0.191 C 
HETATM   24  O2  UNL     1     -35.551   0.155  39.462  1.00  0.00    -0.647 OA
HETATM   25  O3  UNL     1     -35.249   2.303  40.053  1.00  0.00    -0.647 OA
ENDBRANCH  22  23
ENDBRANCH   5  22
ENDBRANCH   4   5
ENDBRANCH   1   4
TORSDOF 7
ENDMDL
MODEL 2
REMARK VINA RESULT: -6.104204053      2.089      2.745
REMARK  7 active torsions:
REMARK  status: ('A' for Active; 'I' for Inactive)
REMARK    1  A    between atoms: N1_4  and  N2_6 
REMARK    2  A    between atoms: C4_8  and  C5_9 
REMARK    3  A    between atoms: C4_8  and  C11_20 
REMARK       I    between atoms: C5_9  and  N3_11 
REMARK    4  A    between atoms: N3_11  and  C6_12 
REMARK    5  A    between atoms: N3_11  and  C9_16 
REMARK    6  A    between atoms: C6_12  and  C7_13 
REMARK    7  A    between atoms: C9_16  and  C10_17 
ROOT
HETATM    1  C7  UNL     1     -32.964   0.492  39.589  1.00  0.00     0.143 C 
HETATM    2  C8  UNL     1     -33.715   0.713  40.817  1.00  0.00     0.060 C 
HETATM    3  N4  UNL     1     -34.289   0.902  41.803  1.00  0.00    -0.197 NA
ENDROOT
BRANCH   1   4
HETATM    4  C6  UNL     1     -33.128  -0.827  38.936  1.00  0.00     0.141 C 
BRANCH   4   5
HETATM    5  N3  UNL     1     -32.265  -1.246  37.904  1.00  0.00    -0.336 N 
HETATM    6  C5  UNL     1     -30.953  -1.723  38.122  1.00  0.00     0.268 C 
HETATM    7  O1  UNL     1     -30.242  -2.056  37.093  1.00  0.00    -0.266 OA
BRANCH   6   8
HETATM    8  C4  UNL     1     -30.287  -1.890  39.439  1.00  0.00     0.097 C 
HETATM    9  N2  UNL     1     -29.618  -0.981  39.962  1.00  0.00    -0.299 N 
ATOM     10  H2  UNL     1     -29.605  -0.152  39.367  1.00  0.00     0.186 HD
BRANCH   9  11
HETATM   11  N1  UNL     1     -28.925  -0.779  41.056  1.00  0.00    -0.309 N 
HETATM   12  C2  UNL     1     -29.206  -0.220  42.160  1.00  0.00    -0.004 C 
HETATM   13  C1  UNL     1     -28.146  -0.169  43.211  1.00  0.00     0.064 C 
HETATM   14  C3  UNL     1     -30.511   0.395  42.502  1.00  0.00     0.064 C 
ATOM     15  H1  UNL     1     -27.973  -1.145  41.012  1.00  0.00     0.186 HD
ENDBRANCH   9  11
BRANCH   8  16
HETATM   16  C11 UNL     1     -30.524  -3.215  40.081  1.00  0.00     0.043 C 
HETATM   17  C12 UNL     1     -31.652  -3.293  41.037  1.00  0.00     0.011 C 
HETATM   18  C13 UNL     1     -32.893  -3.928  40.405  1.00  0.00     0.001 C 
HETATM   19  C14 UNL     1     -32.584  -5.413  40.168  1.00  0.00     0.000 C 
HETATM   20  C15 UNL     1     -31.116  -5.560  39.780  1.00  0.00     0.001 C 
HETATM   21  C16 UNL     1     -30.727  -4.298  38.992  1.00  0.00     0.011 C 
ENDBRANCH   8  16
ENDBRANCH   6   8
BRANCH   5  22
HETATM   22  C9  UNL     1     -32.700  -1.324  36.496  1.00  0.00     0.239 C 
BRANCH  22  23
HETATM   23  C10 UNL     1     -32.419  -0.172  35.676  1.00  0.00     0.191 C 
HETATM   24  O2  UNL     1     -32.124  -0.349  34.468  1.00  0.00    -0.647 OA
HETATM   25  O3  UNL     1     -32.445   1.130  36.130  1.00  0.00    -0.647 OA
ENDBRANCH  22  23
ENDBRANCH   5  22
ENDBRANCH   4   5
ENDBRANCH   1   4
TORSDOF 7
ENDMDL
MODEL 3
REMARK VINA RESULT: -6.054591370      3.087      4.897
REMARK  7 active torsions:
REMARK  status: ('A' for Active; 'I' for Inactive)
REMARK    1  A    between atoms: N1_4  and  N2_6 
REMARK    2  A    between atoms: C4_8  and  C5_9 
REMARK    3  A    between atoms: C4_8  and  C11_20 
REMARK       I    between atoms: C5_9  and  N3_11 
REMARK    4  A    between atoms: N3_11  and  C6_12 
REMARK    5  A    between atoms: N3_11  and  C9_16 
REMARK    6  A    between atoms: C6_12  and  C7_13 
REMARK    7  A    between atoms: C9_16  and  C10_17 
ROOT
HETATM    1  C7  UNL     1     -30.915   1.209  43.201  1.00  0.00     0.143 C 
HETATM    2  C8  UNL     1     -32.293   1.681  43.173  1.00  0.00     0.060 C 
HETATM    3  N4  UNL     1     -33.388   2.054  43.179  1.00  0.00    -0.197 NA
ENDROOT
BRANCH   1   4
HETATM    4  C6  UNL     1     -30.505   0.291  42.115  1.00  0.00     0.141 C 
BRANCH   4   5
HETATM    5  N3  UNL     1     -29.380  -0.550  42.251  1.00  0.00    -0.336 N 
HETATM    6  C5  UNL     1     -29.157  -1.698  41.459  1.00  0.00     0.268 C 
HETATM    7  O1  UNL     1     -28.102  -2.409  41.693  1.00  0.00    -0.266 OA
BRANCH   6   8
HETATM    8  C4  UNL     1     -30.025  -2.187  40.359  1.00  0.00     0.097 C 
HETATM    9  N2  UNL     1     -29.924  -1.758  39.195  1.00  0.00    -0.299 N 
ATOM     10  H2  UNL     1     -29.188  -1.055  39.131  1.00  0.00     0.186 HD
BRANCH   9  11
HETATM   11  N1  UNL     1     -30.490  -1.948  38.027  1.00  0.00    -0.309 N 
HETATM   12  C2  UNL     1     -31.395  -1.319  37.399  1.00  0.00    -0.004 C 
HETATM   13  C1  UNL     1     -31.804  -1.831  36.058  1.00  0.00     0.064 C 
HETATM   14  C3  UNL     1     -32.089  -0.103  37.887  1.00  0.00     0.064 C 
ATOM     15  H1  UNL     1     -30.132  -2.761  37.526  1.00  0.00     0.186 HD
ENDBRANCH   9  11
BRANCH   8  16
HETATM   16  C11 UNL     1     -30.989  -3.250  40.765  1.00  0.00     0.043 C 
HETATM   17  C12 UNL     1     -32.394  -2.825  40.967  1.00  0.00     0.011 C 
HETATM   18  C13 UNL     1     -33.274  -3.174  39.763  1.00  0.00     0.001 C 
HETATM   19  C14 UNL     1     -33.415  -4.702  39.720  1.00  0.00     0.000 C 
HETATM   20  C15 UNL     1     -32.105  -5.336  40.180  1.00  0.00     0.001 C 
HETATM   21  C16 UNL     1     -30.969  -4.403  39.732  1.00  0.00     0.011 C 
ENDBRANCH   8  16
ENDBRANCH   6   8
BRANCH   5  22
HETATM   22  C9  UNL     1     -28.272  -0.238  43.174  1.00  0.00     0.239 C 
BRANCH  22  23
HETATM   23  C10 UNL     1     -28.359  -0.813  44.493  1.00  0.00     0.191 C 
HETATM   24  O2  UNL     1     -28.570  -0.052  45.470  1.00  0.00    -0.647 OA
HETATM   25  O3  UNL     1     -28.220  -2.158  44.766  1.00  0.00    -0.647 OA
ENDBRANCH  22  23
ENDBRANCH   5  22
ENDBRANCH   4   5
ENDBRANCH   1   4
TORSDOF 7
ENDMDL
MODEL 4
REMARK VINA RESULT: -6.039571542      1.220      1.306
REMARK  7 active torsions:
REMARK  status: ('A' for Active; 'I' for Inactive)
REMARK    1  A    between atoms: N1_4  and  N2_6 
REMARK    2  A    between atoms: C4_8  and  C5_9 
REMARK    3  A    between atoms: C4_8  and  C11_20 
REMARK       I    between atoms: C5_9  and  N3_11 
REMARK    4  A    between atoms: N3_11  and  C6_12 
REMARK    5  A    between atoms: N3_11  and  C9_16 
REMARK    6  A    between atoms: C6_12  and  C7_13 
REMARK    7  A    between atoms: C9_16  and  C10_17 
ROOT
HETATM    1  C7  UNL     1     -31.700   0.494  41.597  1.00  0.00     0.143 C 
HETATM    2  C8  UNL     1     -32.482   1.302  42.522  1.00  0.00     0.060 C 
HETATM    3  N4  UNL     1     -33.086   1.936  43.278  1.00  0.00    -0.197 NA
ENDROOT
BRANCH   1   4
HETATM    4  C6  UNL     1     -32.451  -0.222  40.541  1.00  0.00     0.141 C 
BRANCH   4   5
HETATM    5  N3  UNL     1     -31.874  -0.486  39.281  1.00  0.00    -0.336 N 
HETATM    6  C5  UNL     1     -30.791  -1.371  39.084  1.00  0.00     0.268 C 
HETATM    7  O1  UNL     1     -30.326  -1.515  37.885  1.00  0.00    -0.266 OA
BRANCH   6   8
HETATM    8  C4  UNL     1     -30.114  -2.177  40.131  1.00  0.00     0.097 C 
HETATM    9  N2  UNL     1     -29.186  -1.720  40.822  1.00  0.00    -0.299 N 
ATOM     10  H2  UNL     1     -28.982  -0.755  40.562  1.00  0.00     0.186 HD
BRANCH   9  11
HETATM   11  N1  UNL     1     -28.395  -2.118  41.789  1.00  0.00    -0.309 N 
HETATM   12  C2  UNL     1     -28.049  -1.589  42.889  1.00  0.00    -0.004 C 
HETATM   13  C1  UNL     1     -27.107  -2.345  43.767  1.00  0.00     0.064 C 
HETATM   14  C3  UNL     1     -28.506  -0.269  43.386  1.00  0.00     0.064 C 
ATOM     15  H1  UNL     1     -27.974  -3.033  41.624  1.00  0.00     0.186 HD
ENDBRANCH   9  11
BRANCH   8  16
HETATM   16  C11 UNL     1     -30.667  -3.552  40.299  1.00  0.00     0.043 C 
HETATM   17  C12 UNL     1     -32.029  -3.651  40.872  1.00  0.00     0.011 C 
HETATM   18  C13 UNL     1     -33.087  -3.887  39.791  1.00  0.00     0.001 C 
HETATM   19  C14 UNL     1     -32.879  -5.305  39.241  1.00  0.00     0.000 C 
HETATM   20  C15 UNL     1     -31.386  -5.616  39.220  1.00  0.00     0.001 C 
HETATM   21  C16 UNL     1     -30.652  -4.295  38.939  1.00  0.00     0.011 C 
ENDBRANCH   8  16
ENDBRANCH   6   8
BRANCH   5  22
HETATM   22  C9  UNL     1     -32.426   0.067  38.030  1.00  0.00     0.239 C 
BRANCH  22  23
HETATM   23  C10 UNL     1     -33.766   0.593  38.101  1.00  0.00     0.191 C 
HETATM   24  O2  UNL     1     -34.732  -0.189  37.916  1.00  0.00    -0.647 OA
HETATM   25  O3  UNL     1     -34.070   1.914  38.356  1.00  0.00    -0.647 OA
ENDBRANCH  22  23
ENDBRANCH   5  22
ENDBRANCH   4   5
ENDBRANCH   1   4
TORSDOF 7
ENDMDL
MODEL 5
REMARK VINA RESULT: -6.033505630      2.652      5.068
REMARK  7 active torsions:
REMARK  status: ('A' for Active; 'I' for Inactive)
REMARK    1  A    between atoms: N1_4  and  N2_6 
REMARK    2  A    between atoms: C4_8  and  C5_9 
REMARK    3  A    between atoms: C4_8  and  C11_20 
REMARK       I    between atoms: C5_9  and  N3_11 
REMARK    4  A    between atoms: N3_11  and  C6_12 
REMARK    5  A    between atoms: N3_11  and  C9_16 
REMARK    6  A    between atoms: C6_12  and  C7_13 
REMARK    7  A    between atoms: C9_16  and  C10_17 
ROOT
HETATM    1  C7  UNL     1     -31.641  -4.856  37.658  1.00  0.00     0.143 C 
HETATM    2  C8  UNL     1     -31.103  -5.805  36.694  1.00  0.00     0.060 C 
HETATM    3  N4  UNL     1     -30.694  -6.580  35.938  1.00  0.00    -0.197 NA
ENDROOT
BRANCH   1   4
HETATM    4  C6  UNL     1     -30.673  -3.933  38.294  1.00  0.00     0.141 C 
BRANCH   4   5
HETATM    5  N3  UNL     1     -30.661  -2.557  37.988  1.00  0.00    -0.336 N 
HETATM    6  C5  UNL     1     -30.445  -1.541  38.945  1.00  0.00     0.268 C 
HETATM    7  O1  UNL     1     -30.483  -0.309  38.552  1.00  0.00    -0.266 OA
BRANCH   6   8
HETATM    8  C4  UNL     1     -30.168  -1.742  40.391  1.00  0.00     0.097 C 
HETATM    9  N2  UNL     1     -29.034  -2.028  40.815  1.00  0.00    -0.299 N 
ATOM     10  H2  UNL     1     -28.367  -2.097  40.046  1.00  0.00     0.186 HD
BRANCH   9  11
HETATM   11  N1  UNL     1     -28.448  -2.265  41.963  1.00  0.00    -0.309 N 
HETATM   12  C2  UNL     1     -28.122  -1.514  42.933  1.00  0.00    -0.004 C 
HETATM   13  C1  UNL     1     -27.453  -2.140  44.111  1.00  0.00     0.064 C 
HETATM   14  C3  UNL     1     -28.353  -0.051  42.998  1.00  0.00     0.064 C 
ATOM     15  H1  UNL     1     -28.207  -3.247  42.105  1.00  0.00     0.186 HD
ENDBRANCH   9  11
BRANCH   8  16
HETATM   16  C11 UNL     1     -31.352  -1.535  41.274  1.00  0.00     0.043 C 
HETATM   17  C12 UNL     1     -31.648  -0.137  41.665  1.00  0.00     0.011 C 
HETATM   18  C13 UNL     1     -32.783   0.460  40.830  1.00  0.00     0.001 C 
HETATM   19  C14 UNL     1     -34.081  -0.255  41.231  1.00  0.00     0.000 C 
HETATM   20  C15 UNL     1     -33.768  -1.717  41.537  1.00  0.00     0.001 C 
HETATM   21  C16 UNL     1     -32.615  -2.137  40.611  1.00  0.00     0.011 C 
ENDBRANCH   8  16
ENDBRANCH   6   8
BRANCH   5  22
HETATM   22  C9  UNL     1     -30.771  -2.057  36.604  1.00  0.00     0.239 C 
BRANCH  22  23
HETATM   23  C10 UNL     1     -32.072  -1.589  36.196  1.00  0.00     0.191 C 
HETATM   24  O2  UNL     1     -32.163  -0.892  35.155  1.00  0.00    -0.647 OA
HETATM   25  O3  UNL     1     -33.242  -1.851  36.878  1.00  0.00    -0.647 OA
ENDBRANCH  22  23
ENDBRANCH   5  22
ENDBRANCH   4   5
ENDBRANCH   1   4
TORSDOF 7
ENDMDL
