MODEL 1
REMARK VINA RESULT: -5.998585501      0.000      0.000
REMARK  9 active torsions:
REMARK  status: ('A' for Active; 'I' for Inactive)
REMARK    1  A    between atoms: C2_2  and  C4_4 
REMARK    2  A    between atoms: C4_4  and  C5_5 
REMARK    3  A    between atoms: C7_7  and  O1_8 
REMARK    4  A    between atoms: C9_11  and  C11_13 
REMARK    5  A    between atoms: C11_13  and  O2_14 
REMARK    6  A    between atoms: C11_13  and  C12_16 
REMARK    7  A    between atoms: C12_16  and  C13_17 
REMARK    8  A    between atoms: C13_17  and  C14_18 
REMARK    9  A    between atoms: C17_23  and  C18_24 
ROOT
HETATM    1  C5  UNL     1     -31.861  -5.741  40.483  1.00  0.00     0.034 C 
HETATM    2  C6  UNL     1     -30.685  -5.262  39.819  1.00  0.00     0.042 C 
HETATM    3  C7  UNL     1     -30.627  -4.160  38.854  1.00  0.00     0.121 C 
HETATM    4  C8  UNL     1     -30.923  -2.789  39.126  1.00  0.00     0.072 C 
HETATM    5  C9  UNL     1     -30.857  -2.185  40.473  1.00  0.00     0.095 C 
HETATM    6  C10 UNL     1     -29.509  -2.116  41.104  1.00  0.00     0.049 C 
HETATM    7  O3  UNL     1     -31.858  -2.679  41.312  1.00  0.00    -0.304 OA
HETATM    8  C16 UNL     1     -32.886  -3.598  41.281  1.00  0.00     0.293 C 
HETATM    9  O4  UNL     1     -33.858  -3.220  42.010  1.00  0.00    -0.259 OA
HETATM   10  C17 UNL     1     -33.085  -4.878  40.605  1.00  0.00     0.059 C 
ENDROOT
BRANCH   5  11
HETATM   11  C11 UNL     1     -31.222  -0.702  40.201  1.00  0.00     0.153 C 
BRANCH  11  12
HETATM   12  O2  UNL     1     -30.474  -0.213  39.131  1.00  0.00    -0.393 OA
ATOM     13  H2  UNL     1     -29.634   0.106  39.437  1.00  0.00     0.210 HD
ENDBRANCH  11  12
BRANCH  11  14
HETATM   14  C12 UNL     1     -30.889   0.148  41.401  1.00  0.00     0.035 C 
BRANCH  14  15
HETATM   15  C13 UNL     1     -32.160   0.770  41.890  1.00  0.00     0.002 C 
BRANCH  15  16
HETATM   16  C14 UNL     1     -31.980   1.639  43.099  1.00  0.00    -0.004 C 
HETATM   17  C15 UNL     1     -33.364   2.161  43.482  1.00  0.00     0.005 C 
ENDBRANCH  15  16
ENDBRANCH  14  15
ENDBRANCH  11  14
ENDBRANCH   5  11
BRANCH   3  18
HETATM   18  O1  UNL     1     -31.342  -4.567  37.693  1.00  0.00    -0.395 OA
ATOM     19  H1  UNL     1     -32.244  -4.290  37.800  1.00  0.00     0.210 HD
ENDBRANCH   3  18
BRANCH  10  20
HETATM   20  C18 UNL     1     -33.924  -4.818  39.385  1.00  0.00     0.272 C 
HETATM   21  O5  UNL     1     -34.080  -3.705  38.884  1.00  0.00    -0.302 OA
ENDBRANCH  10  20
BRANCH   1  22
HETATM   22  C4  UNL     1     -32.389  -7.097  40.084  1.00  0.00     0.042 C 
BRANCH  22  23
HETATM   23  C2  UNL     1     -31.705  -8.276  40.571  1.00  0.00    -0.092 C 
HETATM   24  C1  UNL     1     -30.855  -9.002  39.899  1.00  0.00     0.014 C 
HETATM   25  C3  UNL     1     -31.995  -8.737  41.992  1.00  0.00     0.042 C 
ENDBRANCH  22  23
ENDBRANCH   1  22
TORSDOF 9
ENDMDL
MODEL 2
REMARK VINA RESULT: -5.917016579      1.528      6.469
REMARK  9 active torsions:
REMARK  status: ('A' for Active; 'I' for Inactive)
REMARK    1  A    between atoms: C2_2  and  C4_4 
REMARK    2  A    between atoms: C4_4  and  C5_5 
REMARK    3  A    between atoms: C7_7  and  O1_8 
REMARK    4  A    between atoms: C9_11  and  C11_13 
REMARK    5  A    between atoms: C11_13  and  O2_14 
REMARK    6  A    between atoms: C11_13  and  C12_16 
REMARK    7  A    between atoms: C12_16  and  C13_17 
REMARK    8  A    between atoms: C13_17  and  C14_18 
REMARK    9  A    between atoms: C17_23  and  C18_24 
ROOT
HETATM    1  C5  UNL     1     -32.081  -0.446  40.722  1.00  0.00     0.034 C 
HETATM    2  C6  UNL     1     -31.767  -0.146  39.357  1.00  0.00     0.042 C 
HETATM    3  C7  UNL     1     -30.735  -0.798  38.544  1.00  0.00     0.121 C 
HETATM    4  C8  UNL     1     -30.718  -2.172  38.153  1.00  0.00     0.072 C 
HETATM    5  C9  UNL     1     -31.926  -3.020  38.075  1.00  0.00     0.095 C 
HETATM    6  C10 UNL     1     -32.936  -2.642  37.047  1.00  0.00     0.049 C 
HETATM    7  O3  UNL     1     -32.462  -3.276  39.339  1.00  0.00    -0.304 OA
HETATM    8  C16 UNL     1     -32.227  -2.947  40.658  1.00  0.00     0.293 C 
HETATM    9  O4  UNL     1     -32.555  -3.902  41.432  1.00  0.00    -0.259 OA
HETATM   10  C17 UNL     1     -31.695  -1.764  41.332  1.00  0.00     0.059 C 
ENDROOT
BRANCH   5  11
HETATM   11  C11 UNL     1     -31.362  -4.373  37.570  1.00  0.00     0.153 C 
BRANCH  11  12
HETATM   12  O2  UNL     1     -31.291  -4.373  36.177  1.00  0.00    -0.393 OA
ATOM     13  H2  UNL     1     -30.497  -4.808  35.890  1.00  0.00     0.210 HD
ENDBRANCH  11  12
BRANCH  11  14
HETATM   14  C12 UNL     1     -32.275  -5.505  37.969  1.00  0.00     0.035 C 
BRANCH  14  15
HETATM   15  C13 UNL     1     -31.421  -6.644  38.430  1.00  0.00     0.002 C 
BRANCH  15  16
HETATM   16  C14 UNL     1     -31.086  -6.593  39.890  1.00  0.00    -0.004 C 
HETATM   17  C15 UNL     1     -31.005  -8.038  40.379  1.00  0.00     0.005 C 
ENDBRANCH  15  16
ENDBRANCH  14  15
ENDBRANCH  11  14
ENDBRANCH   5  11
BRANCH   3  18
HETATM   18  O1  UNL     1     -29.470  -0.460  39.104  1.00  0.00    -0.395 OA
ATOM     19  H1  UNL     1     -29.143   0.298  38.634  1.00  0.00     0.210 HD
ENDBRANCH   3  18
BRANCH  10  20
HETATM   20  C18 UNL     1     -30.275  -1.864  41.745  1.00  0.00     0.272 C 
HETATM   21  O5  UNL     1     -29.562  -2.606  41.071  1.00  0.00    -0.302 OA
ENDBRANCH  10  20
BRANCH   1  22
HETATM   22  C4  UNL     1     -31.715   0.579  41.768  1.00  0.00     0.042 C 
BRANCH  22  23
HETATM   23  C2  UNL     1     -32.780   1.314  42.417  1.00  0.00    -0.092 C 
HETATM   24  C1  UNL     1     -34.051   1.230  42.136  1.00  0.00     0.014 C 
HETATM   25  C3  UNL     1     -32.407   2.288  43.524  1.00  0.00     0.042 C 
ENDBRANCH  22  23
ENDBRANCH   1  22
TORSDOF 9
ENDMDL
MODEL 3
REMARK VINA RESULT: -5.840479913      2.963      4.924
REMARK  9 active torsions:
REMARK  status: ('A' for Active; 'I' for Inactive)
REMARK    1  A    between atoms: C2_2  and  C4_4 
REMARK    2  A    between atoms: C4_4  and  C5_5 
REMARK    3  A    between atoms: C7_7  and  O1_8 
REMARK    4  A    between atoms: C9_11  and  C11_13 
REMARK    5  A    between atoms: C11_13  and  O2_14 
REMARK    6  A    between atoms: C11_13  and  C12_16 
REMARK    7  A    between atoms: C12_16  and  C13_17 
REMARK    8  A    between atoms: C13_17  and  C14_18 
REMARK    9  A    between atoms: C17_23  and  C18_24 
ROOT
HETATM    1  C5  UNL     1     -33.661  -1.946  39.086  1.00  0.00     0.034 C 
HETATM    2  C6  UNL     1     -33.639  -2.045  40.516  1.00  0.00     0.042 C 
HETATM    3  C7  UNL     1     -32.501  -2.479  41.334  1.00  0.00     0.121 C 
HETATM    4  C8  UNL     1     -31.247  -1.807  41.450  1.00  0.00     0.072 C 
HETATM    5  C9  UNL     1     -31.055  -0.367  41.177  1.00  0.00     0.095 C 
HETATM    6  C10 UNL     1     -31.753   0.579  42.093  1.00  0.00     0.049 C 
HETATM    7  O3  UNL     1     -31.210  -0.071  39.821  1.00  0.00    -0.304 OA
HETATM    8  C16 UNL     1     -31.524  -0.714  38.642  1.00  0.00     0.293 C 
HETATM    9  O4  UNL     1     -30.917  -0.185  37.658  1.00  0.00    -0.259 OA
HETATM   10  C17 UNL     1     -32.385  -1.844  38.299  1.00  0.00     0.059 C 
ENDROOT
BRANCH   5  11
HETATM   11  C11 UNL     1     -29.552  -0.155  41.491  1.00  0.00     0.153 C 
BRANCH  11  12
HETATM   12  O2  UNL     1     -28.837  -1.324  41.228  1.00  0.00    -0.393 OA
ATOM     13  H2  UNL     1     -28.381  -1.612  42.010  1.00  0.00     0.210 HD
ENDBRANCH  11  12
BRANCH  11  14
HETATM   14  C12 UNL     1     -29.360   0.162  42.953  1.00  0.00     0.035 C 
BRANCH  14  15
HETATM   15  C13 UNL     1     -28.004  -0.326  43.356  1.00  0.00     0.002 C 
BRANCH  15  16
HETATM   16  C14 UNL     1     -28.000  -1.102  44.639  1.00  0.00    -0.004 C 
HETATM   17  C15 UNL     1     -27.290  -2.425  44.357  1.00  0.00     0.005 C 
ENDBRANCH  15  16
ENDBRANCH  14  15
ENDBRANCH  11  14
ENDBRANCH   5  11
BRANCH   3  18
HETATM   18  O1  UNL     1     -32.267  -3.853  41.049  1.00  0.00    -0.395 OA
ATOM     19  H1  UNL     1     -31.340  -4.018  41.174  1.00  0.00     0.210 HD
ENDBRANCH   3  18
BRANCH  10  20
HETATM   20  C18 UNL     1     -31.678  -3.131  38.095  1.00  0.00     0.272 C 
HETATM   21  O5  UNL     1     -30.529  -3.196  38.530  1.00  0.00    -0.302 OA
ENDBRANCH  10  20
BRANCH   1  22
HETATM   22  C4  UNL     1     -34.498  -2.946  38.326  1.00  0.00     0.042 C 
BRANCH  22  23
HETATM   23  C2  UNL     1     -35.168  -2.510  37.120  1.00  0.00    -0.092 C 
HETATM   24  C1  UNL     1     -35.142  -3.119  35.966  1.00  0.00     0.014 C 
HETATM   25  C3  UNL     1     -35.974  -1.221  37.172  1.00  0.00     0.042 C 
ENDBRANCH  22  23
ENDBRANCH   1  22
TORSDOF 9
ENDMDL
MODEL 4
REMARK VINA RESULT: -5.712722729      3.459      4.531
REMARK  9 active torsions:
REMARK  status: ('A' for Active; 'I' for Inactive)
REMARK    1  A    between atoms: C2_2  and  C4_4 
REMARK    2  A    between atoms: C4_4  and  C5_5 
REMARK    3  A    between atoms: C7_7  and  O1_8 
REMARK    4  A    between atoms: C9_11  and  C11_13 
REMARK    5  A    between atoms: C11_13  and  O2_14 
REMARK    6  A    between atoms: C11_13  and  C12_16 
REMARK    7  A    between atoms: C12_16  and  C13_17 
REMARK    8  A    between atoms: C13_17  and  C14_18 
REMARK    9  A    between atoms: C17_23  and  C18_24 
ROOT
HETATM    1  C5  UNL     1     -32.442  -2.573  37.950  1.00  0.00     0.034 C 
HETATM    2  C6  UNL     1     -31.069  -2.171  37.871  1.00  0.00     0.042 C 
HETATM    3  C7  UNL     1     -30.503  -0.922  38.390  1.00  0.00     0.121 C 
HETATM    4  C8  UNL     1     -30.446  -0.532  39.763  1.00  0.00     0.072 C 
HETATM    5  C9  UNL     1     -30.487  -1.485  40.891  1.00  0.00     0.095 C 
HETATM    6  C10 UNL     1     -29.333  -2.421  41.011  1.00  0.00     0.049 C 
HETATM    7  O3  UNL     1     -31.736  -2.098  41.006  1.00  0.00    -0.304 OA
HETATM    8  C16 UNL     1     -32.954  -2.114  40.359  1.00  0.00     0.293 C 
HETATM    9  O4  UNL     1     -33.906  -2.300  41.183  1.00  0.00    -0.259 OA
HETATM   10  C17 UNL     1     -33.368  -1.965  38.965  1.00  0.00     0.059 C 
ENDROOT
BRANCH   5  11
HETATM   11  C11 UNL     1     -30.351  -0.559  42.127  1.00  0.00     0.153 C 
BRANCH  11  12
HETATM   12  O2  UNL     1     -31.119   0.591  41.952  1.00  0.00    -0.393 OA
ATOM     13  H2  UNL     1     -30.564   1.362  41.977  1.00  0.00     0.210 HD
ENDBRANCH  11  12
BRANCH  11  14
HETATM   14  C12 UNL     1     -28.919  -0.117  42.297  1.00  0.00     0.035 C 
BRANCH  14  15
HETATM   15  C13 UNL     1     -28.622  -0.072  43.763  1.00  0.00     0.002 C 
BRANCH  15  16
HETATM   16  C14 UNL     1     -28.055  -1.352  44.302  1.00  0.00    -0.004 C 
HETATM   17  C15 UNL     1     -27.261  -0.993  45.557  1.00  0.00     0.005 C 
ENDBRANCH  15  16
ENDBRANCH  14  15
ENDBRANCH  11  14
ENDBRANCH   5  11
BRANCH   3  18
HETATM   18  O1  UNL     1     -31.052   0.147  37.627  1.00  0.00    -0.395 OA
ATOM     19  H1  UNL     1     -30.941  -0.069  36.709  1.00  0.00     0.210 HD
ENDBRANCH   3  18
BRANCH  10  20
HETATM   20  C18 UNL     1     -33.888  -0.624  38.606  1.00  0.00     0.272 C 
HETATM   21  O5  UNL     1     -33.593   0.297  39.367  1.00  0.00    -0.302 OA
ENDBRANCH  10  20
BRANCH   1  22
HETATM   22  C4  UNL     1     -33.242  -2.592  36.670  1.00  0.00     0.042 C 
BRANCH  22  23
HETATM   23  C2  UNL     1     -32.577  -2.988  35.447  1.00  0.00    -0.092 C 
HETATM   24  C1  UNL     1     -32.328  -4.212  35.071  1.00  0.00     0.014 C 
HETATM   25  C3  UNL     1     -32.108  -1.894  34.499  1.00  0.00     0.042 C 
ENDBRANCH  22  23
ENDBRANCH   1  22
TORSDOF 9
ENDMDL
MODEL 5
REMARK VINA RESULT: -5.642294218      2.394      4.379
REMARK  9 active torsions:
REMARK  status: ('A' for Active; 'I' for Inactive)
REMARK    1  A    between atoms: C2_2  and  C4_4 
REMARK    2  A    between atoms: C4_4  and  C5_5 
REMARK    3  A    between atoms: C7_7  and  O1_8 
REMARK    4  A    between atoms: C9_11  and  C11_13 
REMARK    5  A    between atoms: C11_13  and  O2_14 
REMARK    6  A    between atoms: C11_13  and  C12_16 
REMARK    7  A    between atoms: C12_16  and  C13_17 
REMARK    8  A    between atoms: C13_17  and  C14_18 
REMARK    9  A    between atoms: C17_23  and  C18_24 
ROOT
HETATM    1  C5  UNL     1     -33.437  -3.037  38.811  1.00  0.00     0.034 C 
HETATM    2  C6  UNL     1     -33.657  -2.563  40.145  1.00  0.00     0.042 C 
HETATM    3  C7  UNL     1     -32.748  -2.734  41.283  1.00  0.00     0.121 C 
HETATM    4  C8  UNL     1     -31.435  -2.184  41.399  1.00  0.00     0.072 C 
HETATM    5  C9  UNL     1     -30.972  -0.993  40.656  1.00  0.00     0.095 C 
HETATM    6  C10 UNL     1     -31.644   0.296  40.987  1.00  0.00     0.049 C 
HETATM    7  O3  UNL     1     -30.861  -1.247  39.288  1.00  0.00    -0.304 OA
HETATM    8  C16 UNL     1     -31.086  -2.275  38.396  1.00  0.00     0.293 C 
HETATM    9  O4  UNL     1     -30.253  -2.236  37.435  1.00  0.00    -0.259 OA
HETATM   10  C17 UNL     1     -32.053  -3.369  38.327  1.00  0.00     0.059 C 
ENDROOT
BRANCH   5  11
HETATM   11  C11 UNL     1     -29.523  -0.807  41.175  1.00  0.00     0.153 C 
BRANCH  11  12
HETATM   12  O2  UNL     1     -28.889  -2.044  41.280  1.00  0.00    -0.393 OA
ATOM     13  H2  UNL     1     -29.308  -2.677  40.709  1.00  0.00     0.210 HD
ENDBRANCH  11  12
BRANCH  11  14
HETATM   14  C12 UNL     1     -29.533  -0.194  42.552  1.00  0.00     0.035 C 
BRANCH  14  15
HETATM   15  C13 UNL     1     -28.143  -0.271  43.100  1.00  0.00     0.002 C 
BRANCH  15  16
HETATM   16  C14 UNL     1     -28.083  -0.698  44.536  1.00  0.00    -0.004 C 
HETATM   17  C15 UNL     1     -27.621  -2.154  44.550  1.00  0.00     0.005 C 
ENDBRANCH  15  16
ENDBRANCH  14  15
ENDBRANCH  11  14
ENDBRANCH   5  11
BRANCH   3  18
HETATM   18  O1  UNL     1     -32.698  -4.123  41.588  1.00  0.00    -0.395 OA
ATOM     19  H1  UNL     1     -33.107  -4.246  42.436  1.00  0.00     0.210 HD
ENDBRANCH   3  18
BRANCH  10  20
HETATM   20  C18 UNL     1     -31.541  -4.687  38.770  1.00  0.00     0.272 C 
HETATM   21  O5  UNL     1     -30.550  -4.670  39.499  1.00  0.00    -0.302 OA
ENDBRANCH  10  20
BRANCH   1  22
HETATM   22  C4  UNL     1     -34.295  -4.179  38.322  1.00  0.00     0.042 C 
BRANCH  22  23
HETATM   23  C2  UNL     1     -34.658  -4.219  36.922  1.00  0.00    -0.092 C 
HETATM   24  C1  UNL     1     -35.218  -3.254  36.247  1.00  0.00     0.014 C 
HETATM   25  C3  UNL     1     -34.380  -5.498  36.146  1.00  0.00     0.042 C 
ENDBRANCH  22  23
ENDBRANCH   1  22
TORSDOF 9
ENDMDL
