MODEL 1
REMARK VINA RESULT: -6.170420333      0.000      0.000
REMARK  7 active torsions:
REMARK  status: ('A' for Active; 'I' for Inactive)
REMARK    1  A    between atoms: C2_2  and  C4_4 
REMARK    2  A    between atoms: C4_4  and  C5_5 
REMARK    3  A    between atoms: C5_5  and  S1_6 
REMARK    4  A    between atoms: C5_5  and  C11_19 
REMARK    5  A    between atoms: S1_6  and  C6_7 
REMARK    6  A    between atoms: N3_13  and  C8_15 
REMARK       I    between atoms: C11_19  and  N4_21 
REMARK    7  A    between atoms: N4_21  and  C12_23 
ROOT
HETATM    1  S1  UNL     1     -31.876  -0.213  40.652  1.00  0.00    -0.070 SA
ENDROOT
BRANCH   1   2
HETATM    2  C5  UNL     1     -30.679  -1.394  41.319  1.00  0.00     0.148 C 
BRANCH   2   3
HETATM    3  C4  UNL     1     -29.400  -0.692  41.725  1.00  0.00     0.029 C 
BRANCH   3   4
HETATM    4  C2  UNL     1     -28.886  -1.145  43.058  1.00  0.00    -0.021 C 
HETATM    5  C1  UNL     1     -28.579   0.096  43.873  1.00  0.00     0.009 C 
HETATM    6  C3  UNL     1     -27.674  -2.012  42.984  1.00  0.00     0.009 C 
ENDBRANCH   3   4
ENDBRANCH   2   3
BRANCH   2   7
HETATM    7  C11 UNL     1     -30.342  -2.441  40.328  1.00  0.00     0.232 C 
HETATM    8  O2  UNL     1     -29.385  -2.270  39.532  1.00  0.00    -0.272 OA
HETATM    9  N4  UNL     1     -31.050  -3.666  40.206  1.00  0.00    -0.356 N 
ATOM     10  H4  UNL     1     -31.831  -3.836  40.840  1.00  0.00     0.162 HD
BRANCH   9  11
HETATM   11  C12 UNL     1     -30.728  -4.677  39.242  1.00  0.00     0.076 C 
HETATM   12  C13 UNL     1     -31.466  -4.473  37.945  1.00  0.00     0.032 C 
HETATM   13  C14 UNL     1     -31.168  -6.016  39.842  1.00  0.00     0.032 C 
ENDBRANCH   9  11
ENDBRANCH   2   7
ENDBRANCH   1   2
BRANCH   1  14
HETATM   14  C6  UNL     1     -32.541   0.866  41.891  1.00  0.00     0.205 A 
HETATM   15  N1  UNL     1     -31.900   1.485  42.911  1.00  0.00    -0.271 N 
HETATM   16  N2  UNL     1     -32.787   2.195  43.588  1.00  0.00    -0.263 N 
ATOM     17  H1  UNL     1     -30.904   1.414  43.122  1.00  0.00     0.189 HD
HETATM   18  C7  UNL     1     -33.962   2.004  42.975  1.00  0.00     0.241 A 
ATOM     19  H2  UNL     1     -32.611   2.773  44.409  1.00  0.00     0.190 HD
HETATM   20  N3  UNL     1     -35.081   2.528  43.333  1.00  0.00    -0.350 N 
HETATM   21  O1  UNL     1     -33.812   1.202  41.952  1.00  0.00    -0.253 OA
ATOM     22  H3  UNL     1     -35.926   2.323  42.801  1.00  0.00     0.163 HD
BRANCH  20  23
HETATM   23  C8  UNL     1     -35.156   3.403  44.477  1.00  0.00     0.085 A 
HETATM   24  C9  UNL     1     -36.544   3.987  44.697  1.00  0.00     0.027 A 
HETATM   25  C10 UNL     1     -35.428   4.855  44.294  1.00  0.00     0.027 A 
ENDBRANCH  20  23
ENDBRANCH   1  14
TORSDOF 7
ENDMDL
MODEL 2
REMARK VINA RESULT: -6.140194273      2.834      6.589
REMARK  7 active torsions:
REMARK  status: ('A' for Active; 'I' for Inactive)
REMARK    1  A    between atoms: C2_2  and  C4_4 
REMARK    2  A    between atoms: C4_4  and  C5_5 
REMARK    3  A    between atoms: C5_5  and  S1_6 
REMARK    4  A    between atoms: C5_5  and  C11_19 
REMARK    5  A    between atoms: S1_6  and  C6_7 
REMARK    6  A    between atoms: N3_13  and  C8_15 
REMARK       I    between atoms: C11_19  and  N4_21 
REMARK    7  A    between atoms: N4_21  and  C12_23 
ROOT
HETATM    1  S1  UNL     1     -30.049  -1.020  39.601  1.00  0.00    -0.070 SA
ENDROOT
BRANCH   1   2
HETATM    2  C5  UNL     1     -30.041  -0.147  41.186  1.00  0.00     0.148 C 
BRANCH   2   3
HETATM    3  C4  UNL     1     -29.499  -1.034  42.287  1.00  0.00     0.029 C 
BRANCH   3   4
HETATM    4  C2  UNL     1     -28.279  -0.466  42.944  1.00  0.00    -0.021 C 
HETATM    5  C1  UNL     1     -27.327  -1.617  43.209  1.00  0.00     0.009 C 
HETATM    6  C3  UNL     1     -28.553   0.265  44.216  1.00  0.00     0.009 C 
ENDBRANCH   3   4
ENDBRANCH   2   3
BRANCH   2   7
HETATM    7  C11 UNL     1     -31.402   0.292  41.568  1.00  0.00     0.232 C 
HETATM    8  O2  UNL     1     -31.567   1.035  42.568  1.00  0.00    -0.272 OA
HETATM    9  N4  UNL     1     -32.577  -0.081  40.862  1.00  0.00    -0.356 N 
ATOM     10  H4  UNL     1     -32.476  -0.681  40.043  1.00  0.00     0.162 HD
BRANCH   9  11
HETATM   11  C12 UNL     1     -33.895   0.340  41.236  1.00  0.00     0.076 C 
HETATM   12  C13 UNL     1     -34.828  -0.829  41.414  1.00  0.00     0.032 C 
HETATM   13  C14 UNL     1     -34.423   1.208  40.090  1.00  0.00     0.032 C 
ENDBRANCH   9  11
ENDBRANCH   2   7
ENDBRANCH   1   2
BRANCH   1  14
HETATM   14  C6  UNL     1     -30.707  -2.662  39.725  1.00  0.00     0.205 A 
HETATM   15  N1  UNL     1     -30.427  -3.748  38.966  1.00  0.00    -0.271 N 
HETATM   16  N2  UNL     1     -31.147  -4.763  39.415  1.00  0.00    -0.263 N 
ATOM     17  H1  UNL     1     -29.774  -3.779  38.183  1.00  0.00     0.189 HD
HETATM   18  C7  UNL     1     -31.860  -4.288  40.444  1.00  0.00     0.241 A 
ATOM     19  H2  UNL     1     -31.156  -5.716  39.051  1.00  0.00     0.190 HD
HETATM   20  N3  UNL     1     -32.689  -4.970  41.152  1.00  0.00    -0.350 N 
HETATM   21  O1  UNL     1     -31.593  -3.020  40.630  1.00  0.00    -0.253 OA
ATOM     22  H3  UNL     1     -33.186  -4.518  41.919  1.00  0.00     0.163 HD
BRANCH  20  23
HETATM   23  C8  UNL     1     -32.923  -6.366  40.876  1.00  0.00     0.085 A 
HETATM   24  C9  UNL     1     -33.247  -7.179  42.122  1.00  0.00     0.027 A 
HETATM   25  C10 UNL     1     -31.987  -7.401  41.397  1.00  0.00     0.027 A 
ENDBRANCH  20  23
ENDBRANCH   1  14
TORSDOF 7
ENDMDL
MODEL 3
REMARK VINA RESULT: -6.134895031      3.717      5.699
REMARK  7 active torsions:
REMARK  status: ('A' for Active; 'I' for Inactive)
REMARK    1  A    between atoms: C2_2  and  C4_4 
REMARK    2  A    between atoms: C4_4  and  C5_5 
REMARK    3  A    between atoms: C5_5  and  S1_6 
REMARK    4  A    between atoms: C5_5  and  C11_19 
REMARK    5  A    between atoms: S1_6  and  C6_7 
REMARK    6  A    between atoms: N3_13  and  C8_15 
REMARK       I    between atoms: C11_19  and  N4_21 
REMARK    7  A    between atoms: N4_21  and  C12_23 
ROOT
HETATM    1  S1  UNL     1     -30.748  -2.838  38.946  1.00  0.00    -0.070 SA
ENDROOT
BRANCH   1   2
HETATM    2  C5  UNL     1     -32.448  -3.204  39.444  1.00  0.00     0.148 C 
BRANCH   2   3
HETATM    3  C4  UNL     1     -32.768  -2.561  40.777  1.00  0.00     0.029 C 
BRANCH   3   4
HETATM    4  C2  UNL     1     -33.674  -1.374  40.648  1.00  0.00    -0.021 C 
HETATM    5  C1  UNL     1     -32.922  -0.169  41.178  1.00  0.00     0.009 C 
HETATM    6  C3  UNL     1     -34.973  -1.515  41.367  1.00  0.00     0.009 C 
ENDBRANCH   3   4
ENDBRANCH   2   3
BRANCH   2   7
HETATM    7  C11 UNL     1     -32.674  -4.662  39.563  1.00  0.00     0.232 C 
HETATM    8  O2  UNL     1     -33.325  -5.272  38.678  1.00  0.00    -0.272 OA
HETATM    9  N4  UNL     1     -32.195  -5.447  40.645  1.00  0.00    -0.356 N 
ATOM     10  H4  UNL     1     -31.661  -4.981  41.378  1.00  0.00     0.162 HD
BRANCH   9  11
HETATM   11  C12 UNL     1     -32.421  -6.858  40.763  1.00  0.00     0.076 C 
HETATM   12  C13 UNL     1     -32.728  -7.262  42.181  1.00  0.00     0.032 C 
HETATM   13  C14 UNL     1     -31.122  -7.549  40.335  1.00  0.00     0.032 C 
ENDBRANCH   9  11
ENDBRANCH   2   7
ENDBRANCH   1   2
BRANCH   1  14
HETATM   14  C6  UNL     1     -29.844  -1.951  40.187  1.00  0.00     0.205 A 
HETATM   15  N1  UNL     1     -29.450  -0.655  40.187  1.00  0.00    -0.271 N 
HETATM   16  N2  UNL     1     -28.803  -0.419  41.316  1.00  0.00    -0.263 N 
ATOM     17  H1  UNL     1     -29.622   0.022  39.444  1.00  0.00     0.189 HD
HETATM   18  C7  UNL     1     -28.807  -1.574  41.996  1.00  0.00     0.241 A 
ATOM     19  H2  UNL     1     -28.386   0.463  41.611  1.00  0.00     0.190 HD
HETATM   20  N3  UNL     1     -28.275  -1.758  43.151  1.00  0.00    -0.350 N 
HETATM   21  O1  UNL     1     -29.435  -2.497  41.313  1.00  0.00    -0.253 OA
ATOM     22  H3  UNL     1     -28.330  -2.676  43.591  1.00  0.00     0.163 HD
BRANCH  20  23
HETATM   23  C8  UNL     1     -27.600  -0.682  43.835  1.00  0.00     0.085 A 
HETATM   24  C9  UNL     1     -27.540  -0.872  45.344  1.00  0.00     0.027 A 
HETATM   25  C10 UNL     1     -28.352   0.207  44.762  1.00  0.00     0.027 A 
ENDBRANCH  20  23
ENDBRANCH   1  14
TORSDOF 7
ENDMDL
MODEL 4
REMARK VINA RESULT: -6.007438081      3.093      6.381
REMARK  7 active torsions:
REMARK  status: ('A' for Active; 'I' for Inactive)
REMARK    1  A    between atoms: C2_2  and  C4_4 
REMARK    2  A    between atoms: C4_4  and  C5_5 
REMARK    3  A    between atoms: C5_5  and  S1_6 
REMARK    4  A    between atoms: C5_5  and  C11_19 
REMARK    5  A    between atoms: S1_6  and  C6_7 
REMARK    6  A    between atoms: N3_13  and  C8_15 
REMARK       I    between atoms: C11_19  and  N4_21 
REMARK    7  A    between atoms: N4_21  and  C12_23 
ROOT
HETATM    1  S1  UNL     1     -30.723  -2.865  38.824  1.00  0.00    -0.070 SA
ENDROOT
BRANCH   1   2
HETATM    2  C5  UNL     1     -32.516  -2.637  38.906  1.00  0.00     0.148 C 
BRANCH   2   3
HETATM    3  C4  UNL     1     -33.014  -1.849  37.712  1.00  0.00     0.029 C 
BRANCH   3   4
HETATM    4  C2  UNL     1     -31.901  -1.314  36.864  1.00  0.00    -0.021 C 
HETATM    5  C1  UNL     1     -31.984   0.200  36.905  1.00  0.00     0.009 C 
HETATM    6  C3  UNL     1     -31.933  -1.782  35.447  1.00  0.00     0.009 C 
ENDBRANCH   3   4
ENDBRANCH   2   3
BRANCH   2   7
HETATM    7  C11 UNL     1     -32.914  -1.920  40.138  1.00  0.00     0.232 C 
HETATM    8  O2  UNL     1     -33.115  -2.558  41.201  1.00  0.00    -0.272 OA
HETATM    9  N4  UNL     1     -33.094  -0.513  40.206  1.00  0.00    -0.356 N 
ATOM     10  H4  UNL     1     -32.936   0.035  39.360  1.00  0.00     0.162 HD
BRANCH   9  11
HETATM   11  C12 UNL     1     -33.486   0.181  41.398  1.00  0.00     0.076 C 
HETATM   12  C13 UNL     1     -34.451   1.300  41.106  1.00  0.00     0.032 C 
HETATM   13  C14 UNL     1     -32.212   0.786  41.995  1.00  0.00     0.032 C 
ENDBRANCH   9  11
ENDBRANCH   2   7
ENDBRANCH   1   2
BRANCH   1  14
HETATM   14  C6  UNL     1     -29.856  -1.946  40.068  1.00  0.00     0.205 A 
HETATM   15  N1  UNL     1     -29.435  -0.660  40.035  1.00  0.00    -0.271 N 
HETATM   16  N2  UNL     1     -28.834  -0.391  41.182  1.00  0.00    -0.263 N 
ATOM     17  H1  UNL     1     -29.559  -0.009  39.258  1.00  0.00     0.189 HD
HETATM   18  C7  UNL     1     -28.893  -1.516  41.905  1.00  0.00     0.241 A 
ATOM     19  H2  UNL     1     -28.412   0.495  41.459  1.00  0.00     0.190 HD
HETATM   20  N3  UNL     1     -28.415  -1.664  43.090  1.00  0.00    -0.350 N 
HETATM   21  O1  UNL     1     -29.509  -2.454  41.232  1.00  0.00    -0.253 OA
ATOM     22  H3  UNL     1     -28.510  -2.562  43.563  1.00  0.00     0.163 HD
BRANCH  20  23
HETATM   23  C8  UNL     1     -27.748  -0.575  43.760  1.00  0.00     0.085 A 
HETATM   24  C9  UNL     1     -27.644  -0.768  45.266  1.00  0.00     0.027 A 
HETATM   25  C10 UNL     1     -28.497   0.294  44.710  1.00  0.00     0.027 A 
ENDBRANCH  20  23
ENDBRANCH   1  14
TORSDOF 7
ENDMDL
MODEL 5
REMARK VINA RESULT: -6.001001463      1.614      3.913
REMARK  7 active torsions:
REMARK  status: ('A' for Active; 'I' for Inactive)
REMARK    1  A    between atoms: C2_2  and  C4_4 
REMARK    2  A    between atoms: C4_4  and  C5_5 
REMARK    3  A    between atoms: C5_5  and  S1_6 
REMARK    4  A    between atoms: C5_5  and  C11_19 
REMARK    5  A    between atoms: S1_6  and  C6_7 
REMARK    6  A    between atoms: N3_13  and  C8_15 
REMARK       I    between atoms: C11_19  and  N4_21 
REMARK    7  A    between atoms: N4_21  and  C12_23 
ROOT
HETATM    1  S1  UNL     1     -32.170  -0.115  40.720  1.00  0.00    -0.070 SA
ENDROOT
BRANCH   1   2
HETATM    2  C5  UNL     1     -30.362  -0.146  40.657  1.00  0.00     0.148 C 
BRANCH   2   3
HETATM    3  C4  UNL     1     -29.879  -0.810  39.385  1.00  0.00     0.029 C 
BRANCH   3   4
HETATM    4  C2  UNL     1     -30.942  -1.628  38.716  1.00  0.00    -0.021 C 
HETATM    5  C1  UNL     1     -30.500  -3.077  38.767  1.00  0.00     0.009 C 
HETATM    6  C3  UNL     1     -31.218  -1.234  37.303  1.00  0.00     0.009 C 
ENDBRANCH   3   4
ENDBRANCH   2   3
BRANCH   2   7
HETATM    7  C11 UNL     1     -29.793  -0.879  41.811  1.00  0.00     0.232 C 
HETATM    8  O2  UNL     1     -30.223  -2.023  42.103  1.00  0.00    -0.272 OA
HETATM    9  N4  UNL     1     -28.763  -0.364  42.641  1.00  0.00    -0.356 N 
ATOM     10  H4  UNL     1     -28.391   0.562  42.428  1.00  0.00     0.162 HD
BRANCH   9  11
HETATM   11  C12 UNL     1     -28.218  -1.072  43.762  1.00  0.00     0.076 C 
HETATM   12  C13 UNL     1     -28.072  -0.184  44.970  1.00  0.00     0.032 C 
HETATM   13  C14 UNL     1     -26.824  -1.552  43.345  1.00  0.00     0.032 C 
ENDBRANCH   9  11
ENDBRANCH   2   7
ENDBRANCH   1   2
BRANCH   1  14
HETATM   14  C6  UNL     1     -32.795   0.985  41.962  1.00  0.00     0.205 A 
HETATM   15  N1  UNL     1     -32.125   1.610  42.959  1.00  0.00    -0.271 N 
HETATM   16  N2  UNL     1     -32.989   2.337  43.647  1.00  0.00    -0.263 N 
ATOM     17  H1  UNL     1     -31.125   1.532  43.147  1.00  0.00     0.189 HD
HETATM   18  C7  UNL     1     -34.180   2.149  43.065  1.00  0.00     0.241 A 
ATOM     19  H2  UNL     1     -32.788   2.922  44.457  1.00  0.00     0.190 HD
HETATM   20  N3  UNL     1     -35.285   2.688  43.442  1.00  0.00    -0.350 N 
HETATM   21  O1  UNL     1     -34.062   1.333  42.048  1.00  0.00    -0.253 OA
ATOM     22  H3  UNL     1     -36.144   2.484  42.932  1.00  0.00     0.163 HD
BRANCH  20  23
HETATM   23  C8  UNL     1     -35.325   3.577  44.576  1.00  0.00     0.085 A 
HETATM   24  C9  UNL     1     -36.681   4.242  44.772  1.00  0.00     0.027 A 
HETATM   25  C10 UNL     1     -35.511   5.041  44.376  1.00  0.00     0.027 A 
ENDBRANCH  20  23
ENDBRANCH   1  14
TORSDOF 7
ENDMDL
