MODEL 1
REMARK VINA RESULT: -7.136222912      0.000      0.000
REMARK  3 active torsions:
REMARK  status: ('A' for Active; 'I' for Inactive)
REMARK    1  A    between atoms: C2_2  and  C4_4 
REMARK    2  A    between atoms: C5_7  and  C6_8 
REMARK    3  A    between atoms: C18_24  and  O1_25 
ROOT
HETATM    1  C4  UNL     1      35.421   4.380  22.626  1.00  0.00     0.066 A 
HETATM    2  N1  UNL     1      34.906   5.162  23.563  1.00  0.00    -0.344 N 
ATOM      3  H1  UNL     1      35.387   5.243  24.459  1.00  0.00     0.167 HD
HETATM    4  C5  UNL     1      33.763   5.851  23.369  1.00  0.00     0.105 A 
HETATM    5  N2  UNL     1      33.166   5.716  22.183  1.00  0.00    -0.286 N 
ATOM      6  H2  UNL     1      32.304   6.240  22.035  1.00  0.00     0.188 HD
HETATM    7  N3  UNL     1      33.593   4.963  21.184  1.00  0.00    -0.277 N 
ATOM      8  H3  UNL     1      33.088   4.899  20.300  1.00  0.00     0.189 HD
HETATM    9  C18 UNL     1      34.739   4.284  21.408  1.00  0.00     0.178 A 
ENDROOT
BRANCH   4  10
HETATM   10  C6  UNL     1      33.201   6.798  24.378  1.00  0.00     0.021 C 
HETATM   11  C7  UNL     1      31.735   6.497  24.532  1.00  0.00     0.022 C 
HETATM   12  C8  UNL     1      30.977   7.577  25.209  1.00  0.00    -0.013 C 
HETATM   13  C9  UNL     1      31.103   8.838  24.376  1.00  0.00     0.009 C 
HETATM   14  C13 UNL     1      31.378   7.879  26.617  1.00  0.00     0.010 C 
HETATM   15  C10 UNL     1      32.554   9.242  24.413  1.00  0.00    -0.013 C 
HETATM   16  C11 UNL     1      33.053   9.567  25.788  1.00  0.00     0.010 C 
HETATM   17  C17 UNL     1      33.439   8.186  23.842  1.00  0.00     0.022 C 
HETATM   18  C12 UNL     1      32.769   8.444  26.744  1.00  0.00    -0.010 C 
HETATM   19  C14 UNL     1      33.860   7.400  26.744  1.00  0.00    -0.013 C 
HETATM   20  C15 UNL     1      33.707   6.631  28.077  1.00  0.00     0.010 C 
HETATM   21  C16 UNL     1      33.906   6.463  25.647  1.00  0.00     0.022 C 
ENDBRANCH   4  10
BRANCH   1  22
HETATM   22  C2  UNL     1      36.668   3.595  22.725  1.00  0.00     0.032 C 
HETATM   23  C1  UNL     1      36.509   2.247  23.336  1.00  0.00     0.016 C 
HETATM   24  C3  UNL     1      37.627   4.458  23.590  1.00  0.00     0.016 C 
ENDBRANCH   1  22
BRANCH   9  25
HETATM   25  O1  UNL     1      35.203   3.473  20.373  1.00  0.00    -0.344 OA
ATOM     26  H1  UNL     1      34.880   2.588  20.252  1.00  0.00     0.219 HD
ENDBRANCH   9  25
TORSDOF 3
ENDMDL
MODEL 2
REMARK VINA RESULT: -7.115030439      1.347      3.004
REMARK  3 active torsions:
REMARK  status: ('A' for Active; 'I' for Inactive)
REMARK    1  A    between atoms: C2_2  and  C4_4 
REMARK    2  A    between atoms: C5_7  and  C6_8 
REMARK    3  A    between atoms: C18_24  and  O1_25 
ROOT
HETATM    1  C4  UNL     1      35.470   4.765  22.555  1.00  0.00     0.066 A 
HETATM    2  N1  UNL     1      34.608   5.699  22.930  1.00  0.00    -0.344 N 
ATOM      3  H1  UNL     1      33.886   5.998  22.275  1.00  0.00     0.167 HD
HETATM    4  C5  UNL     1      34.660   6.267  24.153  1.00  0.00     0.105 A 
HETATM    5  N2  UNL     1      35.621   5.847  24.978  1.00  0.00    -0.286 N 
ATOM      6  H2  UNL     1      35.657   6.273  25.903  1.00  0.00     0.188 HD
HETATM    7  N3  UNL     1      36.529   4.927  24.702  1.00  0.00    -0.277 N 
ATOM      8  H3  UNL     1      37.242   4.650  25.377  1.00  0.00     0.189 HD
HETATM    9  C18 UNL     1      36.453   4.377  23.471  1.00  0.00     0.178 A 
ENDROOT
BRANCH   4  10
HETATM   10  C6  UNL     1      33.656   7.265  24.631  1.00  0.00     0.021 C 
HETATM   11  C7  UNL     1      33.811   7.403  26.120  1.00  0.00     0.022 C 
HETATM   12  C8  UNL     1      32.657   8.065  26.777  1.00  0.00    -0.013 C 
HETATM   13  C9  UNL     1      31.420   7.226  26.518  1.00  0.00     0.009 C 
HETATM   14  C13 UNL     1      32.386   9.476  26.363  1.00  0.00     0.010 C 
HETATM   15  C10 UNL     1      31.160   7.279  25.034  1.00  0.00    -0.013 C 
HETATM   16  C11 UNL     1      30.876   8.657  24.522  1.00  0.00     0.010 C 
HETATM   17  C17 UNL     1      32.302   6.723  24.252  1.00  0.00     0.022 C 
HETATM   18  C12 UNL     1      31.960   9.616  24.925  1.00  0.00    -0.010 C 
HETATM   19  C14 UNL     1      33.106   9.635  23.942  1.00  0.00    -0.013 C 
HETATM   20  C15 UNL     1      33.848  10.970  24.185  1.00  0.00     0.010 C 
HETATM   21  C16 UNL     1      34.050   8.544  23.976  1.00  0.00     0.022 C 
ENDBRANCH   4  10
BRANCH   1  22
HETATM   22  C2  UNL     1      35.497   4.069  21.252  1.00  0.00     0.032 C 
HETATM   23  C1  UNL     1      35.010   4.879  20.102  1.00  0.00     0.016 C 
HETATM   24  C3  UNL     1      34.595   2.819  21.438  1.00  0.00     0.016 C 
ENDBRANCH   1  22
BRANCH   9  25
HETATM   25  O1  UNL     1      37.408   3.412  23.152  1.00  0.00    -0.344 OA
ATOM     26  H1  UNL     1      37.495   2.612  23.657  1.00  0.00     0.219 HD
ENDBRANCH   9  25
TORSDOF 3
ENDMDL
MODEL 3
REMARK VINA RESULT: -7.095400951      0.679      2.123
REMARK  3 active torsions:
REMARK  status: ('A' for Active; 'I' for Inactive)
REMARK    1  A    between atoms: C2_2  and  C4_4 
REMARK    2  A    between atoms: C5_7  and  C6_8 
REMARK    3  A    between atoms: C18_24  and  O1_25 
ROOT
HETATM    1  C4  UNL     1      35.372   4.273  22.845  1.00  0.00     0.066 A 
HETATM    2  N1  UNL     1      34.850   5.177  23.661  1.00  0.00    -0.344 N 
ATOM      3  H1  UNL     1      35.282   5.328  24.573  1.00  0.00     0.167 HD
HETATM    4  C5  UNL     1      33.765   5.902  23.321  1.00  0.00     0.105 A 
HETATM    5  N2  UNL     1      33.232   5.673  22.120  1.00  0.00    -0.286 N 
ATOM      6  H2  UNL     1      32.414   6.224  21.863  1.00  0.00     0.188 HD
HETATM    7  N3  UNL     1      33.671   4.796  21.235  1.00  0.00    -0.277 N 
ATOM      8  H3  UNL     1      33.216   4.664  20.331  1.00  0.00     0.189 HD
HETATM    9  C18 UNL     1      34.758   4.084  21.602  1.00  0.00     0.178 A 
ENDROOT
BRANCH   4  10
HETATM   10  C6  UNL     1      33.203   6.981  24.189  1.00  0.00     0.021 C 
HETATM   11  C7  UNL     1      33.803   6.834  25.560  1.00  0.00     0.022 C 
HETATM   12  C8  UNL     1      33.073   7.586  26.610  1.00  0.00    -0.013 C 
HETATM   13  C9  UNL     1      31.653   7.059  26.670  1.00  0.00     0.009 C 
HETATM   14  C13 UNL     1      33.037   9.072  26.448  1.00  0.00     0.010 C 
HETATM   15  C10 UNL     1      31.002   7.409  25.357  1.00  0.00    -0.013 C 
HETATM   16  C11 UNL     1      30.917   8.883  25.102  1.00  0.00     0.010 C 
HETATM   17  C17 UNL     1      31.709   6.784  24.203  1.00  0.00     0.022 C 
HETATM   18  C12 UNL     1      32.264   9.533  25.239  1.00  0.00    -0.010 C 
HETATM   19  C14 UNL     1      33.054   9.494  23.952  1.00  0.00    -0.013 C 
HETATM   20  C15 UNL     1      34.127  10.600  24.084  1.00  0.00     0.010 C 
HETATM   21  C16 UNL     1      33.684   8.251  23.577  1.00  0.00     0.022 C 
ENDBRANCH   4  10
BRANCH   1  22
HETATM   22  C2  UNL     1      36.561   3.436  23.106  1.00  0.00     0.032 C 
HETATM   23  C1  UNL     1      36.349   2.342  24.093  1.00  0.00     0.016 C 
HETATM   24  C3  UNL     1      37.644   4.418  23.631  1.00  0.00     0.016 C 
ENDBRANCH   1  22
BRANCH   9  25
HETATM   25  O1  UNL     1      35.233   3.143  20.689  1.00  0.00    -0.344 OA
ATOM     26  H1  UNL     1      34.747   2.924  19.901  1.00  0.00     0.219 HD
ENDBRANCH   9  25
TORSDOF 3
ENDMDL
MODEL 4
REMARK VINA RESULT: -7.082091066      4.055      6.704
REMARK  3 active torsions:
REMARK  status: ('A' for Active; 'I' for Inactive)
REMARK    1  A    between atoms: C2_2  and  C4_4 
REMARK    2  A    between atoms: C5_7  and  C6_8 
REMARK    3  A    between atoms: C18_24  and  O1_25 
ROOT
HETATM    1  C4  UNL     1      31.308  12.127  23.388  1.00  0.00     0.066 A 
HETATM    2  N1  UNL     1      31.457  10.845  23.688  1.00  0.00    -0.344 N 
ATOM      3  H1  UNL     1      30.782  10.171  23.328  1.00  0.00     0.167 HD
HETATM    4  C5  UNL     1      32.477  10.406  24.456  1.00  0.00     0.105 A 
HETATM    5  N2  UNL     1      33.336  11.322  24.905  1.00  0.00    -0.286 N 
ATOM      6  H2  UNL     1      34.109  10.989  25.482  1.00  0.00     0.188 HD
HETATM    7  N3  UNL     1      33.277  12.621  24.668  1.00  0.00    -0.277 N 
ATOM      8  H3  UNL     1      33.966  13.272  25.044  1.00  0.00     0.189 HD
HETATM    9  C18 UNL     1      32.246  13.030  23.897  1.00  0.00     0.178 A 
ENDROOT
BRANCH   4  10
HETATM   10  C6  UNL     1      32.713   8.960  24.745  1.00  0.00     0.021 C 
HETATM   11  C7  UNL     1      31.470   8.202  24.367  1.00  0.00     0.022 C 
HETATM   12  C8  UNL     1      31.417   6.832  24.935  1.00  0.00    -0.013 C 
HETATM   13  C9  UNL     1      31.447   6.945  26.447  1.00  0.00     0.009 C 
HETATM   14  C13 UNL     1      32.496   5.896  24.494  1.00  0.00     0.010 C 
HETATM   15  C10 UNL     1      32.793   7.513  26.816  1.00  0.00    -0.013 C 
HETATM   16  C11 UNL     1      33.943   6.641  26.415  1.00  0.00     0.010 C 
HETATM   17  C17 UNL     1      33.009   8.862  26.220  1.00  0.00     0.022 C 
HETATM   18  C12 UNL     1      33.873   6.295  24.955  1.00  0.00    -0.010 C 
HETATM   19  C14 UNL     1      34.535   7.336  24.085  1.00  0.00    -0.013 C 
HETATM   20  C15 UNL     1      34.841   6.631  22.743  1.00  0.00     0.010 C 
HETATM   21  C16 UNL     1      33.824   8.567  23.834  1.00  0.00     0.022 C 
ENDBRANCH   4  10
BRANCH   1  22
HETATM   22  C2  UNL     1      30.243  12.714  22.549  1.00  0.00     0.032 C 
HETATM   23  C1  UNL     1      28.870  12.227  22.853  1.00  0.00     0.016 C 
HETATM   24  C3  UNL     1      30.624  12.345  21.089  1.00  0.00     0.016 C 
ENDBRANCH   1  22
BRANCH   9  25
HETATM   25  O1  UNL     1      32.155  14.399  23.644  1.00  0.00    -0.344 OA
ATOM     26  H1  UNL     1      32.790  14.847  23.096  1.00  0.00     0.219 HD
ENDBRANCH   9  25
TORSDOF 3
ENDMDL
MODEL 5
REMARK VINA RESULT: -7.054506153      4.478      6.610
REMARK  3 active torsions:
REMARK  status: ('A' for Active; 'I' for Inactive)
REMARK    1  A    between atoms: C2_2  and  C4_4 
REMARK    2  A    between atoms: C5_7  and  C6_8 
REMARK    3  A    between atoms: C18_24  and  O1_25 
ROOT
HETATM    1  C4  UNL     1      32.009   8.275  27.366  1.00  0.00     0.066 A 
HETATM    2  N1  UNL     1      32.296   9.132  26.397  1.00  0.00    -0.344 N 
ATOM      3  H1  UNL     1      33.205   9.074  25.938  1.00  0.00     0.167 HD
HETATM    4  C5  UNL     1      31.420  10.079  26.000  1.00  0.00     0.105 A 
HETATM    5  N2  UNL     1      30.244  10.119  26.627  1.00  0.00    -0.286 N 
ATOM      6  H2  UNL     1      29.581  10.833  26.325  1.00  0.00     0.188 HD
HETATM    7  N3  UNL     1      29.861   9.316  27.605  1.00  0.00    -0.277 N 
ATOM      8  H3  UNL     1      28.945   9.400  28.048  1.00  0.00     0.189 HD
HETATM    9  C18 UNL     1      30.757   8.379  27.981  1.00  0.00     0.178 A 
ENDROOT
BRANCH   4  10
HETATM   10  C6  UNL     1      31.686  11.007  24.860  1.00  0.00     0.021 C 
HETATM   11  C7  UNL     1      32.641  10.324  23.920  1.00  0.00     0.022 C 
HETATM   12  C8  UNL     1      33.279  11.249  22.950  1.00  0.00    -0.013 C 
HETATM   13  C9  UNL     1      34.062  12.287  23.730  1.00  0.00     0.009 C 
HETATM   14  C13 UNL     1      32.356  11.944  22.001  1.00  0.00     0.010 C 
HETATM   15  C10 UNL     1      33.057  13.100  24.505  1.00  0.00    -0.013 C 
HETATM   16  C11 UNL     1      32.085  13.839  23.637  1.00  0.00     0.010 C 
HETATM   17  C17 UNL     1      32.277  12.258  25.456  1.00  0.00     0.022 C 
HETATM   18  C12 UNL     1      31.411  12.909  22.669  1.00  0.00    -0.010 C 
HETATM   19  C14 UNL     1      30.182  12.258  23.258  1.00  0.00    -0.013 C 
HETATM   20  C15 UNL     1      29.343  11.774  22.052  1.00  0.00     0.010 C 
HETATM   21  C16 UNL     1      30.367  11.169  24.187  1.00  0.00     0.022 C 
ENDBRANCH   4  10
BRANCH   1  22
HETATM   22  C2  UNL     1      32.882   7.194  27.868  1.00  0.00     0.032 C 
HETATM   23  C1  UNL     1      33.602   7.511  29.133  1.00  0.00     0.016 C 
HETATM   24  C3  UNL     1      33.905   6.933  26.729  1.00  0.00     0.016 C 
ENDBRANCH   1  22
BRANCH   9  25
HETATM   25  O1  UNL     1      30.381   7.528  29.019  1.00  0.00    -0.344 OA
ATOM     26  H1  UNL     1      30.648   7.689  29.917  1.00  0.00     0.219 HD
ENDBRANCH   9  25
TORSDOF 3
ENDMDL
