MODEL 1
REMARK VINA RESULT: -7.652704761      0.000      0.000
REMARK  2 active torsions:
REMARK  status: ('A' for Active; 'I' for Inactive)
REMARK    1  A    between atoms: C9_10  and  S1_11 
REMARK    2  A    between atoms: S1_11  and  C10_12 
ROOT
HETATM    1  O1  UNL     1      33.579   9.961  23.372  1.00  0.00    -0.297 OA
HETATM    2  C1  UNL     1      33.149  10.738  24.226  1.00  0.00     0.141 C 
HETATM    3  C2  UNL     1      33.310  12.178  24.044  1.00  0.00     0.079 C 
HETATM    4  C3  UNL     1      32.070  12.920  23.607  1.00  0.00     0.007 C 
HETATM    5  C4  UNL     1      31.494  12.438  22.329  1.00  0.00     0.000 C 
HETATM    6  C5  UNL     1      30.051  12.091  22.337  1.00  0.00     0.000 C 
HETATM    7  C6  UNL     1      29.561  11.382  23.568  1.00  0.00     0.000 C 
HETATM    8  C7  UNL     1      30.448  10.194  23.921  1.00  0.00     0.002 C 
HETATM    9  C8  UNL     1      30.983  10.272  25.305  1.00  0.00     0.023 C 
HETATM   10  C9  UNL     1      32.476  10.193  25.424  1.00  0.00     0.123 C 
ENDROOT
BRANCH  10  11
HETATM   11  S1  UNL     1      32.933   8.453  25.690  1.00  0.00    -0.091 SA
BRANCH  11  12
HETATM   12  C10 UNL     1      32.461   7.931  27.346  1.00  0.00     0.130 A 
HETATM   13  N1  UNL     1      31.362   8.209  28.030  1.00  0.00    -0.287 N 
HETATM   14  N2  UNL     1      31.194   7.748  29.198  1.00  0.00    -0.283 N 
ATOM     15  H1  UNL     1      30.643   8.800  27.612  1.00  0.00     0.188 HD
HETATM   16  C11 UNL     1      32.144   6.976  29.732  1.00  0.00     0.159 A 
ATOM     17  H2  UNL     1      30.346   7.962  29.722  1.00  0.00     0.188 HD
HETATM   18  S2  UNL     1      32.163   6.264  31.217  1.00  0.00    -0.051 SA
HETATM   19  S3  UNL     1      33.306   6.938  28.470  1.00  0.00    -0.033 SA
ENDBRANCH  11  12
ENDBRANCH  10  11
TORSDOF 2
ENDMDL
MODEL 2
REMARK VINA RESULT: -7.306440594      0.987      1.042
REMARK  2 active torsions:
REMARK  status: ('A' for Active; 'I' for Inactive)
REMARK    1  A    between atoms: C9_10  and  S1_11 
REMARK    2  A    between atoms: S1_11  and  C10_12 
ROOT
HETATM    1  O1  UNL     1      32.673   9.390  23.771  1.00  0.00    -0.297 OA
HETATM    2  C1  UNL     1      32.322  10.295  24.529  1.00  0.00     0.141 C 
HETATM    3  C2  UNL     1      32.983  11.595  24.463  1.00  0.00     0.079 C 
HETATM    4  C3  UNL     1      32.202  12.686  23.770  1.00  0.00     0.007 C 
HETATM    5  C4  UNL     1      31.838  12.373  22.368  1.00  0.00     0.000 C 
HETATM    6  C5  UNL     1      30.406  12.519  22.004  1.00  0.00     0.000 C 
HETATM    7  C6  UNL     1      29.422  12.053  23.039  1.00  0.00     0.000 C 
HETATM    8  C7  UNL     1      29.756  10.654  23.543  1.00  0.00     0.002 C 
HETATM    9  C8  UNL     1      29.925  10.603  25.018  1.00  0.00     0.023 C 
HETATM   10  C9  UNL     1      31.232  10.044  25.497  1.00  0.00     0.123 C 
ENDROOT
BRANCH  10  11
HETATM   11  S1  UNL     1      31.016   8.261  25.783  1.00  0.00    -0.091 SA
BRANCH  11  12
HETATM   12  C10 UNL     1      31.692   7.800  27.386  1.00  0.00     0.130 A 
HETATM   13  N1  UNL     1      31.146   7.906  28.587  1.00  0.00    -0.287 N 
HETATM   14  N2  UNL     1      31.775   7.525  29.618  1.00  0.00    -0.283 N 
ATOM     15  H1  UNL     1      30.210   8.299  28.682  1.00  0.00     0.188 HD
HETATM   16  C11 UNL     1      33.000   7.014  29.478  1.00  0.00     0.159 A 
ATOM     17  H2  UNL     1      31.352   7.607  30.543  1.00  0.00     0.188 HD
HETATM   18  S2  UNL     1      34.011   6.453  30.650  1.00  0.00    -0.051 SA
HETATM   19  S3  UNL     1      33.217   7.103  27.778  1.00  0.00    -0.033 SA
ENDBRANCH  11  12
ENDBRANCH  10  11
TORSDOF 2
ENDMDL
MODEL 3
REMARK VINA RESULT: -7.099745948      2.519      3.110
REMARK  2 active torsions:
REMARK  status: ('A' for Active; 'I' for Inactive)
REMARK    1  A    between atoms: C9_10  and  S1_11 
REMARK    2  A    between atoms: S1_11  and  C10_12 
ROOT
HETATM    1  O1  UNL     1      32.678   9.500  23.582  1.00  0.00    -0.297 OA
HETATM    2  C1  UNL     1      32.377  10.460  24.294  1.00  0.00     0.141 C 
HETATM    3  C2  UNL     1      32.991  11.762  24.054  1.00  0.00     0.079 C 
HETATM    4  C3  UNL     1      32.116  12.774  23.353  1.00  0.00     0.007 C 
HETATM    5  C4  UNL     1      31.627  12.335  22.025  1.00  0.00     0.000 C 
HETATM    6  C5  UNL     1      30.164  12.420  21.793  1.00  0.00     0.000 C 
HETATM    7  C6  UNL     1      29.298  12.025  22.955  1.00  0.00     0.000 C 
HETATM    8  C7  UNL     1      29.718  10.681  23.538  1.00  0.00     0.002 C 
HETATM    9  C8  UNL     1      30.031  10.760  24.989  1.00  0.00     0.023 C 
HETATM   10  C9  UNL     1      31.394  10.271  25.382  1.00  0.00     0.123 C 
ENDROOT
BRANCH  10  11
HETATM   11  S1  UNL     1      31.257   8.515  25.835  1.00  0.00    -0.091 SA
BRANCH  11  12
HETATM   12  C10 UNL     1      32.813   7.668  25.521  1.00  0.00     0.130 A 
HETATM   13  N1  UNL     1      34.009   7.891  26.045  1.00  0.00    -0.287 N 
HETATM   14  N2  UNL     1      35.005   7.186  25.704  1.00  0.00    -0.283 N 
ATOM     15  H1  UNL     1      34.128   8.639  26.728  1.00  0.00     0.188 HD
HETATM   16  C11 UNL     1      34.833   6.212  24.807  1.00  0.00     0.159 A 
ATOM     17  H2  UNL     1      35.925   7.360  26.110  1.00  0.00     0.188 HD
HETATM   18  S2  UNL     1      35.957   5.170  24.207  1.00  0.00    -0.051 SA
HETATM   19  S3  UNL     1      33.157   6.350  24.467  1.00  0.00    -0.033 SA
ENDBRANCH  11  12
ENDBRANCH  10  11
TORSDOF 2
ENDMDL
MODEL 4
REMARK VINA RESULT: -7.093741706      3.077      4.341
REMARK  2 active torsions:
REMARK  status: ('A' for Active; 'I' for Inactive)
REMARK    1  A    between atoms: C9_10  and  S1_11 
REMARK    2  A    between atoms: S1_11  and  C10_12 
ROOT
HETATM    1  O1  UNL     1      30.762  10.152  25.958  1.00  0.00    -0.297 OA
HETATM    2  C1  UNL     1      30.927  10.035  24.743  1.00  0.00     0.141 C 
HETATM    3  C2  UNL     1      30.190  10.897  23.824  1.00  0.00     0.079 C 
HETATM    4  C3  UNL     1      30.984  12.030  23.217  1.00  0.00     0.007 C 
HETATM    5  C4  UNL     1      31.577  12.954  24.211  1.00  0.00     0.000 C 
HETATM    6  C5  UNL     1      33.032  13.219  24.090  1.00  0.00     0.000 C 
HETATM    7  C6  UNL     1      33.881  12.031  23.736  1.00  0.00     0.000 C 
HETATM    8  C7  UNL     1      33.579  10.838  24.634  1.00  0.00     0.002 C 
HETATM    9  C8  UNL     1      33.194   9.626  23.865  1.00  0.00     0.023 C 
HETATM   10  C9  UNL     1      31.874   9.018  24.238  1.00  0.00     0.123 C 
ENDROOT
BRANCH  10  11
HETATM   11  S1  UNL     1      32.175   7.734  25.490  1.00  0.00    -0.091 SA
BRANCH  11  12
HETATM   12  C10 UNL     1      33.582   6.717  25.014  1.00  0.00     0.130 A 
HETATM   13  N1  UNL     1      34.658   6.396  25.715  1.00  0.00    -0.287 N 
HETATM   14  N2  UNL     1      35.559   5.659  25.214  1.00  0.00    -0.283 N 
ATOM     15  H1  UNL     1      34.763   6.745  26.667  1.00  0.00     0.188 HD
HETATM   16  C11 UNL     1      35.408   5.210  23.965  1.00  0.00     0.159 A 
ATOM     17  H2  UNL     1      36.386   5.411  25.756  1.00  0.00     0.188 HD
HETATM   18  S2  UNL     1      36.425   4.249  23.098  1.00  0.00    -0.051 SA
HETATM   19  S3  UNL     1      33.897   5.899  23.532  1.00  0.00    -0.033 SA
ENDBRANCH  11  12
ENDBRANCH  10  11
TORSDOF 2
ENDMDL
MODEL 5
REMARK VINA RESULT: -6.798132985      3.088      4.081
REMARK  2 active torsions:
REMARK  status: ('A' for Active; 'I' for Inactive)
REMARK    1  A    between atoms: C9_10  and  S1_11 
REMARK    2  A    between atoms: S1_11  and  C10_12 
ROOT
HETATM    1  O1  UNL     1      30.461  10.502  25.869  1.00  0.00    -0.297 OA
HETATM    2  C1  UNL     1      30.670  10.410  24.659  1.00  0.00     0.141 C 
HETATM    3  C2  UNL     1      30.120  11.410  23.749  1.00  0.00     0.079 C 
HETATM    4  C3  UNL     1      31.105  12.432  23.233  1.00  0.00     0.007 C 
HETATM    5  C4  UNL     1      31.778  13.215  24.296  1.00  0.00     0.000 C 
HETATM    6  C5  UNL     1      33.260  13.260  24.254  1.00  0.00     0.000 C 
HETATM    7  C6  UNL     1      33.939  11.972  23.883  1.00  0.00     0.000 C 
HETATM    8  C7  UNL     1      33.415  10.803  24.709  1.00  0.00     0.002 C 
HETATM    9  C8  UNL     1      32.893   9.696  23.867  1.00  0.00     0.023 C 
HETATM   10  C9  UNL     1      31.479   9.282  24.150  1.00  0.00     0.123 C 
ENDROOT
BRANCH  10  11
HETATM   11  S1  UNL     1      31.518   7.918  25.352  1.00  0.00    -0.091 SA
BRANCH  11  12
HETATM   12  C10 UNL     1      32.801   6.735  24.911  1.00  0.00     0.130 A 
HETATM   13  N1  UNL     1      32.776   5.772  24.004  1.00  0.00    -0.287 N 
HETATM   14  N2  UNL     1      33.785   5.026  23.825  1.00  0.00    -0.283 N 
ATOM     15  H1  UNL     1      31.936   5.628  23.444  1.00  0.00     0.188 HD
HETATM   16  C11 UNL     1      34.877   5.226  24.567  1.00  0.00     0.159 A 
ATOM     17  H2  UNL     1      33.763   4.285  23.125  1.00  0.00     0.188 HD
HETATM   18  S2  UNL     1      36.301   4.400  24.526  1.00  0.00    -0.051 SA
HETATM   19  S3  UNL     1      34.391   6.548  25.547  1.00  0.00    -0.033 SA
ENDBRANCH  11  12
ENDBRANCH  10  11
TORSDOF 2
ENDMDL
