MODEL 1
REMARK VINA RESULT: -6.733135114      0.000      0.000
REMARK  2 active torsions:
REMARK  status: ('A' for Active; 'I' for Inactive)
REMARK    1  A    between atoms: C6_7  and  C7_8 
REMARK    2  A    between atoms: N1_9  and  N2_11 
ROOT
HETATM    1  C1  UNL     1      29.658  10.898  23.599  1.00  0.00     0.015 C 
HETATM    2  C2  UNL     1      30.755  10.333  24.504  1.00  0.00    -0.040 C 
HETATM    3  C3  UNL     1      32.076  10.834  23.943  1.00  0.00     0.015 C 
HETATM    4  C4  UNL     1      30.559  10.869  25.868  1.00  0.00     0.088 C 
HETATM    5  C5  UNL     1      30.124   9.896  26.876  1.00  0.00     0.138 C 
HETATM    6  O1  UNL     1      29.698  10.348  27.942  1.00  0.00    -0.297 OA
HETATM    7  C6  UNL     1      30.166   8.416  26.689  1.00  0.00     0.117 C 
HETATM    8  C14 UNL     1      31.208   8.141  25.645  1.00  0.00     0.061 C 
HETATM    9  C15 UNL     1      31.298   6.669  25.292  1.00  0.00     0.032 C 
HETATM   10  C16 UNL     1      32.526   8.606  26.023  1.00  0.00     0.070 C 
HETATM   11  N3  UNL     1      33.600   8.967  26.339  1.00  0.00    -0.196 NA
HETATM   12  C17 UNL     1      30.723   8.848  24.375  1.00  0.00     0.034 C 
ENDROOT
BRANCH   7  13
HETATM   13  C7  UNL     1      30.425   7.725  27.972  1.00  0.00     0.094 C 
HETATM   14  N1  UNL     1      31.305   8.069  28.816  1.00  0.00    -0.315 N 
ATOM     15  H1  UNL     1      31.892   8.880  28.621  1.00  0.00     0.185 HD
BRANCH  14  16
HETATM   16  N2  UNL     1      31.489   7.370  29.997  1.00  0.00    -0.310 N 
HETATM   17  C8  UNL     1      32.427   6.526  30.200  1.00  0.00     0.003 C 
HETATM   18  C9  UNL     1      33.455   6.183  29.179  1.00  0.00     0.054 C 
HETATM   19  C13 UNL     1      32.502   5.846  31.526  1.00  0.00     0.054 C 
HETATM   20  C10 UNL     1      34.662   5.642  29.912  1.00  0.00     0.006 C 
HETATM   21  C11 UNL     1      34.348   4.445  30.760  1.00  0.00     0.001 C 
HETATM   22  C12 UNL     1      32.918   4.413  31.243  1.00  0.00     0.006 C 
ATOM     23  H2  UNL     1      30.830   7.539  30.758  1.00  0.00     0.186 HD
ENDBRANCH  14  16
ENDBRANCH   7  13
TORSDOF 2
ENDMDL
MODEL 2
REMARK VINA RESULT: -6.676267998      4.647      5.674
REMARK  2 active torsions:
REMARK  status: ('A' for Active; 'I' for Inactive)
REMARK    1  A    between atoms: C6_7  and  C7_8 
REMARK    2  A    between atoms: N1_9  and  N2_11 
ROOT
HETATM    1  C1  UNL     1      32.407  11.185  24.667  1.00  0.00     0.015 C 
HETATM    2  C2  UNL     1      31.992   9.722  24.842  1.00  0.00    -0.040 C 
HETATM    3  C3  UNL     1      30.484   9.677  24.652  1.00  0.00     0.015 C 
HETATM    4  C4  UNL     1      32.650   8.920  23.789  1.00  0.00     0.088 C 
HETATM    5  C5  UNL     1      33.699   8.005  24.251  1.00  0.00     0.138 C 
HETATM    6  O1  UNL     1      34.443   7.526  23.390  1.00  0.00    -0.297 OA
HETATM    7  C6  UNL     1      33.916   7.626  25.678  1.00  0.00     0.117 C 
HETATM    8  C14 UNL     1      32.611   7.839  26.386  1.00  0.00     0.061 C 
HETATM    9  C15 UNL     1      32.710   7.571  27.875  1.00  0.00     0.032 C 
HETATM   10  C16 UNL     1      31.534   7.036  25.843  1.00  0.00     0.070 C 
HETATM   11  N3  UNL     1      30.665   6.370  25.414  1.00  0.00    -0.196 NA
HETATM   12  C17 UNL     1      32.300   9.333  26.248  1.00  0.00     0.034 C 
ENDROOT
BRANCH   7  13
HETATM   13  C7  UNL     1      34.423   6.240  25.789  1.00  0.00     0.094 C 
HETATM   14  N1  UNL     1      35.526   5.832  25.318  1.00  0.00    -0.315 N 
ATOM     15  H1  UNL     1      36.128   6.487  24.820  1.00  0.00     0.185 HD
BRANCH  14  16
HETATM   16  N2  UNL     1      35.933   4.516  25.463  1.00  0.00    -0.310 N 
HETATM   17  C8  UNL     1      36.674   3.892  24.630  1.00  0.00     0.003 C 
HETATM   18  C9  UNL     1      37.201   4.507  23.381  1.00  0.00     0.054 C 
HETATM   19  C13 UNL     1      37.033   2.471  24.918  1.00  0.00     0.054 C 
HETATM   20  C10 UNL     1      38.432   3.729  22.974  1.00  0.00     0.006 C 
HETATM   21  C11 UNL     1      38.161   2.268  22.762  1.00  0.00     0.001 C 
HETATM   22  C12 UNL     1      37.004   1.749  23.582  1.00  0.00     0.006 C 
ATOM     23  H2  UNL     1      35.620   4.010  26.292  1.00  0.00     0.186 HD
ENDBRANCH  14  16
ENDBRANCH   7  13
TORSDOF 2
ENDMDL
MODEL 3
REMARK VINA RESULT: -6.609372483      1.339      1.752
REMARK  2 active torsions:
REMARK  status: ('A' for Active; 'I' for Inactive)
REMARK    1  A    between atoms: C6_7  and  C7_8 
REMARK    2  A    between atoms: N1_9  and  N2_11 
ROOT
HETATM    1  C1  UNL     1      28.694  10.528  24.284  1.00  0.00     0.015 C 
HETATM    2  C2  UNL     1      30.175  10.518  24.670  1.00  0.00    -0.040 C 
HETATM    3  C3  UNL     1      30.797  11.745  24.022  1.00  0.00     0.015 C 
HETATM    4  C4  UNL     1      30.278  10.626  26.141  1.00  0.00     0.088 C 
HETATM    5  C5  UNL     1      30.753   9.423  26.833  1.00  0.00     0.138 C 
HETATM    6  O1  UNL     1      30.598   9.386  28.058  1.00  0.00    -0.297 OA
HETATM    7  C6  UNL     1      31.402   8.263  26.156  1.00  0.00     0.117 C 
HETATM    8  C14 UNL     1      31.979   8.779  24.871  1.00  0.00     0.061 C 
HETATM    9  C15 UNL     1      32.601   7.680  24.033  1.00  0.00     0.032 C 
HETATM   10  C16 UNL     1      32.965   9.822  25.070  1.00  0.00     0.070 C 
HETATM   11  N3  UNL     1      33.779  10.654  25.234  1.00  0.00    -0.196 NA
HETATM   12  C17 UNL     1      30.789   9.303  24.060  1.00  0.00     0.034 C 
ENDROOT
BRANCH   7  13
HETATM   13  C7  UNL     1      32.408   7.628  27.036  1.00  0.00     0.094 C 
HETATM   14  N1  UNL     1      32.150   7.046  28.131  1.00  0.00    -0.315 N 
ATOM     15  H1  UNL     1      31.183   6.997  28.453  1.00  0.00     0.185 HD
BRANCH  14  16
HETATM   16  N2  UNL     1      33.149   6.474  28.901  1.00  0.00    -0.310 N 
HETATM   17  C8  UNL     1      32.941   5.739  29.925  1.00  0.00     0.003 C 
HETATM   18  C9  UNL     1      31.582   5.399  30.428  1.00  0.00     0.054 C 
HETATM   19  C13 UNL     1      34.118   5.189  30.661  1.00  0.00     0.054 C 
HETATM   20  C10 UNL     1      31.699   4.125  31.233  1.00  0.00     0.006 C 
HETATM   21  C11 UNL     1      32.665   4.236  32.376  1.00  0.00     0.001 C 
HETATM   22  C12 UNL     1      33.761   5.248  32.136  1.00  0.00     0.006 C 
ATOM     23  H2  UNL     1      34.117   6.651  28.632  1.00  0.00     0.186 HD
ENDBRANCH  14  16
ENDBRANCH   7  13
TORSDOF 2
ENDMDL
MODEL 4
REMARK VINA RESULT: -6.582313886      4.244      5.680
REMARK  2 active torsions:
REMARK  status: ('A' for Active; 'I' for Inactive)
REMARK    1  A    between atoms: C6_7  and  C7_8 
REMARK    2  A    between atoms: N1_9  and  N2_11 
ROOT
HETATM    1  C1  UNL     1      32.027  11.313  24.852  1.00  0.00     0.015 C 
HETATM    2  C2  UNL     1      31.737   9.811  24.917  1.00  0.00    -0.040 C 
HETATM    3  C3  UNL     1      30.232   9.658  24.759  1.00  0.00     0.015 C 
HETATM    4  C4  UNL     1      32.426   9.151  23.788  1.00  0.00     0.088 C 
HETATM    5  C5  UNL     1      33.558   8.292  24.150  1.00  0.00     0.138 C 
HETATM    6  O1  UNL     1      34.312   7.945  23.236  1.00  0.00    -0.297 OA
HETATM    7  C6  UNL     1      33.847   7.822  25.536  1.00  0.00     0.117 C 
HETATM    8  C14 UNL     1      32.550   7.870  26.289  1.00  0.00     0.061 C 
HETATM    9  C15 UNL     1      32.714   7.495  27.749  1.00  0.00     0.032 C 
HETATM   10  C16 UNL     1      31.526   7.027  25.708  1.00  0.00     0.070 C 
HETATM   11  N3  UNL     1      30.701   6.327  25.248  1.00  0.00    -0.196 NA
HETATM   12  C17 UNL     1      32.117   9.340  26.280  1.00  0.00     0.034 C 
ENDROOT
BRANCH   7  13
HETATM   13  C7  UNL     1      34.467   6.478  25.524  1.00  0.00     0.094 C 
HETATM   14  N1  UNL     1      35.577   6.197  24.983  1.00  0.00    -0.315 N 
ATOM     15  H1  UNL     1      36.103   6.934  24.514  1.00  0.00     0.185 HD
BRANCH  14  16
HETATM   16  N2  UNL     1      36.093   4.911  25.013  1.00  0.00    -0.310 N 
HETATM   17  C8  UNL     1      36.021   4.080  24.045  1.00  0.00     0.003 C 
HETATM   18  C9  UNL     1      35.364   4.391  22.745  1.00  0.00     0.054 C 
HETATM   19  C13 UNL     1      36.623   2.726  24.220  1.00  0.00     0.054 C 
HETATM   20  C10 UNL     1      35.947   3.460  21.706  1.00  0.00     0.006 C 
HETATM   21  C11 UNL     1      35.769   2.010  22.048  1.00  0.00     0.001 C 
HETATM   22  C12 UNL     1      35.681   1.752  23.534  1.00  0.00     0.006 C 
ATOM     23  H2  UNL     1      36.563   4.607  25.866  1.00  0.00     0.186 HD
ENDBRANCH  14  16
ENDBRANCH   7  13
TORSDOF 2
ENDMDL
MODEL 5
REMARK VINA RESULT: -6.551239821      2.395      7.155
REMARK  2 active torsions:
REMARK  status: ('A' for Active; 'I' for Inactive)
REMARK    1  A    between atoms: C6_7  and  C7_8 
REMARK    2  A    between atoms: N1_9  and  N2_11 
ROOT
HETATM    1  C1  UNL     1      32.018   7.524  30.020  1.00  0.00     0.015 C 
HETATM    2  C2  UNL     1      31.664   7.292  28.548  1.00  0.00    -0.040 C 
HETATM    3  C3  UNL     1      30.986   5.933  28.478  1.00  0.00     0.015 C 
HETATM    4  C4  UNL     1      30.717   8.344  28.123  1.00  0.00     0.088 C 
HETATM    5  C5  UNL     1      31.246   9.327  27.171  1.00  0.00     0.138 C 
HETATM    6  O1  UNL     1      30.583  10.355  27.004  1.00  0.00    -0.297 OA
HETATM    7  C6  UNL     1      32.517   9.160  26.408  1.00  0.00     0.117 C 
HETATM    8  C14 UNL     1      32.788   7.686  26.335  1.00  0.00     0.061 C 
HETATM    9  C15 UNL     1      34.105   7.373  25.654  1.00  0.00     0.032 C 
HETATM   10  C16 UNL     1      31.735   6.949  25.667  1.00  0.00     0.070 C 
HETATM   11  N3  UNL     1      30.890   6.354  25.107  1.00  0.00    -0.196 NA
HETATM   12  C17 UNL     1      32.944   7.218  27.787  1.00  0.00     0.034 C 
ENDROOT
BRANCH   7  13
HETATM   13  C7  UNL     1      32.429   9.805  25.080  1.00  0.00     0.094 C 
HETATM   14  N1  UNL     1      32.608  11.040  24.860  1.00  0.00    -0.315 N 
ATOM     15  H1  UNL     1      32.830  11.657  25.640  1.00  0.00     0.185 HD
BRANCH  14  16
HETATM   16  N2  UNL     1      32.508  11.571  23.584  1.00  0.00    -0.310 N 
HETATM   17  C8  UNL     1      31.406  11.865  23.008  1.00  0.00     0.003 C 
HETATM   18  C9  UNL     1      30.073  11.673  23.642  1.00  0.00     0.054 C 
HETATM   19  C13 UNL     1      31.451  12.432  21.628  1.00  0.00     0.054 C 
HETATM   20  C10 UNL     1      29.104  12.612  22.959  1.00  0.00     0.006 C 
HETATM   21  C11 UNL     1      29.015  12.392  21.478  1.00  0.00     0.001 C 
HETATM   22  C12 UNL     1      30.279  11.820  20.881  1.00  0.00     0.006 C 
ATOM     23  H2  UNL     1      33.372  11.739  23.070  1.00  0.00     0.186 HD
ENDBRANCH  14  16
ENDBRANCH   7  13
TORSDOF 2
ENDMDL
