MODEL 1
REMARK VINA RESULT: -6.500006954      0.000      0.000
REMARK  2 active torsions:
REMARK  status: ('A' for Active; 'I' for Inactive)
REMARK    1  A    between atoms: C12_16  and  C13_17 
REMARK    2  A    between atoms: C13_17  and  O5_18 
ROOT
HETATM    1  C1  UNL     1     -22.893 -34.878 -19.240  1.00  0.00     0.010 C 
HETATM    2  C2  UNL     1     -22.414 -33.675 -20.017  1.00  0.00    -0.018 C 
HETATM    3  C3  UNL     1     -23.189 -32.422 -19.657  1.00  0.00     0.010 C 
HETATM    4  C4  UNL     1     -22.298 -31.206 -19.596  1.00  0.00     0.075 C 
HETATM    5  C5  UNL     1     -21.353 -31.278 -18.390  1.00  0.00     0.235 C 
HETATM    6  O1  UNL     1     -20.252 -30.473 -18.739  1.00  0.00    -0.194 OA
HETATM    7  O2  UNL     1     -20.668 -29.229 -18.635  1.00  0.00    -0.195 OA
HETATM    8  C6  UNL     1     -20.853 -28.865 -17.290  1.00  0.00     0.229 C 
HETATM    9  C7  UNL     1     -19.482 -28.599 -16.705  1.00  0.00     0.074 C 
HETATM   10  C8  UNL     1     -19.364 -27.259 -16.058  1.00  0.00     0.006 C 
HETATM   11  C9  UNL     1     -20.528 -26.941 -15.149  1.00  0.00     0.000 C 
HETATM   12  C10 UNL     1     -21.790 -26.946 -15.965  1.00  0.00     0.006 C 
HETATM   13  C11 UNL     1     -21.664 -27.599 -17.291  1.00  0.00     0.074 C 
HETATM   14  O3  UNL     1     -21.419 -29.900 -16.608  1.00  0.00    -0.195 OA
HETATM   15  O4  UNL     1     -22.037 -30.781 -17.313  1.00  0.00    -0.194 OA
HETATM   16  C12 UNL     1     -20.917 -32.702 -18.259  1.00  0.00     0.078 C 
HETATM   17  C14 UNL     1     -20.964 -33.406 -19.624  1.00  0.00     0.016 C 
ENDROOT
BRANCH  16  18
HETATM   18  C13 UNL     1     -19.478 -32.819 -17.788  1.00  0.00     0.174 C 
BRANCH  18  19
HETATM   19  O5  UNL     1     -19.192 -32.009 -16.715  1.00  0.00    -0.400 OA
ATOM     20  H5  UNL     1     -19.905 -31.949 -16.090  1.00  0.00     0.209 HD
ENDBRANCH  18  19
ENDBRANCH  16  18
TORSDOF 2
ENDMDL
MODEL 2
REMARK VINA RESULT: -6.412949247      1.441      2.218
REMARK  2 active torsions:
REMARK  status: ('A' for Active; 'I' for Inactive)
REMARK    1  A    between atoms: C12_16  and  C13_17 
REMARK    2  A    between atoms: C13_17  and  O5_18 
ROOT
HETATM    1  C1  UNL     1     -22.072 -33.160 -20.846  1.00  0.00     0.010 C 
HETATM    2  C2  UNL     1     -20.800 -32.653 -20.210  1.00  0.00    -0.018 C 
HETATM    3  C3  UNL     1     -20.517 -31.209 -20.579  1.00  0.00     0.010 C 
HETATM    4  C4  UNL     1     -19.964 -30.427 -19.414  1.00  0.00     0.075 C 
HETATM    5  C5  UNL     1     -21.036 -30.211 -18.338  1.00  0.00     0.235 C 
HETATM    6  O1  UNL     1     -20.320 -30.024 -17.141  1.00  0.00    -0.194 OA
HETATM    7  O2  UNL     1     -19.813 -28.812 -17.210  1.00  0.00    -0.195 OA
HETATM    8  C6  UNL     1     -20.813 -27.833 -17.083  1.00  0.00     0.229 C 
HETATM    9  C7  UNL     1     -21.171 -27.746 -15.614  1.00  0.00     0.074 C 
HETATM   10  C8  UNL     1     -21.083 -26.362 -15.064  1.00  0.00     0.006 C 
HETATM   11  C9  UNL     1     -21.741 -25.333 -15.953  1.00  0.00     0.000 C 
HETATM   12  C10 UNL     1     -21.053 -25.340 -17.288  1.00  0.00     0.006 C 
HETATM   13  C11 UNL     1     -20.210 -26.534 -17.540  1.00  0.00     0.074 C 
HETATM   14  O3  UNL     1     -21.923 -28.218 -17.775  1.00  0.00    -0.195 OA
HETATM   15  O4  UNL     1     -21.746 -29.097 -18.698  1.00  0.00    -0.194 OA
HETATM   16  C12 UNL     1     -21.836 -31.472 -18.258  1.00  0.00     0.078 C 
HETATM   17  C14 UNL     1     -20.988 -32.676 -18.695  1.00  0.00     0.016 C 
ENDROOT
BRANCH  16  18
HETATM   18  C13 UNL     1     -22.281 -31.778 -16.839  1.00  0.00     0.174 C 
BRANCH  18  19
HETATM   19  O5  UNL     1     -22.748 -30.674 -16.167  1.00  0.00    -0.400 OA
ATOM     20  H5  UNL     1     -22.673 -29.870 -16.670  1.00  0.00     0.209 HD
ENDBRANCH  18  19
ENDBRANCH  16  18
TORSDOF 2
ENDMDL
MODEL 3
REMARK VINA RESULT: -6.163608602      1.572      5.908
REMARK  2 active torsions:
REMARK  status: ('A' for Active; 'I' for Inactive)
REMARK    1  A    between atoms: C12_16  and  C13_17 
REMARK    2  A    between atoms: C13_17  and  O5_18 
ROOT
HETATM    1  C1  UNL     1     -22.086 -26.154 -15.984  1.00  0.00     0.010 C 
HETATM    2  C2  UNL     1     -20.850 -26.971 -16.275  1.00  0.00    -0.018 C 
HETATM    3  C3  UNL     1     -21.069 -28.447 -16.009  1.00  0.00     0.010 C 
HETATM    4  C4  UNL     1     -20.394 -29.313 -17.045  1.00  0.00     0.075 C 
HETATM    5  C5  UNL     1     -21.095 -29.191 -18.404  1.00  0.00     0.235 C 
HETATM    6  O1  UNL     1     -20.112 -29.529 -19.353  1.00  0.00    -0.194 OA
HETATM    7  O2  UNL     1     -19.973 -30.834 -19.279  1.00  0.00    -0.195 OA
HETATM    8  C6  UNL     1     -21.096 -31.497 -19.806  1.00  0.00     0.229 C 
HETATM    9  C7  UNL     1     -20.987 -31.433 -21.315  1.00  0.00     0.074 C 
HETATM   10  C8  UNL     1     -21.081 -32.771 -21.971  1.00  0.00     0.006 C 
HETATM   11  C9  UNL     1     -22.221 -33.607 -21.439  1.00  0.00     0.000 C 
HETATM   12  C10 UNL     1     -22.006 -33.833 -19.970  1.00  0.00     0.006 C 
HETATM   13  C11 UNL     1     -21.012 -32.926 -19.346  1.00  0.00     0.074 C 
HETATM   14  O3  UNL     1     -22.232 -30.845 -19.428  1.00  0.00    -0.195 OA
HETATM   15  O4  UNL     1     -22.137 -30.078 -18.399  1.00  0.00    -0.194 OA
HETATM   16  C12 UNL     1     -21.486 -27.757 -18.568  1.00  0.00     0.078 C 
HETATM   17  C14 UNL     1     -20.543 -26.847 -17.766  1.00  0.00     0.016 C 
ENDROOT
BRANCH  16  18
HETATM   18  C13 UNL     1     -21.372 -27.294 -20.009  1.00  0.00     0.174 C 
BRANCH  18  19
HETATM   19  O5  UNL     1     -21.903 -28.188 -20.908  1.00  0.00    -0.400 OA
ATOM     20  H5  UNL     1     -22.357 -27.769 -21.631  1.00  0.00     0.209 HD
ENDBRANCH  18  19
ENDBRANCH  16  18
TORSDOF 2
ENDMDL
MODEL 4
REMARK VINA RESULT: -6.071712639      1.080      5.692
REMARK  2 active torsions:
REMARK  status: ('A' for Active; 'I' for Inactive)
REMARK    1  A    between atoms: C12_16  and  C13_17 
REMARK    2  A    between atoms: C13_17  and  O5_18 
ROOT
HETATM    1  C1  UNL     1     -19.279 -24.849 -16.473  1.00  0.00     0.010 C 
HETATM    2  C2  UNL     1     -20.426 -25.699 -15.981  1.00  0.00    -0.018 C 
HETATM    3  C3  UNL     1     -21.318 -26.161 -17.117  1.00  0.00     0.010 C 
HETATM    4  C4  UNL     1     -21.788 -27.582 -16.924  1.00  0.00     0.075 C 
HETATM    5  C5  UNL     1     -20.628 -28.571 -17.091  1.00  0.00     0.235 C 
HETATM    6  O1  UNL     1     -21.010 -29.709 -16.355  1.00  0.00    -0.194 OA
HETATM    7  O2  UNL     1     -21.934 -30.309 -17.074  1.00  0.00    -0.195 OA
HETATM    8  C6  UNL     1     -21.380 -30.903 -18.222  1.00  0.00     0.229 C 
HETATM    9  C7  UNL     1     -20.699 -32.181 -17.781  1.00  0.00     0.074 C 
HETATM   10  C8  UNL     1     -21.150 -33.385 -18.541  1.00  0.00     0.006 C 
HETATM   11  C9  UNL     1     -21.192 -33.155 -20.033  1.00  0.00     0.000 C 
HETATM   12  C10 UNL     1     -22.160 -32.043 -20.321  1.00  0.00     0.006 C 
HETATM   13  C11 UNL     1     -22.527 -31.224 -19.140  1.00  0.00     0.074 C 
HETATM   14  O3  UNL     1     -20.439 -30.075 -18.757  1.00  0.00    -0.195 OA
HETATM   15  O4  UNL     1     -20.514 -28.834 -18.429  1.00  0.00    -0.194 OA
HETATM   16  C12 UNL     1     -19.424 -27.945 -16.464  1.00  0.00     0.078 C 
HETATM   17  C14 UNL     1     -19.842 -26.964 -15.357  1.00  0.00     0.016 C 
ENDROOT
BRANCH  16  18
HETATM   18  C13 UNL     1     -18.532 -28.970 -15.787  1.00  0.00     0.174 C 
BRANCH  18  19
HETATM   19  O5  UNL     1     -18.323 -30.094 -16.549  1.00  0.00    -0.400 OA
ATOM     20  H5  UNL     1     -17.697 -30.697 -16.165  1.00  0.00     0.209 HD
ENDBRANCH  18  19
ENDBRANCH  16  18
TORSDOF 2
ENDMDL
MODEL 5
REMARK VINA RESULT: -6.055351315      2.410      3.230
REMARK  2 active torsions:
REMARK  status: ('A' for Active; 'I' for Inactive)
REMARK    1  A    between atoms: C12_16  and  C13_17 
REMARK    2  A    between atoms: C13_17  and  O5_18 
ROOT
HETATM    1  C1  UNL     1     -23.148 -34.980 -20.694  1.00  0.00     0.010 C 
HETATM    2  C2  UNL     1     -21.789 -34.323 -20.638  1.00  0.00    -0.018 C 
HETATM    3  C3  UNL     1     -21.618 -33.282 -21.727  1.00  0.00     0.010 C 
HETATM    4  C4  UNL     1     -20.868 -32.068 -21.234  1.00  0.00     0.075 C 
HETATM    5  C5  UNL     1     -21.717 -31.264 -20.242  1.00  0.00     0.235 C 
HETATM    6  O1  UNL     1     -20.788 -30.561 -19.451  1.00  0.00    -0.194 OA
HETATM    7  O2  UNL     1     -20.333 -29.589 -20.210  1.00  0.00    -0.195 OA
HETATM    8  C6  UNL     1     -21.313 -28.602 -20.416  1.00  0.00     0.229 C 
HETATM    9  C7  UNL     1     -21.382 -27.769 -19.154  1.00  0.00     0.074 C 
HETATM   10  C8  UNL     1     -21.221 -26.305 -19.401  1.00  0.00     0.006 C 
HETATM   11  C9  UNL     1     -22.063 -25.808 -20.552  1.00  0.00     0.000 C 
HETATM   12  C10 UNL     1     -21.646 -26.532 -21.801  1.00  0.00     0.006 C 
HETATM   13  C11 UNL     1     -20.840 -27.754 -21.564  1.00  0.00     0.074 C 
HETATM   14  O3  UNL     1     -22.526 -29.193 -20.610  1.00  0.00    -0.195 OA
HETATM   15  O4  UNL     1     -22.509 -30.426 -20.979  1.00  0.00    -0.194 OA
HETATM   16  C12 UNL     1     -22.457 -32.252 -19.397  1.00  0.00     0.078 C 
HETATM   17  C14 UNL     1     -21.681 -33.575 -19.312  1.00  0.00     0.016 C 
ENDROOT
BRANCH  16  18
HETATM   18  C13 UNL     1     -22.611 -31.776 -17.963  1.00  0.00     0.174 C 
BRANCH  18  19
HETATM   19  O5  UNL     1     -21.573 -32.161 -17.150  1.00  0.00    -0.400 OA
ATOM     20  H5  UNL     1     -20.828 -31.572 -17.188  1.00  0.00     0.209 HD
ENDBRANCH  18  19
ENDBRANCH  16  18
TORSDOF 2
ENDMDL
