MODEL 1
REMARK VINA RESULT: -7.807419656      0.000      0.000
REMARK  2 active torsions:
REMARK  status: ('A' for Active; 'I' for Inactive)
REMARK    1  A    between atoms: C3_4  and  O1_5 
REMARK    2  A    between atoms: C5_9  and  N2_10 
ROOT
HETATM    1  N1  UNL     1     -21.703 -29.992 -16.356  1.00  0.00    -0.191 NA
HETATM    2  C1  UNL     1     -21.621 -29.566 -17.453  1.00  0.00     0.105 C 
HETATM    3  C2  UNL     1     -21.497 -29.049 -18.822  1.00  0.00     0.111 A 
HETATM    4  C3  UNL     1     -21.612 -29.816 -19.919  1.00  0.00     0.095 A 
HETATM    5  C4  UNL     1     -21.466 -29.200 -21.134  1.00  0.00     0.090 A 
HETATM    6  S1  UNL     1     -21.174 -27.580 -20.713  1.00  0.00    -0.080 SA
HETATM    7  C5  UNL     1     -21.243 -27.718 -19.015  1.00  0.00     0.096 A 
ENDROOT
BRANCH   4   8
HETATM    8  O1  UNL     1     -21.872 -31.212 -19.884  1.00  0.00    -0.359 OA
ATOM      9  H1  UNL     1     -21.574 -31.823 -20.548  1.00  0.00     0.217 HD
ENDBRANCH   4   8
BRANCH   7  10
HETATM   10  N2  UNL     1     -21.088 -26.690 -18.009  1.00  0.00    -0.374 N 
HETATM   11  C6  UNL     1     -20.209 -26.920 -16.906  1.00  0.00     0.123 C 
HETATM   12  C7  UNL     1     -19.199 -25.767 -16.885  1.00  0.00     0.025 C 
HETATM   13  C8  UNL     1     -19.883 -24.469 -16.603  1.00  0.00     0.070 C 
HETATM   14  C9  UNL     1     -20.179 -23.695 -17.862  1.00  0.00     0.165 C 
HETATM   15  C10 UNL     1     -20.906 -24.512 -18.911  1.00  0.00     0.088 C 
HETATM   16  O2  UNL     1     -20.997 -22.607 -17.583  1.00  0.00    -0.353 OA
HETATM   17  O3  UNL     1     -19.018 -23.236 -18.430  1.00  0.00    -0.353 OA
HETATM   18  C11 UNL     1     -21.871 -25.504 -18.274  1.00  0.00     0.129 C 
HETATM   19  C12 UNL     1     -20.271 -21.455 -17.744  1.00  0.00     0.197 C 
HETATM   20  C13 UNL     1     -18.930 -21.872 -18.256  1.00  0.00     0.197 C 
ENDBRANCH   7  10
TORSDOF 2
ENDMDL
MODEL 2
REMARK VINA RESULT: -7.483385530      1.988      6.603
REMARK  2 active torsions:
REMARK  status: ('A' for Active; 'I' for Inactive)
REMARK    1  A    between atoms: C3_4  and  O1_5 
REMARK    2  A    between atoms: C5_9  and  N2_10 
ROOT
HETATM    1  N1  UNL     1     -22.663 -23.972 -19.606  1.00  0.00    -0.191 NA
HETATM    2  C1  UNL     1     -21.820 -24.343 -18.870  1.00  0.00     0.105 C 
HETATM    3  C2  UNL     1     -20.752 -24.797 -17.970  1.00  0.00     0.111 A 
HETATM    4  C3  UNL     1     -19.954 -23.961 -17.284  1.00  0.00     0.095 A 
HETATM    5  C4  UNL     1     -18.993 -24.524 -16.485  1.00  0.00     0.090 A 
HETATM    6  S1  UNL     1     -19.230 -26.191 -16.713  1.00  0.00    -0.080 SA
HETATM    7  C5  UNL     1     -20.534 -26.138 -17.810  1.00  0.00     0.096 A 
ENDROOT
BRANCH   4   8
HETATM    8  O1  UNL     1     -20.053 -22.545 -17.345  1.00  0.00    -0.359 OA
ATOM      9  H1  UNL     1     -19.345 -21.976 -17.625  1.00  0.00     0.217 HD
ENDBRANCH   4   8
BRANCH   7  10
HETATM   10  N2  UNL     1     -21.256 -27.233 -18.422  1.00  0.00    -0.374 N 
HETATM   11  C6  UNL     1     -21.406 -27.262 -19.842  1.00  0.00     0.123 C 
HETATM   12  C7  UNL     1     -20.847 -28.604 -20.328  1.00  0.00     0.025 C 
HETATM   13  C8  UNL     1     -21.666 -29.739 -19.805  1.00  0.00     0.070 C 
HETATM   14  C9  UNL     1     -21.061 -30.356 -18.570  1.00  0.00     0.165 C 
HETATM   15  C10 UNL     1     -20.729 -29.342 -17.494  1.00  0.00     0.088 C 
HETATM   16  O2  UNL     1     -21.947 -31.257 -17.992  1.00  0.00    -0.353 OA
HETATM   17  O3  UNL     1     -19.903 -31.020 -18.881  1.00  0.00    -0.353 OA
HETATM   18  C11 UNL     1     -21.742 -28.205 -17.468  1.00  0.00     0.129 C 
HETATM   19  C12 UNL     1     -21.457 -32.528 -18.156  1.00  0.00     0.197 C 
HETATM   20  C13 UNL     1     -20.116 -32.379 -18.799  1.00  0.00     0.197 C 
ENDBRANCH   7  10
TORSDOF 2
ENDMDL
MODEL 3
REMARK VINA RESULT: -7.476571959      2.569      6.071
REMARK  2 active torsions:
REMARK  status: ('A' for Active; 'I' for Inactive)
REMARK    1  A    between atoms: C3_4  and  O1_5 
REMARK    2  A    between atoms: C5_9  and  N2_10 
ROOT
HETATM    1  N1  UNL     1     -22.523 -25.588 -14.762  1.00  0.00    -0.191 NA
HETATM    2  C1  UNL     1     -21.922 -24.875 -15.485  1.00  0.00     0.105 C 
HETATM    3  C2  UNL     1     -21.196 -23.984 -16.399  1.00  0.00     0.111 A 
HETATM    4  C3  UNL     1     -21.419 -22.662 -16.480  1.00  0.00     0.095 A 
HETATM    5  C4  UNL     1     -20.671 -21.953 -17.384  1.00  0.00     0.090 A 
HETATM    6  S1  UNL     1     -19.687 -23.145 -18.089  1.00  0.00    -0.080 SA
HETATM    7  C5  UNL     1     -20.241 -24.508 -17.228  1.00  0.00     0.096 A 
ENDROOT
BRANCH   4   8
HETATM    8  O1  UNL     1     -22.376 -21.971 -15.689  1.00  0.00    -0.359 OA
ATOM      9  H1  UNL     1     -22.793 -21.159 -15.953  1.00  0.00     0.217 HD
ENDBRANCH   4   8
BRANCH   7  10
HETATM   10  N2  UNL     1     -19.811 -25.886 -17.326  1.00  0.00    -0.374 N 
HETATM   11  C6  UNL     1     -18.823 -26.375 -16.417  1.00  0.00     0.123 C 
HETATM   12  C7  UNL     1     -19.421 -27.600 -15.716  1.00  0.00     0.025 C 
HETATM   13  C8  UNL     1     -19.663 -28.704 -16.694  1.00  0.00     0.070 C 
HETATM   14  C9  UNL     1     -21.093 -28.740 -17.168  1.00  0.00     0.165 C 
HETATM   15  C10 UNL     1     -21.591 -27.403 -17.677  1.00  0.00     0.088 C 
HETATM   16  O2  UNL     1     -21.232 -29.632 -18.226  1.00  0.00    -0.353 OA
HETATM   17  O3  UNL     1     -21.928 -29.132 -16.154  1.00  0.00    -0.353 OA
HETATM   18  C11 UNL     1     -20.482 -26.624 -18.373  1.00  0.00     0.129 C 
HETATM   19  C12 UNL     1     -21.960 -30.714 -17.800  1.00  0.00     0.197 C 
HETATM   20  C13 UNL     1     -22.381 -30.410 -16.398  1.00  0.00     0.197 C 
ENDBRANCH   7  10
TORSDOF 2
ENDMDL
MODEL 4
REMARK VINA RESULT: -7.123386300      2.486      6.530
REMARK  2 active torsions:
REMARK  status: ('A' for Active; 'I' for Inactive)
REMARK    1  A    between atoms: C3_4  and  O1_5 
REMARK    2  A    between atoms: C5_9  and  N2_10 
ROOT
HETATM    1  N1  UNL     1     -18.734 -23.075 -18.243  1.00  0.00    -0.191 NA
HETATM    2  C1  UNL     1     -19.648 -23.352 -17.552  1.00  0.00     0.105 C 
HETATM    3  C2  UNL     1     -20.774 -23.687 -16.669  1.00  0.00     0.111 A 
HETATM    4  C3  UNL     1     -21.578 -22.768 -16.110  1.00  0.00     0.095 A 
HETATM    5  C4  UNL     1     -22.587 -23.224 -15.302  1.00  0.00     0.090 A 
HETATM    6  S1  UNL     1     -22.383 -24.910 -15.346  1.00  0.00    -0.080 SA
HETATM    7  C5  UNL     1     -21.032 -25.000 -16.382  1.00  0.00     0.096 A 
ENDROOT
BRANCH   4   8
HETATM    8  O1  UNL     1     -21.438 -21.368 -16.310  1.00  0.00    -0.359 OA
ATOM      9  H1  UNL     1     -21.190 -20.758 -15.626  1.00  0.00     0.217 HD
ENDBRANCH   4   8
BRANCH   7  10
HETATM   10  N2  UNL     1     -20.326 -26.168 -16.861  1.00  0.00    -0.374 N 
HETATM   11  C6  UNL     1     -19.204 -26.657 -16.125  1.00  0.00     0.123 C 
HETATM   12  C7  UNL     1     -19.485 -28.128 -15.797  1.00  0.00     0.025 C 
HETATM   13  C8  UNL     1     -19.546 -28.946 -17.046  1.00  0.00     0.070 C 
HETATM   14  C9  UNL     1     -20.961 -29.166 -17.515  1.00  0.00     0.165 C 
HETATM   15  C10 UNL     1     -21.761 -27.883 -17.629  1.00  0.00     0.088 C 
HETATM   16  O2  UNL     1     -20.970 -29.740 -18.781  1.00  0.00    -0.353 OA
HETATM   17  O3  UNL     1     -21.632 -29.994 -16.654  1.00  0.00    -0.353 OA
HETATM   18  C11 UNL     1     -20.886 -26.719 -18.076  1.00  0.00     0.129 C 
HETATM   19  C12 UNL     1     -21.425 -31.030 -18.678  1.00  0.00     0.197 C 
HETATM   20  C13 UNL     1     -21.817 -31.224 -17.249  1.00  0.00     0.197 C 
ENDBRANCH   7  10
TORSDOF 2
ENDMDL
MODEL 5
REMARK VINA RESULT: -6.953323534      2.568      3.106
REMARK  2 active torsions:
REMARK  status: ('A' for Active; 'I' for Inactive)
REMARK    1  A    between atoms: C3_4  and  O1_5 
REMARK    2  A    between atoms: C5_9  and  N2_10 
ROOT
HETATM    1  N1  UNL     1     -17.933 -28.825 -15.967  1.00  0.00    -0.191 NA
HETATM    2  C1  UNL     1     -18.600 -29.552 -16.613  1.00  0.00     0.105 C 
HETATM    3  C2  UNL     1     -19.415 -30.453 -17.439  1.00  0.00     0.111 A 
HETATM    4  C3  UNL     1     -18.979 -31.638 -17.897  1.00  0.00     0.095 A 
HETATM    5  C4  UNL     1     -19.846 -32.374 -18.662  1.00  0.00     0.090 A 
HETATM    6  S1  UNL     1     -21.234 -31.396 -18.720  1.00  0.00    -0.080 SA
HETATM    7  C5  UNL     1     -20.689 -30.084 -17.777  1.00  0.00     0.096 A 
ENDROOT
BRANCH   4   8
HETATM    8  O1  UNL     1     -17.684 -32.160 -17.634  1.00  0.00    -0.359 OA
ATOM      9  H1  UNL     1     -17.517 -32.890 -17.049  1.00  0.00     0.217 HD
ENDBRANCH   4   8
BRANCH   7  10
HETATM   10  N2  UNL     1     -21.390 -28.874 -17.405  1.00  0.00    -0.374 N 
HETATM   11  C6  UNL     1     -21.767 -28.677 -16.041  1.00  0.00     0.123 C 
HETATM   12  C7  UNL     1     -21.165 -27.340 -15.594  1.00  0.00     0.025 C 
HETATM   13  C8  UNL     1     -21.771 -26.206 -16.356  1.00  0.00     0.070 C 
HETATM   14  C9  UNL     1     -20.913 -25.780 -17.520  1.00  0.00     0.165 C 
HETATM   15  C10 UNL     1     -20.511 -26.929 -18.422  1.00  0.00     0.088 C 
HETATM   16  O2  UNL     1     -21.599 -24.877 -18.325  1.00  0.00    -0.353 OA
HETATM   17  O3  UNL     1     -19.762 -25.182 -17.076  1.00  0.00    -0.353 OA
HETATM   18  C11 UNL     1     -21.614 -27.976 -18.516  1.00  0.00     0.129 C 
HETATM   19  C12 UNL     1     -21.019 -23.641 -18.198  1.00  0.00     0.197 C 
HETATM   20  C13 UNL     1     -19.823 -23.827 -17.321  1.00  0.00     0.197 C 
ENDBRANCH   7  10
TORSDOF 2
ENDMDL
