MODEL 1
REMARK VINA RESULT: -6.549767418      0.000      0.000
REMARK  1 active torsions:
REMARK  status: ('A' for Active; 'I' for Inactive)
REMARK    1  A    between atoms: C4_5  and  C5_6 
ROOT
HETATM    1  C5  UNL     1     -21.878 -30.934 -18.282  1.00  0.00     0.097 C 
HETATM    2  C6  UNL     1     -20.975 -31.746 -17.399  1.00  0.00     0.165 C 
HETATM    3  C7  UNL     1     -19.540 -31.519 -17.501  1.00  0.00     0.220 C 
HETATM    4  O2  UNL     1     -18.707 -30.624 -17.358  1.00  0.00    -0.282 OA
HETATM    5  S1  UNL     1     -19.270 -33.241 -17.989  1.00  0.00    -0.001 SA
HETATM    6  N1  UNL     1     -21.029 -33.062 -17.938  1.00  0.00    -0.238 NA
HETATM    7  C8  UNL     1     -21.678 -33.025 -19.217  1.00  0.00     0.114 C 
HETATM    8  C9  UNL     1     -21.736 -31.548 -19.630  1.00  0.00    -0.015 C 
HETATM    9  C10 UNL     1     -20.583 -31.142 -20.454  1.00  0.00     0.011 C 
HETATM   10  C11 UNL     1     -20.836 -31.664 -21.879  1.00  0.00     0.001 C 
HETATM   11  C12 UNL     1     -21.848 -30.799 -22.590  1.00  0.00     0.000 C 
HETATM   12  C13 UNL     1     -22.823 -30.318 -21.525  1.00  0.00     0.001 C 
HETATM   13  C14 UNL     1     -23.007 -31.337 -20.426  1.00  0.00     0.011 C 
ENDROOT
BRANCH   1  14
HETATM   14  C4  UNL     1     -21.685 -29.495 -18.191  1.00  0.00     0.130 A 
HETATM   15  O1  UNL     1     -21.425 -28.591 -19.085  1.00  0.00    -0.307 OA
HETATM   16  C3  UNL     1     -21.322 -27.389 -18.596  1.00  0.00     0.168 A 
HETATM   17  C2  UNL     1     -21.537 -27.505 -17.230  1.00  0.00     0.029 A 
HETATM   18  C1  UNL     1     -21.536 -26.450 -16.191  1.00  0.00     0.070 C 
HETATM   19  N2  UNL     1     -21.753 -28.791 -17.019  1.00  0.00    -0.342 N 
ATOM     20  H2  UNL     1     -21.946 -29.204 -16.106  1.00  0.00     0.167 HD
ENDBRANCH   1  14
TORSDOF 1
ENDMDL
MODEL 2
REMARK VINA RESULT: -6.292035664      2.444      4.687
REMARK  1 active torsions:
REMARK  status: ('A' for Active; 'I' for Inactive)
REMARK    1  A    between atoms: C4_5  and  C5_6 
ROOT
HETATM    1  C5  UNL     1     -21.364 -31.272 -21.051  1.00  0.00     0.097 C 
HETATM    2  C6  UNL     1     -21.280 -32.592 -20.341  1.00  0.00     0.165 C 
HETATM    3  C7  UNL     1     -22.329 -32.919 -19.386  1.00  0.00     0.220 C 
HETATM    4  O2  UNL     1     -23.549 -33.084 -19.332  1.00  0.00    -0.282 OA
HETATM    5  S1  UNL     1     -21.117 -33.040 -18.047  1.00  0.00    -0.001 SA
HETATM    6  N1  UNL     1     -20.193 -32.448 -19.434  1.00  0.00    -0.238 NA
HETATM    7  C8  UNL     1     -19.810 -31.066 -19.369  1.00  0.00     0.114 C 
HETATM    8  C9  UNL     1     -20.942 -30.272 -20.032  1.00  0.00    -0.015 C 
HETATM    9  C10 UNL     1     -21.952 -29.805 -19.065  1.00  0.00     0.011 C 
HETATM   10  C11 UNL     1     -21.363 -28.578 -18.349  1.00  0.00     0.001 C 
HETATM   11  C12 UNL     1     -21.426 -27.361 -19.240  1.00  0.00     0.000 C 
HETATM   12  C13 UNL     1     -21.232 -27.862 -20.664  1.00  0.00     0.001 C 
HETATM   13  C14 UNL     1     -20.328 -29.069 -20.719  1.00  0.00     0.011 C 
ENDROOT
BRANCH   1  14
HETATM   14  C4  UNL     1     -22.627 -31.026 -21.730  1.00  0.00     0.130 A 
HETATM   15  O1  UNL     1     -23.304 -29.941 -21.948  1.00  0.00    -0.307 OA
HETATM   16  C3  UNL     1     -24.410 -30.140 -22.605  1.00  0.00     0.168 A 
HETATM   17  C2  UNL     1     -24.476 -31.503 -22.852  1.00  0.00     0.029 A 
HETATM   18  C1  UNL     1     -25.520 -32.274 -23.564  1.00  0.00     0.070 C 
HETATM   19  N2  UNL     1     -23.382 -32.009 -22.310  1.00  0.00    -0.342 N 
ATOM     20  H2  UNL     1     -23.134 -32.998 -22.322  1.00  0.00     0.167 HD
ENDBRANCH   1  14
TORSDOF 1
ENDMDL
MODEL 3
REMARK VINA RESULT: -6.153619924      2.572      4.778
REMARK  1 active torsions:
REMARK  status: ('A' for Active; 'I' for Inactive)
REMARK    1  A    between atoms: C4_5  and  C5_6 
ROOT
HETATM    1  C5  UNL     1     -21.534 -32.157 -20.751  1.00  0.00     0.097 C 
HETATM    2  C6  UNL     1     -21.582 -33.544 -20.176  1.00  0.00     0.165 C 
HETATM    3  C7  UNL     1     -22.704 -33.883 -19.311  1.00  0.00     0.220 C 
HETATM    4  O2  UNL     1     -23.933 -33.960 -19.334  1.00  0.00    -0.282 OA
HETATM    5  S1  UNL     1     -21.580 -34.227 -17.935  1.00  0.00    -0.001 SA
HETATM    6  N1  UNL     1     -20.541 -33.572 -19.208  1.00  0.00    -0.238 NA
HETATM    7  C8  UNL     1     -20.065 -32.237 -18.983  1.00  0.00     0.114 C 
HETATM    8  C9  UNL     1     -21.100 -31.297 -19.615  1.00  0.00    -0.015 C 
HETATM    9  C10 UNL     1     -22.127 -30.853 -18.656  1.00  0.00     0.011 C 
HETATM   10  C11 UNL     1     -21.493 -29.751 -17.790  1.00  0.00     0.001 C 
HETATM   11  C12 UNL     1     -21.421 -28.450 -18.554  1.00  0.00     0.000 C 
HETATM   12  C13 UNL     1     -21.184 -28.822 -20.010  1.00  0.00     0.001 C 
HETATM   13  C14 UNL     1     -20.365 -30.083 -20.145  1.00  0.00     0.011 C 
ENDROOT
BRANCH   1  14
HETATM   14  C4  UNL     1     -22.737 -31.751 -21.461  1.00  0.00     0.130 A 
HETATM   15  O1  UNL     1     -23.329 -30.604 -21.589  1.00  0.00    -0.307 OA
HETATM   16  C3  UNL     1     -24.405 -30.652 -22.321  1.00  0.00     0.168 A 
HETATM   17  C2  UNL     1     -24.543 -31.972 -22.723  1.00  0.00     0.029 A 
HETATM   18  C1  UNL     1     -25.591 -32.586 -23.570  1.00  0.00     0.070 C 
HETATM   19  N2  UNL     1     -23.518 -32.610 -22.186  1.00  0.00    -0.342 N 
ATOM     20  H2  UNL     1     -23.333 -33.606 -22.297  1.00  0.00     0.167 HD
ENDBRANCH   1  14
TORSDOF 1
ENDMDL
MODEL 4
REMARK VINA RESULT: -5.944734752      1.436      1.563
REMARK  1 active torsions:
REMARK  status: ('A' for Active; 'I' for Inactive)
REMARK    1  A    between atoms: C4_5  and  C5_6 
ROOT
HETATM    1  C5  UNL     1     -22.019 -31.239 -18.435  1.00  0.00     0.097 C 
HETATM    2  C6  UNL     1     -20.881 -31.829 -17.654  1.00  0.00     0.165 C 
HETATM    3  C7  UNL     1     -19.587 -31.938 -18.313  1.00  0.00     0.220 C 
HETATM    4  O2  UNL     1     -18.726 -31.233 -18.841  1.00  0.00    -0.282 OA
HETATM    5  S1  UNL     1     -19.597 -33.736 -18.104  1.00  0.00    -0.001 SA
HETATM    6  N1  UNL     1     -21.192 -33.213 -17.547  1.00  0.00    -0.238 NA
HETATM    7  C8  UNL     1     -22.281 -33.524 -18.429  1.00  0.00     0.114 C 
HETATM    8  C9  UNL     1     -22.431 -32.322 -19.371  1.00  0.00    -0.015 C 
HETATM    9  C10 UNL     1     -21.667 -32.479 -20.622  1.00  0.00     0.011 C 
HETATM   10  C11 UNL     1     -22.469 -33.429 -21.528  1.00  0.00     0.001 C 
HETATM   11  C12 UNL     1     -23.640 -32.707 -22.150  1.00  0.00     0.000 C 
HETATM   12  C13 UNL     1     -24.111 -31.688 -21.122  1.00  0.00     0.001 C 
HETATM   13  C14 UNL     1     -23.900 -32.175 -19.708  1.00  0.00     0.011 C 
ENDROOT
BRANCH   1  14
HETATM   14  C4  UNL     1     -21.745 -29.935 -19.019  1.00  0.00     0.130 A 
HETATM   15  O1  UNL     1     -21.589 -29.543 -20.246  1.00  0.00    -0.307 OA
HETATM   16  C3  UNL     1     -21.352 -28.268 -20.359  1.00  0.00     0.168 A 
HETATM   17  C2  UNL     1     -21.352 -27.756 -19.070  1.00  0.00     0.029 A 
HETATM   18  C1  UNL     1     -21.136 -26.363 -18.618  1.00  0.00     0.070 C 
HETATM   19  N2  UNL     1     -21.593 -28.790 -18.284  1.00  0.00    -0.342 N 
ATOM     20  H2  UNL     1     -21.657 -28.742 -17.267  1.00  0.00     0.167 HD
ENDBRANCH   1  14
TORSDOF 1
ENDMDL
MODEL 5
REMARK VINA RESULT: -5.841217621      2.692      4.099
REMARK  1 active torsions:
REMARK  status: ('A' for Active; 'I' for Inactive)
REMARK    1  A    between atoms: C4_5  and  C5_6 
ROOT
HETATM    1  C5  UNL     1     -21.030 -30.312 -21.176  1.00  0.00     0.097 C 
HETATM    2  C6  UNL     1     -21.839 -30.998 -22.240  1.00  0.00     0.165 C 
HETATM    3  C7  UNL     1     -23.283 -30.805 -22.227  1.00  0.00     0.220 C 
HETATM    4  O2  UNL     1     -24.123 -29.908 -22.309  1.00  0.00    -0.282 OA
HETATM    5  S1  UNL     1     -23.550 -32.583 -22.019  1.00  0.00    -0.001 SA
HETATM    6  N1  UNL     1     -21.798 -32.378 -21.895  1.00  0.00    -0.238 NA
HETATM    7  C8  UNL     1     -21.256 -32.520 -20.574  1.00  0.00     0.114 C 
HETATM    8  C9  UNL     1     -21.268 -31.120 -19.948  1.00  0.00    -0.015 C 
HETATM    9  C10 UNL     1     -22.493 -30.852 -19.174  1.00  0.00     0.011 C 
HETATM   10  C11 UNL     1     -22.345 -31.574 -17.824  1.00  0.00     0.001 C 
HETATM   11  C12 UNL     1     -21.415 -30.811 -16.912  1.00  0.00     0.000 C 
HETATM   12  C13 UNL     1     -20.368 -30.167 -17.810  1.00  0.00     0.001 C 
HETATM   13  C14 UNL     1     -20.071 -31.012 -19.025  1.00  0.00     0.011 C 
ENDROOT
BRANCH   1  14
HETATM   14  C4  UNL     1     -21.251 -28.878 -21.073  1.00  0.00     0.130 A 
HETATM   15  O1  UNL     1     -21.501 -27.968 -21.963  1.00  0.00    -0.307 OA
HETATM   16  C3  UNL     1     -21.635 -26.773 -21.463  1.00  0.00     0.168 A 
HETATM   17  C2  UNL     1     -21.457 -26.903 -20.093  1.00  0.00     0.029 A 
HETATM   18  C1  UNL     1     -21.505 -25.861 -19.042  1.00  0.00     0.070 C 
HETATM   19  N2  UNL     1     -21.226 -28.189 -19.891  1.00  0.00    -0.342 N 
ATOM     20  H2  UNL     1     -21.054 -28.610 -18.979  1.00  0.00     0.167 HD
ENDBRANCH   1  14
TORSDOF 1
ENDMDL
