MODEL 1
REMARK VINA RESULT: -6.979635975      0.000      0.000
REMARK  9 active torsions:
REMARK  status: ('A' for Active; 'I' for Inactive)
REMARK    1  A    between atoms: C2_2  and  N1_4 
REMARK       I    between atoms: N1_4  and  C4_6 
REMARK    2  A    between atoms: C4_6  and  C5_8 
REMARK    3  A    between atoms: C5_8  and  N2_9 
REMARK    4  A    between atoms: N2_9  and  C6_10 
REMARK       I    between atoms: N2_9  and  C13_21 
REMARK    5  A    between atoms: C6_10  and  C7_11 
REMARK       I    between atoms: C7_11  and  N3_13 
REMARK    6  A    between atoms: N3_13  and  N4_15 
REMARK    7  A    between atoms: C13_21  and  C14_23 
REMARK    8  A    between atoms: C14_23  and  O4_24 
REMARK    9  A    between atoms: N5_26  and  O5_28 
ROOT
HETATM    1  N2  UNL     1     -34.825 -46.636  11.337  1.00  0.00    -0.328 N 
HETATM    2  C13 UNL     1     -33.457 -46.359  11.326  1.00  0.00     0.297 C 
HETATM    3  O3  UNL     1     -32.698 -47.327  11.720  1.00  0.00    -0.263 OA
ENDROOT
BRANCH   1   4
HETATM    4  C5  UNL     1     -35.275 -47.970  11.748  1.00  0.00     0.229 C 
BRANCH   4   5
HETATM    5  C4  UNL     1     -35.330 -48.895  10.600  1.00  0.00     0.235 C 
HETATM    6  N1  UNL     1     -36.291 -48.785   9.594  1.00  0.00    -0.356 N 
ATOM      7  H1  UNL     1     -36.964 -48.024   9.681  1.00  0.00     0.162 HD
HETATM    8  O1  UNL     1     -34.480 -49.840  10.500  1.00  0.00    -0.272 OA
BRANCH   6   9
HETATM    9  C2  UNL     1     -36.422 -49.647   8.440  1.00  0.00     0.076 C 
HETATM   10  C1  UNL     1     -37.144 -50.926   8.721  1.00  0.00     0.032 C 
HETATM   11  C3  UNL     1     -37.140 -48.925   7.308  1.00  0.00     0.032 C 
ENDBRANCH   6   9
ENDBRANCH   4   5
ENDBRANCH   1   4
BRANCH   1  12
HETATM   12  C6  UNL     1     -35.814 -45.665  10.990  1.00  0.00     0.231 C 
BRANCH  12  13
HETATM   13  C7  UNL     1     -36.401 -45.056  12.240  1.00  0.00     0.253 C 
HETATM   14  O2  UNL     1     -35.745 -44.224  12.890  1.00  0.00    -0.270 OA
HETATM   15  N3  UNL     1     -37.696 -45.417  12.687  1.00  0.00    -0.271 N 
ATOM     16  H3  UNL     1     -38.237 -46.097  12.153  1.00  0.00     0.189 HD
BRANCH  15  17
HETATM   17  N4  UNL     1     -38.227 -44.882  13.800  1.00  0.00    -0.325 N 
HETATM   18  C8  UNL     1     -39.398 -44.089  13.720  1.00  0.00     0.142 C 
HETATM   19  C9  UNL     1     -39.512 -43.080  14.838  1.00  0.00     0.021 C 
HETATM   20  C10 UNL     1     -38.151 -43.034  15.524  1.00  0.00     0.003 C 
HETATM   21  C11 UNL     1     -37.980 -44.407  16.185  1.00  0.00     0.021 C 
HETATM   22  C12 UNL     1     -37.928 -45.424  15.070  1.00  0.00     0.142 C 
ENDBRANCH  15  17
ENDBRANCH  12  13
ENDBRANCH   1  12
BRANCH   2  23
HETATM   23  C14 UNL     1     -32.763 -45.164  10.942  1.00  0.00     0.230 C 
HETATM   24  N5  UNL     1     -31.522 -45.041  10.644  1.00  0.00    -0.243 N 
ATOM     25  H5  UNL     1     -30.944 -45.880  10.679  1.00  0.00     0.196 HD
BRANCH  23  26
HETATM   26  O4  UNL     1     -33.494 -43.958  10.871  1.00  0.00    -0.341 OA
ATOM     27  H4  UNL     1     -33.013 -43.144  10.781  1.00  0.00     0.219 HD
ENDBRANCH  23  26
BRANCH  24  28
HETATM   28  O5  UNL     1     -30.916 -43.875  10.283  1.00  0.00    -0.288 OA
ATOM     29  H5  UNL     1     -30.177 -43.806   9.690  1.00  0.00     0.244 HD
ENDBRANCH  24  28
ENDBRANCH   2  23
TORSDOF 9
ENDMDL
MODEL 2
REMARK VINA RESULT: -6.728936368      0.889      1.330
REMARK  9 active torsions:
REMARK  status: ('A' for Active; 'I' for Inactive)
REMARK    1  A    between atoms: C2_2  and  N1_4 
REMARK       I    between atoms: N1_4  and  C4_6 
REMARK    2  A    between atoms: C4_6  and  C5_8 
REMARK    3  A    between atoms: C5_8  and  N2_9 
REMARK    4  A    between atoms: N2_9  and  C6_10 
REMARK       I    between atoms: N2_9  and  C13_21 
REMARK    5  A    between atoms: C6_10  and  C7_11 
REMARK       I    between atoms: C7_11  and  N3_13 
REMARK    6  A    between atoms: N3_13  and  N4_15 
REMARK    7  A    between atoms: C13_21  and  C14_23 
REMARK    8  A    between atoms: C14_23  and  O4_24 
REMARK    9  A    between atoms: N5_26  and  O5_28 
ROOT
HETATM    1  N2  UNL     1     -34.865 -47.143  11.318  1.00  0.00    -0.328 N 
HETATM    2  C13 UNL     1     -33.527 -46.793  11.503  1.00  0.00     0.297 C 
HETATM    3  O3  UNL     1     -32.790 -47.708  12.039  1.00  0.00    -0.263 OA
ENDROOT
BRANCH   1   4
HETATM    4  C5  UNL     1     -35.306 -48.489  11.701  1.00  0.00     0.229 C 
BRANCH   4   5
HETATM    5  C4  UNL     1     -35.432 -49.368  10.523  1.00  0.00     0.235 C 
HETATM    6  N1  UNL     1     -36.354 -49.127   9.503  1.00  0.00    -0.356 N 
ATOM      7  H1  UNL     1     -36.945 -48.302   9.602  1.00  0.00     0.162 HD
HETATM    8  O1  UNL     1     -34.683 -50.393  10.408  1.00  0.00    -0.272 OA
BRANCH   6   9
HETATM    9  C2  UNL     1     -36.550 -49.935   8.320  1.00  0.00     0.076 C 
HETATM   10  C1  UNL     1     -37.389 -51.151   8.550  1.00  0.00     0.032 C 
HETATM   11  C3  UNL     1     -37.184 -49.114   7.206  1.00  0.00     0.032 C 
ENDBRANCH   6   9
ENDBRANCH   4   5
ENDBRANCH   1   4
BRANCH   1  12
HETATM   12  C6  UNL     1     -35.837 -46.237  10.793  1.00  0.00     0.231 C 
BRANCH  12  13
HETATM   13  C7  UNL     1     -36.305 -45.296  11.877  1.00  0.00     0.253 C 
HETATM   14  O2  UNL     1     -35.746 -44.196  12.026  1.00  0.00    -0.270 OA
HETATM   15  N3  UNL     1     -37.378 -45.649  12.733  1.00  0.00    -0.271 N 
ATOM     16  H3  UNL     1     -37.838 -46.550  12.611  1.00  0.00     0.189 HD
BRANCH  15  17
HETATM   17  N4  UNL     1     -37.800 -44.820  13.703  1.00  0.00    -0.325 N 
HETATM   18  C8  UNL     1     -36.931 -44.462  14.763  1.00  0.00     0.142 C 
HETATM   19  C9  UNL     1     -37.660 -44.095  16.034  1.00  0.00     0.021 C 
HETATM   20  C10 UNL     1     -39.107 -44.537  15.849  1.00  0.00     0.003 C 
HETATM   21  C11 UNL     1     -39.672 -43.639  14.742  1.00  0.00     0.021 C 
HETATM   22  C12 UNL     1     -38.900 -43.961  13.484  1.00  0.00     0.142 C 
ENDBRANCH  15  17
ENDBRANCH  12  13
ENDBRANCH   1  12
BRANCH   2  23
HETATM   23  C14 UNL     1     -32.844 -45.572  11.187  1.00  0.00     0.230 C 
HETATM   24  N5  UNL     1     -32.663 -44.557  11.950  1.00  0.00    -0.243 N 
ATOM     25  H5  UNL     1     -33.042 -44.604  12.895  1.00  0.00     0.196 HD
BRANCH  23  26
HETATM   26  O4  UNL     1     -32.291 -45.428   9.896  1.00  0.00    -0.341 OA
ATOM     27  H4  UNL     1     -31.511 -44.895   9.797  1.00  0.00     0.219 HD
ENDBRANCH  23  26
BRANCH  24  28
HETATM   28  O5  UNL     1     -32.001 -43.420  11.594  1.00  0.00    -0.288 OA
ATOM     29  H5  UNL     1     -31.099 -43.221  11.817  1.00  0.00     0.244 HD
ENDBRANCH  24  28
ENDBRANCH   2  23
TORSDOF 9
ENDMDL
MODEL 3
REMARK VINA RESULT: -6.710960311      1.267      6.431
REMARK  9 active torsions:
REMARK  status: ('A' for Active; 'I' for Inactive)
REMARK    1  A    between atoms: C2_2  and  N1_4 
REMARK       I    between atoms: N1_4  and  C4_6 
REMARK    2  A    between atoms: C4_6  and  C5_8 
REMARK    3  A    between atoms: C5_8  and  N2_9 
REMARK    4  A    between atoms: N2_9  and  C6_10 
REMARK       I    between atoms: N2_9  and  C13_21 
REMARK    5  A    between atoms: C6_10  and  C7_11 
REMARK       I    between atoms: C7_11  and  N3_13 
REMARK    6  A    between atoms: N3_13  and  N4_15 
REMARK    7  A    between atoms: C13_21  and  C14_23 
REMARK    8  A    between atoms: C14_23  and  O4_24 
REMARK    9  A    between atoms: N5_26  and  O5_28 
ROOT
HETATM    1  N2  UNL     1     -35.574 -45.787  11.769  1.00  0.00    -0.328 N 
HETATM    2  C13 UNL     1     -34.870 -44.925  10.928  1.00  0.00     0.297 C 
HETATM    3  O3  UNL     1     -35.553 -43.934  10.461  1.00  0.00    -0.263 OA
ENDROOT
BRANCH   1   4
HETATM    4  C5  UNL     1     -36.978 -45.490  12.074  1.00  0.00     0.229 C 
BRANCH   4   5
HETATM    5  C4  UNL     1     -37.112 -44.794  13.367  1.00  0.00     0.235 C 
HETATM    6  N1  UNL     1     -38.350 -44.554  13.965  1.00  0.00    -0.356 N 
ATOM      7  H1  UNL     1     -39.175 -44.887  13.467  1.00  0.00     0.162 HD
HETATM    8  O1  UNL     1     -36.073 -44.387  13.984  1.00  0.00    -0.272 OA
BRANCH   6   9
HETATM    9  C2  UNL     1     -38.574 -43.877  15.223  1.00  0.00     0.076 C 
HETATM   10  C1  UNL     1     -39.860 -43.116  15.279  1.00  0.00     0.032 C 
HETATM   11  C3  UNL     1     -38.548 -44.867  16.379  1.00  0.00     0.032 C 
ENDBRANCH   6   9
ENDBRANCH   4   5
ENDBRANCH   1   4
BRANCH   1  12
HETATM   12  C6  UNL     1     -34.996 -46.966  12.330  1.00  0.00     0.231 C 
BRANCH  12  13
HETATM   13  C7  UNL     1     -35.315 -48.161  11.464  1.00  0.00     0.253 C 
HETATM   14  O2  UNL     1     -35.169 -49.310  11.915  1.00  0.00    -0.270 OA
HETATM   15  N3  UNL     1     -35.783 -47.993  10.137  1.00  0.00    -0.271 N 
ATOM     16  H3  UNL     1     -35.905 -47.051   9.766  1.00  0.00     0.189 HD
BRANCH  15  17
HETATM   17  N4  UNL     1     -36.068 -49.050   9.356  1.00  0.00    -0.325 N 
HETATM   18  C8  UNL     1     -36.552 -48.853   8.040  1.00  0.00     0.142 C 
HETATM   19  C9  UNL     1     -37.396 -50.000   7.538  1.00  0.00     0.021 C 
HETATM   20  C10 UNL     1     -37.713 -50.870   8.748  1.00  0.00     0.003 C 
HETATM   21  C11 UNL     1     -36.371 -51.470   9.185  1.00  0.00     0.021 C 
HETATM   22  C12 UNL     1     -35.503 -50.316   9.629  1.00  0.00     0.142 C 
ENDBRANCH  15  17
ENDBRANCH  12  13
ENDBRANCH   1  12
BRANCH   2  23
HETATM   23  C14 UNL     1     -33.500 -44.970  10.505  1.00  0.00     0.230 C 
HETATM   24  N5  UNL     1     -32.521 -44.268  10.946  1.00  0.00    -0.243 N 
ATOM     25  H5  UNL     1     -32.720 -43.593  11.684  1.00  0.00     0.196 HD
BRANCH  23  26
HETATM   26  O4  UNL     1     -33.143 -45.877   9.484  1.00  0.00    -0.341 OA
ATOM     27  H4  UNL     1     -32.634 -46.644   9.720  1.00  0.00     0.219 HD
ENDBRANCH  23  26
BRANCH  24  28
HETATM   28  O5  UNL     1     -31.235 -44.355  10.504  1.00  0.00    -0.288 OA
ATOM     29  H5  UNL     1     -30.473 -44.466  11.062  1.00  0.00     0.244 HD
ENDBRANCH  24  28
ENDBRANCH   2  23
TORSDOF 9
ENDMDL
MODEL 4
REMARK VINA RESULT: -6.351852909      1.538      2.323
REMARK  9 active torsions:
REMARK  status: ('A' for Active; 'I' for Inactive)
REMARK    1  A    between atoms: C2_2  and  N1_4 
REMARK       I    between atoms: N1_4  and  C4_6 
REMARK    2  A    between atoms: C4_6  and  C5_8 
REMARK    3  A    between atoms: C5_8  and  N2_9 
REMARK    4  A    between atoms: N2_9  and  C6_10 
REMARK       I    between atoms: N2_9  and  C13_21 
REMARK    5  A    between atoms: C6_10  and  C7_11 
REMARK       I    between atoms: C7_11  and  N3_13 
REMARK    6  A    between atoms: N3_13  and  N4_15 
REMARK    7  A    between atoms: C13_21  and  C14_23 
REMARK    8  A    between atoms: C14_23  and  O4_24 
REMARK    9  A    between atoms: N5_26  and  O5_28 
ROOT
HETATM    1  N2  UNL     1     -33.687 -47.637  10.774  1.00  0.00    -0.328 N 
HETATM    2  C13 UNL     1     -33.119 -46.435  10.351  1.00  0.00     0.297 C 
HETATM    3  O3  UNL     1     -32.495 -46.489   9.221  1.00  0.00    -0.263 OA
ENDROOT
BRANCH   1   4
HETATM    4  C5  UNL     1     -33.565 -48.820   9.915  1.00  0.00     0.229 C 
BRANCH   4   5
HETATM    5  C4  UNL     1     -34.885 -49.407   9.617  1.00  0.00     0.235 C 
HETATM    6  N1  UNL     1     -35.825 -48.766   8.810  1.00  0.00    -0.356 N 
ATOM      7  H1  UNL     1     -35.559 -47.861   8.422  1.00  0.00     0.162 HD
HETATM    8  O1  UNL     1     -35.204 -50.542  10.103  1.00  0.00    -0.272 OA
BRANCH   6   9
HETATM    9  C2  UNL     1     -37.140 -49.262   8.470  1.00  0.00     0.076 C 
HETATM   10  C1  UNL     1     -37.508 -49.067   7.034  1.00  0.00     0.032 C 
HETATM   11  C3  UNL     1     -37.260 -50.743   8.802  1.00  0.00     0.032 C 
ENDBRANCH   6   9
ENDBRANCH   4   5
ENDBRANCH   1   4
BRANCH   1  12
HETATM   12  C6  UNL     1     -34.364 -47.776  12.024  1.00  0.00     0.231 C 
BRANCH  12  13
HETATM   13  C7  UNL     1     -35.538 -46.829  12.083  1.00  0.00     0.253 C 
HETATM   14  O2  UNL     1     -36.387 -46.837  11.175  1.00  0.00    -0.270 OA
HETATM   15  N3  UNL     1     -35.691 -45.925  13.165  1.00  0.00    -0.271 N 
ATOM     16  H3  UNL     1     -34.996 -45.919  13.912  1.00  0.00     0.189 HD
BRANCH  15  17
HETATM   17  N4  UNL     1     -36.731 -45.077  13.226  1.00  0.00    -0.325 N 
HETATM   18  C8  UNL     1     -37.232 -44.654  14.482  1.00  0.00     0.142 C 
HETATM   19  C9  UNL     1     -38.691 -44.267  14.441  1.00  0.00     0.021 C 
HETATM   20  C10 UNL     1     -39.236 -44.761  13.106  1.00  0.00     0.003 C 
HETATM   21  C11 UNL     1     -38.527 -43.920  12.037  1.00  0.00     0.021 C 
HETATM   22  C12 UNL     1     -37.058 -44.262  12.120  1.00  0.00     0.142 C 
ENDBRANCH  15  17
ENDBRANCH  12  13
ENDBRANCH   1  12
BRANCH   2  23
HETATM   23  C14 UNL     1     -33.124 -45.144  10.978  1.00  0.00     0.230 C 
HETATM   24  N5  UNL     1     -33.843 -44.128  10.670  1.00  0.00    -0.243 N 
ATOM     25  H5  UNL     1     -34.493 -44.229   9.890  1.00  0.00     0.196 HD
BRANCH  23  26
HETATM   26  O4  UNL     1     -32.251 -44.923  12.064  1.00  0.00    -0.341 OA
ATOM     27  H4  UNL     1     -32.411 -44.175  12.627  1.00  0.00     0.219 HD
ENDBRANCH  23  26
BRANCH  24  28
HETATM   28  O5  UNL     1     -33.806 -42.922  11.305  1.00  0.00    -0.288 OA
ATOM     29  H5  UNL     1     -33.029 -42.386  11.411  1.00  0.00     0.244 HD
ENDBRANCH  24  28
ENDBRANCH   2  23
TORSDOF 9
ENDMDL
MODEL 5
REMARK VINA RESULT: -5.516972737      6.736      9.221
REMARK  9 active torsions:
REMARK  status: ('A' for Active; 'I' for Inactive)
REMARK    1  A    between atoms: C2_2  and  N1_4 
REMARK       I    between atoms: N1_4  and  C4_6 
REMARK    2  A    between atoms: C4_6  and  C5_8 
REMARK    3  A    between atoms: C5_8  and  N2_9 
REMARK    4  A    between atoms: N2_9  and  C6_10 
REMARK       I    between atoms: N2_9  and  C13_21 
REMARK    5  A    between atoms: C6_10  and  C7_11 
REMARK       I    between atoms: C7_11  and  N3_13 
REMARK    6  A    between atoms: N3_13  and  N4_15 
REMARK    7  A    between atoms: C13_21  and  C14_23 
REMARK    8  A    between atoms: C14_23  and  O4_24 
REMARK    9  A    between atoms: N5_26  and  O5_28 
ROOT
HETATM    1  N2  UNL     1     -38.660 -43.986  20.018  1.00  0.00    -0.328 N 
HETATM    2  C13 UNL     1     -37.778 -45.041  19.779  1.00  0.00     0.297 C 
HETATM    3  O3  UNL     1     -38.138 -45.857  18.844  1.00  0.00    -0.263 OA
ENDROOT
BRANCH   1   4
HETATM    4  C5  UNL     1     -39.869 -43.872  19.194  1.00  0.00     0.229 C 
BRANCH   4   5
HETATM    5  C4  UNL     1     -39.554 -43.357  17.848  1.00  0.00     0.235 C 
HETATM    6  N1  UNL     1     -39.169 -44.190  16.798  1.00  0.00    -0.356 N 
ATOM      7  H1  UNL     1     -39.115 -45.189  16.997  1.00  0.00     0.162 HD
HETATM    8  O1  UNL     1     -39.630 -42.107  17.609  1.00  0.00    -0.272 OA
BRANCH   6   9
HETATM    9  C2  UNL     1     -38.838 -43.773  15.453  1.00  0.00     0.076 C 
HETATM   10  C1  UNL     1     -37.940 -44.725  14.728  1.00  0.00     0.032 C 
HETATM   11  C3  UNL     1     -40.099 -43.574  14.625  1.00  0.00     0.032 C 
ENDBRANCH   6   9
ENDBRANCH   4   5
ENDBRANCH   1   4
BRANCH   1  12
HETATM   12  C6  UNL     1     -38.453 -43.022  21.051  1.00  0.00     0.231 C 
BRANCH  12  13
HETATM   13  C7  UNL     1     -37.948 -41.729  20.457  1.00  0.00     0.253 C 
HETATM   14  O2  UNL     1     -38.623 -40.691  20.570  1.00  0.00    -0.270 OA
HETATM   15  N3  UNL     1     -36.710 -41.678  19.769  1.00  0.00    -0.271 N 
ATOM     16  H3  UNL     1     -36.155 -42.529  19.677  1.00  0.00     0.189 HD
BRANCH  15  17
HETATM   17  N4  UNL     1     -36.253 -40.533  19.234  1.00  0.00    -0.325 N 
HETATM   18  C8  UNL     1     -36.821 -40.029  18.038  1.00  0.00     0.142 C 
HETATM   19  C9  UNL     1     -35.868 -39.171  17.241  1.00  0.00     0.021 C 
HETATM   20  C10 UNL     1     -34.483 -39.386  17.841  1.00  0.00     0.003 C 
HETATM   21  C11 UNL     1     -34.547 -38.782  19.249  1.00  0.00     0.021 C 
HETATM   22  C12 UNL     1     -35.548 -39.602  20.029  1.00  0.00     0.142 C 
ENDBRANCH  15  17
ENDBRANCH  12  13
ENDBRANCH   1  12
BRANCH   2  23
HETATM   23  C14 UNL     1     -36.529 -45.356  20.411  1.00  0.00     0.230 C 
HETATM   24  N5  UNL     1     -36.206 -46.447  21.004  1.00  0.00    -0.243 N 
ATOM     25  H5  UNL     1     -36.905 -47.188  21.041  1.00  0.00     0.196 HD
BRANCH  23  26
HETATM   26  O4  UNL     1     -35.509 -44.381  20.404  1.00  0.00    -0.341 OA
ATOM     27  H4  UNL     1     -34.639 -44.640  20.124  1.00  0.00     0.219 HD
ENDBRANCH  23  26
BRANCH  24  28
HETATM   28  O5  UNL     1     -34.999 -46.691  21.588  1.00  0.00    -0.288 OA
ATOM     29  H5  UNL     1     -34.250 -47.078  21.149  1.00  0.00     0.244 HD
ENDBRANCH  24  28
ENDBRANCH   2  23
TORSDOF 9
ENDMDL
