MODEL 1
REMARK VINA RESULT: -7.019961391      0.000      0.000
REMARK  7 active torsions:
REMARK  status: ('A' for Active; 'I' for Inactive)
REMARK    1  A    between atoms: C2_2  and  C3_3 
REMARK       I    between atoms: C3_3  and  N1_5 
REMARK    2  A    between atoms: N1_5  and  C4_7 
REMARK    3  A    between atoms: C7_10  and  S1_11 
REMARK    4  A    between atoms: S1_11  and  N2_14 
REMARK    5  A    between atoms: N2_14  and  C8_16 
REMARK    6  A    between atoms: C8_16  and  C9_17 
REMARK    7  A    between atoms: C8_16  and  C10_19 
ROOT
HETATM    1  C4  UNL     1     -36.485 -44.832  12.515  1.00  0.00     0.035 A 
HETATM    2  C5  UNL     1     -35.706 -44.400  11.416  1.00  0.00     0.031 A 
HETATM    3  C6  UNL     1     -34.883 -45.306  10.672  1.00  0.00     0.027 A 
HETATM    4  C7  UNL     1     -34.971 -46.607  11.081  1.00  0.00     0.079 A 
HETATM    5  C11 UNL     1     -35.665 -47.007  12.114  1.00  0.00     0.027 A 
HETATM    6  C12 UNL     1     -36.413 -46.232  12.879  1.00  0.00     0.031 A 
ENDROOT
BRANCH   4   7
HETATM    7  S1  UNL     1     -33.809 -47.851  10.429  1.00  0.00     0.259 S 
HETATM    8  O2  UNL     1     -33.463 -48.746  11.573  1.00  0.00    -0.201 OA
HETATM    9  O3  UNL     1     -32.599 -47.083   9.888  1.00  0.00    -0.201 OA
BRANCH   7  10
HETATM   10  N2  UNL     1     -34.414 -48.719   9.126  1.00  0.00    -0.299 N 
ATOM     11  H2  UNL     1     -33.875 -48.881   8.275  1.00  0.00     0.173 HD
BRANCH  10  12
HETATM   12  C8  UNL     1     -35.708 -49.199   9.299  1.00  0.00     0.204 C 
BRANCH  12  13
HETATM   13  C9  UNL     1     -35.751 -50.554  10.005  1.00  0.00     0.122 C 
HETATM   14  S2  UNL     1     -37.208 -51.419   9.322  1.00  0.00    -0.095 SA
ENDBRANCH  12  13
BRANCH  12  15
HETATM   15  C10 UNL     1     -36.785 -48.936   8.379  1.00  0.00     0.198 C 
HETATM   16  O4  UNL     1     -37.881 -48.411   8.634  1.00  0.00    -0.646 OA
HETATM   17  O5  UNL     1     -36.629 -49.237   6.959  1.00  0.00    -0.646 OA
ENDBRANCH  12  15
ENDBRANCH  10  12
ENDBRANCH   7  10
ENDBRANCH   4   7
BRANCH   1  18
HETATM   18  N1  UNL     1     -37.131 -44.103  13.499  1.00  0.00    -0.324 N 
HETATM   19  C3  UNL     1     -38.520 -44.463  13.714  1.00  0.00     0.244 C 
HETATM   20  O1  UNL     1     -39.265 -44.830  12.947  1.00  0.00    -0.268 OA
ATOM     21  H1  UNL     1     -36.666 -43.368  14.032  1.00  0.00     0.169 HD
BRANCH  19  22
HETATM   22  C2  UNL     1     -38.862 -44.343  15.155  1.00  0.00     0.064 C 
HETATM   23  C1  UNL     1     -38.285 -44.697  16.195  1.00  0.00     0.017 C 
ENDBRANCH  19  22
ENDBRANCH   1  18
TORSDOF 7
ENDMDL
MODEL 2
REMARK VINA RESULT: -6.613211904      1.956      2.347
REMARK  7 active torsions:
REMARK  status: ('A' for Active; 'I' for Inactive)
REMARK    1  A    between atoms: C2_2  and  C3_3 
REMARK       I    between atoms: C3_3  and  N1_5 
REMARK    2  A    between atoms: N1_5  and  C4_7 
REMARK    3  A    between atoms: C7_10  and  S1_11 
REMARK    4  A    between atoms: S1_11  and  N2_14 
REMARK    5  A    between atoms: N2_14  and  C8_16 
REMARK    6  A    between atoms: C8_16  and  C9_17 
REMARK    7  A    between atoms: C8_16  and  C10_19 
ROOT
HETATM    1  C4  UNL     1     -37.727 -45.091  12.820  1.00  0.00     0.035 A 
HETATM    2  C5  UNL     1     -37.120 -44.234  11.873  1.00  0.00     0.031 A 
HETATM    3  C6  UNL     1     -35.893 -44.579  11.221  1.00  0.00     0.027 A 
HETATM    4  C7  UNL     1     -35.410 -45.813  11.550  1.00  0.00     0.079 A 
HETATM    5  C11 UNL     1     -35.950 -46.598  12.447  1.00  0.00     0.027 A 
HETATM    6  C12 UNL     1     -37.053 -46.337  13.125  1.00  0.00     0.031 A 
ENDROOT
BRANCH   4   7
HETATM    7  S1  UNL     1     -33.738 -46.313  11.024  1.00  0.00     0.259 S 
HETATM    8  O2  UNL     1     -33.092 -46.944  12.214  1.00  0.00    -0.201 OA
HETATM    9  O3  UNL     1     -33.021 -45.040  10.565  1.00  0.00    -0.201 OA
BRANCH   7  10
HETATM   10  N2  UNL     1     -33.729 -47.342   9.697  1.00  0.00    -0.299 N 
ATOM     11  H2  UNL     1     -33.111 -47.203   8.898  1.00  0.00     0.173 HD
BRANCH  10  12
HETATM   12  C8  UNL     1     -34.632 -48.397   9.775  1.00  0.00     0.204 C 
BRANCH  12  13
HETATM   13  C9  UNL     1     -36.075 -47.966   9.517  1.00  0.00     0.122 C 
HETATM   14  S2  UNL     1     -36.638 -48.959   8.091  1.00  0.00    -0.095 SA
ENDBRANCH  12  13
BRANCH  12  15
HETATM   15  C10 UNL     1     -34.462 -49.529  10.650  1.00  0.00     0.198 C 
HETATM   16  O4  UNL     1     -33.724 -49.606  11.645  1.00  0.00    -0.646 OA
HETATM   17  O5  UNL     1     -35.254 -50.738  10.448  1.00  0.00    -0.646 OA
ENDBRANCH  12  15
ENDBRANCH  10  12
ENDBRANCH   7  10
ENDBRANCH   4   7
BRANCH   1  18
HETATM   18  N1  UNL     1     -38.744 -44.850  13.728  1.00  0.00    -0.324 N 
HETATM   19  C3  UNL     1     -38.319 -44.235  14.971  1.00  0.00     0.244 C 
HETATM   20  O1  UNL     1     -37.338 -44.379  15.513  1.00  0.00    -0.268 OA
ATOM     21  H1  UNL     1     -39.718 -45.085  13.537  1.00  0.00     0.169 HD
BRANCH  19  22
HETATM   22  C2  UNL     1     -39.360 -43.291  15.457  1.00  0.00     0.064 C 
HETATM   23  C1  UNL     1     -39.843 -43.066  16.577  1.00  0.00     0.017 C 
ENDBRANCH  19  22
ENDBRANCH   1  18
TORSDOF 7
ENDMDL
MODEL 3
REMARK VINA RESULT: -6.564540718      1.230      1.848
REMARK  7 active torsions:
REMARK  status: ('A' for Active; 'I' for Inactive)
REMARK    1  A    between atoms: C2_2  and  C3_3 
REMARK       I    between atoms: C3_3  and  N1_5 
REMARK    2  A    between atoms: N1_5  and  C4_7 
REMARK    3  A    between atoms: C7_10  and  S1_11 
REMARK    4  A    between atoms: S1_11  and  N2_14 
REMARK    5  A    between atoms: N2_14  and  C8_16 
REMARK    6  A    between atoms: C8_16  and  C9_17 
REMARK    7  A    between atoms: C8_16  and  C10_19 
ROOT
HETATM    1  C4  UNL     1     -37.204 -45.236  12.830  1.00  0.00     0.035 A 
HETATM    2  C5  UNL     1     -36.745 -46.563  12.993  1.00  0.00     0.031 A 
HETATM    3  C6  UNL     1     -35.634 -47.074  12.247  1.00  0.00     0.027 A 
HETATM    4  C7  UNL     1     -35.039 -46.156  11.429  1.00  0.00     0.079 A 
HETATM    5  C11 UNL     1     -35.477 -44.936  11.252  1.00  0.00     0.027 A 
HETATM    6  C12 UNL     1     -36.518 -44.403  11.864  1.00  0.00     0.031 A 
ENDROOT
BRANCH   4   7
HETATM    7  S1  UNL     1     -33.785 -46.687  10.218  1.00  0.00     0.259 S 
HETATM    8  O2  UNL     1     -32.458 -46.310  10.790  1.00  0.00    -0.201 OA
HETATM    9  O3  UNL     1     -34.097 -45.954   8.910  1.00  0.00    -0.201 OA
BRANCH   7  10
HETATM   10  N2  UNL     1     -33.856 -48.323   9.848  1.00  0.00    -0.299 N 
ATOM     11  H2  UNL     1     -33.027 -48.875   9.630  1.00  0.00     0.173 HD
BRANCH  10  12
HETATM   12  C8  UNL     1     -35.137 -48.866   9.862  1.00  0.00     0.204 C 
BRANCH  12  13
HETATM   13  C9  UNL     1     -35.184 -50.265  10.475  1.00  0.00     0.122 C 
HETATM   14  S2  UNL     1     -36.521 -51.145   9.595  1.00  0.00    -0.095 SA
ENDBRANCH  12  13
BRANCH  12  15
HETATM   15  C10 UNL     1     -36.133 -48.587   8.860  1.00  0.00     0.198 C 
HETATM   16  O4  UNL     1     -36.131 -48.958   7.675  1.00  0.00    -0.646 OA
HETATM   17  O5  UNL     1     -37.339 -47.843   9.209  1.00  0.00    -0.646 OA
ENDBRANCH  12  15
ENDBRANCH  10  12
ENDBRANCH   7  10
ENDBRANCH   4   7
BRANCH   1  18
HETATM   18  N1  UNL     1     -38.380 -44.635  13.248  1.00  0.00    -0.324 N 
HETATM   19  C3  UNL     1     -38.521 -44.502  14.686  1.00  0.00     0.244 C 
HETATM   20  O1  UNL     1     -38.134 -45.200  15.485  1.00  0.00    -0.268 OA
ATOM     21  H1  UNL     1     -39.093 -44.311  12.594  1.00  0.00     0.169 HD
BRANCH  19  22
HETATM   22  C2  UNL     1     -39.226 -43.235  15.015  1.00  0.00     0.064 C 
HETATM   23  C1  UNL     1     -39.336 -42.574  16.059  1.00  0.00     0.017 C 
ENDBRANCH  19  22
ENDBRANCH   1  18
TORSDOF 7
ENDMDL
MODEL 4
REMARK VINA RESULT: -6.543887379      2.690      3.861
REMARK  7 active torsions:
REMARK  status: ('A' for Active; 'I' for Inactive)
REMARK    1  A    between atoms: C2_2  and  C3_3 
REMARK       I    between atoms: C3_3  and  N1_5 
REMARK    2  A    between atoms: N1_5  and  C4_7 
REMARK    3  A    between atoms: C7_10  and  S1_11 
REMARK    4  A    between atoms: S1_11  and  N2_14 
REMARK    5  A    between atoms: N2_14  and  C8_16 
REMARK    6  A    between atoms: C8_16  and  C9_17 
REMARK    7  A    between atoms: C8_16  and  C10_19 
ROOT
HETATM    1  C4  UNL     1     -38.991 -44.014  14.901  1.00  0.00     0.035 A 
HETATM    2  C5  UNL     1     -39.363 -44.392  13.590  1.00  0.00     0.031 A 
HETATM    3  C6  UNL     1     -38.405 -44.879  12.644  1.00  0.00     0.027 A 
HETATM    4  C7  UNL     1     -37.138 -44.996  13.140  1.00  0.00     0.079 A 
HETATM    5  C11 UNL     1     -36.780 -44.620  14.341  1.00  0.00     0.027 A 
HETATM    6  C12 UNL     1     -37.590 -44.120  15.257  1.00  0.00     0.031 A 
ENDROOT
BRANCH   4   7
HETATM    7  S1  UNL     1     -35.745 -45.348  12.018  1.00  0.00     0.259 S 
HETATM    8  O2  UNL     1     -34.533 -45.489  12.880  1.00  0.00    -0.201 OA
HETATM    9  O3  UNL     1     -35.649 -44.166  11.049  1.00  0.00    -0.201 OA
BRANCH   7  10
HETATM   10  N2  UNL     1     -35.981 -46.704  11.057  1.00  0.00    -0.299 N 
ATOM     11  H2  UNL     1     -36.907 -47.081  10.855  1.00  0.00     0.173 HD
BRANCH  10  12
HETATM   12  C8  UNL     1     -34.813 -47.271  10.557  1.00  0.00     0.204 C 
BRANCH  12  13
HETATM   13  C9  UNL     1     -34.354 -48.489  11.357  1.00  0.00     0.122 C 
HETATM   14  S2  UNL     1     -35.043 -49.940  10.487  1.00  0.00    -0.095 SA
ENDBRANCH  12  13
BRANCH  12  15
HETATM   15  C10 UNL     1     -33.771 -46.514   9.913  1.00  0.00     0.198 C 
HETATM   16  O4  UNL     1     -33.855 -45.864   8.859  1.00  0.00    -0.646 OA
HETATM   17  O5  UNL     1     -32.455 -46.399  10.535  1.00  0.00    -0.646 OA
ENDBRANCH  12  15
ENDBRANCH  10  12
ENDBRANCH   7  10
ENDBRANCH   4   7
BRANCH   1  18
HETATM   18  N1  UNL     1     -39.687 -43.300  15.862  1.00  0.00    -0.324 N 
HETATM   19  C3  UNL     1     -39.446 -43.721  17.229  1.00  0.00     0.244 C 
HETATM   20  O1  UNL     1     -39.225 -44.765  17.602  1.00  0.00    -0.268 OA
ATOM     21  H1  UNL     1     -40.321 -42.537  15.626  1.00  0.00     0.169 HD
BRANCH  19  22
HETATM   22  C2  UNL     1     -39.468 -42.545  18.138  1.00  0.00     0.064 C 
HETATM   23  C1  UNL     1     -38.619 -41.693  18.441  1.00  0.00     0.017 C 
ENDBRANCH  19  22
ENDBRANCH   1  18
TORSDOF 7
ENDMDL
MODEL 5
REMARK VINA RESULT: -6.523583940      3.051      5.157
REMARK  7 active torsions:
REMARK  status: ('A' for Active; 'I' for Inactive)
REMARK    1  A    between atoms: C2_2  and  C3_3 
REMARK       I    between atoms: C3_3  and  N1_5 
REMARK    2  A    between atoms: N1_5  and  C4_7 
REMARK    3  A    between atoms: C7_10  and  S1_11 
REMARK    4  A    between atoms: S1_11  and  N2_14 
REMARK    5  A    between atoms: N2_14  and  C8_16 
REMARK    6  A    between atoms: C8_16  and  C9_17 
REMARK    7  A    between atoms: C8_16  and  C10_19 
ROOT
HETATM    1  C4  UNL     1     -39.364 -43.737  16.346  1.00  0.00     0.035 A 
HETATM    2  C5  UNL     1     -39.833 -43.233  15.110  1.00  0.00     0.031 A 
HETATM    3  C6  UNL     1     -39.304 -43.689  13.860  1.00  0.00     0.027 A 
HETATM    4  C7  UNL     1     -38.369 -44.678  13.975  1.00  0.00     0.079 A 
HETATM    5  C11 UNL     1     -37.910 -45.127  15.114  1.00  0.00     0.027 A 
HETATM    6  C12 UNL     1     -38.310 -44.729  16.308  1.00  0.00     0.031 A 
ENDROOT
BRANCH   4   7
HETATM    7  S1  UNL     1     -37.403 -45.196  12.519  1.00  0.00     0.259 S 
HETATM    8  O2  UNL     1     -36.784 -43.958  11.960  1.00  0.00    -0.201 OA
HETATM    9  O3  UNL     1     -38.387 -45.858  11.549  1.00  0.00    -0.201 OA
BRANCH   7  10
HETATM   10  N2  UNL     1     -36.248 -46.366  12.859  1.00  0.00    -0.299 N 
ATOM     11  H2  UNL     1     -36.256 -46.914  13.719  1.00  0.00     0.173 HD
BRANCH  10  12
HETATM   12  C8  UNL     1     -35.278 -46.528  11.875  1.00  0.00     0.204 C 
BRANCH  12  13
HETATM   13  C9  UNL     1     -35.177 -47.967  11.369  1.00  0.00     0.122 C 
HETATM   14  S2  UNL     1     -35.535 -47.886   9.580  1.00  0.00    -0.095 SA
ENDBRANCH  12  13
BRANCH  12  15
HETATM   15  C10 UNL     1     -34.063 -45.757  11.819  1.00  0.00     0.198 C 
HETATM   16  O4  UNL     1     -33.096 -45.819  12.595  1.00  0.00    -0.646 OA
HETATM   17  O5  UNL     1     -33.838 -44.818  10.723  1.00  0.00    -0.646 OA
ENDBRANCH  12  15
ENDBRANCH  10  12
ENDBRANCH   7  10
ENDBRANCH   4   7
BRANCH   1  18
HETATM   18  N1  UNL     1     -39.549 -43.267  17.635  1.00  0.00    -0.324 N 
HETATM   19  C3  UNL     1     -38.889 -42.007  17.926  1.00  0.00     0.244 C 
HETATM   20  O1  UNL     1     -37.910 -41.627  17.509  1.00  0.00    -0.268 OA
ATOM     21  H1  UNL     1     -40.106 -43.767  18.328  1.00  0.00     0.169 HD
BRANCH  19  22
HETATM   22  C2  UNL     1     -39.723 -41.196  18.851  1.00  0.00     0.064 C 
HETATM   23  C1  UNL     1     -39.587 -40.065  19.343  1.00  0.00     0.017 C 
ENDBRANCH  19  22
ENDBRANCH   1  18
TORSDOF 7
ENDMDL
