MODEL 1
REMARK VINA RESULT: -8.060124197      0.000      0.000
REMARK  8 active torsions:
REMARK  status: ('A' for Active; 'I' for Inactive)
REMARK    1  A    between atoms: C2_2  and  C3_3 
REMARK    2  A    between atoms: C2_2  and  C7_13 
REMARK       I    between atoms: C3_3  and  N1_5 
REMARK    3  A    between atoms: N1_5  and  C4_7 
REMARK    4  A    between atoms: C4_7  and  C5_8 
REMARK    5  A    between atoms: C4_7  and  C6_10 
REMARK    6  A    between atoms: C10_16  and  N2_17 
REMARK       I    between atoms: N2_17  and  C11_19 
REMARK    7  A    between atoms: C11_19  and  C12_21 
REMARK    8  A    between atoms: C12_21  and  O6_24 
ROOT
HETATM    1  C7  UNL     1     -35.034 -46.408  11.614  1.00  0.00    -0.045 A 
HETATM    2  C8  UNL     1     -35.903 -47.046  12.473  1.00  0.00     0.010 A 
HETATM    3  C9  UNL     1     -36.905 -46.378  13.123  1.00  0.00     0.030 A 
HETATM    4  C10 UNL     1     -37.114 -44.994  12.955  1.00  0.00     0.034 A 
HETATM    5  C15 UNL     1     -36.242 -44.378  12.097  1.00  0.00     0.030 A 
HETATM    6  C16 UNL     1     -35.213 -45.059  11.429  1.00  0.00     0.010 A 
ENDROOT
BRANCH   1   7
HETATM    7  C2  UNL     1     -33.929 -47.075  10.897  1.00  0.00     0.106 C 
HETATM    8  C1  UNL     1     -33.059 -46.008  10.272  1.00  0.00     0.025 C 
BRANCH   7   9
HETATM    9  C3  UNL     1     -34.350 -48.102   9.942  1.00  0.00     0.226 C 
HETATM   10  O1  UNL     1     -33.442 -48.897   9.503  1.00  0.00    -0.273 OA
HETATM   11  N1  UNL     1     -35.688 -48.247   9.494  1.00  0.00    -0.340 N 
ATOM     12  H1  UNL     1     -36.398 -47.607   9.850  1.00  0.00     0.163 HD
BRANCH  11  13
HETATM   13  C4  UNL     1     -36.083 -49.271   8.550  1.00  0.00     0.247 C 
BRANCH  13  14
HETATM   14  C5  UNL     1     -37.268 -48.810   7.800  1.00  0.00     0.267 C 
HETATM   15  O2  UNL     1     -37.260 -48.782   6.592  1.00  0.00    -0.304 OA
ENDBRANCH  13  14
BRANCH  13  16
HETATM   16  C6  UNL     1     -36.499 -50.463   9.361  1.00  0.00     0.203 C 
HETATM   17  O3  UNL     1     -35.729 -51.031  10.175  1.00  0.00    -0.646 OA
HETATM   18  O4  UNL     1     -37.790 -50.989   9.232  1.00  0.00    -0.646 OA
ENDBRANCH  13  16
ENDBRANCH  11  13
ENDBRANCH   7   9
ENDBRANCH   1   7
BRANCH   4  19
HETATM   19  N2  UNL     1     -38.153 -44.359  13.656  1.00  0.00    -0.325 N 
HETATM   20  C11 UNL     1     -38.192 -44.107  15.019  1.00  0.00     0.256 C 
HETATM   21  O5  UNL     1     -37.299 -44.404  15.849  1.00  0.00    -0.270 OA
ATOM     22  H2  UNL     1     -38.957 -44.053  13.109  1.00  0.00     0.169 HD
BRANCH  20  23
HETATM   23  C12 UNL     1     -39.388 -43.411  15.647  1.00  0.00     0.131 C 
HETATM   24  C13 UNL     1     -39.721 -44.015  16.981  1.00  0.00     0.056 C 
HETATM   25  C14 UNL     1     -40.517 -43.560  14.640  1.00  0.00     0.056 C 
BRANCH  23  26
HETATM   26  O6  UNL     1     -39.076 -42.073  15.775  1.00  0.00    -0.381 OA
ATOM     27  H6  UNL     1     -38.668 -41.951  16.624  1.00  0.00     0.211 HD
ENDBRANCH  23  26
ENDBRANCH  20  23
ENDBRANCH   4  19
TORSDOF 8
ENDMDL
MODEL 2
REMARK VINA RESULT: -7.727302602      0.601      1.324
REMARK  8 active torsions:
REMARK  status: ('A' for Active; 'I' for Inactive)
REMARK    1  A    between atoms: C2_2  and  C3_3 
REMARK    2  A    between atoms: C2_2  and  C7_13 
REMARK       I    between atoms: C3_3  and  N1_5 
REMARK    3  A    between atoms: N1_5  and  C4_7 
REMARK    4  A    between atoms: C4_7  and  C5_8 
REMARK    5  A    between atoms: C4_7  and  C6_10 
REMARK    6  A    between atoms: C10_16  and  N2_17 
REMARK       I    between atoms: N2_17  and  C11_19 
REMARK    7  A    between atoms: C11_19  and  C12_21 
REMARK    8  A    between atoms: C12_21  and  O6_24 
ROOT
HETATM    1  C7  UNL     1     -34.931 -46.377  11.573  1.00  0.00    -0.045 A 
HETATM    2  C8  UNL     1     -35.195 -45.027  11.487  1.00  0.00     0.010 A 
HETATM    3  C9  UNL     1     -36.219 -44.440  12.180  1.00  0.00     0.030 A 
HETATM    4  C10 UNL     1     -37.069 -45.179  13.028  1.00  0.00     0.034 A 
HETATM    5  C15 UNL     1     -36.791 -46.518  13.102  1.00  0.00     0.030 A 
HETATM    6  C16 UNL     1     -35.743 -47.123  12.392  1.00  0.00     0.010 A 
ENDROOT
BRANCH   1   7
HETATM    7  C2  UNL     1     -33.850 -47.065  10.839  1.00  0.00     0.106 C 
HETATM    8  C1  UNL     1     -32.988 -46.016  10.175  1.00  0.00     0.025 C 
BRANCH   7   9
HETATM    9  C3  UNL     1     -34.305 -48.102   9.911  1.00  0.00     0.226 C 
HETATM   10  O1  UNL     1     -33.423 -48.936   9.491  1.00  0.00    -0.273 OA
HETATM   11  N1  UNL     1     -35.648 -48.218   9.469  1.00  0.00    -0.340 N 
ATOM     12  H1  UNL     1     -36.337 -47.548   9.810  1.00  0.00     0.163 HD
BRANCH  11  13
HETATM   13  C4  UNL     1     -36.077 -49.253   8.552  1.00  0.00     0.247 C 
BRANCH  13  14
HETATM   14  C5  UNL     1     -37.278 -48.794   7.827  1.00  0.00     0.267 C 
HETATM   15  O2  UNL     1     -37.291 -48.754   6.620  1.00  0.00    -0.304 OA
ENDBRANCH  13  14
BRANCH  13  16
HETATM   16  C6  UNL     1     -36.479 -50.429   9.393  1.00  0.00     0.203 C 
HETATM   17  O3  UNL     1     -35.712 -50.953  10.239  1.00  0.00    -0.646 OA
HETATM   18  O4  UNL     1     -37.754 -50.991   9.256  1.00  0.00    -0.646 OA
ENDBRANCH  13  16
ENDBRANCH  11  13
ENDBRANCH   7   9
ENDBRANCH   1   7
BRANCH   4  19
HETATM   19  N2  UNL     1     -38.111 -44.525  13.708  1.00  0.00    -0.325 N 
HETATM   20  C11 UNL     1     -38.139 -44.204  15.056  1.00  0.00     0.256 C 
HETATM   21  O5  UNL     1     -37.233 -44.444  15.889  1.00  0.00    -0.270 OA
ATOM     22  H2  UNL     1     -38.926 -44.260  13.155  1.00  0.00     0.169 HD
BRANCH  20  23
HETATM   23  C12 UNL     1     -39.339 -43.496  15.661  1.00  0.00     0.131 C 
HETATM   24  C13 UNL     1     -40.426 -43.309  14.641  1.00  0.00     0.056 C 
HETATM   25  C14 UNL     1     -38.804 -42.175  16.191  1.00  0.00     0.056 C 
BRANCH  23  26
HETATM   26  O6  UNL     1     -39.786 -44.256  16.724  1.00  0.00    -0.381 OA
ATOM     27  H6  UNL     1     -39.095 -44.866  16.954  1.00  0.00     0.211 HD
ENDBRANCH  23  26
ENDBRANCH  20  23
ENDBRANCH   4  19
TORSDOF 8
ENDMDL
MODEL 3
REMARK VINA RESULT: -7.278483333      2.519      9.171
REMARK  8 active torsions:
REMARK  status: ('A' for Active; 'I' for Inactive)
REMARK    1  A    between atoms: C2_2  and  C3_3 
REMARK    2  A    between atoms: C2_2  and  C7_13 
REMARK       I    between atoms: C3_3  and  N1_5 
REMARK    3  A    between atoms: N1_5  and  C4_7 
REMARK    4  A    between atoms: C4_7  and  C5_8 
REMARK    5  A    between atoms: C4_7  and  C6_10 
REMARK    6  A    between atoms: C10_16  and  N2_17 
REMARK       I    between atoms: N2_17  and  C11_19 
REMARK    7  A    between atoms: C11_19  and  C12_21 
REMARK    8  A    between atoms: C12_21  and  O6_24 
ROOT
HETATM    1  C7  UNL     1     -38.499 -44.436  14.331  1.00  0.00    -0.045 A 
HETATM    2  C8  UNL     1     -37.147 -44.453  14.596  1.00  0.00     0.010 A 
HETATM    3  C9  UNL     1     -36.223 -44.794  13.646  1.00  0.00     0.030 A 
HETATM    4  C10 UNL     1     -36.595 -45.149  12.333  1.00  0.00     0.034 A 
HETATM    5  C15 UNL     1     -37.943 -45.125  12.088  1.00  0.00     0.030 A 
HETATM    6  C16 UNL     1     -38.893 -44.777  13.059  1.00  0.00     0.010 A 
ENDROOT
BRANCH   1   7
HETATM    7  C2  UNL     1     -39.540 -44.089  15.319  1.00  0.00     0.106 C 
HETATM    8  C1  UNL     1     -40.372 -42.962  14.753  1.00  0.00     0.025 C 
BRANCH   7   9
HETATM    9  C3  UNL     1     -39.037 -43.809  16.665  1.00  0.00     0.226 C 
HETATM   10  O1  UNL     1     -38.870 -44.815  17.446  1.00  0.00    -0.273 OA
HETATM   11  N1  UNL     1     -38.735 -42.503  17.128  1.00  0.00    -0.340 N 
ATOM     12  H1  UNL     1     -38.874 -41.713  16.497  1.00  0.00     0.163 HD
BRANCH  11  13
HETATM   13  C4  UNL     1     -38.237 -42.248  18.463  1.00  0.00     0.247 C 
BRANCH  13  14
HETATM   14  C5  UNL     1     -39.370 -41.928  19.353  1.00  0.00     0.267 C 
HETATM   15  O2  UNL     1     -40.299 -41.268  18.954  1.00  0.00    -0.304 OA
ENDBRANCH  13  14
BRANCH  13  16
HETATM   16  C6  UNL     1     -37.375 -41.023  18.371  1.00  0.00     0.203 C 
HETATM   17  O3  UNL     1     -36.989 -40.388  19.384  1.00  0.00    -0.646 OA
HETATM   18  O4  UNL     1     -36.966 -40.540  17.123  1.00  0.00    -0.646 OA
ENDBRANCH  13  16
ENDBRANCH  11  13
ENDBRANCH   7   9
ENDBRANCH   1   7
BRANCH   4  19
HETATM   19  N2  UNL     1     -35.603 -45.500  11.402  1.00  0.00    -0.325 N 
HETATM   20  C11 UNL     1     -35.028 -46.751  11.244  1.00  0.00     0.256 C 
HETATM   21  O5  UNL     1     -35.306 -47.778  11.910  1.00  0.00    -0.270 OA
ATOM     22  H2  UNL     1     -35.274 -44.761  10.780  1.00  0.00     0.169 HD
BRANCH  20  23
HETATM   23  C12 UNL     1     -33.958 -46.988  10.193  1.00  0.00     0.131 C 
HETATM   24  C13 UNL     1     -33.838 -48.450   9.867  1.00  0.00     0.056 C 
HETATM   25  C14 UNL     1     -32.678 -46.415  10.782  1.00  0.00     0.056 C 
BRANCH  23  26
HETATM   26  O6  UNL     1     -34.300 -46.260   9.071  1.00  0.00    -0.381 OA
ATOM     27  H6  UNL     1     -34.764 -46.840   8.480  1.00  0.00     0.211 HD
ENDBRANCH  23  26
ENDBRANCH  20  23
ENDBRANCH   4  19
TORSDOF 8
ENDMDL
MODEL 4
REMARK VINA RESULT: -7.265851463      2.773      8.793
REMARK  8 active torsions:
REMARK  status: ('A' for Active; 'I' for Inactive)
REMARK    1  A    between atoms: C2_2  and  C3_3 
REMARK    2  A    between atoms: C2_2  and  C7_13 
REMARK       I    between atoms: C3_3  and  N1_5 
REMARK    3  A    between atoms: N1_5  and  C4_7 
REMARK    4  A    between atoms: C4_7  and  C5_8 
REMARK    5  A    between atoms: C4_7  and  C6_10 
REMARK    6  A    between atoms: C10_16  and  N2_17 
REMARK       I    between atoms: N2_17  and  C11_19 
REMARK    7  A    between atoms: C11_19  and  C12_21 
REMARK    8  A    between atoms: C12_21  and  O6_24 
ROOT
HETATM    1  C7  UNL     1     -38.634 -44.487  14.467  1.00  0.00    -0.045 A 
HETATM    2  C8  UNL     1     -37.831 -45.592  14.653  1.00  0.00     0.010 A 
HETATM    3  C9  UNL     1     -37.092 -46.134  13.637  1.00  0.00     0.030 A 
HETATM    4  C10 UNL     1     -37.105 -45.598  12.333  1.00  0.00     0.034 A 
HETATM    5  C15 UNL     1     -37.907 -44.500  12.168  1.00  0.00     0.030 A 
HETATM    6  C16 UNL     1     -38.666 -43.941  13.207  1.00  0.00     0.010 A 
ENDROOT
BRANCH   1   7
HETATM    7  C2  UNL     1     -39.461 -43.869  15.522  1.00  0.00     0.106 C 
HETATM    8  C1  UNL     1     -40.007 -42.564  14.991  1.00  0.00     0.025 C 
BRANCH   7   9
HETATM    9  C3  UNL     1     -38.793 -43.724  16.817  1.00  0.00     0.226 C 
HETATM   10  O1  UNL     1     -37.970 -42.746  16.943  1.00  0.00    -0.273 OA
HETATM   11  N1  UNL     1     -39.013 -44.601  17.910  1.00  0.00    -0.340 N 
ATOM     12  H1  UNL     1     -39.669 -45.375  17.795  1.00  0.00     0.163 HD
BRANCH  11  13
HETATM   13  C4  UNL     1     -38.343 -44.440  19.183  1.00  0.00     0.247 C 
BRANCH  13  14
HETATM   14  C5  UNL     1     -37.074 -45.194  19.164  1.00  0.00     0.267 C 
HETATM   15  O2  UNL     1     -36.039 -44.666  19.493  1.00  0.00    -0.304 OA
ENDBRANCH  13  14
BRANCH  13  16
HETATM   16  C6  UNL     1     -39.229 -45.073  20.216  1.00  0.00     0.203 C 
HETATM   17  O3  UNL     1     -40.454 -45.275  20.027  1.00  0.00    -0.646 OA
HETATM   18  O4  UNL     1     -38.702 -45.467  21.451  1.00  0.00    -0.646 OA
ENDBRANCH  13  16
ENDBRANCH  11  13
ENDBRANCH   7   9
ENDBRANCH   1   7
BRANCH   4  19
HETATM   19  N2  UNL     1     -36.334 -46.202  11.326  1.00  0.00    -0.325 N 
HETATM   20  C11 UNL     1     -34.990 -45.976  11.071  1.00  0.00     0.256 C 
HETATM   21  O5  UNL     1     -34.242 -45.194  11.706  1.00  0.00    -0.270 OA
ATOM     22  H2  UNL     1     -36.809 -46.873  10.723  1.00  0.00     0.169 HD
BRANCH  20  23
HETATM   23  C12 UNL     1     -34.280 -46.701   9.941  1.00  0.00     0.131 C 
HETATM   24  C13 UNL     1     -35.177 -47.731   9.315  1.00  0.00     0.056 C 
HETATM   25  C14 UNL     1     -33.039 -47.313  10.569  1.00  0.00     0.056 C 
BRANCH  23  26
HETATM   26  O6  UNL     1     -33.892 -45.756   9.012  1.00  0.00    -0.381 OA
ATOM     27  H6  UNL     1     -33.265 -45.179   9.431  1.00  0.00     0.211 HD
ENDBRANCH  23  26
ENDBRANCH  20  23
ENDBRANCH   4  19
TORSDOF 8
ENDMDL
MODEL 5
REMARK VINA RESULT: -7.245724484      2.946      5.020
REMARK  8 active torsions:
REMARK  status: ('A' for Active; 'I' for Inactive)
REMARK    1  A    between atoms: C2_2  and  C3_3 
REMARK    2  A    between atoms: C2_2  and  C7_13 
REMARK       I    between atoms: C3_3  and  N1_5 
REMARK    3  A    between atoms: N1_5  and  C4_7 
REMARK    4  A    between atoms: C4_7  and  C5_8 
REMARK    5  A    between atoms: C4_7  and  C6_10 
REMARK    6  A    between atoms: C10_16  and  N2_17 
REMARK       I    between atoms: N2_17  and  C11_19 
REMARK    7  A    between atoms: C11_19  and  C12_21 
REMARK    8  A    between atoms: C12_21  and  O6_24 
ROOT
HETATM    1  C7  UNL     1     -38.186 -44.397  13.782  1.00  0.00    -0.045 A 
HETATM    2  C8  UNL     1     -37.491 -44.683  14.936  1.00  0.00     0.010 A 
HETATM    3  C9  UNL     1     -37.987 -44.387  16.177  1.00  0.00     0.030 A 
HETATM    4  C10 UNL     1     -39.242 -43.771  16.354  1.00  0.00     0.034 A 
HETATM    5  C15 UNL     1     -39.920 -43.495  15.196  1.00  0.00     0.030 A 
HETATM    6  C16 UNL     1     -39.414 -43.797  13.922  1.00  0.00     0.010 A 
ENDROOT
BRANCH   1   7
HETATM    7  C2  UNL     1     -37.696 -44.681  12.419  1.00  0.00     0.106 C 
HETATM    8  C1  UNL     1     -38.783 -45.415  11.668  1.00  0.00     0.025 C 
BRANCH   7   9
HETATM    9  C3  UNL     1     -36.402 -45.364  12.364  1.00  0.00     0.226 C 
HETATM   10  O1  UNL     1     -36.354 -46.561  12.828  1.00  0.00    -0.273 OA
HETATM   11  N1  UNL     1     -35.228 -44.770  11.834  1.00  0.00    -0.340 N 
ATOM     12  H1  UNL     1     -35.280 -43.817  11.471  1.00  0.00     0.163 HD
BRANCH  11  13
HETATM   13  C4  UNL     1     -33.959 -45.464  11.789  1.00  0.00     0.247 C 
BRANCH  13  14
HETATM   14  C5  UNL     1     -32.877 -44.485  11.562  1.00  0.00     0.267 C 
HETATM   15  O2  UNL     1     -31.934 -44.762  10.859  1.00  0.00    -0.304 OA
ENDBRANCH  13  14
BRANCH  13  16
HETATM   16  C6  UNL     1     -34.008 -46.368  10.593  1.00  0.00     0.203 C 
HETATM   17  O3  UNL     1     -33.725 -47.590  10.654  1.00  0.00    -0.646 OA
HETATM   18  O4  UNL     1     -34.381 -45.863   9.341  1.00  0.00    -0.646 OA
ENDBRANCH  13  16
ENDBRANCH  11  13
ENDBRANCH   7   9
ENDBRANCH   1   7
BRANCH   4  19
HETATM   19  N2  UNL     1     -39.696 -43.482  17.652  1.00  0.00    -0.325 N 
HETATM   20  C11 UNL     1     -39.394 -42.352  18.397  1.00  0.00     0.256 C 
HETATM   21  O5  UNL     1     -38.666 -41.400  18.027  1.00  0.00    -0.270 OA
ATOM     22  H2  UNL     1     -40.309 -44.170  18.090  1.00  0.00     0.169 HD
BRANCH  20  23
HETATM   23  C12 UNL     1     -39.955 -42.171  19.797  1.00  0.00     0.131 C 
HETATM   24  C13 UNL     1     -39.719 -40.773  20.294  1.00  0.00     0.056 C 
HETATM   25  C14 UNL     1     -39.259 -43.219  20.651  1.00  0.00     0.056 C 
BRANCH  23  26
HETATM   26  O6  UNL     1     -41.305 -42.456  19.750  1.00  0.00    -0.381 OA
ATOM     27  H6  UNL     1     -41.581 -42.403  18.842  1.00  0.00     0.211 HD
ENDBRANCH  23  26
ENDBRANCH  20  23
ENDBRANCH   4  19
TORSDOF 8
ENDMDL
