MODEL 1
REMARK VINA RESULT: -8.182681158      0.000      0.000
REMARK  10 active torsions:
REMARK  status: ('A' for Active; 'I' for Inactive)
REMARK    1  A    between atoms: C2_2  and  N1_5 
REMARK       I    between atoms: N1_5  and  C5_7 
REMARK       I    between atoms: C5_7  and  N2_9 
REMARK    2  A    between atoms: N2_9  and  C6_11 
REMARK    3  A    between atoms: C6_11  and  C7_12 
REMARK    4  A    between atoms: C7_12  and  N3_13 
REMARK    5  A    between atoms: N3_13  and  C8_15 
REMARK    6  A    between atoms: C8_15  and  C9_19 
REMARK    7  A    between atoms: C9_19  and  O2_20 
REMARK    8  A    between atoms: O2_20  and  C10_21 
REMARK    9  A    between atoms: C10_21  and  C11_23 
REMARK   10  A    between atoms: C12_24  and  C13_25 
ROOT
HETATM    1  C8  UNL     1     -34.672 -44.472  11.752  1.00  0.00     0.095 C 
HETATM    2  N4  UNL     1     -33.997 -43.544  11.181  1.00  0.00    -0.387 N 
ATOM      3  H41 UNL     1     -32.984 -43.571  11.292  1.00  0.00     0.157 HD
ATOM      4  H42 UNL     1     -34.480 -42.825  10.643  1.00  0.00     0.157 HD
ENDROOT
BRANCH   1   5
HETATM    5  N3  UNL     1     -36.080 -44.435  11.598  1.00  0.00    -0.377 N 
ATOM      6  H3  UNL     1     -36.489 -43.570  11.245  1.00  0.00     0.160 HD
BRANCH   5   7
HETATM    7  C7  UNL     1     -36.972 -45.506  11.895  1.00  0.00     0.140 C 
BRANCH   7   8
HETATM    8  C6  UNL     1     -38.035 -45.210  12.896  1.00  0.00     0.144 C 
BRANCH   8   9
HETATM    9  N2  UNL     1     -37.579 -45.179  14.246  1.00  0.00    -0.342 N 
HETATM   10  C5  UNL     1     -38.220 -44.399  15.235  1.00  0.00     0.316 C 
HETATM   11  N1  UNL     1     -37.786 -44.349  16.586  1.00  0.00    -0.335 N 
HETATM   12  O1  UNL     1     -39.226 -43.713  14.901  1.00  0.00    -0.247 OA
ATOM     13  H1  UNL     1     -36.969 -44.904  16.843  1.00  0.00     0.165 HD
ATOM     14  H2  UNL     1     -36.765 -45.738  14.506  1.00  0.00     0.164 HD
BRANCH  11  15
HETATM   15  C2  UNL     1     -38.410 -43.579  17.608  1.00  0.00     0.023 C 
HETATM   16  C1  UNL     1     -38.233 -42.103  17.304  1.00  0.00     0.037 C 
HETATM   17  C3  UNL     1     -37.724 -43.833  18.946  1.00  0.00     0.037 C 
HETATM   18  C4  UNL     1     -39.865 -43.868  17.792  1.00  0.00     0.037 C 
ENDBRANCH  11  15
ENDBRANCH   8   9
ENDBRANCH   7   8
ENDBRANCH   5   7
ENDBRANCH   1   5
BRANCH   1  19
HETATM   19  C9  UNL     1     -33.970 -45.518  12.534  1.00  0.00     0.254 C 
BRANCH  19  20
HETATM   20  O2  UNL     1     -32.907 -46.097  11.806  1.00  0.00    -0.311 OA
BRANCH  20  21
HETATM   21  C10 UNL     1     -33.001 -46.620  10.537  1.00  0.00     0.283 C 
HETATM   22  O3  UNL     1     -32.379 -46.048   9.613  1.00  0.00    -0.260 OA
BRANCH  21  23
HETATM   23  C11 UNL     1     -33.787 -47.804  10.214  1.00  0.00     0.083 C 
HETATM   24  C12 UNL     1     -34.966 -47.744   9.647  1.00  0.00     0.017 C 
BRANCH  24  25
HETATM   25  C13 UNL     1     -35.763 -48.904   9.317  1.00  0.00    -0.036 A 
HETATM   26  C14 UNL     1     -36.695 -48.822   8.306  1.00  0.00     0.011 A 
HETATM   27  C15 UNL     1     -37.476 -49.886   7.955  1.00  0.00     0.001 A 
HETATM   28  C16 UNL     1     -37.339 -51.090   8.627  1.00  0.00     0.000 A 
HETATM   29  C17 UNL     1     -36.408 -51.181   9.642  1.00  0.00     0.001 A 
HETATM   30  C18 UNL     1     -35.630 -50.098   9.980  1.00  0.00     0.011 A 
ENDBRANCH  24  25
ENDBRANCH  21  23
ENDBRANCH  20  21
ENDBRANCH  19  20
ENDBRANCH   1  19
TORSDOF 10
ENDMDL
MODEL 2
REMARK VINA RESULT: -8.092050721      0.439      1.337
REMARK  10 active torsions:
REMARK  status: ('A' for Active; 'I' for Inactive)
REMARK    1  A    between atoms: C2_2  and  N1_5 
REMARK       I    between atoms: N1_5  and  C5_7 
REMARK       I    between atoms: C5_7  and  N2_9 
REMARK    2  A    between atoms: N2_9  and  C6_11 
REMARK    3  A    between atoms: C6_11  and  C7_12 
REMARK    4  A    between atoms: C7_12  and  N3_13 
REMARK    5  A    between atoms: N3_13  and  C8_15 
REMARK    6  A    between atoms: C8_15  and  C9_19 
REMARK    7  A    between atoms: C9_19  and  O2_20 
REMARK    8  A    between atoms: O2_20  and  C10_21 
REMARK    9  A    between atoms: C10_21  and  C11_23 
REMARK   10  A    between atoms: C12_24  and  C13_25 
ROOT
HETATM    1  C8  UNL     1     -34.690 -44.516  11.695  1.00  0.00     0.095 C 
HETATM    2  N4  UNL     1     -34.881 -43.993  10.541  1.00  0.00    -0.387 N 
ATOM      3  H41 UNL     1     -34.053 -43.772   9.988  1.00  0.00     0.157 HD
ATOM      4  H42 UNL     1     -35.831 -43.817  10.215  1.00  0.00     0.157 HD
ENDROOT
BRANCH   1   5
HETATM    5  N3  UNL     1     -35.841 -44.823  12.464  1.00  0.00    -0.377 N 
ATOM      6  H3  UNL     1     -35.691 -45.160  13.414  1.00  0.00     0.160 HD
BRANCH   5   7
HETATM    7  C7  UNL     1     -37.189 -44.699  12.020  1.00  0.00     0.140 C 
BRANCH   7   8
HETATM    8  C6  UNL     1     -38.238 -45.035  13.022  1.00  0.00     0.144 C 
BRANCH   8   9
HETATM    9  N2  UNL     1     -37.767 -45.101  14.366  1.00  0.00    -0.342 N 
HETATM   10  C5  UNL     1     -38.324 -44.305  15.393  1.00  0.00     0.316 C 
HETATM   11  N1  UNL     1     -37.873 -44.349  16.740  1.00  0.00    -0.335 N 
HETATM   12  O1  UNL     1     -39.267 -43.518  15.100  1.00  0.00    -0.247 OA
ATOM     13  H1  UNL     1     -37.108 -44.986  16.963  1.00  0.00     0.165 HD
ATOM     14  H2  UNL     1     -37.005 -45.741  14.593  1.00  0.00     0.164 HD
BRANCH  11  15
HETATM   15  C2  UNL     1     -38.414 -43.567  17.800  1.00  0.00     0.023 C 
HETATM   16  C1  UNL     1     -37.678 -43.890  19.087  1.00  0.00     0.037 C 
HETATM   17  C3  UNL     1     -39.875 -43.937  18.029  1.00  0.00     0.037 C 
HETATM   18  C4  UNL     1     -38.359 -42.092  17.564  1.00  0.00     0.037 C 
ENDBRANCH  11  15
ENDBRANCH   8   9
ENDBRANCH   7   8
ENDBRANCH   5   7
ENDBRANCH   1   5
BRANCH   1  19
HETATM   19  C9  UNL     1     -33.308 -44.771  12.168  1.00  0.00     0.254 C 
BRANCH  19  20
HETATM   20  O2  UNL     1     -32.848 -46.052  11.789  1.00  0.00    -0.311 OA
BRANCH  20  21
HETATM   21  C10 UNL     1     -32.986 -46.611  10.540  1.00  0.00     0.283 C 
HETATM   22  O3  UNL     1     -32.369 -46.087   9.585  1.00  0.00    -0.260 OA
BRANCH  21  23
HETATM   23  C11 UNL     1     -33.812 -47.782  10.272  1.00  0.00     0.083 C 
HETATM   24  C12 UNL     1     -34.917 -47.730   9.572  1.00  0.00     0.017 C 
BRANCH  24  25
HETATM   25  C13 UNL     1     -35.752 -48.876   9.293  1.00  0.00    -0.036 A 
HETATM   26  C14 UNL     1     -35.582 -50.033  10.021  1.00  0.00     0.011 A 
HETATM   27  C15 UNL     1     -36.343 -51.146   9.797  1.00  0.00     0.001 A 
HETATM   28  C16 UNL     1     -37.317 -51.125   8.812  1.00  0.00     0.000 A 
HETATM   29  C17 UNL     1     -37.494 -49.969   8.078  1.00  0.00     0.001 A 
HETATM   30  C18 UNL     1     -36.719 -48.859   8.318  1.00  0.00     0.011 A 
ENDBRANCH  24  25
ENDBRANCH  21  23
ENDBRANCH  20  21
ENDBRANCH  19  20
ENDBRANCH   1  19
TORSDOF 10
ENDMDL
MODEL 3
REMARK VINA RESULT: -7.885377418      1.405      1.589
REMARK  10 active torsions:
REMARK  status: ('A' for Active; 'I' for Inactive)
REMARK    1  A    between atoms: C2_2  and  N1_5 
REMARK       I    between atoms: N1_5  and  C5_7 
REMARK       I    between atoms: C5_7  and  N2_9 
REMARK    2  A    between atoms: N2_9  and  C6_11 
REMARK    3  A    between atoms: C6_11  and  C7_12 
REMARK    4  A    between atoms: C7_12  and  N3_13 
REMARK    5  A    between atoms: N3_13  and  C8_15 
REMARK    6  A    between atoms: C8_15  and  C9_19 
REMARK    7  A    between atoms: C9_19  and  O2_20 
REMARK    8  A    between atoms: O2_20  and  C10_21 
REMARK    9  A    between atoms: C10_21  and  C11_23 
REMARK   10  A    between atoms: C12_24  and  C13_25 
ROOT
HETATM    1  C8  UNL     1     -36.239 -44.835  12.113  1.00  0.00     0.095 C 
HETATM    2  N4  UNL     1     -35.961 -45.782  12.929  1.00  0.00    -0.387 N 
ATOM      3  H41 UNL     1     -34.994 -46.106  12.955  1.00  0.00     0.157 HD
ATOM      4  H42 UNL     1     -36.695 -46.175  13.518  1.00  0.00     0.157 HD
ENDROOT
BRANCH   1   5
HETATM    5  N3  UNL     1     -37.582 -44.385  12.077  1.00  0.00    -0.377 N 
ATOM      6  H3  UNL     1     -37.808 -43.640  11.419  1.00  0.00     0.160 HD
BRANCH   5   7
HETATM    7  C7  UNL     1     -38.644 -44.887  12.884  1.00  0.00     0.140 C 
BRANCH   7   8
HETATM    8  C6  UNL     1     -39.033 -44.043  14.048  1.00  0.00     0.144 C 
BRANCH   8   9
HETATM    9  N2  UNL     1     -38.639 -44.568  15.313  1.00  0.00    -0.342 N 
HETATM   10  C5  UNL     1     -39.213 -44.114  16.523  1.00  0.00     0.316 C 
HETATM   11  N1  UNL     1     -38.838 -44.619  17.797  1.00  0.00    -0.335 N 
HETATM   12  O1  UNL     1     -40.100 -43.218  16.468  1.00  0.00    -0.247 OA
ATOM     13  H1  UNL     1     -38.118 -45.341  17.828  1.00  0.00     0.165 HD
ATOM     14  H2  UNL     1     -37.922 -45.294  15.347  1.00  0.00     0.164 HD
BRANCH  11  15
HETATM   15  C2  UNL     1     -39.398 -44.190  19.033  1.00  0.00     0.023 C 
HETATM   16  C1  UNL     1     -38.916 -42.784  19.341  1.00  0.00     0.037 C 
HETATM   17  C3  UNL     1     -38.902 -45.078  20.168  1.00  0.00     0.037 C 
HETATM   18  C4  UNL     1     -40.892 -44.212  19.072  1.00  0.00     0.037 C 
ENDBRANCH  11  15
ENDBRANCH   8   9
ENDBRANCH   7   8
ENDBRANCH   5   7
ENDBRANCH   1   5
BRANCH   1  19
HETATM   19  C9  UNL     1     -35.171 -44.263  11.257  1.00  0.00     0.254 C 
BRANCH  19  20
HETATM   20  O2  UNL     1     -33.983 -45.025  11.316  1.00  0.00    -0.311 OA
BRANCH  20  21
HETATM   21  C10 UNL     1     -33.559 -45.916  10.358  1.00  0.00     0.283 C 
HETATM   22  O3  UNL     1     -32.354 -45.891  10.018  1.00  0.00    -0.260 OA
BRANCH  21  23
HETATM   23  C11 UNL     1     -34.439 -46.886   9.719  1.00  0.00     0.083 C 
HETATM   24  C12 UNL     1     -34.750 -48.035  10.264  1.00  0.00     0.017 C 
BRANCH  24  25
HETATM   25  C13 UNL     1     -35.620 -49.012   9.650  1.00  0.00    -0.036 A 
HETATM   26  C14 UNL     1     -36.419 -48.640   8.591  1.00  0.00     0.011 A 
HETATM   27  C15 UNL     1     -37.260 -49.523   7.976  1.00  0.00     0.001 A 
HETATM   28  C16 UNL     1     -37.324 -50.834   8.419  1.00  0.00     0.000 A 
HETATM   29  C17 UNL     1     -36.527 -51.215   9.481  1.00  0.00     0.001 A 
HETATM   30  C18 UNL     1     -35.685 -50.312  10.086  1.00  0.00     0.011 A 
ENDBRANCH  24  25
ENDBRANCH  21  23
ENDBRANCH  20  21
ENDBRANCH  19  20
ENDBRANCH   1  19
TORSDOF 10
ENDMDL
MODEL 4
REMARK VINA RESULT: -7.663750142      1.213      1.781
REMARK  10 active torsions:
REMARK  status: ('A' for Active; 'I' for Inactive)
REMARK    1  A    between atoms: C2_2  and  N1_5 
REMARK       I    between atoms: N1_5  and  C5_7 
REMARK       I    between atoms: C5_7  and  N2_9 
REMARK    2  A    between atoms: N2_9  and  C6_11 
REMARK    3  A    between atoms: C6_11  and  C7_12 
REMARK    4  A    between atoms: C7_12  and  N3_13 
REMARK    5  A    between atoms: N3_13  and  C8_15 
REMARK    6  A    between atoms: C8_15  and  C9_19 
REMARK    7  A    between atoms: C9_19  and  O2_20 
REMARK    8  A    between atoms: O2_20  and  C10_21 
REMARK    9  A    between atoms: C10_21  and  C11_23 
REMARK   10  A    between atoms: C12_24  and  C13_25 
ROOT
HETATM    1  C8  UNL     1     -35.580 -44.631  11.773  1.00  0.00     0.095 C 
HETATM    2  N4  UNL     1     -35.090 -43.839  10.894  1.00  0.00    -0.387 N 
ATOM      3  H41 UNL     1     -34.089 -43.908  10.711  1.00  0.00     0.157 HD
ATOM      4  H42 UNL     1     -35.700 -43.178  10.412  1.00  0.00     0.157 HD
ENDROOT
BRANCH   1   5
HETATM    5  N3  UNL     1     -36.971 -44.535  12.028  1.00  0.00    -0.377 N 
ATOM      6  H3  UNL     1     -37.525 -43.967  11.387  1.00  0.00     0.160 HD
BRANCH   5   7
HETATM    7  C7  UNL     1     -37.660 -45.165  13.104  1.00  0.00     0.140 C 
BRANCH   7   8
HETATM    8  C6  UNL     1     -37.446 -44.569  14.452  1.00  0.00     0.144 C 
BRANCH   8   9
HETATM    9  N2  UNL     1     -38.645 -44.327  15.185  1.00  0.00    -0.342 N 
HETATM   10  C5  UNL     1     -38.659 -44.270  16.597  1.00  0.00     0.316 C 
HETATM   11  N1  UNL     1     -39.839 -44.032  17.352  1.00  0.00    -0.335 N 
HETATM   12  O1  UNL     1     -37.573 -44.439  17.217  1.00  0.00    -0.247 OA
ATOM     13  H1  UNL     1     -40.712 -43.902  16.839  1.00  0.00     0.165 HD
ATOM     14  H2  UNL     1     -39.518 -44.190  14.674  1.00  0.00     0.164 HD
BRANCH  11  15
HETATM   15  C2  UNL     1     -39.890 -43.963  18.773  1.00  0.00     0.023 C 
HETATM   16  C1  UNL     1     -41.339 -43.907  19.221  1.00  0.00     0.037 C 
HETATM   17  C3  UNL     1     -39.234 -42.676  19.257  1.00  0.00     0.037 C 
HETATM   18  C4  UNL     1     -39.210 -45.099  19.468  1.00  0.00     0.037 C 
ENDBRANCH  11  15
ENDBRANCH   8   9
ENDBRANCH   7   8
ENDBRANCH   5   7
ENDBRANCH   1   5
BRANCH   1  19
HETATM   19  C9  UNL     1     -34.693 -45.592  12.474  1.00  0.00     0.254 C 
BRANCH  19  20
HETATM   20  O2  UNL     1     -33.449 -45.734  11.821  1.00  0.00    -0.311 OA
BRANCH  20  21
HETATM   21  C10 UNL     1     -33.211 -46.521  10.719  1.00  0.00     0.283 C 
HETATM   22  O3  UNL     1     -32.267 -46.207   9.958  1.00  0.00    -0.260 OA
BRANCH  21  23
HETATM   23  C11 UNL     1     -34.002 -47.701  10.390  1.00  0.00     0.083 C 
HETATM   24  C12 UNL     1     -35.027 -47.669   9.577  1.00  0.00     0.017 C 
BRANCH  24  25
HETATM   25  C13 UNL     1     -35.826 -48.825   9.236  1.00  0.00    -0.036 A 
HETATM   26  C14 UNL     1     -35.641 -50.004   9.923  1.00  0.00     0.011 A 
HETATM   27  C15 UNL     1     -36.367 -51.126   9.640  1.00  0.00     0.001 A 
HETATM   28  C16 UNL     1     -37.319 -51.093   8.635  1.00  0.00     0.000 A 
HETATM   29  C17 UNL     1     -37.511 -49.914   7.940  1.00  0.00     0.001 A 
HETATM   30  C18 UNL     1     -36.771 -48.795   8.240  1.00  0.00     0.011 A 
ENDBRANCH  24  25
ENDBRANCH  21  23
ENDBRANCH  20  21
ENDBRANCH  19  20
ENDBRANCH   1  19
TORSDOF 10
ENDMDL
MODEL 5
REMARK VINA RESULT: -7.454263531      1.479      2.040
REMARK  10 active torsions:
REMARK  status: ('A' for Active; 'I' for Inactive)
REMARK    1  A    between atoms: C2_2  and  N1_5 
REMARK       I    between atoms: N1_5  and  C5_7 
REMARK       I    between atoms: C5_7  and  N2_9 
REMARK    2  A    between atoms: N2_9  and  C6_11 
REMARK    3  A    between atoms: C6_11  and  C7_12 
REMARK    4  A    between atoms: C7_12  and  N3_13 
REMARK    5  A    between atoms: N3_13  and  C8_15 
REMARK    6  A    between atoms: C8_15  and  C9_19 
REMARK    7  A    between atoms: C9_19  and  O2_20 
REMARK    8  A    between atoms: O2_20  and  C10_21 
REMARK    9  A    between atoms: C10_21  and  C11_23 
REMARK   10  A    between atoms: C12_24  and  C13_25 
ROOT
HETATM    1  C8  UNL     1     -36.267 -44.634  12.076  1.00  0.00     0.095 C 
HETATM    2  N4  UNL     1     -37.308 -44.202  11.467  1.00  0.00    -0.387 N 
ATOM      3  H41 UNL     1     -37.157 -43.587  10.668  1.00  0.00     0.157 HD
ATOM      4  H42 UNL     1     -38.235 -44.479  11.789  1.00  0.00     0.157 HD
ENDROOT
BRANCH   1   5
HETATM    5  N3  UNL     1     -36.476 -45.489  13.187  1.00  0.00    -0.377 N 
ATOM      6  H3  UNL     1     -35.767 -46.199  13.370  1.00  0.00     0.160 HD
BRANCH   5   7
HETATM    7  C7  UNL     1     -37.594 -45.440  14.069  1.00  0.00     0.140 C 
BRANCH   7   8
HETATM    8  C6  UNL     1     -37.556 -44.375  15.109  1.00  0.00     0.144 C 
BRANCH   8   9
HETATM    9  N2  UNL     1     -38.795 -44.166  15.782  1.00  0.00    -0.342 N 
HETATM   10  C5  UNL     1     -38.898 -44.214  17.191  1.00  0.00     0.316 C 
HETATM   11  N1  UNL     1     -40.120 -44.011  17.887  1.00  0.00    -0.335 N 
HETATM   12  O1  UNL     1     -37.856 -44.450  17.863  1.00  0.00    -0.247 OA
ATOM     13  H1  UNL     1     -40.957 -43.826  17.333  1.00  0.00     0.165 HD
ATOM     14  H2  UNL     1     -39.632 -43.975  15.230  1.00  0.00     0.164 HD
BRANCH  11  15
HETATM   15  C2  UNL     1     -40.260 -44.048  19.303  1.00  0.00     0.023 C 
HETATM   16  C1  UNL     1     -41.718 -43.838  19.669  1.00  0.00     0.037 C 
HETATM   17  C3  UNL     1     -39.484 -42.898  19.935  1.00  0.00     0.037 C 
HETATM   18  C4  UNL     1     -39.776 -45.313  19.936  1.00  0.00     0.037 C 
ENDBRANCH  11  15
ENDBRANCH   8   9
ENDBRANCH   7   8
ENDBRANCH   5   7
ENDBRANCH   1   5
BRANCH   1  19
HETATM   19  C9  UNL     1     -34.919 -44.232  11.607  1.00  0.00     0.254 C 
BRANCH  19  20
HETATM   20  O2  UNL     1     -33.930 -45.172  11.971  1.00  0.00    -0.311 OA
BRANCH  20  21
HETATM   21  C10 UNL     1     -33.399 -46.133  11.142  1.00  0.00     0.283 C 
HETATM   22  O3  UNL     1     -32.262 -45.933  10.657  1.00  0.00    -0.260 OA
BRANCH  21  23
HETATM   23  C11 UNL     1     -34.091 -47.369  10.800  1.00  0.00     0.083 C 
HETATM   24  C12 UNL     1     -34.995 -47.443   9.856  1.00  0.00     0.017 C 
BRANCH  24  25
HETATM   25  C13 UNL     1     -35.694 -48.657   9.499  1.00  0.00    -0.036 A 
HETATM   26  C14 UNL     1     -36.623 -48.632   8.482  1.00  0.00     0.011 A 
HETATM   27  C15 UNL     1     -37.313 -49.750   8.107  1.00  0.00     0.001 A 
HETATM   28  C16 UNL     1     -37.083 -50.950   8.758  1.00  0.00     0.000 A 
HETATM   29  C17 UNL     1     -36.152 -50.984   9.778  1.00  0.00     0.001 A 
HETATM   30  C18 UNL     1     -35.467 -49.849  10.142  1.00  0.00     0.011 A 
ENDBRANCH  24  25
ENDBRANCH  21  23
ENDBRANCH  20  21
ENDBRANCH  19  20
ENDBRANCH   1  19
TORSDOF 10
ENDMDL
