MODEL 1
REMARK VINA RESULT: -4.385885919      0.000      0.000
REMARK  1 active torsions:
REMARK  status: ('A' for Active; 'I' for Inactive)
REMARK    1  A    between atoms: N3_12  and  N4_13 
ROOT
HETATM    1  N1  UNL     1      26.646  32.918  17.080  1.00  0.00    -0.087 NA
HETATM    2  C1  UNL     1      27.643  33.117  18.058  1.00  0.00     0.094 C 
HETATM    3  N2  UNL     1      27.380  33.904  19.047  1.00  0.00    -0.363 N 
ATOM      4  H2  UNL     1      26.468  34.357  19.095  1.00  0.00     0.162 HD
HETATM    5  C2  UNL     1      28.354  34.156  20.089  1.00  0.00     0.176 C 
HETATM    6  C3  UNL     1      29.155  32.957  20.473  1.00  0.00     0.043 C 
HETATM    7  C4  UNL     1      29.172  31.864  19.430  1.00  0.00     0.015 C 
HETATM    8  C5  UNL     1      28.982  32.489  18.042  1.00  0.00     0.050 C 
HETATM    9  C6  UNL     1      30.093  33.469  17.795  1.00  0.00     0.013 C 
HETATM   10  C7  UNL     1      29.627  34.801  17.299  1.00  0.00     0.017 C 
HETATM   11  C8  UNL     1      29.025  35.674  18.352  1.00  0.00     0.115 C 
HETATM   12  N3  UNL     1      29.270  35.211  19.700  1.00  0.00    -0.215 NA
ENDROOT
BRANCH  12  13
HETATM   13  N4  UNL     1      29.108  36.275  20.612  1.00  0.00    -0.361 NA
ATOM     14  H42 UNL     1      29.489  36.014  21.521  1.00  0.00     0.171 HD
ATOM     15  H41 UNL     1      29.576  37.091  20.219  1.00  0.00     0.171 HD
ENDBRANCH  12  13
TORSDOF 1
ENDMDL
MODEL 2
REMARK VINA RESULT: -4.049209011      1.275      1.806
REMARK  1 active torsions:
REMARK  status: ('A' for Active; 'I' for Inactive)
REMARK    1  A    between atoms: N3_12  and  N4_13 
ROOT
HETATM    1  N1  UNL     1      26.412  32.722  17.832  1.00  0.00    -0.087 NA
HETATM    2  C1  UNL     1      27.521  33.366  18.418  1.00  0.00     0.094 C 
HETATM    3  N2  UNL     1      27.662  34.635  18.228  1.00  0.00    -0.363 N 
ATOM      4  H2  UNL     1      26.975  35.135  17.665  1.00  0.00     0.162 HD
HETATM    5  C2  UNL     1      28.777  35.364  18.799  1.00  0.00     0.176 C 
HETATM    6  C3  UNL     1      29.153  34.918  20.173  1.00  0.00     0.043 C 
HETATM    7  C4  UNL     1      28.670  33.530  20.526  1.00  0.00     0.015 C 
HETATM    8  C5  UNL     1      28.550  32.696  19.244  1.00  0.00     0.050 C 
HETATM    9  C6  UNL     1      29.895  32.632  18.578  1.00  0.00     0.013 C 
HETATM   10  C7  UNL     1      29.864  32.953  17.118  1.00  0.00     0.017 C 
HETATM   11  C8  UNL     1      29.726  34.409  16.809  1.00  0.00     0.115 C 
HETATM   12  N3  UNL     1      29.949  35.268  17.951  1.00  0.00    -0.215 NA
ENDROOT
BRANCH  12  13
HETATM   13  N4  UNL     1      30.271  36.571  17.518  1.00  0.00    -0.361 NA
ATOM     14  H42 UNL     1      30.086  36.661  16.519  1.00  0.00     0.171 HD
ATOM     15  H41 UNL     1      29.717  37.225  18.071  1.00  0.00     0.171 HD
ENDBRANCH  12  13
TORSDOF 1
ENDMDL
MODEL 3
REMARK VINA RESULT: -3.953687779      1.903      2.964
REMARK  1 active torsions:
REMARK  status: ('A' for Active; 'I' for Inactive)
REMARK    1  A    between atoms: N3_12  and  N4_13 
ROOT
HETATM    1  N1  UNL     1      29.906  31.339  18.474  1.00  0.00    -0.087 NA
HETATM    2  C1  UNL     1      29.288  32.542  18.871  1.00  0.00     0.094 C 
HETATM    3  N2  UNL     1      29.195  32.794  20.134  1.00  0.00    -0.363 N 
ATOM      4  H2  UNL     1      29.567  32.122  20.805  1.00  0.00     0.162 HD
HETATM    5  C2  UNL     1      28.573  34.010  20.617  1.00  0.00     0.176 C 
HETATM    6  C3  UNL     1      28.870  35.213  19.787  1.00  0.00     0.043 C 
HETATM    7  C4  UNL     1      29.328  34.898  18.381  1.00  0.00     0.015 C 
HETATM    8  C5  UNL     1      28.731  33.554  17.946  1.00  0.00     0.050 C 
HETATM    9  C6  UNL     1      27.233  33.646  18.003  1.00  0.00     0.013 C 
HETATM   10  C7  UNL     1      26.582  32.507  18.721  1.00  0.00     0.017 C 
HETATM   11  C8  UNL     1      26.691  32.573  20.210  1.00  0.00     0.115 C 
HETATM   12  N3  UNL     1      27.134  33.858  20.702  1.00  0.00    -0.215 NA
ENDROOT
BRANCH  12  13
HETATM   13  N4  UNL     1      26.769  34.006  22.057  1.00  0.00    -0.361 NA
ATOM     14  H42 UNL     1      27.354  34.714  22.500  1.00  0.00     0.171 HD
ATOM     15  H41 UNL     1      25.780  34.253  22.085  1.00  0.00     0.171 HD
ENDBRANCH  12  13
TORSDOF 1
ENDMDL
MODEL 4
REMARK VINA RESULT: -3.888505483      1.400      3.472
REMARK  1 active torsions:
REMARK  status: ('A' for Active; 'I' for Inactive)
REMARK    1  A    between atoms: N3_12  and  N4_13 
ROOT
HETATM    1  N1  UNL     1      29.028  35.935  19.897  1.00  0.00    -0.087 NA
HETATM    2  C1  UNL     1      28.891  34.536  19.787  1.00  0.00     0.094 C 
HETATM    3  N2  UNL     1      29.447  33.944  18.784  1.00  0.00    -0.363 N 
ATOM      4  H2  UNL     1      29.967  34.498  18.103  1.00  0.00     0.162 HD
HETATM    5  C2  UNL     1      29.349  32.509  18.605  1.00  0.00     0.176 C 
HETATM    6  C3  UNL     1      29.427  31.734  19.877  1.00  0.00     0.043 C 
HETATM    7  C4  UNL     1      29.107  32.540  21.114  1.00  0.00     0.015 C 
HETATM    8  C5  UNL     1      28.151  33.680  20.741  1.00  0.00     0.050 C 
HETATM    9  C6  UNL     1      26.897  33.092  20.158  1.00  0.00     0.013 C 
HETATM   10  C7  UNL     1      26.472  33.723  18.872  1.00  0.00     0.017 C 
HETATM   11  C8  UNL     1      27.278  33.306  17.684  1.00  0.00     0.115 C 
HETATM   12  N3  UNL     1      28.117  32.154  17.928  1.00  0.00    -0.215 NA
ENDROOT
BRANCH  12  13
HETATM   13  N4  UNL     1      28.463  31.543  16.704  1.00  0.00    -0.361 NA
ATOM     14  H42 UNL     1      27.624  31.376  16.150  1.00  0.00     0.171 HD
ATOM     15  H41 UNL     1      29.122  32.159  16.228  1.00  0.00     0.171 HD
ENDBRANCH  12  13
TORSDOF 1
ENDMDL
MODEL 5
REMARK VINA RESULT: -3.824738508      1.862      2.849
REMARK  1 active torsions:
REMARK  status: ('A' for Active; 'I' for Inactive)
REMARK    1  A    between atoms: N3_12  and  N4_13 
ROOT
HETATM    1  N1  UNL     1      29.931  31.345  18.912  1.00  0.00    -0.087 NA
HETATM    2  C1  UNL     1      28.924  32.094  19.556  1.00  0.00     0.094 C 
HETATM    3  N2  UNL     1      27.728  32.052  19.073  1.00  0.00    -0.363 N 
ATOM      4  H2  UNL     1      27.543  31.485  18.246  1.00  0.00     0.162 HD
HETATM    5  C2  UNL     1      26.642  32.795  19.681  1.00  0.00     0.176 C 
HETATM    6  C3  UNL     1      26.686  32.819  21.172  1.00  0.00     0.043 C 
HETATM    7  C4  UNL     1      28.045  32.514  21.756  1.00  0.00     0.015 C 
HETATM    8  C5  UNL     1      29.131  32.933  20.757  1.00  0.00     0.050 C 
HETATM    9  C6  UNL     1      28.995  34.404  20.481  1.00  0.00     0.013 C 
HETATM   10  C7  UNL     1      29.002  34.751  19.027  1.00  0.00     0.017 C 
HETATM   11  C8  UNL     1      27.723  34.450  18.314  1.00  0.00     0.115 C 
HETATM   12  N3  UNL     1      26.618  34.164  19.202  1.00  0.00    -0.215 NA
ENDROOT
BRANCH  12  13
HETATM   13  N4  UNL     1      25.395  34.358  18.527  1.00  0.00    -0.361 NA
ATOM     14  H42 UNL     1      24.985  35.251  18.800  1.00  0.00     0.171 HD
ATOM     15  H41 UNL     1      25.585  34.313  17.526  1.00  0.00     0.171 HD
ENDBRANCH  12  13
TORSDOF 1
ENDMDL
