MODEL 1
REMARK VINA RESULT: -5.140347812      0.000      0.000
REMARK  3 active torsions:
REMARK  status: ('A' for Active; 'I' for Inactive)
REMARK    1  A    between atoms: O1_2  and  C2_3 
REMARK    2  A    between atoms: C6_7  and  N1_8 
REMARK    3  A    between atoms: N1_8  and  O2_9 
ROOT
HETATM    1  C2  UNL     1      33.406  42.932  21.840  1.00  0.00     0.120 C 
HETATM    2  C3  UNL     1      32.193  42.081  21.995  1.00  0.00     0.032 C 
HETATM    3  C4  UNL     1      32.407  40.631  21.704  1.00  0.00     0.004 C 
HETATM    4  C5  UNL     1      32.699  39.909  23.023  1.00  0.00     0.024 C 
HETATM    5  C6  UNL     1      34.199  40.050  23.234  1.00  0.00     0.106 C 
HETATM    6  C7  UNL     1      34.453  41.480  23.605  1.00  0.00     0.026 C 
HETATM    7  C8  UNL     1      34.659  42.348  22.407  1.00  0.00     0.034 C 
ENDROOT
BRANCH   5   8
HETATM    8  N1  UNL     1      34.585  39.123  24.274  1.00  0.00    -0.099 NA
BRANCH   8   9
HETATM    9  O2  UNL     1      33.733  38.073  24.260  1.00  0.00    -0.296 OA
ATOM     10  H2  UNL     1      33.448  37.897  25.149  1.00  0.00     0.238 HD
ENDBRANCH   8   9
ENDBRANCH   5   8
BRANCH   1  11
HETATM   11  O1  UNL     1      33.169  44.151  22.467  1.00  0.00    -0.391 OA
HETATM   12  C1  UNL     1      31.826  44.273  22.840  1.00  0.00     0.202 C 
ENDBRANCH   1  11
TORSDOF 3
ENDMDL
MODEL 2
REMARK VINA RESULT: -4.811255422      1.304      2.194
REMARK  3 active torsions:
REMARK  status: ('A' for Active; 'I' for Inactive)
REMARK    1  A    between atoms: O1_2  and  C2_3 
REMARK    2  A    between atoms: C6_7  and  N1_8 
REMARK    3  A    between atoms: N1_8  and  O2_9 
ROOT
HETATM    1  C2  UNL     1      33.786  42.540  22.996  1.00  0.00     0.120 C 
HETATM    2  C3  UNL     1      35.034  41.734  23.113  1.00  0.00     0.032 C 
HETATM    3  C4  UNL     1      34.968  40.625  24.113  1.00  0.00     0.004 C 
HETATM    4  C5  UNL     1      34.576  39.336  23.384  1.00  0.00     0.024 C 
HETATM    5  C6  UNL     1      33.055  39.344  23.348  1.00  0.00     0.106 C 
HETATM    6  C7  UNL     1      32.648  40.392  22.357  1.00  0.00     0.026 C 
HETATM    7  C8  UNL     1      32.523  41.743  22.980  1.00  0.00     0.034 C 
ENDROOT
BRANCH   5   8
HETATM    8  N1  UNL     1      32.619  38.017  22.973  1.00  0.00    -0.099 NA
BRANCH   8   9
HETATM    9  O2  UNL     1      33.597  37.134  23.278  1.00  0.00    -0.296 OA
ATOM     10  H2  UNL     1      33.214  36.269  23.359  1.00  0.00     0.238 HD
ENDBRANCH   8   9
ENDBRANCH   5   8
BRANCH   1  11
HETATM   11  O1  UNL     1      33.851  43.281  21.821  1.00  0.00    -0.391 OA
HETATM   12  C1  UNL     1      32.758  44.148  21.711  1.00  0.00     0.202 C 
ENDBRANCH   1  11
TORSDOF 3
ENDMDL
MODEL 3
REMARK VINA RESULT: -4.621913270      1.979      4.333
REMARK  3 active torsions:
REMARK  status: ('A' for Active; 'I' for Inactive)
REMARK    1  A    between atoms: O1_2  and  C2_3 
REMARK    2  A    between atoms: C6_7  and  N1_8 
REMARK    3  A    between atoms: N1_8  and  O2_9 
ROOT
HETATM    1  C2  UNL     1      33.714  39.008  23.216  1.00  0.00     0.120 C 
HETATM    2  C3  UNL     1      34.704  39.710  24.081  1.00  0.00     0.032 C 
HETATM    3  C4  UNL     1      35.581  40.683  23.361  1.00  0.00     0.004 C 
HETATM    4  C5  UNL     1      34.959  42.078  23.478  1.00  0.00     0.024 C 
HETATM    5  C6  UNL     1      33.971  42.173  22.327  1.00  0.00     0.106 C 
HETATM    6  C7  UNL     1      32.810  41.290  22.674  1.00  0.00     0.026 C 
HETATM    7  C8  UNL     1      33.016  39.882  22.225  1.00  0.00     0.034 C 
ENDROOT
BRANCH   5   8
HETATM    8  N1  UNL     1      33.596  43.563  22.184  1.00  0.00    -0.099 NA
BRANCH   8   9
HETATM    9  O2  UNL     1      32.382  43.746  22.751  1.00  0.00    -0.296 OA
ATOM     10  H2  UNL     1      32.311  44.649  23.039  1.00  0.00     0.238 HD
ENDBRANCH   8   9
ENDBRANCH   5   8
BRANCH   1  11
HETATM   11  O1  UNL     1      32.754  38.423  24.036  1.00  0.00    -0.391 OA
HETATM   12  C1  UNL     1      31.515  38.355  23.390  1.00  0.00     0.202 C 
ENDBRANCH   1  11
TORSDOF 3
ENDMDL
MODEL 4
REMARK VINA RESULT: -4.506341691      2.110      4.439
REMARK  3 active torsions:
REMARK  status: ('A' for Active; 'I' for Inactive)
REMARK    1  A    between atoms: O1_2  and  C2_3 
REMARK    2  A    between atoms: C6_7  and  N1_8 
REMARK    3  A    between atoms: N1_8  and  O2_9 
ROOT
HETATM    1  C2  UNL     1      34.389  40.167  22.746  1.00  0.00     0.120 C 
HETATM    2  C3  UNL     1      34.983  41.487  23.099  1.00  0.00     0.032 C 
HETATM    3  C4  UNL     1      34.776  42.558  22.076  1.00  0.00     0.004 C 
HETATM    4  C5  UNL     1      33.533  43.365  22.462  1.00  0.00     0.024 C 
HETATM    5  C6  UNL     1      32.361  42.610  21.855  1.00  0.00     0.106 C 
HETATM    6  C7  UNL     1      32.179  41.362  22.666  1.00  0.00     0.026 C 
HETATM    7  C8  UNL     1      33.016  40.233  22.162  1.00  0.00     0.034 C 
ENDROOT
BRANCH   5   8
HETATM    8  N1  UNL     1      31.207  43.481  21.899  1.00  0.00    -0.099 NA
BRANCH   8   9
HETATM    9  O2  UNL     1      31.438  44.463  22.799  1.00  0.00    -0.296 OA
ATOM     10  H2  UNL     1      30.709  44.500  23.407  1.00  0.00     0.238 HD
ENDBRANCH   8   9
ENDBRANCH   5   8
BRANCH   1  11
HETATM   11  O1  UNL     1      34.339  39.388  23.897  1.00  0.00    -0.391 OA
HETATM   12  C1  UNL     1      33.557  38.245  23.697  1.00  0.00     0.202 C 
ENDBRANCH   1  11
TORSDOF 3
ENDMDL
MODEL 5
REMARK VINA RESULT: -4.256218314      8.398     10.147
REMARK  3 active torsions:
REMARK  status: ('A' for Active; 'I' for Inactive)
REMARK    1  A    between atoms: O1_2  and  C2_3 
REMARK    2  A    between atoms: C6_7  and  N1_8 
REMARK    3  A    between atoms: N1_8  and  O2_9 
ROOT
HETATM    1  C2  UNL     1      29.159  32.874  17.942  1.00  0.00     0.120 C 
HETATM    2  C3  UNL     1      30.246  33.620  17.247  1.00  0.00     0.032 C 
HETATM    3  C4  UNL     1      29.805  34.879  16.572  1.00  0.00     0.004 C 
HETATM    4  C5  UNL     1      30.038  36.052  17.529  1.00  0.00     0.024 C 
HETATM    5  C6  UNL     1      28.787  36.120  18.391  1.00  0.00     0.106 C 
HETATM    6  C7  UNL     1      28.836  34.948  19.324  1.00  0.00     0.026 C 
HETATM    7  C8  UNL     1      28.219  33.725  18.732  1.00  0.00     0.034 C 
ENDROOT
BRANCH   5   8
HETATM    8  N1  UNL     1      28.799  37.390  19.082  1.00  0.00    -0.099 NA
BRANCH   8   9
HETATM    9  O2  UNL     1      27.686  38.079  18.746  1.00  0.00    -0.296 OA
ATOM     10  H2  UNL     1      26.928  37.630  19.102  1.00  0.00     0.238 HD
ENDBRANCH   8   9
ENDBRANCH   5   8
BRANCH   1  11
HETATM   11  O1  UNL     1      29.742  31.951  18.803  1.00  0.00    -0.391 OA
HETATM   12  C1  UNL     1      30.905  31.407  18.246  1.00  0.00     0.202 C 
ENDBRANCH   1  11
TORSDOF 3
ENDMDL
