MODEL 1
REMARK VINA RESULT: -3.654273921      0.000      0.000
REMARK  3 active torsions:
REMARK  status: ('A' for Active; 'I' for Inactive)
REMARK    1  A    between atoms: N1_1  and  C1_5 
REMARK    2  A    between atoms: C1_5  and  C2_6 
REMARK    3  A    between atoms: C8_12  and  N2_13 
ROOT
HETATM    1  C2  UNL     1      33.285  40.210  23.115  1.00  0.00     0.041 C 
HETATM    2  C3  UNL     1      31.974  40.573  22.454  1.00  0.00     0.008 C 
HETATM    3  C4  UNL     1      32.076  41.830  21.631  1.00  0.00     0.000 C 
HETATM    4  C5  UNL     1      32.533  42.994  22.445  1.00  0.00     0.000 C 
HETATM    5  C6  UNL     1      33.925  42.884  22.967  1.00  0.00     0.002 C 
HETATM    6  C7  UNL     1      34.810  41.962  22.187  1.00  0.00     0.033 C 
HETATM    7  C8  UNL     1      34.390  40.546  22.163  1.00  0.00     0.189 C 
ENDROOT
BRANCH   1   8
HETATM    8  C1  UNL     1      33.226  38.718  23.409  1.00  0.00     0.236 C 
BRANCH   8   9
HETATM    9  N1  UNL     1      31.846  38.305  23.157  1.00  0.00    -0.079 N 
ATOM     10  H13 UNL     1      31.326  38.087  24.007  1.00  0.00     0.274 HD
ATOM     11  H12 UNL     1      31.247  39.065  22.835  1.00  0.00     0.274 HD
ATOM     12  H11 UNL     1      31.896  37.525  22.502  1.00  0.00     0.274 HD
ENDBRANCH   8   9
ENDBRANCH   1   8
BRANCH   7  13
HETATM   13  N2  UNL     1      35.574  39.703  22.398  1.00  0.00    -0.075 N 
ATOM     14  H23 UNL     1      35.347  38.711  22.331  1.00  0.00     0.274 HD
ATOM     15  H22 UNL     1      36.236  39.764  21.624  1.00  0.00     0.274 HD
ATOM     16  H21 UNL     1      36.018  39.926  23.288  1.00  0.00     0.274 HD
ENDBRANCH   7  13
TORSDOF 3
ENDMDL
MODEL 2
REMARK VINA RESULT: -3.616734165      7.865      9.415
REMARK  3 active torsions:
REMARK  status: ('A' for Active; 'I' for Inactive)
REMARK    1  A    between atoms: N1_1  and  C1_5 
REMARK    2  A    between atoms: C1_5  and  C2_6 
REMARK    3  A    between atoms: C8_12  and  N2_13 
ROOT
HETATM    1  C2  UNL     1      28.940  35.198  18.255  1.00  0.00     0.041 C 
HETATM    2  C3  UNL     1      29.110  35.206  19.758  1.00  0.00     0.008 C 
HETATM    3  C4  UNL     1      28.836  33.860  20.374  1.00  0.00     0.000 C 
HETATM    4  C5  UNL     1      27.461  33.372  20.057  1.00  0.00     0.000 C 
HETATM    5  C6  UNL     1      27.219  33.079  18.616  1.00  0.00     0.002 C 
HETATM    6  C7  UNL     1      28.455  32.782  17.826  1.00  0.00     0.033 C 
HETATM    7  C8  UNL     1      29.437  33.882  17.742  1.00  0.00     0.189 C 
ENDROOT
BRANCH   1   8
HETATM    8  C1  UNL     1      29.761  36.361  17.718  1.00  0.00     0.236 C 
BRANCH   8   9
HETATM    9  N1  UNL     1      29.175  37.574  18.288  1.00  0.00    -0.079 N 
ATOM     10  H13 UNL     1      28.167  37.641  18.149  1.00  0.00     0.274 HD
ATOM     11  H12 UNL     1      29.162  37.578  19.307  1.00  0.00     0.274 HD
ATOM     12  H11 UNL     1      29.692  38.357  17.887  1.00  0.00     0.274 HD
ENDBRANCH   8   9
ENDBRANCH   1   8
BRANCH   7  13
HETATM   13  N2  UNL     1      29.901  33.991  16.349  1.00  0.00    -0.075 N 
ATOM     14  H23 UNL     1      29.133  33.879  15.689  1.00  0.00     0.274 HD
ATOM     15  H22 UNL     1      30.168  34.948  16.118  1.00  0.00     0.274 HD
ATOM     16  H21 UNL     1      30.659  33.335  16.158  1.00  0.00     0.274 HD
ENDBRANCH   7  13
TORSDOF 3
ENDMDL
MODEL 3
REMARK VINA RESULT: -3.596551900      8.547     10.401
REMARK  3 active torsions:
REMARK  status: ('A' for Active; 'I' for Inactive)
REMARK    1  A    between atoms: N1_1  and  C1_5 
REMARK    2  A    between atoms: C1_5  and  C2_6 
REMARK    3  A    between atoms: C8_12  and  N2_13 
ROOT
HETATM    1  C2  UNL     1      27.852  33.663  20.795  1.00  0.00     0.041 C 
HETATM    2  C3  UNL     1      28.425  32.569  21.668  1.00  0.00     0.008 C 
HETATM    3  C4  UNL     1      27.354  31.713  22.291  1.00  0.00     0.000 C 
HETATM    4  C5  UNL     1      26.401  32.521  23.109  1.00  0.00     0.000 C 
HETATM    5  C6  UNL     1      25.575  33.488  22.332  1.00  0.00     0.002 C 
HETATM    6  C7  UNL     1      25.407  33.142  20.886  1.00  0.00     0.033 C 
HETATM    7  C8  UNL     1      26.652  33.111  20.090  1.00  0.00     0.189 C 
ENDROOT
BRANCH   1   8
HETATM    8  C1  UNL     1      28.949  34.059  19.817  1.00  0.00     0.236 C 
BRANCH   8   9
HETATM    9  N1  UNL     1      29.301  35.443  20.134  1.00  0.00    -0.079 N 
ATOM     10  H13 UNL     1      28.491  36.037  20.310  1.00  0.00     0.274 HD
ATOM     11  H12 UNL     1      29.737  35.551  21.049  1.00  0.00     0.274 HD
ATOM     12  H11 UNL     1      29.886  35.772  19.366  1.00  0.00     0.274 HD
ENDBRANCH   8   9
ENDBRANCH   1   8
BRANCH   7  13
HETATM   13  N2  UNL     1      26.411  33.808  18.816  1.00  0.00    -0.075 N 
ATOM     14  H23 UNL     1      27.133  33.593  18.129  1.00  0.00     0.274 HD
ATOM     15  H22 UNL     1      25.605  33.421  18.325  1.00  0.00     0.274 HD
ATOM     16  H21 UNL     1      26.316  34.814  18.956  1.00  0.00     0.274 HD
ENDBRANCH   7  13
TORSDOF 3
ENDMDL
MODEL 4
REMARK VINA RESULT: -3.585601758      8.880     10.022
REMARK  3 active torsions:
REMARK  status: ('A' for Active; 'I' for Inactive)
REMARK    1  A    between atoms: N1_1  and  C1_5 
REMARK    2  A    between atoms: C1_5  and  C2_6 
REMARK    3  A    between atoms: C8_12  and  N2_13 
ROOT
HETATM    1  C2  UNL     1      26.839  33.217  21.561  1.00  0.00     0.041 C 
HETATM    2  C3  UNL     1      26.039  33.130  20.281  1.00  0.00     0.008 C 
HETATM    3  C4  UNL     1      26.917  32.995  19.064  1.00  0.00     0.000 C 
HETATM    4  C5  UNL     1      27.880  34.129  18.944  1.00  0.00     0.000 C 
HETATM    5  C6  UNL     1      28.903  34.197  20.025  1.00  0.00     0.002 C 
HETATM    6  C7  UNL     1      29.170  32.894  20.712  1.00  0.00     0.033 C 
HETATM    7  C8  UNL     1      28.020  32.306  21.430  1.00  0.00     0.189 C 
ENDROOT
BRANCH   1   8
HETATM    8  C1  UNL     1      25.911  32.780  22.685  1.00  0.00     0.236 C 
BRANCH   8   9
HETATM    9  N1  UNL     1      25.766  33.936  23.570  1.00  0.00    -0.079 N 
ATOM     10  H13 UNL     1      26.641  34.434  23.732  1.00  0.00     0.274 HD
ATOM     11  H12 UNL     1      25.258  34.711  23.144  1.00  0.00     0.274 HD
ATOM     12  H11 UNL     1      25.333  33.589  24.425  1.00  0.00     0.274 HD
ENDBRANCH   8   9
ENDBRANCH   1   8
BRANCH   7  13
HETATM   13  N2  UNL     1      28.482  31.834  22.746  1.00  0.00    -0.075 N 
ATOM     14  H23 UNL     1      28.660  32.612  23.381  1.00  0.00     0.274 HD
ATOM     15  H22 UNL     1      27.731  31.377  23.264  1.00  0.00     0.274 HD
ATOM     16  H21 UNL     1      29.298  31.229  22.658  1.00  0.00     0.274 HD
ENDBRANCH   7  13
TORSDOF 3
ENDMDL
MODEL 5
REMARK VINA RESULT: -3.397806308      1.913      3.582
REMARK  3 active torsions:
REMARK  status: ('A' for Active; 'I' for Inactive)
REMARK    1  A    between atoms: N1_1  and  C1_5 
REMARK    2  A    between atoms: C1_5  and  C2_6 
REMARK    3  A    between atoms: C8_12  and  N2_13 
ROOT
HETATM    1  C2  UNL     1      33.117  41.067  22.802  1.00  0.00     0.041 C 
HETATM    2  C3  UNL     1      34.376  41.418  22.041  1.00  0.00     0.008 C 
HETATM    3  C4  UNL     1      35.437  40.357  22.167  1.00  0.00     0.000 C 
HETATM    4  C5  UNL     1      35.802  40.100  23.592  1.00  0.00     0.000 C 
HETATM    5  C6  UNL     1      34.711  39.511  24.419  1.00  0.00     0.002 C 
HETATM    6  C7  UNL     1      33.667  38.775  23.639  1.00  0.00     0.033 C 
HETATM    7  C8  UNL     1      32.899  39.591  22.676  1.00  0.00     0.189 C 
ENDROOT
BRANCH   1   8
HETATM    8  C1  UNL     1      31.987  41.862  22.163  1.00  0.00     0.236 C 
BRANCH   8   9
HETATM    9  N1  UNL     1      32.278  43.271  22.426  1.00  0.00    -0.079 N 
ATOM     10  H13 UNL     1      31.797  43.638  23.247  1.00  0.00     0.274 HD
ATOM     11  H12 UNL     1      33.229  43.434  22.755  1.00  0.00     0.274 HD
ATOM     12  H11 UNL     1      32.054  43.774  21.568  1.00  0.00     0.274 HD
ENDBRANCH   8   9
ENDBRANCH   1   8
BRANCH   7  13
HETATM   13  N2  UNL     1      31.473  39.248  22.805  1.00  0.00    -0.075 N 
ATOM     14  H23 UNL     1      31.136  39.397  23.756  1.00  0.00     0.274 HD
ATOM     15  H22 UNL     1      30.881  39.923  22.320  1.00  0.00     0.274 HD
ATOM     16  H21 UNL     1      31.291  38.296  22.488  1.00  0.00     0.274 HD
ENDBRANCH   7  13
TORSDOF 3
ENDMDL
