MODEL 1
REMARK VINA RESULT: -4.455143196      0.000      0.000
REMARK  2 active torsions:
REMARK  status: ('A' for Active; 'I' for Inactive)
REMARK    1  A    between atoms: C3_5  and  N2_6 
REMARK    2  A    between atoms: N2_6  and  C4_8 
ROOT
HETATM    1  N2  UNL     1      29.284  35.302  19.824  1.00  0.00    -0.352 N 
ATOM      2  H2  UNL     1      29.773  35.508  20.695  1.00  0.00     0.162 HD
ENDROOT
BRANCH   1   3
HETATM    3  C3  UNL     1      29.342  36.203  18.684  1.00  0.00     0.074 C 
HETATM    4  N1  UNL     1      28.962  37.425  18.701  1.00  0.00    -0.380 N 
HETATM    5  C2  UNL     1      29.118  38.113  17.448  1.00  0.00     0.121 C 
ATOM      6  H1  UNL     1      28.580  37.873  19.533  1.00  0.00     0.160 HD
HETATM    7  C1  UNL     1      30.108  37.215  16.710  1.00  0.00     0.027 C 
HETATM    8  C8  UNL     1      29.835  35.870  17.338  1.00  0.00     0.077 C 
ENDBRANCH   1   3
BRANCH   1   9
HETATM    9  C4  UNL     1      28.502  34.106  19.660  1.00  0.00     0.285 C 
HETATM   10  C5  UNL     1      27.945  33.716  21.017  1.00  0.00     0.056 C 
HETATM   11  C6  UNL     1      28.495  32.305  21.243  1.00  0.00     0.031 C 
HETATM   12  C7  UNL     1      28.705  31.859  19.796  1.00  0.00     0.235 C 
HETATM   13  N3  UNL     1      29.395  33.035  19.260  1.00  0.00    -0.054 N 
ATOM     14  H32 UNL     1      29.608  32.996  18.263  1.00  0.00     0.279 HD
ATOM     15  H31 UNL     1      30.365  33.143  19.558  1.00  0.00     0.279 HD
ENDBRANCH   1   9
TORSDOF 2
ENDMDL
MODEL 2
REMARK VINA RESULT: -4.453080986      0.839      1.058
REMARK  2 active torsions:
REMARK  status: ('A' for Active; 'I' for Inactive)
REMARK    1  A    between atoms: C3_5  and  N2_6 
REMARK    2  A    between atoms: N2_6  and  C4_8 
ROOT
HETATM    1  N2  UNL     1      29.222  35.304  19.753  1.00  0.00    -0.352 N 
ATOM      2  H2  UNL     1      29.380  35.634  20.706  1.00  0.00     0.162 HD
ENDROOT
BRANCH   1   3
HETATM    3  C3  UNL     1      29.331  36.194  18.609  1.00  0.00     0.074 C 
HETATM    4  N1  UNL     1      28.949  37.415  18.596  1.00  0.00    -0.380 N 
HETATM    5  C2  UNL     1      29.161  38.092  17.345  1.00  0.00     0.121 C 
ATOM      6  H1  UNL     1      28.529  37.871  19.406  1.00  0.00     0.160 HD
HETATM    7  C1  UNL     1      30.183  37.188  16.662  1.00  0.00     0.027 C 
HETATM    8  C8  UNL     1      29.884  35.848  17.289  1.00  0.00     0.077 C 
ENDBRANCH   1   3
BRANCH   1   9
HETATM    9  C4  UNL     1      28.881  33.935  19.475  1.00  0.00     0.285 C 
HETATM   10  C5  UNL     1      27.419  33.885  19.069  1.00  0.00     0.056 C 
HETATM   11  C6  UNL     1      26.789  32.942  20.097  1.00  0.00     0.031 C 
HETATM   12  C7  UNL     1      28.012  32.113  20.493  1.00  0.00     0.235 C 
HETATM   13  N3  UNL     1      28.989  33.183  20.711  1.00  0.00    -0.054 N 
ATOM     14  H32 UNL     1      29.930  32.869  20.947  1.00  0.00     0.279 HD
ATOM     15  H31 UNL     1      28.855  33.726  21.564  1.00  0.00     0.279 HD
ENDBRANCH   1   9
TORSDOF 2
ENDMDL
MODEL 3
REMARK VINA RESULT: -4.414119895      0.289      5.042
REMARK  2 active torsions:
REMARK  status: ('A' for Active; 'I' for Inactive)
REMARK    1  A    between atoms: C3_5  and  N2_6 
REMARK    2  A    between atoms: N2_6  and  C4_8 
ROOT
HETATM    1  N2  UNL     1      29.459  35.402  19.663  1.00  0.00    -0.352 N 
ATOM      2  H2  UNL     1      30.190  35.830  20.232  1.00  0.00     0.162 HD
ENDROOT
BRANCH   1   3
HETATM    3  C3  UNL     1      28.913  34.092  19.978  1.00  0.00     0.074 C 
HETATM    4  N1  UNL     1      29.216  33.010  19.367  1.00  0.00    -0.380 N 
HETATM    5  C2  UNL     1      28.543  31.839  19.861  1.00  0.00     0.121 C 
ATOM      6  H1  UNL     1      29.880  32.980  18.593  1.00  0.00     0.160 HD
HETATM    7  C1  UNL     1      28.063  32.302  21.234  1.00  0.00     0.027 C 
HETATM    8  C8  UNL     1      27.930  33.792  21.032  1.00  0.00     0.077 C 
ENDBRANCH   1   3
BRANCH   1   9
HETATM    9  C4  UNL     1      28.917  36.066  18.507  1.00  0.00     0.285 C 
HETATM   10  C5  UNL     1      29.849  35.812  17.336  1.00  0.00     0.056 C 
HETATM   11  C6  UNL     1      30.264  37.218  16.892  1.00  0.00     0.031 C 
HETATM   12  C7  UNL     1      29.067  38.026  17.392  1.00  0.00     0.235 C 
HETATM   13  N3  UNL     1      28.946  37.495  18.752  1.00  0.00    -0.054 N 
ATOM     14  H32 UNL     1      28.161  37.859  19.292  1.00  0.00     0.279 HD
ATOM     15  H31 UNL     1      29.663  37.810  19.407  1.00  0.00     0.279 HD
ENDBRANCH   1   9
TORSDOF 2
ENDMDL
MODEL 4
REMARK VINA RESULT: -4.396331836      0.901      4.890
REMARK  2 active torsions:
REMARK  status: ('A' for Active; 'I' for Inactive)
REMARK    1  A    between atoms: C3_5  and  N2_6 
REMARK    2  A    between atoms: N2_6  and  C4_8 
ROOT
HETATM    1  N2  UNL     1      29.462  35.432  19.683  1.00  0.00    -0.352 N 
ATOM      2  H2  UNL     1      30.208  35.853  20.236  1.00  0.00     0.162 HD
ENDROOT
BRANCH   1   3
HETATM    3  C3  UNL     1      28.891  34.140  20.028  1.00  0.00     0.074 C 
HETATM    4  N1  UNL     1      28.053  33.942  20.975  1.00  0.00    -0.380 N 
HETATM    5  C2  UNL     1      27.633  32.575  21.121  1.00  0.00     0.121 C 
ATOM      6  H1  UNL     1      27.712  34.692  21.575  1.00  0.00     0.160 HD
HETATM    7  C1  UNL     1      28.028  31.973  19.775  1.00  0.00     0.027 C 
HETATM    8  C8  UNL     1      29.178  32.859  19.362  1.00  0.00     0.077 C 
ENDBRANCH   1   3
BRANCH   1   9
HETATM    9  C4  UNL     1      28.921  36.086  18.522  1.00  0.00     0.285 C 
HETATM   10  C5  UNL     1      29.837  35.799  17.347  1.00  0.00     0.056 C 
HETATM   11  C6  UNL     1      30.272  37.190  16.877  1.00  0.00     0.031 C 
HETATM   12  C7  UNL     1      29.093  38.027  17.375  1.00  0.00     0.235 C 
HETATM   13  N3  UNL     1      28.976  37.519  18.745  1.00  0.00    -0.054 N 
ATOM     14  H32 UNL     1      28.202  37.905  19.286  1.00  0.00     0.279 HD
ATOM     15  H31 UNL     1      29.704  37.831  19.387  1.00  0.00     0.279 HD
ENDBRANCH   1   9
TORSDOF 2
ENDMDL
MODEL 5
REMARK VINA RESULT: -4.229324432      1.310      1.624
REMARK  2 active torsions:
REMARK  status: ('A' for Active; 'I' for Inactive)
REMARK    1  A    between atoms: C3_5  and  N2_6 
REMARK    2  A    between atoms: N2_6  and  C4_8 
ROOT
HETATM    1  N2  UNL     1      28.793  34.616  20.491  1.00  0.00    -0.352 N 
ATOM      2  H2  UNL     1      28.926  35.195  21.320  1.00  0.00     0.162 HD
ENDROOT
BRANCH   1   3
HETATM    3  C3  UNL     1      29.137  35.094  19.162  1.00  0.00     0.074 C 
HETATM    4  N1  UNL     1      29.439  36.304  18.878  1.00  0.00    -0.380 N 
HETATM    5  C2  UNL     1      29.741  36.532  17.491  1.00  0.00     0.121 C 
ATOM      6  H1  UNL     1      29.462  37.046  19.577  1.00  0.00     0.160 HD
HETATM    7  C1  UNL     1      30.017  35.117  16.987  1.00  0.00     0.027 C 
HETATM    8  C8  UNL     1      29.191  34.283  17.935  1.00  0.00     0.077 C 
ENDBRANCH   1   3
BRANCH   1   9
HETATM    9  C4  UNL     1      28.254  33.285  20.578  1.00  0.00     0.285 C 
HETATM   10  C5  UNL     1      27.081  33.311  21.540  1.00  0.00     0.056 C 
HETATM   11  C6  UNL     1      27.478  32.304  22.624  1.00  0.00     0.031 C 
HETATM   12  C7  UNL     1      28.432  31.411  21.830  1.00  0.00     0.235 C 
HETATM   13  N3  UNL     1      29.260  32.430  21.181  1.00  0.00    -0.054 N 
ATOM     14  H32 UNL     1      29.966  32.071  20.538  1.00  0.00     0.279 HD
ATOM     15  H31 UNL     1      29.924  32.905  21.793  1.00  0.00     0.279 HD
ENDBRANCH   1   9
TORSDOF 2
ENDMDL
