MODEL 1
REMARK VINA RESULT: -3.827356931      0.000      0.000
REMARK  2 active torsions:
REMARK  status: ('A' for Active; 'I' for Inactive)
REMARK    1  A    between atoms: N1_1  and  C1_5 
REMARK    2  A    between atoms: C4_8  and  N2_9 
ROOT
HETATM    1  N2  UNL     1      33.542  42.847  22.308  1.00  0.00    -0.384 N 
ATOM      2  H2  UNL     1      34.359  42.999  21.715  1.00  0.00     0.160 HD
HETATM    3  C5  UNL     1      32.595  43.698  22.363  1.00  0.00     0.166 C 
HETATM    4  S1  UNL     1      31.398  44.773  22.640  1.00  0.00    -0.075 SA
ENDROOT
BRANCH   1   5
HETATM    5  C4  UNL     1      33.411  41.638  23.133  1.00  0.00     0.107 C 
HETATM    6  C3  UNL     1      34.733  41.074  23.508  1.00  0.00     0.030 C 
HETATM    7  C2  UNL     1      34.844  39.628  23.075  1.00  0.00     0.064 C 
HETATM    8  C1  UNL     1      33.611  38.894  23.542  1.00  0.00     0.380 C 
HETATM    9  N3  UNL     1      32.404  39.409  22.960  1.00  0.00    -0.044 N 
HETATM   10  C6  UNL     1      32.559  40.679  22.311  1.00  0.00     0.259 C 
ATOM     11  H32 UNL     1      31.998  38.728  22.318  1.00  0.00     0.279 HD
ATOM     12  H31 UNL     1      31.661  39.454  23.658  1.00  0.00     0.279 HD
BRANCH   8  13
HETATM   13  N1  UNL     1      33.734  37.466  23.262  1.00  0.00    -0.050 N 
ATOM     14  H13 UNL     1      32.933  37.110  22.740  1.00  0.00     0.276 HD
ATOM     15  H12 UNL     1      34.461  37.274  22.572  1.00  0.00     0.276 HD
ATOM     16  H11 UNL     1      33.886  36.948  24.127  1.00  0.00     0.276 HD
ENDBRANCH   8  13
ENDBRANCH   1   5
TORSDOF 2
ENDMDL
MODEL 2
REMARK VINA RESULT: -3.682969426      8.351      9.612
REMARK  2 active torsions:
REMARK  status: ('A' for Active; 'I' for Inactive)
REMARK    1  A    between atoms: N1_1  and  C1_5 
REMARK    2  A    between atoms: C4_8  and  N2_9 
ROOT
HETATM    1  N2  UNL     1      28.958  32.737  19.654  1.00  0.00    -0.384 N 
ATOM      2  H2  UNL     1      29.563  32.058  19.191  1.00  0.00     0.160 HD
HETATM    3  C5  UNL     1      28.491  32.521  20.821  1.00  0.00     0.166 C 
HETATM    4  S1  UNL     1      27.709  32.298  22.236  1.00  0.00    -0.075 SA
ENDROOT
BRANCH   1   5
HETATM    5  C4  UNL     1      28.590  34.003  19.004  1.00  0.00     0.107 C 
HETATM    6  C3  UNL     1      29.010  34.040  17.580  1.00  0.00     0.030 C 
HETATM    7  C2  UNL     1      29.888  35.242  17.308  1.00  0.00     0.064 C 
HETATM    8  C1  UNL     1      29.207  36.465  17.870  1.00  0.00     0.380 C 
HETATM    9  N3  UNL     1      29.027  36.398  19.293  1.00  0.00    -0.044 N 
HETATM   10  C6  UNL     1      29.235  35.093  19.850  1.00  0.00     0.259 C 
ATOM     11  H32 UNL     1      29.618  37.084  19.761  1.00  0.00     0.279 HD
ATOM     12  H31 UNL     1      28.107  36.754  19.553  1.00  0.00     0.279 HD
BRANCH   8  13
HETATM   13  N1  UNL     1      29.954  37.669  17.515  1.00  0.00    -0.050 N 
ATOM     14  H13 UNL     1      30.744  37.461  16.904  1.00  0.00     0.276 HD
ATOM     15  H12 UNL     1      29.428  38.271  16.881  1.00  0.00     0.276 HD
ATOM     16  H11 UNL     1      30.244  38.167  18.357  1.00  0.00     0.276 HD
ENDBRANCH   8  13
ENDBRANCH   1   5
TORSDOF 2
ENDMDL
MODEL 3
REMARK VINA RESULT: -3.634276698      8.421      9.675
REMARK  2 active torsions:
REMARK  status: ('A' for Active; 'I' for Inactive)
REMARK    1  A    between atoms: N1_1  and  C1_5 
REMARK    2  A    between atoms: C4_8  and  N2_9 
ROOT
HETATM    1  N2  UNL     1      28.148  33.031  20.937  1.00  0.00    -0.384 N 
ATOM      2  H2  UNL     1      28.837  32.281  20.991  1.00  0.00     0.160 HD
HETATM    3  C5  UNL     1      27.286  33.208  21.859  1.00  0.00     0.166 C 
HETATM    4  S1  UNL     1      26.041  33.441  22.889  1.00  0.00    -0.075 SA
ENDROOT
BRANCH   1   5
HETATM    5  C4  UNL     1      28.110  33.953  19.793  1.00  0.00     0.107 C 
HETATM    6  C3  UNL     1      28.428  33.267  18.515  1.00  0.00     0.030 C 
HETATM    7  C2  UNL     1      29.589  33.941  17.816  1.00  0.00     0.064 C 
HETATM    8  C1  UNL     1      29.319  35.424  17.767  1.00  0.00     0.380 C 
HETATM    9  N3  UNL     1      29.221  36.016  19.072  1.00  0.00    -0.044 N 
HETATM   10  C6  UNL     1      29.090  35.066  20.138  1.00  0.00     0.259 C 
ATOM     11  H32 UNL     1      30.012  36.638  19.243  1.00  0.00     0.279 HD
ATOM     12  H31 UNL     1      28.459  36.693  19.101  1.00  0.00     0.279 HD
BRANCH   8  13
HETATM   13  N1  UNL     1      30.350  36.102  16.984  1.00  0.00    -0.050 N 
ATOM     14  H13 UNL     1      30.642  36.978  17.418  1.00  0.00     0.276 HD
ATOM     15  H12 UNL     1      31.242  35.610  17.023  1.00  0.00     0.276 HD
ATOM     16  H11 UNL     1      30.033  36.240  16.025  1.00  0.00     0.276 HD
ENDBRANCH   8  13
ENDBRANCH   1   5
TORSDOF 2
ENDMDL
MODEL 4
REMARK VINA RESULT: -3.598831338      8.517      9.778
REMARK  2 active torsions:
REMARK  status: ('A' for Active; 'I' for Inactive)
REMARK    1  A    between atoms: N1_1  and  C1_5 
REMARK    2  A    between atoms: C4_8  and  N2_9 
ROOT
HETATM    1  N2  UNL     1      29.346  32.784  18.955  1.00  0.00    -0.384 N 
ATOM      2  H2  UNL     1      28.948  32.355  19.791  1.00  0.00     0.160 HD
HETATM    3  C5  UNL     1      30.280  32.216  18.298  1.00  0.00     0.166 C 
HETATM    4  S1  UNL     1      31.573  31.671  17.464  1.00  0.00    -0.075 SA
ENDROOT
BRANCH   1   5
HETATM    5  C4  UNL     1      28.866  34.082  18.459  1.00  0.00     0.107 C 
HETATM    6  C3  UNL     1      29.427  34.409  17.123  1.00  0.00     0.030 C 
HETATM    7  C2  UNL     1      30.141  35.743  17.151  1.00  0.00     0.064 C 
HETATM    8  C1  UNL     1      29.229  36.757  17.795  1.00  0.00     0.380 C 
HETATM    9  N3  UNL     1      28.908  36.432  19.156  1.00  0.00    -0.044 N 
HETATM   10  C6  UNL     1      29.247  35.091  19.535  1.00  0.00     0.259 C 
ATOM     11  H32 UNL     1      29.336  37.102  19.795  1.00  0.00     0.279 HD
ATOM     12  H31 UNL     1      27.923  36.618  19.345  1.00  0.00     0.279 HD
BRANCH   8  13
HETATM   13  N1  UNL     1      29.822  38.090  17.724  1.00  0.00    -0.050 N 
ATOM     14  H13 UNL     1      29.250  38.787  18.201  1.00  0.00     0.276 HD
ATOM     15  H12 UNL     1      30.661  38.165  18.299  1.00  0.00     0.276 HD
ATOM     16  H11 UNL     1      30.003  38.346  16.753  1.00  0.00     0.276 HD
ENDBRANCH   8  13
ENDBRANCH   1   5
TORSDOF 2
ENDMDL
MODEL 5
REMARK VINA RESULT: -3.523141563      8.803      9.846
REMARK  2 active torsions:
REMARK  status: ('A' for Active; 'I' for Inactive)
REMARK    1  A    between atoms: N1_1  and  C1_5 
REMARK    2  A    between atoms: C4_8  and  N2_9 
ROOT
HETATM    1  N2  UNL     1      27.989  33.230  19.513  1.00  0.00    -0.384 N 
ATOM      2  H2  UNL     1      28.145  32.504  20.212  1.00  0.00     0.160 HD
HETATM    3  C5  UNL     1      26.816  33.507  19.094  1.00  0.00     0.166 C 
HETATM    4  S1  UNL     1      25.395  33.847  18.367  1.00  0.00    -0.075 SA
ENDROOT
BRANCH   1   5
HETATM    5  C4  UNL     1      29.105  34.002  18.949  1.00  0.00     0.107 C 
HETATM    6  C3  UNL     1      29.084  35.419  19.395  1.00  0.00     0.030 C 
HETATM    7  C2  UNL     1      29.068  36.357  18.207  1.00  0.00     0.064 C 
HETATM    8  C1  UNL     1      30.160  35.939  17.255  1.00  0.00     0.380 C 
HETATM    9  N3  UNL     1      29.969  34.613  16.738  1.00  0.00    -0.044 N 
HETATM   10  C6  UNL     1      28.982  33.845  17.439  1.00  0.00     0.259 C 
ATOM     11  H32 UNL     1      29.754  34.646  15.741  1.00  0.00     0.279 HD
ATOM     12  H31 UNL     1      30.857  34.110  16.707  1.00  0.00     0.279 HD
BRANCH   8  13
HETATM   13  N1  UNL     1      30.270  36.896  16.157  1.00  0.00    -0.050 N 
ATOM     14  H13 UNL     1      30.979  37.605  16.340  1.00  0.00     0.276 HD
ATOM     15  H12 UNL     1      30.687  36.476  15.326  1.00  0.00     0.276 HD
ATOM     16  H11 UNL     1      29.360  37.311  15.956  1.00  0.00     0.276 HD
ENDBRANCH   8  13
ENDBRANCH   1   5
TORSDOF 2
ENDMDL
