MODEL 1
REMARK VINA RESULT: -9.281674342      0.000      0.000
REMARK  6 active torsions:
REMARK  status: ('A' for Active; 'I' for Inactive)
REMARK    1  A    between atoms: O1_2  and  C2_3 
REMARK    2  A    between atoms: C8_10  and  N2_11 
REMARK       I    between atoms: N2_11  and  C9_13 
REMARK    3  A    between atoms: C9_13  and  C10_15 
REMARK    4  A    between atoms: C18_25  and  O3_26 
REMARK    5  A    between atoms: O3_26  and  C19_27 
REMARK    6  A    between atoms: C19_27  and  O4_29 
ROOT
HETATM    1  C2  UNL     1       5.718  50.002   2.789  1.00  0.00     0.102 A 
HETATM    2  C3  UNL     1       7.076  50.332   2.738  1.00  0.00     0.053 A 
HETATM    3  C4  UNL     1       7.493  51.612   2.472  1.00  0.00    -0.005 A 
HETATM    4  C5  UNL     1       8.833  51.940   2.422  1.00  0.00     0.040 A 
HETATM    5  C6  UNL     1       9.208  53.268   2.145  1.00  0.00     0.089 A 
HETATM    6  C7  UNL     1      10.607  53.545   2.107  1.00  0.00     0.103 C 
HETATM    7  N1  UNL     1      11.745  53.731   2.083  1.00  0.00    -0.191 NA
HETATM    8  C8  UNL     1       8.227  54.198   1.934  1.00  0.00     0.129 A 
HETATM    9  N3  UNL     1       6.894  53.806   2.000  1.00  0.00    -0.340 N 
ATOM     10  H3  UNL     1       6.173  54.509   1.842  1.00  0.00     0.167 HD
HETATM   11  C16 UNL     1       6.515  52.555   2.259  1.00  0.00     0.046 A 
HETATM   12  C17 UNL     1       5.184  52.237   2.308  1.00  0.00     0.070 A 
HETATM   13  C18 UNL     1       4.718  50.928   2.578  1.00  0.00     0.107 A 
ENDROOT
BRANCH   8  14
HETATM   14  N2  UNL     1       8.463  55.391   1.685  1.00  0.00    -0.308 N 
HETATM   15  C9  UNL     1       8.192  56.270   0.690  1.00  0.00     0.257 C 
HETATM   16  O2  UNL     1       8.915  56.383  -0.379  1.00  0.00    -0.267 OA
ATOM     17  H2  UNL     1       9.006  55.827   2.431  1.00  0.00     0.170 HD
BRANCH  15  18
HETATM   18  C10 UNL     1       7.037  57.207   0.712  1.00  0.00     0.032 A 
HETATM   19  C11 UNL     1       7.240  58.505   0.334  1.00  0.00     0.017 A 
HETATM   20  C12 UNL     1       6.186  59.390   0.347  1.00  0.00     0.001 A 
HETATM   21  C13 UNL     1       4.937  58.948   0.743  1.00  0.00     0.000 A 
HETATM   22  C14 UNL     1       4.721  57.640   1.126  1.00  0.00     0.001 A 
HETATM   23  C15 UNL     1       5.805  56.782   1.100  1.00  0.00     0.017 A 
ENDBRANCH  15  18
ENDBRANCH   8  14
BRANCH   1  24
HETATM   24  O1  UNL     1       5.367  48.676   3.064  1.00  0.00    -0.353 OA
HETATM   25  C1  UNL     1       5.429  48.239   4.402  1.00  0.00     0.210 C 
ENDBRANCH   1  24
BRANCH  13  26
HETATM   26  O3  UNL     1       3.397  50.702   2.608  1.00  0.00    -0.318 OA
BRANCH  26  27
HETATM   27  C19 UNL     1       2.518  49.907   1.962  1.00  0.00     0.259 C 
HETATM   28  C20 UNL     1       2.074  48.698   2.816  1.00  0.00     0.071 C 
BRANCH  27  29
HETATM   29  O4  UNL     1       3.041  49.412   0.741  1.00  0.00    -0.371 OA
ATOM     30  H4  UNL     1       2.876  48.484   0.630  1.00  0.00     0.212 HD
ENDBRANCH  27  29
ENDBRANCH  26  27
ENDBRANCH  13  26
TORSDOF 6
ENDMDL
MODEL 2
REMARK VINA RESULT: -8.840301315      1.212      1.428
REMARK  6 active torsions:
REMARK  status: ('A' for Active; 'I' for Inactive)
REMARK    1  A    between atoms: O1_2  and  C2_3 
REMARK    2  A    between atoms: C8_10  and  N2_11 
REMARK       I    between atoms: N2_11  and  C9_13 
REMARK    3  A    between atoms: C9_13  and  C10_15 
REMARK    4  A    between atoms: C18_25  and  O3_26 
REMARK    5  A    between atoms: O3_26  and  C19_27 
REMARK    6  A    between atoms: C19_27  and  O4_29 
ROOT
HETATM    1  C2  UNL     1       6.267  49.252   3.425  1.00  0.00     0.102 A 
HETATM    2  C3  UNL     1       7.492  49.780   3.006  1.00  0.00     0.053 A 
HETATM    3  C4  UNL     1       7.660  51.124   2.793  1.00  0.00    -0.005 A 
HETATM    4  C5  UNL     1       8.869  51.646   2.381  1.00  0.00     0.040 A 
HETATM    5  C6  UNL     1       8.987  53.034   2.176  1.00  0.00     0.089 A 
HETATM    6  C7  UNL     1      10.262  53.513   1.750  1.00  0.00     0.103 C 
HETATM    7  N1  UNL     1      11.305  53.864   1.406  1.00  0.00    -0.191 NA
HETATM    8  C8  UNL     1       7.894  53.827   2.395  1.00  0.00     0.129 A 
HETATM    9  N3  UNL     1       6.703  53.241   2.811  1.00  0.00    -0.340 N 
ATOM     10  H3  UNL     1       5.896  53.843   2.972  1.00  0.00     0.167 HD
HETATM   11  C16 UNL     1       6.567  51.931   3.011  1.00  0.00     0.046 A 
HETATM   12  C17 UNL     1       5.364  51.419   3.420  1.00  0.00     0.070 A 
HETATM   13  C18 UNL     1       5.156  50.039   3.649  1.00  0.00     0.107 A 
ENDROOT
BRANCH   8  14
HETATM   14  N2  UNL     1       7.905  55.058   2.242  1.00  0.00    -0.308 N 
HETATM   15  C9  UNL     1       7.490  55.946   1.306  1.00  0.00     0.257 C 
HETATM   16  O2  UNL     1       8.197  56.275   0.271  1.00  0.00    -0.267 OA
ATOM     17  H2  UNL     1       8.343  55.529   3.034  1.00  0.00     0.170 HD
BRANCH  15  18
HETATM   18  C10 UNL     1       6.180  56.647   1.361  1.00  0.00     0.032 A 
HETATM   19  C11 UNL     1       6.101  57.927   0.889  1.00  0.00     0.017 A 
HETATM   20  C12 UNL     1       4.899  58.595   0.929  1.00  0.00     0.001 A 
HETATM   21  C13 UNL     1       3.788  57.957   1.449  1.00  0.00     0.000 A 
HETATM   22  C14 UNL     1       3.855  56.664   1.929  1.00  0.00     0.001 A 
HETATM   23  C15 UNL     1       5.082  56.028   1.871  1.00  0.00     0.017 A 
ENDBRANCH  15  18
ENDBRANCH   8  14
BRANCH   1  24
HETATM   24  O1  UNL     1       6.171  47.871   3.621  1.00  0.00    -0.353 OA
HETATM   25  C1  UNL     1       7.362  47.120   3.633  1.00  0.00     0.210 C 
ENDBRANCH   1  24
BRANCH  13  26
HETATM   26  O3  UNL     1       3.946  49.621   4.049  1.00  0.00    -0.318 OA
BRANCH  26  27
HETATM   27  C19 UNL     1       2.872  49.027   3.488  1.00  0.00     0.259 C 
HETATM   28  C20 UNL     1       2.583  49.550   2.063  1.00  0.00     0.071 C 
BRANCH  27  29
HETATM   29  O4  UNL     1       1.699  49.198   4.264  1.00  0.00    -0.371 OA
ATOM     30  H4  UNL     1       1.014  48.587   4.018  1.00  0.00     0.212 HD
ENDBRANCH  27  29
ENDBRANCH  26  27
ENDBRANCH  13  26
TORSDOF 6
ENDMDL
MODEL 3
REMARK VINA RESULT: -8.626756517      2.158      6.985
REMARK  6 active torsions:
REMARK  status: ('A' for Active; 'I' for Inactive)
REMARK    1  A    between atoms: O1_2  and  C2_3 
REMARK    2  A    between atoms: C8_10  and  N2_11 
REMARK       I    between atoms: N2_11  and  C9_13 
REMARK    3  A    between atoms: C9_13  and  C10_15 
REMARK    4  A    between atoms: C18_25  and  O3_26 
REMARK    5  A    between atoms: O3_26  and  C19_27 
REMARK    6  A    between atoms: C19_27  and  O4_29 
ROOT
HETATM    1  C2  UNL     1       6.694  57.588   0.873  1.00  0.00     0.102 A 
HETATM    2  C3  UNL     1       7.902  56.906   1.047  1.00  0.00     0.053 A 
HETATM    3  C4  UNL     1       7.935  55.565   1.332  1.00  0.00    -0.005 A 
HETATM    4  C5  UNL     1       9.127  54.891   1.503  1.00  0.00     0.040 A 
HETATM    5  C6  UNL     1       9.105  53.514   1.795  1.00  0.00     0.089 A 
HETATM    6  C7  UNL     1      10.368  52.872   1.961  1.00  0.00     0.103 C 
HETATM    7  N1  UNL     1      11.408  52.389   2.089  1.00  0.00    -0.191 NA
HETATM    8  C8  UNL     1       7.895  52.883   1.899  1.00  0.00     0.129 A 
HETATM    9  N3  UNL     1       6.728  53.617   1.714  1.00  0.00    -0.340 N 
ATOM     10  H3  UNL     1       5.834  53.134   1.793  1.00  0.00     0.167 HD
HETATM   11  C16 UNL     1       6.725  54.920   1.438  1.00  0.00     0.046 A 
HETATM   12  C17 UNL     1       5.537  55.583   1.269  1.00  0.00     0.070 A 
HETATM   13  C18 UNL     1       5.467  56.966   0.975  1.00  0.00     0.107 A 
ENDROOT
BRANCH   8  14
HETATM   14  N2  UNL     1       7.778  51.673   2.151  1.00  0.00    -0.308 N 
HETATM   15  C9  UNL     1       7.359  50.912   3.191  1.00  0.00     0.257 C 
HETATM   16  O2  UNL     1       8.124  50.573   4.181  1.00  0.00    -0.267 OA
ATOM     17  H2  UNL     1       8.077  51.097   1.364  1.00  0.00     0.170 HD
BRANCH  15  18
HETATM   18  C10 UNL     1       5.977  50.377   3.314  1.00  0.00     0.032 A 
HETATM   19  C11 UNL     1       5.104  50.572   2.281  1.00  0.00     0.017 A 
HETATM   20  C12 UNL     1       3.821  50.085   2.372  1.00  0.00     0.001 A 
HETATM   21  C13 UNL     1       3.436  49.403   3.512  1.00  0.00     0.000 A 
HETATM   22  C14 UNL     1       4.309  49.199   4.561  1.00  0.00     0.001 A 
HETATM   23  C15 UNL     1       5.589  49.705   4.431  1.00  0.00     0.017 A 
ENDBRANCH  15  18
ENDBRANCH   8  14
BRANCH   1  24
HETATM   24  O1  UNL     1       6.739  58.956   0.585  1.00  0.00    -0.353 OA
HETATM   25  C1  UNL     1       7.708  59.408  -0.331  1.00  0.00     0.210 C 
ENDBRANCH   1  24
BRANCH  13  26
HETATM   26  O3  UNL     1       4.264  57.537   0.825  1.00  0.00    -0.318 OA
BRANCH  26  27
HETATM   27  C19 UNL     1       3.166  57.740   1.585  1.00  0.00     0.259 C 
HETATM   28  C20 UNL     1       3.174  59.119   2.281  1.00  0.00     0.071 C 
BRANCH  27  29
HETATM   29  O4  UNL     1       3.016  56.746   2.584  1.00  0.00    -0.371 OA
ATOM     30  H4  UNL     1       2.145  56.369   2.586  1.00  0.00     0.212 HD
ENDBRANCH  27  29
ENDBRANCH  26  27
ENDBRANCH  13  26
TORSDOF 6
ENDMDL
MODEL 4
REMARK VINA RESULT: -8.581465761      6.143     10.800
REMARK  6 active torsions:
REMARK  status: ('A' for Active; 'I' for Inactive)
REMARK    1  A    between atoms: O1_2  and  C2_3 
REMARK    2  A    between atoms: C8_10  and  N2_11 
REMARK       I    between atoms: N2_11  and  C9_13 
REMARK    3  A    between atoms: C9_13  and  C10_15 
REMARK    4  A    between atoms: C18_25  and  O3_26 
REMARK    5  A    between atoms: O3_26  and  C19_27 
REMARK    6  A    between atoms: C19_27  and  O4_29 
ROOT
HETATM    1  C2  UNL     1      14.756  59.006  -3.838  1.00  0.00     0.102 A 
HETATM    2  C3  UNL     1      14.346  57.677  -3.980  1.00  0.00     0.053 A 
HETATM    3  C4  UNL     1      13.283  57.174  -3.275  1.00  0.00    -0.005 A 
HETATM    4  C5  UNL     1      12.877  55.863  -3.414  1.00  0.00     0.040 A 
HETATM    5  C6  UNL     1      11.779  55.398  -2.666  1.00  0.00     0.089 A 
HETATM    6  C7  UNL     1      11.406  54.033  -2.854  1.00  0.00     0.103 C 
HETATM    7  N1  UNL     1      11.135  52.926  -3.031  1.00  0.00    -0.191 NA
HETATM    8  C8  UNL     1      11.144  56.265  -1.820  1.00  0.00     0.129 A 
HETATM    9  N3  UNL     1      11.600  57.576  -1.724  1.00  0.00    -0.340 N 
ATOM     10  H3  UNL     1      11.118  58.212  -1.090  1.00  0.00     0.167 HD
HETATM   11  C16 UNL     1      12.637  58.038  -2.421  1.00  0.00     0.046 A 
HETATM   12  C17 UNL     1      13.035  59.341  -2.277  1.00  0.00     0.070 A 
HETATM   13  C18 UNL     1      14.127  59.892  -2.989  1.00  0.00     0.107 A 
ENDROOT
BRANCH   8  14
HETATM   14  N2  UNL     1      10.169  55.945  -1.123  1.00  0.00    -0.308 N 
HETATM   15  C9  UNL     1       9.608  56.347   0.044  1.00  0.00     0.257 C 
HETATM   16  O2  UNL     1       9.992  55.920   1.205  1.00  0.00    -0.267 OA
ATOM     17  H2  UNL     1       9.650  55.172  -1.539  1.00  0.00     0.170 HD
BRANCH  15  18
HETATM   18  C10 UNL     1       8.484  57.317   0.124  1.00  0.00     0.032 A 
HETATM   19  C11 UNL     1       7.317  56.922   0.716  1.00  0.00     0.017 A 
HETATM   20  C12 UNL     1       6.264  57.804   0.802  1.00  0.00     0.001 A 
HETATM   21  C13 UNL     1       6.407  59.079   0.285  1.00  0.00     0.000 A 
HETATM   22  C14 UNL     1       7.580  59.489  -0.315  1.00  0.00     0.001 A 
HETATM   23  C15 UNL     1       8.614  58.573  -0.381  1.00  0.00     0.017 A 
ENDBRANCH  15  18
ENDBRANCH   8  14
BRANCH   1  24
HETATM   24  O1  UNL     1      15.850  59.447  -4.590  1.00  0.00    -0.353 OA
HETATM   25  C1  UNL     1      15.609  59.926  -5.892  1.00  0.00     0.210 C 
ENDBRANCH   1  24
BRANCH  13  26
HETATM   26  O3  UNL     1      14.450  61.178  -2.789  1.00  0.00    -0.318 OA
BRANCH  26  27
HETATM   27  C19 UNL     1      15.541  61.872  -2.400  1.00  0.00     0.259 C 
HETATM   28  C20 UNL     1      15.988  62.912  -3.451  1.00  0.00     0.071 C 
BRANCH  27  29
HETATM   29  O4  UNL     1      16.644  61.025  -2.126  1.00  0.00    -0.371 OA
ATOM     30  H4  UNL     1      16.840  60.981  -1.198  1.00  0.00     0.212 HD
ENDBRANCH  27  29
ENDBRANCH  26  27
ENDBRANCH  13  26
TORSDOF 6
ENDMDL
MODEL 5
REMARK VINA RESULT: -8.503274682      2.454      7.595
REMARK  6 active torsions:
REMARK  status: ('A' for Active; 'I' for Inactive)
REMARK    1  A    between atoms: O1_2  and  C2_3 
REMARK    2  A    between atoms: C8_10  and  N2_11 
REMARK       I    between atoms: N2_11  and  C9_13 
REMARK    3  A    between atoms: C9_13  and  C10_15 
REMARK    4  A    between atoms: C18_25  and  O3_26 
REMARK    5  A    between atoms: O3_26  and  C19_27 
REMARK    6  A    between atoms: C19_27  and  O4_29 
ROOT
HETATM    1  C2  UNL     1       4.817  56.942   1.478  1.00  0.00     0.102 A 
HETATM    2  C3  UNL     1       4.325  55.684   1.838  1.00  0.00     0.053 A 
HETATM    3  C4  UNL     1       5.165  54.664   2.208  1.00  0.00    -0.005 A 
HETATM    4  C5  UNL     1       4.681  53.422   2.565  1.00  0.00     0.040 A 
HETATM    5  C6  UNL     1       5.585  52.410   2.937  1.00  0.00     0.089 A 
HETATM    6  C7  UNL     1       5.025  51.148   3.295  1.00  0.00     0.103 C 
HETATM    7  N1  UNL     1       4.536  50.142   3.577  1.00  0.00    -0.191 NA
HETATM    8  C8  UNL     1       6.925  52.691   2.934  1.00  0.00     0.129 A 
HETATM    9  N3  UNL     1       7.351  53.963   2.566  1.00  0.00    -0.340 N 
ATOM     10  H3  UNL     1       8.351  54.160   2.569  1.00  0.00     0.167 HD
HETATM   11  C16 UNL     1       6.513  54.936   2.210  1.00  0.00     0.046 A 
HETATM   12  C17 UNL     1       7.001  56.167   1.857  1.00  0.00     0.070 A 
HETATM   13  C18 UNL     1       6.164  57.241   1.470  1.00  0.00     0.107 A 
ENDROOT
BRANCH   8  14
HETATM   14  N2  UNL     1       7.794  51.863   3.248  1.00  0.00    -0.308 N 
HETATM   15  C9  UNL     1       8.644  51.025   2.606  1.00  0.00     0.257 C 
HETATM   16  O2  UNL     1       8.312  49.836   2.212  1.00  0.00    -0.267 OA
ATOM     17  H2  UNL     1       7.898  51.796   4.260  1.00  0.00     0.170 HD
BRANCH  15  18
HETATM   18  C10 UNL     1      10.055  51.370   2.286  1.00  0.00     0.032 A 
HETATM   19  C11 UNL     1      10.960  50.357   2.140  1.00  0.00     0.017 A 
HETATM   20  C12 UNL     1      12.271  50.653   1.843  1.00  0.00     0.001 A 
HETATM   21  C13 UNL     1      12.649  51.975   1.698  1.00  0.00     0.000 A 
HETATM   22  C14 UNL     1      11.743  53.006   1.843  1.00  0.00     0.001 A 
HETATM   23  C15 UNL     1      10.437  52.667   2.141  1.00  0.00     0.017 A 
ENDBRANCH  15  18
ENDBRANCH   8  14
BRANCH   1  24
HETATM   24  O1  UNL     1       3.901  57.933   1.110  1.00  0.00    -0.353 OA
HETATM   25  C1  UNL     1       3.215  58.612   2.135  1.00  0.00     0.210 C 
ENDBRANCH   1  24
BRANCH  13  26
HETATM   26  O3  UNL     1       6.723  58.414   1.140  1.00  0.00    -0.318 OA
BRANCH  26  27
HETATM   27  C19 UNL     1       7.003  59.088   0.004  1.00  0.00     0.259 C 
HETATM   28  C20 UNL     1       8.419  58.785  -0.532  1.00  0.00     0.071 C 
BRANCH  27  29
HETATM   29  O4  UNL     1       6.890  60.491   0.174  1.00  0.00    -0.371 OA
ATOM     30  H4  UNL     1       7.730  60.900   0.343  1.00  0.00     0.212 HD
ENDBRANCH  27  29
ENDBRANCH  26  27
ENDBRANCH  13  26
TORSDOF 6
ENDMDL
