MODEL 1
REMARK VINA RESULT: -6.426288180      0.000      0.000
REMARK  6 active torsions:
REMARK  status: ('A' for Active; 'I' for Inactive)
REMARK    1  A    between atoms: O1_2  and  C2_3 
REMARK    2  A    between atoms: C3_4  and  O2_5 
REMARK    3  A    between atoms: C5_8  and  O3_9 
REMARK    4  A    between atoms: O3_9  and  C6_10 
REMARK    5  A    between atoms: C6_10  and  C7_12 
REMARK    6  A    between atoms: C16_21  and  O5_22 
ROOT
HETATM    1  C7  UNL     1       8.646  53.844   1.337  1.00  0.00     0.091 C 
HETATM    2  C8  UNL     1       9.362  55.122   1.572  1.00  0.00     0.024 C 
HETATM    3  C9  UNL     1       8.693  56.221   0.831  1.00  0.00    -0.043 C 
HETATM    4  C10 UNL     1       9.249  56.184  -0.603  1.00  0.00     0.015 C 
HETATM    5  C11 UNL     1       9.268  57.526   1.408  1.00  0.00     0.015 C 
HETATM    6  C12 UNL     1       7.215  56.229   0.851  1.00  0.00     0.001 C 
HETATM    7  C13 UNL     1       6.662  57.413   1.657  1.00  0.00     0.013 C 
HETATM    8  C14 UNL     1       5.349  56.909   2.192  1.00  0.00     0.017 C 
HETATM    9  C15 UNL     1       4.334  57.092   1.051  1.00  0.00     0.013 C 
HETATM   10  C16 UNL     1       5.510  55.434   2.395  1.00  0.00     0.069 C 
HETATM   11  C17 UNL     1       6.033  54.997   3.696  1.00  0.00     0.017 C 
HETATM   12  C18 UNL     1       6.487  56.052   4.651  1.00  0.00     0.013 C 
HETATM   13  C19 UNL     1       7.233  54.093   3.405  1.00  0.00     0.013 C 
HETATM   14  C20 UNL     1       7.267  53.937   1.919  1.00  0.00     0.007 C 
HETATM   15  C21 UNL     1       6.498  55.043   1.307  1.00  0.00     0.030 C 
ENDROOT
BRANCH   1  16
HETATM   16  C6  UNL     1       9.401  52.669   1.858  1.00  0.00     0.263 C 
HETATM   17  O4  UNL     1      10.519  52.879   2.397  1.00  0.00    -0.265 OA
BRANCH  16  18
HETATM   18  O3  UNL     1       8.955  51.379   1.785  1.00  0.00    -0.313 OA
BRANCH  18  19
HETATM   19  C5  UNL     1       8.703  50.553   2.901  1.00  0.00     0.165 C 
HETATM   20  C2  UNL     1       7.261  50.299   3.215  1.00  0.00     0.179 C 
HETATM   21  C3  UNL     1       7.603  48.815   3.353  1.00  0.00     0.152 C 
HETATM   22  C4  UNL     1       8.852  49.092   2.543  1.00  0.00     0.069 C 
BRANCH  20  23
HETATM   23  O1  UNL     1       6.361  50.505   2.198  1.00  0.00    -0.386 OA
HETATM   24  C1  UNL     1       5.189  51.030   2.753  1.00  0.00     0.202 C 
ENDBRANCH  20  23
BRANCH  21  25
HETATM   25  O2  UNL     1       6.692  47.968   2.729  1.00  0.00    -0.393 OA
ATOM     26  H2  UNL     1       6.923  47.048   2.785  1.00  0.00     0.210 HD
ENDBRANCH  21  25
ENDBRANCH  18  19
ENDBRANCH  16  18
ENDBRANCH   1  16
BRANCH  10  27
HETATM   27  O5  UNL     1       4.233  54.869   2.157  1.00  0.00    -0.389 OA
ATOM     28  H5  UNL     1       4.383  53.943   2.009  1.00  0.00     0.210 HD
ENDBRANCH  10  27
TORSDOF 6
ENDMDL
MODEL 2
REMARK VINA RESULT: -6.282121710      2.841      6.085
REMARK  6 active torsions:
REMARK  status: ('A' for Active; 'I' for Inactive)
REMARK    1  A    between atoms: O1_2  and  C2_3 
REMARK    2  A    between atoms: C3_4  and  O2_5 
REMARK    3  A    between atoms: C5_8  and  O3_9 
REMARK    4  A    between atoms: O3_9  and  C6_10 
REMARK    5  A    between atoms: C6_10  and  C7_12 
REMARK    6  A    between atoms: C16_21  and  O5_22 
ROOT
HETATM    1  C7  UNL     1       7.209  57.290   0.394  1.00  0.00     0.091 C 
HETATM    2  C8  UNL     1       6.168  57.947   1.222  1.00  0.00     0.024 C 
HETATM    3  C9  UNL     1       4.915  57.151   1.184  1.00  0.00    -0.043 C 
HETATM    4  C10 UNL     1       4.162  57.581  -0.087  1.00  0.00     0.015 C 
HETATM    5  C11 UNL     1       4.038  57.695   2.325  1.00  0.00     0.015 C 
HETATM    6  C12 UNL     1       5.061  55.682   1.271  1.00  0.00     0.001 C 
HETATM    7  C13 UNL     1       4.512  55.132   2.595  1.00  0.00     0.013 C 
HETATM    8  C14 UNL     1       5.342  53.904   2.851  1.00  0.00     0.017 C 
HETATM    9  C15 UNL     1       4.702  52.784   2.014  1.00  0.00     0.013 C 
HETATM   10  C16 UNL     1       6.691  54.170   2.258  1.00  0.00     0.069 C 
HETATM   11  C17 UNL     1       7.679  54.830   3.122  1.00  0.00     0.017 C 
HETATM   12  C18 UNL     1       7.220  55.301   4.463  1.00  0.00     0.013 C 
HETATM   13  C19 UNL     1       8.187  56.051   2.354  1.00  0.00     0.013 C 
HETATM   14  C20 UNL     1       7.560  55.965   1.001  1.00  0.00     0.007 C 
HETATM   15  C21 UNL     1       6.376  55.081   1.081  1.00  0.00     0.030 C 
ENDROOT
BRANCH   1  16
HETATM   16  C6  UNL     1       8.407  58.158   0.200  1.00  0.00     0.263 C 
HETATM   17  O4  UNL     1       8.298  59.381   0.471  1.00  0.00    -0.265 OA
BRANCH  16  18
HETATM   18  O3  UNL     1       9.614  57.705  -0.253  1.00  0.00    -0.313 OA
BRANCH  18  19
HETATM   19  C5  UNL     1       9.791  56.900  -1.398  1.00  0.00     0.165 C 
HETATM   20  C2  UNL     1      11.019  57.176  -2.210  1.00  0.00     0.179 C 
HETATM   21  C3  UNL     1      11.278  55.669  -2.240  1.00  0.00     0.152 C 
HETATM   22  C4  UNL     1      10.370  55.552  -1.034  1.00  0.00     0.069 C 
BRANCH  20  23
HETATM   23  O1  UNL     1      12.042  57.838  -1.577  1.00  0.00    -0.386 OA
HETATM   24  C1  UNL     1      12.575  58.773  -2.472  1.00  0.00     0.202 C 
ENDBRANCH  20  23
BRANCH  21  25
HETATM   25  O2  UNL     1      12.603  55.321  -1.995  1.00  0.00    -0.393 OA
ATOM     26  H2  UNL     1      13.164  55.386  -2.759  1.00  0.00     0.210 HD
ENDBRANCH  21  25
ENDBRANCH  18  19
ENDBRANCH  16  18
ENDBRANCH   1  16
BRANCH  10  27
HETATM   27  O5  UNL     1       7.176  52.913   1.819  1.00  0.00    -0.389 OA
ATOM     28  H5  UNL     1       6.525  52.581   1.212  1.00  0.00     0.210 HD
ENDBRANCH  10  27
TORSDOF 6
ENDMDL
MODEL 3
REMARK VINA RESULT: -6.246261812      2.085      3.933
REMARK  6 active torsions:
REMARK  status: ('A' for Active; 'I' for Inactive)
REMARK    1  A    between atoms: O1_2  and  C2_3 
REMARK    2  A    between atoms: C3_4  and  O2_5 
REMARK    3  A    between atoms: C5_8  and  O3_9 
REMARK    4  A    between atoms: O3_9  and  C6_10 
REMARK    5  A    between atoms: C6_10  and  C7_12 
REMARK    6  A    between atoms: C16_21  and  O5_22 
ROOT
HETATM    1  C7  UNL     1       5.765  51.639   2.092  1.00  0.00     0.091 C 
HETATM    2  C8  UNL     1       6.996  51.451   2.897  1.00  0.00     0.024 C 
HETATM    3  C9  UNL     1       8.156  52.059   2.199  1.00  0.00    -0.043 C 
HETATM    4  C10 UNL     1       8.663  51.007   1.196  1.00  0.00     0.015 C 
HETATM    5  C11 UNL     1       9.283  52.133   3.244  1.00  0.00     0.015 C 
HETATM    6  C12 UNL     1       7.929  53.371   1.557  1.00  0.00     0.001 C 
HETATM    7  C13 UNL     1       8.696  54.494   2.269  1.00  0.00     0.013 C 
HETATM    8  C14 UNL     1       7.853  55.717   2.034  1.00  0.00     0.017 C 
HETATM    9  C15 UNL     1       8.229  56.223   0.632  1.00  0.00     0.013 C 
HETATM   10  C16 UNL     1       6.433  55.247   1.958  1.00  0.00     0.069 C 
HETATM   11  C17 UNL     1       5.691  55.166   3.223  1.00  0.00     0.017 C 
HETATM   12  C18 UNL     1       6.445  55.423   4.486  1.00  0.00     0.013 C 
HETATM   13  C19 UNL     1       5.123  53.747   3.307  1.00  0.00     0.013 C 
HETATM   14  C20 UNL     1       5.454  53.103   2.001  1.00  0.00     0.007 C 
HETATM   15  C21 UNL     1       6.564  53.850   1.370  1.00  0.00     0.030 C 
ENDROOT
BRANCH   1  16
HETATM   16  C6  UNL     1       4.616  50.849   2.622  1.00  0.00     0.263 C 
HETATM   17  O4  UNL     1       3.598  50.729   1.893  1.00  0.00    -0.265 OA
BRANCH  16  18
HETATM   18  O3  UNL     1       4.602  50.249   3.849  1.00  0.00    -0.313 OA
BRANCH  18  19
HETATM   19  C5  UNL     1       4.249  48.902   4.080  1.00  0.00     0.165 C 
HETATM   20  C2  UNL     1       5.373  47.913   4.028  1.00  0.00     0.179 C 
HETATM   21  C3  UNL     1       4.841  47.314   5.331  1.00  0.00     0.152 C 
HETATM   22  C4  UNL     1       4.108  48.619   5.558  1.00  0.00     0.069 C 
BRANCH  20  23
HETATM   23  O1  UNL     1       6.642  48.409   4.196  1.00  0.00    -0.386 OA
HETATM   24  C1  UNL     1       7.478  47.796   3.257  1.00  0.00     0.202 C 
ENDBRANCH  20  23
BRANCH  21  25
HETATM   25  O2  UNL     1       5.831  47.042   6.270  1.00  0.00    -0.393 OA
ATOM     26  H2  UNL     1       5.493  46.781   7.119  1.00  0.00     0.210 HD
ENDBRANCH  21  25
ENDBRANCH  18  19
ENDBRANCH  16  18
ENDBRANCH   1  16
BRANCH  10  27
HETATM   27  O5  UNL     1       5.783  56.125   1.055  1.00  0.00    -0.389 OA
ATOM     28  H5  UNL     1       5.331  55.568   0.432  1.00  0.00     0.210 HD
ENDBRANCH  10  27
TORSDOF 6
ENDMDL
MODEL 4
REMARK VINA RESULT: -5.900988869      2.625      4.296
REMARK  6 active torsions:
REMARK  status: ('A' for Active; 'I' for Inactive)
REMARK    1  A    between atoms: O1_2  and  C2_3 
REMARK    2  A    between atoms: C3_4  and  O2_5 
REMARK    3  A    between atoms: C5_8  and  O3_9 
REMARK    4  A    between atoms: O3_9  and  C6_10 
REMARK    5  A    between atoms: C6_10  and  C7_12 
REMARK    6  A    between atoms: C16_21  and  O5_22 
ROOT
HETATM    1  C7  UNL     1       6.025  51.601   2.613  1.00  0.00     0.091 C 
HETATM    2  C8  UNL     1       7.397  51.565   3.176  1.00  0.00     0.024 C 
HETATM    3  C9  UNL     1       8.352  52.186   2.223  1.00  0.00    -0.043 C 
HETATM    4  C10 UNL     1       8.746  51.087   1.221  1.00  0.00     0.015 C 
HETATM    5  C11 UNL     1       9.645  52.426   3.021  1.00  0.00     0.015 C 
HETATM    6  C12 UNL     1       7.901  53.419   1.543  1.00  0.00     0.001 C 
HETATM    7  C13 UNL     1       8.693  54.649   2.009  1.00  0.00     0.013 C 
HETATM    8  C14 UNL     1       7.723  55.787   1.854  1.00  0.00     0.017 C 
HETATM    9  C15 UNL     1       7.786  56.193   0.372  1.00  0.00     0.013 C 
HETATM   10  C16 UNL     1       6.358  55.219   2.089  1.00  0.00     0.069 C 
HETATM   11  C17 UNL     1       5.876  55.199   3.476  1.00  0.00     0.017 C 
HETATM   12  C18 UNL     1       6.830  55.617   4.547  1.00  0.00     0.013 C 
HETATM   13  C19 UNL     1       5.452  53.759   3.773  1.00  0.00     0.013 C 
HETATM   14  C20 UNL     1       5.584  53.026   2.477  1.00  0.00     0.007 C 
HETATM   15  C21 UNL     1       6.491  53.788   1.590  1.00  0.00     0.030 C 
ENDROOT
BRANCH   1  16
HETATM   16  C6  UNL     1       5.066  50.785   3.412  1.00  0.00     0.263 C 
HETATM   17  O4  UNL     1       5.453  50.341   4.524  1.00  0.00    -0.265 OA
BRANCH  16  18
HETATM   18  O3  UNL     1       3.793  50.491   3.011  1.00  0.00    -0.313 OA
BRANCH  18  19
HETATM   19  C5  UNL     1       3.365  49.224   2.562  1.00  0.00     0.165 C 
HETATM   20  C2  UNL     1       2.863  48.290   3.621  1.00  0.00     0.179 C 
HETATM   21  C3  UNL     1       1.664  47.992   2.720  1.00  0.00     0.152 C 
HETATM   22  C4  UNL     1       1.965  49.288   1.997  1.00  0.00     0.069 C 
BRANCH  20  23
HETATM   23  O1  UNL     1       2.462  48.856   4.805  1.00  0.00    -0.386 OA
HETATM   24  C1  UNL     1       2.981  48.088   5.854  1.00  0.00     0.202 C 
ENDBRANCH  20  23
BRANCH  21  25
HETATM   25  O2  UNL     1       0.445  47.981   3.392  1.00  0.00    -0.393 OA
ATOM     26  H2  UNL     1       0.090  47.110   3.529  1.00  0.00     0.210 HD
ENDBRANCH  21  25
ENDBRANCH  18  19
ENDBRANCH  16  18
ENDBRANCH   1  16
BRANCH  10  27
HETATM   27  O5  UNL     1       5.479  55.969   1.268  1.00  0.00    -0.389 OA
ATOM     28  H5  UNL     1       4.607  55.812   1.609  1.00  0.00     0.210 HD
ENDBRANCH  10  27
TORSDOF 6
ENDMDL
MODEL 5
REMARK VINA RESULT: -5.868645749      1.647      2.478
REMARK  6 active torsions:
REMARK  status: ('A' for Active; 'I' for Inactive)
REMARK    1  A    between atoms: O1_2  and  C2_3 
REMARK    2  A    between atoms: C3_4  and  O2_5 
REMARK    3  A    between atoms: C5_8  and  O3_9 
REMARK    4  A    between atoms: O3_9  and  C6_10 
REMARK    5  A    between atoms: C6_10  and  C7_12 
REMARK    6  A    between atoms: C16_21  and  O5_22 
ROOT
HETATM    1  C7  UNL     1       9.157  54.225   1.415  1.00  0.00     0.091 C 
HETATM    2  C8  UNL     1       9.548  55.650   1.549  1.00  0.00     0.024 C 
HETATM    3  C9  UNL     1       8.617  56.505   0.769  1.00  0.00    -0.043 C 
HETATM    4  C10 UNL     1       9.137  56.509  -0.679  1.00  0.00     0.015 C 
HETATM    5  C11 UNL     1       8.872  57.945   1.247  1.00  0.00     0.015 C 
HETATM    6  C12 UNL     1       7.182  56.159   0.841  1.00  0.00     0.001 C 
HETATM    7  C13 UNL     1       6.375  57.226   1.594  1.00  0.00     0.013 C 
HETATM    8  C14 UNL     1       5.235  56.458   2.204  1.00  0.00     0.017 C 
HETATM    9  C15 UNL     1       4.183  56.316   1.091  1.00  0.00     0.013 C 
HETATM   10  C16 UNL     1       5.752  55.081   2.488  1.00  0.00     0.069 C 
HETATM   11  C17 UNL     1       6.392  54.868   3.793  1.00  0.00     0.017 C 
HETATM   12  C18 UNL     1       6.596  56.061   4.668  1.00  0.00     0.013 C 
HETATM   13  C19 UNL     1       7.768  54.262   3.513  1.00  0.00     0.013 C 
HETATM   14  C20 UNL     1       7.809  54.022   2.039  1.00  0.00     0.007 C 
HETATM   15  C21 UNL     1       6.783  54.868   1.390  1.00  0.00     0.030 C 
ENDROOT
BRANCH   1  16
HETATM   16  C6  UNL     1      10.185  53.302   1.976  1.00  0.00     0.263 C 
HETATM   17  O4  UNL     1      11.350  53.748   2.139  1.00  0.00    -0.265 OA
BRANCH  16  18
HETATM   18  O3  UNL     1       9.939  52.004   2.324  1.00  0.00    -0.313 OA
BRANCH  18  19
HETATM   19  C5  UNL     1       9.934  50.918   1.423  1.00  0.00     0.165 C 
HETATM   20  C2  UNL     1      11.205  50.129   1.341  1.00  0.00     0.179 C 
HETATM   21  C3  UNL     1      10.364  48.856   1.443  1.00  0.00     0.152 C 
HETATM   22  C4  UNL     1       9.257  49.709   2.027  1.00  0.00     0.069 C 
BRANCH  20  23
HETATM   23  O1  UNL     1      12.068  50.235   2.403  1.00  0.00    -0.386 OA
HETATM   24  C1  UNL     1      13.271  50.777   1.936  1.00  0.00     0.202 C 
ENDBRANCH  20  23
BRANCH  21  25
HETATM   25  O2  UNL     1      10.881  47.909   2.321  1.00  0.00    -0.393 OA
ATOM     26  H2  UNL     1      10.657  47.014   2.095  1.00  0.00     0.210 HD
ENDBRANCH  21  25
ENDBRANCH  18  19
ENDBRANCH  16  18
ENDBRANCH   1  16
BRANCH  10  27
HETATM   27  O5  UNL     1       4.645  54.211   2.329  1.00  0.00    -0.389 OA
ATOM     28  H5  UNL     1       4.388  53.954   3.206  1.00  0.00     0.210 HD
ENDBRANCH  10  27
TORSDOF 6
ENDMDL
