MODEL 1
REMARK VINA RESULT: -8.151154993      0.000      0.000
REMARK  6 active torsions:
REMARK  status: ('A' for Active; 'I' for Inactive)
REMARK    1  A    between atoms: C2_2  and  C3_3 
REMARK    2  A    between atoms: C3_3  and  N1_4 
REMARK    3  A    between atoms: C4_5  and  C5_6 
REMARK       I    between atoms: C5_6  and  N2_8 
REMARK    4  A    between atoms: N2_8  and  C6_10 
REMARK    5  A    between atoms: C13_22  and  N6_23 
REMARK    6  A    between atoms: N6_23  and  C14_25 
ROOT
HETATM    1  N1  UNL     1       7.185  52.269   2.755  1.00  0.00    -0.335 N 
HETATM    2  C4  UNL     1       6.626  53.424   2.441  1.00  0.00     0.106 A 
HETATM    3  C11 UNL     1       5.268  53.190   2.251  1.00  0.00     0.068 A 
HETATM    4  C12 UNL     1       4.994  51.828   2.459  1.00  0.00     0.071 A 
HETATM    5  N5  UNL     1       3.962  51.025   2.433  1.00  0.00    -0.334 N 
ATOM      6  H5  UNL     1       3.033  51.380   2.206  1.00  0.00     0.168 HD
HETATM    7  C13 UNL     1       4.148  49.732   2.708  1.00  0.00     0.147 A 
HETATM    8  S1  UNL     1       5.828  49.651   3.013  1.00  0.00    -0.034 SA
HETATM    9  C17 UNL     1       6.211  51.300   2.768  1.00  0.00     0.107 A 
ENDROOT
BRANCH   2  10
HETATM   10  C5  UNL     1       7.280  54.732   2.303  1.00  0.00     0.274 C 
HETATM   11  O1  UNL     1       7.557  55.390   3.357  1.00  0.00    -0.266 OA
HETATM   12  N2  UNL     1       7.632  55.334   1.095  1.00  0.00    -0.306 N 
ATOM     13  H2  UNL     1       8.033  54.722   0.383  1.00  0.00     0.170 HD
BRANCH  12  14
HETATM   14  C6  UNL     1       7.509  56.555   0.783  1.00  0.00     0.126 A 
HETATM   15  C7  UNL     1       6.356  57.293   0.832  1.00  0.00     0.076 A 
HETATM   16  C8  UNL     1       6.664  58.590   0.405  1.00  0.00     0.025 A 
HETATM   17  C9  UNL     1       5.769  59.749   0.280  1.00  0.00     0.070 C 
HETATM   18  N3  UNL     1       7.963  58.569   0.126  1.00  0.00    -0.302 N 
HETATM   19  N4  UNL     1       8.477  57.363   0.347  1.00  0.00    -0.281 N 
ATOM     20  H3  UNL     1       8.495  59.371  -0.212  1.00  0.00     0.186 HD
HETATM   21  C10 UNL     1       9.872  56.997   0.142  1.00  0.00     0.179 C 
ENDBRANCH  12  14
ENDBRANCH   2  10
BRANCH   1  22
HETATM   22  C3  UNL     1       8.562  51.939   3.059  1.00  0.00     0.130 C 
BRANCH  22  23
HETATM   23  C2  UNL     1       9.372  51.840   1.763  1.00  0.00     0.016 C 
HETATM   24  C1  UNL     1      10.497  52.846   1.767  1.00  0.00     0.006 C 
ENDBRANCH  22  23
ENDBRANCH   1  22
BRANCH   7  25
HETATM   25  N6  UNL     1       3.250  48.771   2.733  1.00  0.00    -0.366 N 
ATOM     26  H6  UNL     1       3.282  48.021   2.043  1.00  0.00     0.162 HD
BRANCH  25  27
HETATM   27  C14 UNL     1       2.217  48.784   3.744  1.00  0.00     0.075 C 
HETATM   28  C15 UNL     1       1.018  47.958   3.330  1.00  0.00     0.032 C 
HETATM   29  C16 UNL     1       2.834  48.253   5.026  1.00  0.00     0.032 C 
ENDBRANCH  25  27
ENDBRANCH   7  25
TORSDOF 6
ENDMDL
MODEL 2
REMARK VINA RESULT: -7.764270796      1.036      1.492
REMARK  6 active torsions:
REMARK  status: ('A' for Active; 'I' for Inactive)
REMARK    1  A    between atoms: C2_2  and  C3_3 
REMARK    2  A    between atoms: C3_3  and  N1_4 
REMARK    3  A    between atoms: C4_5  and  C5_6 
REMARK       I    between atoms: C5_6  and  N2_8 
REMARK    4  A    between atoms: N2_8  and  C6_10 
REMARK    5  A    between atoms: C13_22  and  N6_23 
REMARK    6  A    between atoms: N6_23  and  C14_25 
ROOT
HETATM    1  N1  UNL     1       7.102  52.011   2.992  1.00  0.00    -0.335 N 
HETATM    2  C4  UNL     1       6.478  53.114   2.620  1.00  0.00     0.106 A 
HETATM    3  C11 UNL     1       5.126  52.809   2.508  1.00  0.00     0.068 A 
HETATM    4  C12 UNL     1       4.923  51.456   2.825  1.00  0.00     0.071 A 
HETATM    5  N5  UNL     1       3.928  50.610   2.902  1.00  0.00    -0.334 N 
ATOM      6  H5  UNL     1       2.976  50.908   2.691  1.00  0.00     0.168 HD
HETATM    7  C13 UNL     1       4.184  49.350   3.261  1.00  0.00     0.147 A 
HETATM    8  S1  UNL     1       5.877  49.363   3.497  1.00  0.00    -0.034 SA
HETATM    9  C17 UNL     1       6.174  51.004   3.118  1.00  0.00     0.107 A 
ENDROOT
BRANCH   2  10
HETATM   10  C5  UNL     1       7.065  54.435   2.360  1.00  0.00     0.274 C 
HETATM   11  O1  UNL     1       7.609  55.062   3.326  1.00  0.00    -0.266 OA
HETATM   12  N2  UNL     1       7.081  55.081   1.124  1.00  0.00    -0.306 N 
ATOM     13  H2  UNL     1       7.281  54.499   0.310  1.00  0.00     0.170 HD
BRANCH  12  14
HETATM   14  C6  UNL     1       6.873  56.310   0.900  1.00  0.00     0.126 A 
HETATM   15  C7  UNL     1       7.769  57.201   0.371  1.00  0.00     0.076 A 
HETATM   16  C8  UNL     1       7.133  58.446   0.293  1.00  0.00     0.025 A 
HETATM   17  C9  UNL     1       7.673  59.719  -0.204  1.00  0.00     0.070 C 
HETATM   18  N3  UNL     1       5.908  58.246   0.769  1.00  0.00    -0.302 N 
HETATM   19  N4  UNL     1       5.743  56.979   1.134  1.00  0.00    -0.281 N 
ATOM     20  H3  UNL     1       5.192  58.968   0.845  1.00  0.00     0.186 HD
HETATM   21  C10 UNL     1       4.519  56.423   1.697  1.00  0.00     0.179 C 
ENDBRANCH  12  14
ENDBRANCH   2  10
BRANCH   1  22
HETATM   22  C3  UNL     1       8.504  51.764   3.259  1.00  0.00     0.130 C 
BRANCH  22  23
HETATM   23  C2  UNL     1       9.260  51.579   1.940  1.00  0.00     0.016 C 
HETATM   24  C1  UNL     1      10.309  52.651   1.780  1.00  0.00     0.006 C 
ENDBRANCH  22  23
ENDBRANCH   1  22
BRANCH   7  25
HETATM   25  N6  UNL     1       3.332  48.356   3.395  1.00  0.00    -0.366 N 
ATOM     26  H6  UNL     1       3.570  47.427   3.047  1.00  0.00     0.162 HD
BRANCH  25  27
HETATM   27  C14 UNL     1       2.059  48.588   4.037  1.00  0.00     0.075 C 
HETATM   28  C15 UNL     1       0.927  47.903   3.299  1.00  0.00     0.032 C 
HETATM   29  C16 UNL     1       2.173  48.077   5.463  1.00  0.00     0.032 C 
ENDBRANCH  25  27
ENDBRANCH   7  25
TORSDOF 6
ENDMDL
MODEL 3
REMARK VINA RESULT: -7.672712773      1.584      2.735
REMARK  6 active torsions:
REMARK  status: ('A' for Active; 'I' for Inactive)
REMARK    1  A    between atoms: C2_2  and  C3_3 
REMARK    2  A    between atoms: C3_3  and  N1_4 
REMARK    3  A    between atoms: C4_5  and  C5_6 
REMARK       I    between atoms: C5_6  and  N2_8 
REMARK    4  A    between atoms: N2_8  and  C6_10 
REMARK    5  A    between atoms: C13_22  and  N6_23 
REMARK    6  A    between atoms: N6_23  and  C14_25 
ROOT
HETATM    1  N1  UNL     1       6.252  53.493   1.856  1.00  0.00    -0.335 N 
HETATM    2  C4  UNL     1       7.538  53.759   2.006  1.00  0.00     0.106 A 
HETATM    3  C11 UNL     1       8.145  52.607   2.494  1.00  0.00     0.068 A 
HETATM    4  C12 UNL     1       7.181  51.598   2.648  1.00  0.00     0.071 A 
HETATM    5  N5  UNL     1       7.126  50.352   3.045  1.00  0.00    -0.334 N 
ATOM      6  H5  UNL     1       7.968  49.869   3.357  1.00  0.00     0.168 HD
HETATM    7  C13 UNL     1       5.947  49.727   3.033  1.00  0.00     0.147 A 
HETATM    8  S1  UNL     1       4.888  50.933   2.443  1.00  0.00    -0.034 SA
HETATM    9  C17 UNL     1       6.026  52.193   2.240  1.00  0.00     0.107 A 
ENDROOT
BRANCH   2  10
HETATM   10  C5  UNL     1       8.234  55.021   1.725  1.00  0.00     0.274 C 
HETATM   11  O1  UNL     1       8.818  55.623   2.684  1.00  0.00    -0.266 OA
HETATM   12  N2  UNL     1       8.315  55.636   0.476  1.00  0.00    -0.306 N 
ATOM     13  H2  UNL     1       8.475  55.022  -0.323  1.00  0.00     0.170 HD
BRANCH  12  14
HETATM   14  C6  UNL     1       8.212  56.873   0.223  1.00  0.00     0.126 A 
HETATM   15  C7  UNL     1       7.150  57.679   0.537  1.00  0.00     0.076 A 
HETATM   16  C8  UNL     1       7.446  58.968   0.079  1.00  0.00     0.025 A 
HETATM   17  C9  UNL     1       6.627  60.185   0.176  1.00  0.00     0.070 C 
HETATM   18  N3  UNL     1       8.650  58.876  -0.478  1.00  0.00    -0.302 N 
HETATM   19  N4  UNL     1       9.115  57.633  -0.398  1.00  0.00    -0.281 N 
ATOM     20  H3  UNL     1       9.150  59.654  -0.908  1.00  0.00     0.186 HD
HETATM   21  C10 UNL     1      10.404  57.187  -0.911  1.00  0.00     0.179 C 
ENDBRANCH  12  14
ENDBRANCH   2  10
BRANCH   1  22
HETATM   22  C3  UNL     1       5.166  54.325   1.379  1.00  0.00     0.130 C 
BRANCH  22  23
HETATM   23  C2  UNL     1       4.573  55.123   2.544  1.00  0.00     0.016 C 
HETATM   24  C1  UNL     1       4.018  56.437   2.052  1.00  0.00     0.006 C 
ENDBRANCH  22  23
ENDBRANCH   1  22
BRANCH   7  25
HETATM   25  N6  UNL     1       5.683  48.488   3.390  1.00  0.00    -0.366 N 
ATOM     26  H6  UNL     1       6.022  47.709   2.826  1.00  0.00     0.162 HD
BRANCH  25  27
HETATM   27  C14 UNL     1       4.909  48.239   4.584  1.00  0.00     0.075 C 
HETATM   28  C15 UNL     1       3.450  47.988   4.264  1.00  0.00     0.032 C 
HETATM   29  C16 UNL     1       5.531  47.042   5.284  1.00  0.00     0.032 C 
ENDBRANCH  25  27
ENDBRANCH   7  25
TORSDOF 6
ENDMDL
MODEL 4
REMARK VINA RESULT: -7.594355133      2.166      7.974
REMARK  6 active torsions:
REMARK  status: ('A' for Active; 'I' for Inactive)
REMARK    1  A    between atoms: C2_2  and  C3_3 
REMARK    2  A    between atoms: C3_3  and  N1_4 
REMARK    3  A    between atoms: C4_5  and  C5_6 
REMARK       I    between atoms: C5_6  and  N2_8 
REMARK    4  A    between atoms: N2_8  and  C6_10 
REMARK    5  A    between atoms: C13_22  and  N6_23 
REMARK    6  A    between atoms: N6_23  and  C14_25 
ROOT
HETATM    1  N1  UNL     1       7.373  52.413   2.625  1.00  0.00    -0.335 N 
HETATM    2  C4  UNL     1       6.209  51.821   2.425  1.00  0.00     0.106 A 
HETATM    3  C11 UNL     1       5.368  52.751   1.823  1.00  0.00     0.068 A 
HETATM    4  C12 UNL     1       6.057  53.963   1.652  1.00  0.00     0.071 A 
HETATM    5  N5  UNL     1       5.827  55.157   1.170  1.00  0.00    -0.334 N 
ATOM      6  H5  UNL     1       4.915  55.392   0.777  1.00  0.00     0.168 HD
HETATM    7  C13 UNL     1       6.807  56.062   1.201  1.00  0.00     0.147 A 
HETATM    8  S1  UNL     1       8.090  55.200   1.932  1.00  0.00    -0.034 SA
HETATM    9  C17 UNL     1       7.293  53.705   2.162  1.00  0.00     0.107 A 
ENDROOT
BRANCH   2  10
HETATM   10  C5  UNL     1       5.830  50.443   2.765  1.00  0.00     0.274 C 
HETATM   11  O1  UNL     1       6.272  49.493   2.041  1.00  0.00    -0.266 OA
HETATM   12  N2  UNL     1       5.012  50.072   3.832  1.00  0.00    -0.306 N 
ATOM     13  H2  UNL     1       5.160  50.567   4.711  1.00  0.00     0.170 HD
BRANCH  12  14
HETATM   14  C6  UNL     1       4.105  49.188   3.829  1.00  0.00     0.126 A 
HETATM   15  C7  UNL     1       2.812  49.354   3.408  1.00  0.00     0.076 A 
HETATM   16  C8  UNL     1       2.151  48.132   3.576  1.00  0.00     0.025 A 
HETATM   17  C9  UNL     1       0.753  47.797   3.270  1.00  0.00     0.070 C 
HETATM   18  N3  UNL     1       3.062  47.305   4.080  1.00  0.00    -0.302 N 
HETATM   19  N4  UNL     1       4.229  47.924   4.235  1.00  0.00    -0.281 N 
ATOM     20  H3  UNL     1       2.890  46.328   4.315  1.00  0.00     0.186 HD
HETATM   21  C10 UNL     1       5.438  47.308   4.765  1.00  0.00     0.179 C 
ENDBRANCH  12  14
ENDBRANCH   2  10
BRANCH   1  22
HETATM   22  C3  UNL     1       8.599  51.910   3.209  1.00  0.00     0.130 C 
BRANCH  22  23
HETATM   23  C2  UNL     1       9.550  51.444   2.101  1.00  0.00     0.016 C 
HETATM   24  C1  UNL     1      10.751  52.354   2.024  1.00  0.00     0.006 C 
ENDBRANCH  22  23
ENDBRANCH   1  22
BRANCH   7  25
HETATM   25  N6  UNL     1       6.777  57.305   0.772  1.00  0.00    -0.366 N 
ATOM     26  H6  UNL     1       7.641  57.774   0.499  1.00  0.00     0.162 HD
BRANCH  25  27
HETATM   27  C14 UNL     1       5.515  58.003   0.691  1.00  0.00     0.075 C 
HETATM   28  C15 UNL     1       4.733  57.899   1.983  1.00  0.00     0.032 C 
HETATM   29  C16 UNL     1       5.821  59.452   0.349  1.00  0.00     0.032 C 
ENDBRANCH  25  27
ENDBRANCH   7  25
TORSDOF 6
ENDMDL
MODEL 5
REMARK VINA RESULT: -7.436904515      3.452      6.043
REMARK  6 active torsions:
REMARK  status: ('A' for Active; 'I' for Inactive)
REMARK    1  A    between atoms: C2_2  and  C3_3 
REMARK    2  A    between atoms: C3_3  and  N1_4 
REMARK    3  A    between atoms: C4_5  and  C5_6 
REMARK       I    between atoms: C5_6  and  N2_8 
REMARK    4  A    between atoms: N2_8  and  C6_10 
REMARK    5  A    between atoms: C13_22  and  N6_23 
REMARK    6  A    between atoms: N6_23  and  C14_25 
ROOT
HETATM    1  N1  UNL     1       8.878  54.053   2.001  1.00  0.00    -0.335 N 
HETATM    2  C4  UNL     1       9.402  55.074   1.348  1.00  0.00     0.106 A 
HETATM    3  C11 UNL     1      10.663  54.684   0.911  1.00  0.00     0.068 A 
HETATM    4  C12 UNL     1      10.914  53.365   1.321  1.00  0.00     0.071 A 
HETATM    5  N5  UNL     1      11.871  52.478   1.225  1.00  0.00    -0.334 N 
ATOM      6  H5  UNL     1      12.736  52.698   0.730  1.00  0.00     0.168 HD
HETATM    7  C13 UNL     1      11.694  51.280   1.786  1.00  0.00     0.147 A 
HETATM    8  S1  UNL     1      10.131  51.412   2.467  1.00  0.00    -0.034 SA
HETATM    9  C17 UNL     1       9.781  53.017   1.991  1.00  0.00     0.107 A 
ENDROOT
BRANCH   2  10
HETATM   10  C5  UNL     1       8.801  56.393   1.109  1.00  0.00     0.274 C 
HETATM   11  O1  UNL     1       9.357  57.419   1.618  1.00  0.00    -0.266 OA
HETATM   12  N2  UNL     1       7.649  56.630   0.359  1.00  0.00    -0.306 N 
ATOM     13  H2  UNL     1       7.552  56.095  -0.505  1.00  0.00     0.170 HD
BRANCH  12  14
HETATM   14  C6  UNL     1       6.710  57.434   0.632  1.00  0.00     0.126 A 
HETATM   15  C7  UNL     1       5.568  57.141   1.330  1.00  0.00     0.076 A 
HETATM   16  C8  UNL     1       4.804  58.312   1.403  1.00  0.00     0.025 A 
HETATM   17  C9  UNL     1       3.498  58.514   2.047  1.00  0.00     0.070 C 
HETATM   18  N3  UNL     1       5.510  59.234   0.757  1.00  0.00    -0.302 N 
HETATM   19  N4  UNL     1       6.646  58.723   0.293  1.00  0.00    -0.281 N 
ATOM     20  H3  UNL     1       5.220  60.204   0.633  1.00  0.00     0.186 HD
HETATM   21  C10 UNL     1       7.650  59.461  -0.461  1.00  0.00     0.179 C 
ENDBRANCH  12  14
ENDBRANCH   2  10
BRANCH   1  22
HETATM   22  C3  UNL     1       7.593  53.910   2.655  1.00  0.00     0.130 C 
BRANCH  22  23
HETATM   23  C2  UNL     1       6.543  53.447   1.641  1.00  0.00     0.016 C 
HETATM   24  C1  UNL     1       5.177  53.406   2.281  1.00  0.00     0.006 C 
ENDBRANCH  22  23
ENDBRANCH   1  22
BRANCH   7  25
HETATM   25  N6  UNL     1      12.526  50.261   1.802  1.00  0.00    -0.366 N 
ATOM     26  H6  UNL     1      12.300  49.406   1.293  1.00  0.00     0.162 HD
BRANCH  25  27
HETATM   27  C14 UNL     1      13.761  50.359   2.545  1.00  0.00     0.075 C 
HETATM   28  C15 UNL     1      13.854  49.296   3.619  1.00  0.00     0.032 C 
HETATM   29  C16 UNL     1      14.899  50.232   1.547  1.00  0.00     0.032 C 
ENDBRANCH  25  27
ENDBRANCH   7  25
TORSDOF 6
ENDMDL
