MODEL 1
REMARK VINA RESULT: -8.057489862      0.000      0.000
REMARK  5 active torsions:
REMARK  status: ('A' for Active; 'I' for Inactive)
REMARK    1  A    between atoms: C6_10  and  N3_11 
REMARK       I    between atoms: N3_11  and  C7_13 
REMARK    2  A    between atoms: C7_13  and  C8_15 
REMARK    3  A    between atoms: C10_17  and  O2_18 
REMARK    4  A    between atoms: C12_20  and  O3_21 
REMARK    5  A    between atoms: C14_23  and  O4_24 
ROOT
HETATM    1  N3  UNL     1       9.503  55.877  -0.701  1.00  0.00    -0.303 N 
ATOM      2  H3  UNL     1       9.003  55.030  -0.974  1.00  0.00     0.171 HD
HETATM    3  C7  UNL     1       9.088  56.611   0.411  1.00  0.00     0.257 C 
HETATM    4  O1  UNL     1       9.899  57.038   1.267  1.00  0.00    -0.267 OA
ENDROOT
BRANCH   1   5
HETATM    5  C6  UNL     1      10.548  56.286  -1.396  1.00  0.00     0.153 A 
HETATM    6  N2  UNL     1      11.073  57.507  -1.415  1.00  0.00    -0.321 N 
HETATM    7  C5  UNL     1      12.120  57.725  -2.174  1.00  0.00     0.125 A 
ATOM      8  H2  UNL     1      10.672  58.257  -0.851  1.00  0.00     0.169 HD
HETATM    9  N1  UNL     1      12.849  58.977  -2.344  1.00  0.00    -0.351 N 
HETATM   10  C17 UNL     1      12.609  56.680  -2.903  1.00  0.00     0.062 A 
HETATM   11  C4  UNL     1      13.950  59.069  -3.188  1.00  0.00     0.090 A 
ATOM     12  H1  UNL     1      12.543  59.805  -1.832  1.00  0.00     0.166 HD
HETATM   13  C3  UNL     1      14.485  58.110  -3.926  1.00  0.00     0.029 A 
HETATM   14  C2  UNL     1      13.786  56.810  -3.797  1.00  0.00    -0.023 A 
HETATM   15  C1  UNL     1      14.175  55.749  -4.451  1.00  0.00     0.025 C 
HETATM   16  S1  UNL     1      11.544  55.416  -2.472  1.00  0.00    -0.049 SA
ENDBRANCH   1   5
BRANCH   3  17
HETATM   17  C8  UNL     1       7.674  56.901   0.603  1.00  0.00     0.037 A 
HETATM   18  C9  UNL     1       7.154  58.135   0.273  1.00  0.00     0.057 A 
HETATM   19  C10 UNL     1       5.819  58.377   0.467  1.00  0.00     0.105 A 
HETATM   20  C12 UNL     1       5.012  57.386   0.986  1.00  0.00     0.135 A 
HETATM   21  C14 UNL     1       5.498  56.147   1.324  1.00  0.00     0.105 A 
HETATM   22  C16 UNL     1       6.840  55.905   1.129  1.00  0.00     0.057 A 
BRANCH  19  23
HETATM   23  O2  UNL     1       5.315  59.628   0.129  1.00  0.00    -0.353 OA
HETATM   24  C11 UNL     1       5.503  60.739   0.950  1.00  0.00     0.210 C 
ENDBRANCH  19  23
BRANCH  20  25
HETATM   25  O3  UNL     1       3.669  57.669   1.165  1.00  0.00    -0.351 OA
HETATM   26  C13 UNL     1       3.302  58.268   2.407  1.00  0.00     0.210 C 
ENDBRANCH  20  25
BRANCH  21  27
HETATM   27  O4  UNL     1       4.647  55.182   1.843  1.00  0.00    -0.353 OA
HETATM   28  C15 UNL     1       5.006  54.315   2.885  1.00  0.00     0.210 C 
ENDBRANCH  21  27
ENDBRANCH   3  17
TORSDOF 5
ENDMDL
MODEL 2
REMARK VINA RESULT: -8.036694982      0.097      2.523
REMARK  5 active torsions:
REMARK  status: ('A' for Active; 'I' for Inactive)
REMARK    1  A    between atoms: C6_10  and  N3_11 
REMARK       I    between atoms: N3_11  and  C7_13 
REMARK    2  A    between atoms: C7_13  and  C8_15 
REMARK    3  A    between atoms: C10_17  and  O2_18 
REMARK    4  A    between atoms: C12_20  and  O3_21 
REMARK    5  A    between atoms: C14_23  and  O4_24 
ROOT
HETATM    1  N3  UNL     1       9.521  55.876  -0.680  1.00  0.00    -0.303 N 
ATOM      2  H3  UNL     1       9.044  55.013  -0.939  1.00  0.00     0.171 HD
HETATM    3  C7  UNL     1       9.091  56.612   0.426  1.00  0.00     0.257 C 
HETATM    4  O1  UNL     1       9.896  57.073   1.270  1.00  0.00    -0.267 OA
ENDROOT
BRANCH   1   5
HETATM    5  C6  UNL     1      10.548  56.308  -1.388  1.00  0.00     0.153 A 
HETATM    6  N2  UNL     1      11.000  57.556  -1.472  1.00  0.00    -0.321 N 
HETATM    7  C5  UNL     1      12.041  57.792  -2.233  1.00  0.00     0.125 A 
ATOM      8  H2  UNL     1      10.547  58.311  -0.956  1.00  0.00     0.169 HD
HETATM    9  N1  UNL     1      12.697  59.074  -2.467  1.00  0.00    -0.351 N 
HETATM   10  C17 UNL     1      12.601  56.739  -2.896  1.00  0.00     0.062 A 
HETATM   11  C4  UNL     1      13.801  59.185  -3.304  1.00  0.00     0.090 A 
ATOM     12  H1  UNL     1      12.336  59.910  -2.006  1.00  0.00     0.166 HD
HETATM   13  C3  UNL     1      14.402  58.220  -3.982  1.00  0.00     0.029 A 
HETATM   14  C2  UNL     1      13.780  56.889  -3.785  1.00  0.00    -0.023 A 
HETATM   15  C1  UNL     1      14.239  55.819  -4.374  1.00  0.00     0.025 C 
HETATM   16  S1  UNL     1      11.607  55.440  -2.403  1.00  0.00    -0.049 SA
ENDBRANCH   1   5
BRANCH   3  17
HETATM   17  C8  UNL     1       7.671  56.863   0.624  1.00  0.00     0.037 A 
HETATM   18  C9  UNL     1       6.843  55.882   1.129  1.00  0.00     0.057 A 
HETATM   19  C10 UNL     1       5.510  56.151   1.303  1.00  0.00     0.105 A 
HETATM   20  C12 UNL     1       5.013  57.395   0.974  1.00  0.00     0.135 A 
HETATM   21  C14 UNL     1       5.811  58.393   0.469  1.00  0.00     0.105 A 
HETATM   22  C16 UNL     1       7.151  58.121   0.294  1.00  0.00     0.057 A 
BRANCH  19  23
HETATM   23  O2  UNL     1       4.692  55.149   1.813  1.00  0.00    -0.353 OA
HETATM   24  C11 UNL     1       5.051  54.415   2.943  1.00  0.00     0.210 C 
ENDBRANCH  19  23
BRANCH  20  25
HETATM   25  O3  UNL     1       3.662  57.627   1.165  1.00  0.00    -0.351 OA
HETATM   26  C13 UNL     1       3.282  58.187   2.421  1.00  0.00     0.210 C 
ENDBRANCH  20  25
BRANCH  21  27
HETATM   27  O4  UNL     1       5.266  59.628   0.152  1.00  0.00    -0.353 OA
HETATM   28  C15 UNL     1       5.375  60.757   0.977  1.00  0.00     0.210 C 
ENDBRANCH  21  27
ENDBRANCH   3  17
TORSDOF 5
ENDMDL
MODEL 3
REMARK VINA RESULT: -7.978454564      5.456      8.252
REMARK  5 active torsions:
REMARK  status: ('A' for Active; 'I' for Inactive)
REMARK    1  A    between atoms: C6_10  and  N3_11 
REMARK       I    between atoms: N3_11  and  C7_13 
REMARK    2  A    between atoms: C7_13  and  C8_15 
REMARK    3  A    between atoms: C10_17  and  O2_18 
REMARK    4  A    between atoms: C12_20  and  O3_21 
REMARK    5  A    between atoms: C14_23  and  O4_24 
ROOT
HETATM    1  N3  UNL     1       6.457  53.996   1.200  1.00  0.00    -0.303 N 
ATOM      2  H3  UNL     1       6.478  53.459   0.333  1.00  0.00     0.171 HD
HETATM    3  C7  UNL     1       6.838  53.403   2.405  1.00  0.00     0.257 C 
HETATM    4  O1  UNL     1       7.596  53.981   3.220  1.00  0.00    -0.267 OA
ENDROOT
BRANCH   1   5
HETATM    5  C6  UNL     1       6.069  55.258   1.191  1.00  0.00     0.153 A 
HETATM    6  N2  UNL     1       6.702  56.290   0.641  1.00  0.00    -0.321 N 
HETATM    7  C5  UNL     1       6.156  57.479   0.736  1.00  0.00     0.125 A 
ATOM      8  H2  UNL     1       7.591  56.160   0.157  1.00  0.00     0.169 HD
HETATM    9  N1  UNL     1       6.673  58.737   0.210  1.00  0.00    -0.351 N 
HETATM   10  C17 UNL     1       4.967  57.585   1.396  1.00  0.00     0.062 A 
HETATM   11  C4  UNL     1       5.988  59.934   0.383  1.00  0.00     0.090 A 
ATOM     12  H1  UNL     1       7.559  58.740  -0.296  1.00  0.00     0.166 HD
HETATM   13  C3  UNL     1       4.836  60.124   1.007  1.00  0.00     0.029 A 
HETATM   14  C2  UNL     1       4.259  58.879   1.565  1.00  0.00    -0.023 A 
HETATM   15  C1  UNL     1       3.126  58.873   2.213  1.00  0.00     0.025 C 
HETATM   16  S1  UNL     1       4.671  55.968   1.861  1.00  0.00    -0.049 SA
ENDBRANCH   1   5
BRANCH   3  17
HETATM   17  C8  UNL     1       6.350  52.074   2.746  1.00  0.00     0.037 A 
HETATM   18  C9  UNL     1       7.210  51.105   3.220  1.00  0.00     0.057 A 
HETATM   19  C10 UNL     1       6.718  49.864   3.531  1.00  0.00     0.105 A 
HETATM   20  C12 UNL     1       5.375  49.599   3.369  1.00  0.00     0.135 A 
HETATM   21  C14 UNL     1       4.493  50.541   2.900  1.00  0.00     0.105 A 
HETATM   22  C16 UNL     1       4.988  51.788   2.587  1.00  0.00     0.057 A 
BRANCH  19  23
HETATM   23  O2  UNL     1       7.602  48.901   4.007  1.00  0.00    -0.353 OA
HETATM   24  C11 UNL     1       8.393  48.144   3.144  1.00  0.00     0.210 C 
ENDBRANCH  19  23
BRANCH  20  25
HETATM   25  O3  UNL     1       4.918  48.334   3.696  1.00  0.00    -0.351 OA
HETATM   26  C13 UNL     1       4.459  48.145   5.034  1.00  0.00     0.210 C 
ENDBRANCH  20  25
BRANCH  21  27
HETATM   27  O4  UNL     1       3.150  50.227   2.754  1.00  0.00    -0.353 OA
HETATM   28  C15 UNL     1       2.618  49.623   1.605  1.00  0.00     0.210 C 
ENDBRANCH  21  27
ENDBRANCH   3  17
TORSDOF 5
ENDMDL
MODEL 4
REMARK VINA RESULT: -7.954613073      4.755      9.192
REMARK  5 active torsions:
REMARK  status: ('A' for Active; 'I' for Inactive)
REMARK    1  A    between atoms: C6_10  and  N3_11 
REMARK       I    between atoms: N3_11  and  C7_13 
REMARK    2  A    between atoms: C7_13  and  C8_15 
REMARK    3  A    between atoms: C10_17  and  O2_18 
REMARK    4  A    between atoms: C12_20  and  O3_21 
REMARK    5  A    between atoms: C14_23  and  O4_24 
ROOT
HETATM    1  N3  UNL     1       5.445  52.733   1.537  1.00  0.00    -0.303 N 
ATOM      2  H3  UNL     1       5.418  52.741   0.518  1.00  0.00     0.171 HD
HETATM    3  C7  UNL     1       5.708  53.908   2.242  1.00  0.00     0.257 C 
HETATM    4  O1  UNL     1       5.034  54.247   3.244  1.00  0.00    -0.267 OA
ENDROOT
BRANCH   1   5
HETATM    5  C6  UNL     1       5.232  51.612   2.200  1.00  0.00     0.153 A 
HETATM    6  N2  UNL     1       4.091  51.205   2.748  1.00  0.00    -0.321 N 
HETATM    7  C5  UNL     1       4.074  50.052   3.372  1.00  0.00     0.125 A 
ATOM      8  H2  UNL     1       3.248  51.778   2.685  1.00  0.00     0.169 HD
HETATM    9  N1  UNL     1       2.940  49.419   4.038  1.00  0.00    -0.351 N 
HETATM   10  C17 UNL     1       5.233  49.335   3.421  1.00  0.00     0.062 A 
HETATM   11  C4  UNL     1       3.062  48.185   4.665  1.00  0.00     0.090 A 
ATOM     12  H1  UNL     1       2.038  49.895   4.045  1.00  0.00     0.166 HD
HETATM   13  C3  UNL     1       4.143  47.428   4.758  1.00  0.00     0.029 A 
HETATM   14  C2  UNL     1       5.332  48.018   4.099  1.00  0.00    -0.023 A 
HETATM   15  C1  UNL     1       6.488  47.413   4.089  1.00  0.00     0.025 C 
HETATM   16  S1  UNL     1       6.314  50.346   2.567  1.00  0.00    -0.049 SA
ENDBRANCH   1   5
BRANCH   3  17
HETATM   17  C8  UNL     1       6.794  54.782   1.820  1.00  0.00     0.037 A 
HETATM   18  C9  UNL     1       6.533  55.999   1.226  1.00  0.00     0.057 A 
HETATM   19  C10 UNL     1       7.578  56.797   0.839  1.00  0.00     0.105 A 
HETATM   20  C12 UNL     1       8.875  56.376   1.048  1.00  0.00     0.135 A 
HETATM   21  C14 UNL     1       9.169  55.170   1.636  1.00  0.00     0.105 A 
HETATM   22  C16 UNL     1       8.117  54.369   2.025  1.00  0.00     0.057 A 
BRANCH  19  23
HETATM   23  O2  UNL     1       7.293  58.020   0.242  1.00  0.00    -0.353 OA
HETATM   24  C11 UNL     1       6.171  58.765   0.600  1.00  0.00     0.210 C 
ENDBRANCH  19  23
BRANCH  20  25
HETATM   25  O3  UNL     1       9.902  57.211   0.644  1.00  0.00    -0.351 OA
HETATM   26  C13 UNL     1      10.312  57.107  -0.719  1.00  0.00     0.210 C 
ENDBRANCH  20  25
BRANCH  21  27
HETATM   27  O4  UNL     1      10.489  54.790   1.825  1.00  0.00    -0.353 OA
HETATM   28  C15 UNL     1      10.921  53.456   1.798  1.00  0.00     0.210 C 
ENDBRANCH  21  27
ENDBRANCH   3  17
TORSDOF 5
ENDMDL
MODEL 5
REMARK VINA RESULT: -7.953857071      4.729      9.406
REMARK  5 active torsions:
REMARK  status: ('A' for Active; 'I' for Inactive)
REMARK    1  A    between atoms: C6_10  and  N3_11 
REMARK       I    between atoms: N3_11  and  C7_13 
REMARK    2  A    between atoms: C7_13  and  C8_15 
REMARK    3  A    between atoms: C10_17  and  O2_18 
REMARK    4  A    between atoms: C12_20  and  O3_21 
REMARK    5  A    between atoms: C14_23  and  O4_24 
ROOT
HETATM    1  N3  UNL     1       5.490  52.801   1.576  1.00  0.00    -0.303 N 
ATOM      2  H3  UNL     1       5.409  52.840   0.560  1.00  0.00     0.171 HD
HETATM    3  C7  UNL     1       5.828  53.946   2.299  1.00  0.00     0.257 C 
HETATM    4  O1  UNL     1       5.220  54.275   3.345  1.00  0.00    -0.267 OA
ENDROOT
BRANCH   1   5
HETATM    5  C6  UNL     1       5.275  51.667   2.217  1.00  0.00     0.153 A 
HETATM    6  N2  UNL     1       4.132  51.250   2.754  1.00  0.00    -0.321 N 
HETATM    7  C5  UNL     1       4.114  50.085   3.356  1.00  0.00     0.125 A 
ATOM      8  H2  UNL     1       3.289  51.823   2.699  1.00  0.00     0.169 HD
HETATM    9  N1  UNL     1       2.979  49.440   4.006  1.00  0.00    -0.351 N 
HETATM   10  C17 UNL     1       5.274  49.368   3.395  1.00  0.00     0.062 A 
HETATM   11  C4  UNL     1       3.098  48.194   4.610  1.00  0.00     0.090 A 
ATOM     12  H1  UNL     1       2.075  49.915   4.019  1.00  0.00     0.166 HD
HETATM   13  C3  UNL     1       4.180  47.436   4.693  1.00  0.00     0.029 A 
HETATM   14  C2  UNL     1       5.370  48.039   4.049  1.00  0.00    -0.023 A 
HETATM   15  C1  UNL     1       6.527  47.434   4.031  1.00  0.00     0.025 C 
HETATM   16  S1  UNL     1       6.356  50.395   2.564  1.00  0.00    -0.049 SA
ENDBRANCH   1   5
BRANCH   3  17
HETATM   17  C8  UNL     1       6.919  54.797   1.844  1.00  0.00     0.037 A 
HETATM   18  C9  UNL     1       8.233  54.422   2.027  1.00  0.00     0.057 A 
HETATM   19  C10 UNL     1       9.236  55.247   1.587  1.00  0.00     0.105 A 
HETATM   20  C12 UNL     1       8.920  56.437   0.966  1.00  0.00     0.135 A 
HETATM   21  C14 UNL     1       7.622  56.839   0.767  1.00  0.00     0.105 A 
HETATM   22  C16 UNL     1       6.615  56.009   1.210  1.00  0.00     0.057 A 
BRANCH  19  23
HETATM   23  O2  UNL     1      10.554  54.851   1.783  1.00  0.00    -0.353 OA
HETATM   24  C11 UNL     1      10.923  53.506   1.780  1.00  0.00     0.210 C 
ENDBRANCH  19  23
BRANCH  20  25
HETATM   25  O3  UNL     1       9.961  57.241   0.535  1.00  0.00    -0.351 OA
HETATM   26  C13 UNL     1      10.365  57.089  -0.825  1.00  0.00     0.210 C 
ENDBRANCH  20  25
BRANCH  21  27
HETATM   27  O4  UNL     1       7.355  58.045   0.137  1.00  0.00    -0.353 OA
HETATM   28  C15 UNL     1       6.330  58.916   0.538  1.00  0.00     0.210 C 
ENDBRANCH  21  27
ENDBRANCH   3  17
TORSDOF 5
ENDMDL
