MODEL 1
REMARK VINA RESULT: -9.946441259      0.000      0.000
REMARK  6 active torsions:
REMARK  status: ('A' for Active; 'I' for Inactive)
REMARK    1  A    between atoms: C1_2  and  C2_3 
REMARK       I    between atoms: C1_2  and  N2_18 
REMARK    2  A    between atoms: C2_3  and  C3_4 
REMARK    3  A    between atoms: N1_12  and  O2_13 
REMARK    4  A    between atoms: C11_15  and  O3_16 
REMARK    5  A    between atoms: N2_18  and  N3_19 
REMARK    6  A    between atoms: C12_21  and  C13_22 
ROOT
HETATM    1  O1  UNL     1      10.265  56.125   1.707  1.00  0.00    -0.255 OA
HETATM    2  C1  UNL     1       9.204  55.681   1.194  1.00  0.00     0.316 C 
HETATM    3  N2  UNL     1       8.470  54.638   1.612  1.00  0.00    -0.287 NA
ENDROOT
BRANCH   2   4
HETATM    4  C2  UNL     1       8.729  56.447  -0.058  1.00  0.00     0.164 C 
BRANCH   4   5
HETATM    5  C3  UNL     1       7.559  57.262   0.311  1.00  0.00     0.006 A 
HETATM    6  C4  UNL     1       6.423  56.777   0.910  1.00  0.00     0.026 A 
HETATM    7  C5  UNL     1       5.364  57.610   1.243  1.00  0.00    -0.006 A 
HETATM    8  C6  UNL     1       4.208  57.135   1.855  1.00  0.00     0.014 A 
HETATM    9  C10 UNL     1       5.477  58.953   0.958  1.00  0.00     0.075 A 
HETATM   10  C7  UNL     1       3.158  57.963   2.191  1.00  0.00     0.001 A 
HETATM   11  C8  UNL     1       3.267  59.322   1.906  1.00  0.00     0.002 A 
HETATM   12  C9  UNL     1       4.426  59.776   1.296  1.00  0.00     0.033 A 
HETATM   13  N1  UNL     1       6.601  59.448   0.363  1.00  0.00    -0.201 N 
HETATM   14  C11 UNL     1       7.609  58.617   0.053  1.00  0.00     0.174 A 
BRANCH  13  15
HETATM   15  O2  UNL     1       6.701  60.790   0.084  1.00  0.00    -0.280 OA
ATOM     16  H2  UNL     1       7.429  61.118  -0.431  1.00  0.00     0.245 HD
ENDBRANCH  13  15
BRANCH  14  17
HETATM   17  O3  UNL     1       8.741  59.142  -0.551  1.00  0.00    -0.344 OA
ATOM     18  H3  UNL     1       8.635  59.769  -1.258  1.00  0.00     0.219 HD
ENDBRANCH  14  17
ENDBRANCH   4   5
ENDBRANCH   2   4
BRANCH   3  19
HETATM   19  N3  UNL     1       7.750  53.612   2.021  1.00  0.00    -0.241 N 
HETATM   20  C12 UNL     1       8.010  52.452   2.440  1.00  0.00     0.158 C 
ATOM     21  H3  UNL     1       6.748  53.801   1.991  1.00  0.00     0.201 HD
BRANCH  20  22
HETATM   22  C13 UNL     1       6.858  51.603   2.794  1.00  0.00     0.094 A 
HETATM   23  C14 UNL     1       5.601  51.697   2.239  1.00  0.00     0.053 A 
HETATM   24  C15 UNL     1       4.793  50.740   2.817  1.00  0.00     0.000 A 
HETATM   25  C16 UNL     1       3.480  50.362   2.672  1.00  0.00     0.014 A 
HETATM   26  C20 UNL     1       5.639  50.100   3.723  1.00  0.00     0.086 A 
HETATM   27  C17 UNL     1       2.944  49.337   3.412  1.00  0.00     0.001 A 
HETATM   28  C18 UNL     1       3.764  48.680   4.323  1.00  0.00     0.003 A 
HETATM   29  C19 UNL     1       5.071  49.079   4.447  1.00  0.00     0.038 A 
HETATM   30  O4  UNL     1       6.835  50.644   3.670  1.00  0.00    -0.308 OA
ENDBRANCH  20  22
ENDBRANCH   3  19
TORSDOF 6
ENDMDL
MODEL 2
REMARK VINA RESULT: -9.851627398      0.492      1.089
REMARK  6 active torsions:
REMARK  status: ('A' for Active; 'I' for Inactive)
REMARK    1  A    between atoms: C1_2  and  C2_3 
REMARK       I    between atoms: C1_2  and  N2_18 
REMARK    2  A    between atoms: C2_3  and  C3_4 
REMARK    3  A    between atoms: N1_12  and  O2_13 
REMARK    4  A    between atoms: C11_15  and  O3_16 
REMARK    5  A    between atoms: N2_18  and  N3_19 
REMARK    6  A    between atoms: C12_21  and  C13_22 
ROOT
HETATM    1  O1  UNL     1      10.261  56.123   1.736  1.00  0.00    -0.255 OA
HETATM    2  C1  UNL     1       9.215  55.675   1.196  1.00  0.00     0.316 C 
HETATM    3  N2  UNL     1       8.487  54.616   1.581  1.00  0.00    -0.287 NA
ENDROOT
BRANCH   2   4
HETATM    4  C2  UNL     1       8.753  56.458  -0.050  1.00  0.00     0.164 C 
BRANCH   4   5
HETATM    5  C3  UNL     1       7.576  57.265   0.317  1.00  0.00     0.006 A 
HETATM    6  C4  UNL     1       6.440  56.770   0.909  1.00  0.00     0.026 A 
HETATM    7  C5  UNL     1       5.374  57.594   1.241  1.00  0.00    -0.006 A 
HETATM    8  C6  UNL     1       4.219  57.109   1.846  1.00  0.00     0.014 A 
HETATM    9  C10 UNL     1       5.480  58.939   0.962  1.00  0.00     0.075 A 
HETATM   10  C7  UNL     1       3.162  57.929   2.181  1.00  0.00     0.001 A 
HETATM   11  C8  UNL     1       3.264  59.290   1.901  1.00  0.00     0.002 A 
HETATM   12  C9  UNL     1       4.422  59.754   1.298  1.00  0.00     0.033 A 
HETATM   13  N1  UNL     1       6.603  59.444   0.374  1.00  0.00    -0.201 N 
HETATM   14  C11 UNL     1       7.618  58.621   0.065  1.00  0.00     0.174 A 
BRANCH  13  15
HETATM   15  O2  UNL     1       6.696  60.788   0.101  1.00  0.00    -0.280 OA
ATOM     16  H2  UNL     1       5.964  61.247  -0.293  1.00  0.00     0.245 HD
ENDBRANCH  13  15
BRANCH  14  17
HETATM   17  O3  UNL     1       8.750  59.156  -0.531  1.00  0.00    -0.344 OA
ATOM     18  H3  UNL     1       9.605  58.874  -0.228  1.00  0.00     0.219 HD
ENDBRANCH  14  17
ENDBRANCH   4   5
ENDBRANCH   2   4
BRANCH   3  19
HETATM   19  N3  UNL     1       7.773  53.573   1.959  1.00  0.00    -0.241 N 
HETATM   20  C12 UNL     1       8.032  52.373   2.244  1.00  0.00     0.158 C 
ATOM     21  H3  UNL     1       6.779  53.788   2.038  1.00  0.00     0.201 HD
BRANCH  20  22
HETATM   22  C13 UNL     1       6.888  51.523   2.623  1.00  0.00     0.094 A 
HETATM   23  C14 UNL     1       6.927  50.505   3.551  1.00  0.00     0.053 A 
HETATM   24  C15 UNL     1       5.671  49.943   3.638  1.00  0.00     0.000 A 
HETATM   25  C16 UNL     1       5.113  48.923   4.370  1.00  0.00     0.014 A 
HETATM   26  C20 UNL     1       4.917  50.679   2.724  1.00  0.00     0.086 A 
HETATM   27  C17 UNL     1       3.789  48.584   4.236  1.00  0.00     0.001 A 
HETATM   28  C18 UNL     1       3.013  49.302   3.331  1.00  0.00     0.003 A 
HETATM   29  C19 UNL     1       3.596  50.314   2.613  1.00  0.00     0.038 A 
HETATM   30  O4  UNL     1       5.677  51.590   2.157  1.00  0.00    -0.308 OA
ENDBRANCH  20  22
ENDBRANCH   3  19
TORSDOF 6
ENDMDL
MODEL 3
REMARK VINA RESULT: -9.831695856      3.925      5.778
REMARK  6 active torsions:
REMARK  status: ('A' for Active; 'I' for Inactive)
REMARK    1  A    between atoms: C1_2  and  C2_3 
REMARK       I    between atoms: C1_2  and  N2_18 
REMARK    2  A    between atoms: C2_3  and  C3_4 
REMARK    3  A    between atoms: N1_12  and  O2_13 
REMARK    4  A    between atoms: C11_15  and  O3_16 
REMARK    5  A    between atoms: N2_18  and  N3_19 
REMARK    6  A    between atoms: C12_21  and  C13_22 
ROOT
HETATM    1  O1  UNL     1       6.423  54.338   4.146  1.00  0.00    -0.255 OA
HETATM    2  C1  UNL     1       6.780  53.797   3.066  1.00  0.00     0.316 C 
HETATM    3  N2  UNL     1       7.912  53.116   2.831  1.00  0.00    -0.287 NA
ENDROOT
BRANCH   2   4
HETATM    4  C2  UNL     1       5.778  53.962   1.905  1.00  0.00     0.164 C 
BRANCH   4   5
HETATM    5  C3  UNL     1       5.576  55.401   1.666  1.00  0.00     0.006 A 
HETATM    6  C4  UNL     1       6.458  56.217   1.000  1.00  0.00     0.026 A 
HETATM    7  C5  UNL     1       6.193  57.564   0.799  1.00  0.00    -0.006 A 
HETATM    8  C6  UNL     1       7.074  58.402   0.122  1.00  0.00     0.014 A 
HETATM    9  C10 UNL     1       5.011  58.075   1.286  1.00  0.00     0.075 A 
HETATM   10  C7  UNL     1       6.809  59.739  -0.083  1.00  0.00     0.001 A 
HETATM   11  C8  UNL     1       5.614  60.261   0.407  1.00  0.00     0.002 A 
HETATM   12  C9  UNL     1       4.750  59.411   1.079  1.00  0.00     0.033 A 
HETATM   13  N1  UNL     1       4.126  57.276   1.950  1.00  0.00    -0.201 N 
HETATM   14  C11 UNL     1       4.410  55.976   2.128  1.00  0.00     0.174 A 
BRANCH  13  15
HETATM   15  O2  UNL     1       2.949  57.798   2.430  1.00  0.00    -0.280 OA
ATOM     16  H2  UNL     1       2.198  57.233   2.574  1.00  0.00     0.245 HD
ENDBRANCH  13  15
BRANCH  14  17
HETATM   17  O3  UNL     1       3.496  55.183   2.805  1.00  0.00    -0.344 OA
ATOM     18  H3  UNL     1       3.733  54.834   3.656  1.00  0.00     0.219 HD
ENDBRANCH  14  17
ENDBRANCH   4   5
ENDBRANCH   2   4
BRANCH   3  19
HETATM   19  N3  UNL     1       9.026  52.449   2.598  1.00  0.00    -0.241 N 
HETATM   20  C12 UNL     1       9.399  51.613   1.732  1.00  0.00     0.158 C 
ATOM     21  H3  UNL     1       9.756  52.658   3.279  1.00  0.00     0.201 HD
BRANCH  20  22
HETATM   22  C13 UNL     1      10.776  51.101   1.858  1.00  0.00     0.094 A 
HETATM   23  C14 UNL     1      11.899  51.702   1.334  1.00  0.00     0.053 A 
HETATM   24  C15 UNL     1      12.999  50.936   1.657  1.00  0.00     0.000 A 
HETATM   25  C16 UNL     1      14.349  51.026   1.420  1.00  0.00     0.014 A 
HETATM   26  C20 UNL     1      12.457  49.875   2.384  1.00  0.00     0.086 A 
HETATM   27  C17 UNL     1      15.225  50.078   1.888  1.00  0.00     0.001 A 
HETATM   28  C18 UNL     1      14.713  49.009   2.616  1.00  0.00     0.003 A 
HETATM   29  C19 UNL     1      13.361  48.943   2.838  1.00  0.00     0.038 A 
HETATM   30  O4  UNL     1      11.153  50.020   2.471  1.00  0.00    -0.308 OA
ENDBRANCH  20  22
ENDBRANCH   3  19
TORSDOF 6
ENDMDL
MODEL 4
REMARK VINA RESULT: -9.733969155      1.992      2.954
REMARK  6 active torsions:
REMARK  status: ('A' for Active; 'I' for Inactive)
REMARK    1  A    between atoms: C1_2  and  C2_3 
REMARK       I    between atoms: C1_2  and  N2_18 
REMARK    2  A    between atoms: C2_3  and  C3_4 
REMARK    3  A    between atoms: N1_12  and  O2_13 
REMARK    4  A    between atoms: C11_15  and  O3_16 
REMARK    5  A    between atoms: N2_18  and  N3_19 
REMARK    6  A    between atoms: C12_21  and  C13_22 
ROOT
HETATM    1  O1  UNL     1       7.241  54.909   4.001  1.00  0.00    -0.255 OA
HETATM    2  C1  UNL     1       6.880  54.012   3.193  1.00  0.00     0.316 C 
HETATM    3  N2  UNL     1       6.124  52.935   3.454  1.00  0.00    -0.287 NA
ENDROOT
BRANCH   2   4
HETATM    4  C2  UNL     1       7.391  54.207   1.751  1.00  0.00     0.164 C 
BRANCH   4   5
HETATM    5  C3  UNL     1       7.094  55.589   1.336  1.00  0.00     0.006 A 
HETATM    6  C4  UNL     1       5.910  56.242   1.574  1.00  0.00     0.026 A 
HETATM    7  C5  UNL     1       5.706  57.553   1.165  1.00  0.00    -0.006 A 
HETATM    8  C6  UNL     1       4.514  58.230   1.403  1.00  0.00     0.014 A 
HETATM    9  C10 UNL     1       6.731  58.195   0.506  1.00  0.00     0.075 A 
HETATM   10  C7  UNL     1       4.314  59.534   1.001  1.00  0.00     0.001 A 
HETATM   11  C8  UNL     1       5.348  60.189   0.335  1.00  0.00     0.002 A 
HETATM   12  C9  UNL     1       6.527  59.498   0.107  1.00  0.00     0.033 A 
HETATM   13  N1  UNL     1       7.913  57.558   0.263  1.00  0.00    -0.201 N 
HETATM   14  C11 UNL     1       8.080  56.291   0.672  1.00  0.00     0.174 A 
BRANCH  13  15
HETATM   15  O2  UNL     1       8.928  58.211  -0.394  1.00  0.00    -0.280 OA
ATOM     16  H2  UNL     1       9.158  59.102  -0.154  1.00  0.00     0.245 HD
ENDBRANCH  13  15
BRANCH  14  17
HETATM   17  O3  UNL     1       9.289  55.663   0.414  1.00  0.00    -0.344 OA
ATOM     18  H3  UNL     1       9.404  54.759   0.684  1.00  0.00     0.219 HD
ENDBRANCH  14  17
ENDBRANCH   4   5
ENDBRANCH   2   4
BRANCH   3  19
HETATM   19  N3  UNL     1       5.381  51.875   3.711  1.00  0.00    -0.241 N 
HETATM   20  C12 UNL     1       5.536  50.630   3.593  1.00  0.00     0.158 C 
ATOM     21  H3  UNL     1       4.469  52.121   4.095  1.00  0.00     0.201 HD
BRANCH  20  22
HETATM   22  C13 UNL     1       4.406  49.781   4.011  1.00  0.00     0.094 A 
HETATM   23  C14 UNL     1       3.259  49.566   3.278  1.00  0.00     0.053 A 
HETATM   24  C15 UNL     1       2.437  48.717   3.989  1.00  0.00     0.000 A 
HETATM   25  C16 UNL     1       1.200  48.159   3.775  1.00  0.00     0.014 A 
HETATM   26  C20 UNL     1       3.160  48.459   5.154  1.00  0.00     0.086 A 
HETATM   27  C17 UNL     1       0.621  47.322   4.697  1.00  0.00     0.001 A 
HETATM   28  C18 UNL     1       1.320  47.046   5.868  1.00  0.00     0.003 A 
HETATM   29  C19 UNL     1       2.552  47.618   6.057  1.00  0.00     0.038 A 
HETATM   30  O4  UNL     1       4.304  49.106   5.117  1.00  0.00    -0.308 OA
ENDBRANCH  20  22
ENDBRANCH   3  19
TORSDOF 6
ENDMDL
MODEL 5
REMARK VINA RESULT: -9.706165350      2.282      8.897
REMARK  6 active torsions:
REMARK  status: ('A' for Active; 'I' for Inactive)
REMARK    1  A    between atoms: C1_2  and  C2_3 
REMARK       I    between atoms: C1_2  and  N2_18 
REMARK    2  A    between atoms: C2_3  and  C3_4 
REMARK    3  A    between atoms: N1_12  and  O2_13 
REMARK    4  A    between atoms: C11_15  and  O3_16 
REMARK    5  A    between atoms: N2_18  and  N3_19 
REMARK    6  A    between atoms: C12_21  and  C13_22 
ROOT
HETATM    1  O1  UNL     1       8.375  50.569   4.019  1.00  0.00    -0.255 OA
HETATM    2  C1  UNL     1       7.624  50.880   3.057  1.00  0.00     0.316 C 
HETATM    3  N2  UNL     1       7.337  52.113   2.611  1.00  0.00    -0.287 NA
ENDROOT
BRANCH   2   4
HETATM    4  C2  UNL     1       6.974  49.680   2.339  1.00  0.00     0.164 C 
BRANCH   4   5
HETATM    5  C3  UNL     1       5.731  49.330   3.050  1.00  0.00     0.006 A 
HETATM    6  C4  UNL     1       5.652  48.456   4.106  1.00  0.00     0.026 A 
HETATM    7  C5  UNL     1       4.446  48.185   4.738  1.00  0.00    -0.006 A 
HETATM    8  C6  UNL     1       4.350  47.306   5.812  1.00  0.00     0.014 A 
HETATM    9  C10 UNL     1       3.314  48.821   4.278  1.00  0.00     0.075 A 
HETATM   10  C7  UNL     1       3.153  47.042   6.443  1.00  0.00     0.001 A 
HETATM   11  C8  UNL     1       2.005  47.682   5.983  1.00  0.00     0.002 A 
HETATM   12  C9  UNL     1       2.120  48.554   4.911  1.00  0.00     0.033 A 
HETATM   13  N1  UNL     1       3.379  49.691   3.229  1.00  0.00    -0.201 N 
HETATM   14  C11 UNL     1       4.560  49.933   2.639  1.00  0.00     0.174 A 
BRANCH  13  15
HETATM   15  O2  UNL     1       2.241  50.319   2.781  1.00  0.00    -0.280 OA
ATOM     16  H2  UNL     1       2.168  51.265   2.827  1.00  0.00     0.245 HD
ENDBRANCH  13  15
BRANCH  14  17
HETATM   17  O3  UNL     1       4.602  50.822   1.576  1.00  0.00    -0.344 OA
ATOM     18  H3  UNL     1       3.927  51.487   1.506  1.00  0.00     0.219 HD
ENDBRANCH  14  17
ENDBRANCH   4   5
ENDBRANCH   2   4
BRANCH   3  19
HETATM   19  N3  UNL     1       7.054  53.324   2.174  1.00  0.00    -0.241 N 
HETATM   20  C12 UNL     1       6.014  53.899   1.754  1.00  0.00     0.158 C 
ATOM     21  H3  UNL     1       7.867  53.941   2.178  1.00  0.00     0.201 HD
BRANCH  20  22
HETATM   22  C13 UNL     1       6.156  55.309   1.349  1.00  0.00     0.094 A 
HETATM   23  C14 UNL     1       5.147  56.248   1.370  1.00  0.00     0.053 A 
HETATM   24  C15 UNL     1       5.657  57.450   0.927  1.00  0.00     0.000 A 
HETATM   25  C16 UNL     1       5.144  58.710   0.736  1.00  0.00     0.014 A 
HETATM   26  C20 UNL     1       6.994  57.159   0.653  1.00  0.00     0.086 A 
HETATM   27  C17 UNL     1       5.925  59.739   0.270  1.00  0.00     0.001 A 
HETATM   28  C18 UNL     1       7.262  59.478  -0.011  1.00  0.00     0.003 A 
HETATM   29  C19 UNL     1       7.747  58.211   0.188  1.00  0.00     0.038 A 
HETATM   30  O4  UNL     1       7.233  55.893   0.917  1.00  0.00    -0.308 OA
ENDBRANCH  20  22
ENDBRANCH   3  19
TORSDOF 6
ENDMDL
