MODEL 1
REMARK VINA RESULT: -9.574882008      0.000      0.000
REMARK  6 active torsions:
REMARK  status: ('A' for Active; 'I' for Inactive)
REMARK    1  A    between atoms: O1_2  and  C2_3 
REMARK    2  A    between atoms: C7_8  and  N1_9 
REMARK    3  A    between atoms: N1_9  and  C8_11 
REMARK    4  A    between atoms: C13_17  and  N2_18 
REMARK    5  A    between atoms: N2_18  and  N3_20 
REMARK    6  A    between atoms: C14_22  and  C15_23 
ROOT
HETATM    1  C8  UNL     1       5.432  50.798   2.595  1.00  0.00     0.120 C 
HETATM    2  C9  UNL     1       6.800  50.954   2.506  1.00  0.00     0.060 C 
HETATM    3  C10 UNL     1       7.597  52.093   2.647  1.00  0.00    -0.004 C 
HETATM    4  C11 UNL     1       9.041  51.873   2.819  1.00  0.00     0.052 C 
HETATM    5  C12 UNL     1       7.103  53.385   2.634  1.00  0.00     0.224 C 
HETATM    6  O2  UNL     1       7.985  54.257   2.467  1.00  0.00    -0.284 OA
HETATM    7  C13 UNL     1       5.777  53.813   2.780  1.00  0.00     0.186 C 
HETATM    8  N4  UNL     1       4.662  53.070   2.867  1.00  0.00    -0.280 N 
ATOM      9  H4  UNL     1       3.807  53.604   3.024  1.00  0.00     0.189 HD
HETATM   10  N5  UNL     1       4.484  51.762   2.784  1.00  0.00    -0.284 N 
ATOM     11  H5  UNL     1       3.523  51.434   2.872  1.00  0.00     0.188 HD
ENDROOT
BRANCH   7  12
HETATM   12  N2  UNL     1       5.617  55.090   2.839  1.00  0.00    -0.281 N 
ATOM     13  H2  UNL     1       6.414  55.632   3.172  1.00  0.00     0.188 HD
BRANCH  12  14
HETATM   14  N3  UNL     1       4.513  55.790   2.509  1.00  0.00    -0.309 N 
HETATM   15  C14 UNL     1       4.355  56.823   1.835  1.00  0.00     0.118 C 
ATOM     16  H3  UNL     1       3.647  55.401   2.883  1.00  0.00     0.186 HD
BRANCH  15  17
HETATM   17  C15 UNL     1       5.361  57.631   1.163  1.00  0.00    -0.019 A 
HETATM   18  C16 UNL     1       6.603  57.216   0.786  1.00  0.00     0.013 A 
HETATM   19  C17 UNL     1       7.541  58.035   0.138  1.00  0.00     0.001 A 
HETATM   20  C18 UNL     1       7.161  59.325  -0.119  1.00  0.00     0.000 A 
HETATM   21  C19 UNL     1       5.925  59.816   0.231  1.00  0.00     0.001 A 
HETATM   22  C20 UNL     1       5.057  58.967   0.860  1.00  0.00     0.013 A 
ENDBRANCH  15  17
ENDBRANCH  12  14
ENDBRANCH   7  12
BRANCH   1  23
HETATM   23  N1  UNL     1       4.929  49.615   2.495  1.00  0.00    -0.339 N 
ATOM     24  H1  UNL     1       5.122  49.073   1.652  1.00  0.00     0.167 HD
BRANCH  23  25
HETATM   25  C7  UNL     1       4.127  49.038   3.496  1.00  0.00     0.067 A 
HETATM   26  C2  UNL     1       4.700  48.315   4.548  1.00  0.00     0.094 A 
HETATM   27  C3  UNL     1       3.904  47.766   5.505  1.00  0.00     0.039 A 
HETATM   28  C4  UNL     1       2.527  47.920   5.440  1.00  0.00     0.003 A 
HETATM   29  C5  UNL     1       1.943  48.625   4.416  1.00  0.00     0.002 A 
HETATM   30  C6  UNL     1       2.759  49.176   3.453  1.00  0.00     0.032 A 
BRANCH  26  31
HETATM   31  O1  UNL     1       6.085  48.213   4.531  1.00  0.00    -0.354 OA
HETATM   32  C1  UNL     1       6.673  47.042   3.996  1.00  0.00     0.210 C 
ENDBRANCH  26  31
ENDBRANCH  23  25
ENDBRANCH   1  23
TORSDOF 6
ENDMDL
MODEL 2
REMARK VINA RESULT: -9.567207100      0.967      1.718
REMARK  6 active torsions:
REMARK  status: ('A' for Active; 'I' for Inactive)
REMARK    1  A    between atoms: O1_2  and  C2_3 
REMARK    2  A    between atoms: C7_8  and  N1_9 
REMARK    3  A    between atoms: N1_9  and  C8_11 
REMARK    4  A    between atoms: C13_17  and  N2_18 
REMARK    5  A    between atoms: N2_18  and  N3_20 
REMARK    6  A    between atoms: C14_22  and  C15_23 
ROOT
HETATM    1  C8  UNL     1       5.509  50.643   2.626  1.00  0.00     0.120 C 
HETATM    2  C9  UNL     1       6.870  50.846   2.544  1.00  0.00     0.060 C 
HETATM    3  C10 UNL     1       7.627  52.012   2.692  1.00  0.00    -0.004 C 
HETATM    4  C11 UNL     1       9.077  51.842   2.871  1.00  0.00     0.052 C 
HETATM    5  C12 UNL     1       7.089  53.286   2.677  1.00  0.00     0.224 C 
HETATM    6  O2  UNL     1       7.941  54.188   2.517  1.00  0.00    -0.284 OA
HETATM    7  C13 UNL     1       5.748  53.668   2.817  1.00  0.00     0.186 C 
HETATM    8  N4  UNL     1       4.659  52.886   2.897  1.00  0.00    -0.280 N 
ATOM      9  H4  UNL     1       3.786  53.391   3.050  1.00  0.00     0.189 HD
HETATM   10  N5  UNL     1       4.527  51.574   2.811  1.00  0.00    -0.284 N 
ATOM     11  H5  UNL     1       3.577  51.213   2.893  1.00  0.00     0.188 HD
ENDROOT
BRANCH   7  12
HETATM   12  N2  UNL     1       5.544  54.938   2.877  1.00  0.00    -0.281 N 
ATOM     13  H2  UNL     1       6.322  55.507   3.209  1.00  0.00     0.188 HD
BRANCH  12  14
HETATM   14  N3  UNL     1       4.416  55.600   2.549  1.00  0.00    -0.309 N 
HETATM   15  C14 UNL     1       4.222  56.639   1.894  1.00  0.00     0.118 C 
ATOM     16  H3  UNL     1       3.563  55.169   2.906  1.00  0.00     0.186 HD
BRANCH  15  17
HETATM   17  C15 UNL     1       5.202  57.501   1.249  1.00  0.00    -0.019 A 
HETATM   18  C16 UNL     1       6.451  57.135   0.847  1.00  0.00     0.013 A 
HETATM   19  C17 UNL     1       7.362  58.004   0.227  1.00  0.00     0.001 A 
HETATM   20  C18 UNL     1       6.946  59.293   0.025  1.00  0.00     0.000 A 
HETATM   21  C19 UNL     1       5.700  59.736   0.403  1.00  0.00     0.001 A 
HETATM   22  C20 UNL     1       4.860  58.839   1.003  1.00  0.00     0.013 A 
ENDBRANCH  15  17
ENDBRANCH  12  14
ENDBRANCH   7  12
BRANCH   1  23
HETATM   23  N1  UNL     1       5.047  49.443   2.521  1.00  0.00    -0.339 N 
ATOM     24  H1  UNL     1       4.895  49.060   1.588  1.00  0.00     0.167 HD
BRANCH  23  25
HETATM   25  C7  UNL     1       4.744  48.641   3.635  1.00  0.00     0.067 A 
HETATM   26  C2  UNL     1       3.437  48.558   4.127  1.00  0.00     0.094 A 
HETATM   27  C3  UNL     1       3.167  47.776   5.206  1.00  0.00     0.039 A 
HETATM   28  C4  UNL     1       4.184  47.061   5.822  1.00  0.00     0.003 A 
HETATM   29  C5  UNL     1       5.475  47.128   5.356  1.00  0.00     0.002 A 
HETATM   30  C6  UNL     1       5.736  47.923   4.263  1.00  0.00     0.032 A 
BRANCH  26  31
HETATM   31  O1  UNL     1       2.484  49.307   3.448  1.00  0.00    -0.354 OA
HETATM   32  C1  UNL     1       1.600  48.643   2.565  1.00  0.00     0.210 C 
ENDBRANCH  26  31
ENDBRANCH  23  25
ENDBRANCH   1  23
TORSDOF 6
ENDMDL
MODEL 3
REMARK VINA RESULT: -9.473656916      2.106      3.183
REMARK  6 active torsions:
REMARK  status: ('A' for Active; 'I' for Inactive)
REMARK    1  A    between atoms: O1_2  and  C2_3 
REMARK    2  A    between atoms: C7_8  and  N1_9 
REMARK    3  A    between atoms: N1_9  and  C8_11 
REMARK    4  A    between atoms: C13_17  and  N2_18 
REMARK    5  A    between atoms: N2_18  and  N3_20 
REMARK    6  A    between atoms: C14_22  and  C15_23 
ROOT
HETATM    1  C8  UNL     1       8.066  51.819   3.318  1.00  0.00     0.120 C 
HETATM    2  C9  UNL     1       9.206  51.298   2.742  1.00  0.00     0.060 C 
HETATM    3  C10 UNL     1      10.281  51.934   2.114  1.00  0.00    -0.004 C 
HETATM    4  C11 UNL     1      11.492  51.129   1.897  1.00  0.00     0.052 C 
HETATM    5  C12 UNL     1      10.258  53.254   1.698  1.00  0.00     0.224 C 
HETATM    6  O2  UNL     1      11.177  53.543   0.900  1.00  0.00    -0.284 OA
HETATM    7  C13 UNL     1       9.357  54.265   2.055  1.00  0.00     0.186 C 
HETATM    8  N4  UNL     1       8.246  54.171   2.805  1.00  0.00    -0.280 N 
ATOM      9  H4  UNL     1       7.773  55.058   2.975  1.00  0.00     0.189 HD
HETATM   10  N5  UNL     1       7.662  53.122   3.358  1.00  0.00    -0.284 N 
ATOM     11  H5  UNL     1       6.805  53.309   3.879  1.00  0.00     0.188 HD
ENDROOT
BRANCH   7  12
HETATM   12  N2  UNL     1       9.640  55.437   1.601  1.00  0.00    -0.281 N 
ATOM     13  H2  UNL     1       9.812  56.162   2.297  1.00  0.00     0.188 HD
BRANCH  12  14
HETATM   14  N3  UNL     1       9.735  55.811   0.310  1.00  0.00    -0.309 N 
HETATM   15  C14 UNL     1       9.081  56.621  -0.371  1.00  0.00     0.118 C 
ATOM     16  H3  UNL     1      10.482  55.344  -0.205  1.00  0.00     0.186 HD
BRANCH  15  17
HETATM   17  C15 UNL     1       7.957  57.450   0.037  1.00  0.00    -0.019 A 
HETATM   18  C16 UNL     1       6.852  57.028   0.713  1.00  0.00     0.013 A 
HETATM   19  C17 UNL     1       5.792  57.869   1.086  1.00  0.00     0.001 A 
HETATM   20  C18 UNL     1       5.899  59.189   0.740  1.00  0.00     0.000 A 
HETATM   21  C19 UNL     1       6.984  59.689   0.058  1.00  0.00     0.001 A 
HETATM   22  C20 UNL     1       7.983  58.817  -0.277  1.00  0.00     0.013 A 
ENDBRANCH  15  17
ENDBRANCH  12  14
ENDBRANCH   7  12
BRANCH   1  23
HETATM   23  N1  UNL     1       7.241  51.020   3.906  1.00  0.00    -0.339 N 
ATOM     24  H1  UNL     1       7.537  50.562   4.767  1.00  0.00     0.167 HD
BRANCH  23  25
HETATM   25  C7  UNL     1       5.952  50.754   3.411  1.00  0.00     0.067 A 
HETATM   26  C2  UNL     1       5.167  49.735   3.962  1.00  0.00     0.094 A 
HETATM   27  C3  UNL     1       3.923  49.496   3.467  1.00  0.00     0.039 A 
HETATM   28  C4  UNL     1       3.430  50.258   2.418  1.00  0.00     0.003 A 
HETATM   29  C5  UNL     1       4.184  51.263   1.862  1.00  0.00     0.002 A 
HETATM   30  C6  UNL     1       5.441  51.496   2.371  1.00  0.00     0.032 A 
BRANCH  26  31
HETATM   31  O1  UNL     1       5.741  49.024   5.008  1.00  0.00    -0.354 OA
HETATM   32  C1  UNL     1       5.357  47.676   5.204  1.00  0.00     0.210 C 
ENDBRANCH  26  31
ENDBRANCH  23  25
ENDBRANCH   1  23
TORSDOF 6
ENDMDL
MODEL 4
REMARK VINA RESULT: -9.423502539      2.487      4.132
REMARK  6 active torsions:
REMARK  status: ('A' for Active; 'I' for Inactive)
REMARK    1  A    between atoms: O1_2  and  C2_3 
REMARK    2  A    between atoms: C7_8  and  N1_9 
REMARK    3  A    between atoms: N1_9  and  C8_11 
REMARK    4  A    between atoms: C13_17  and  N2_18 
REMARK    5  A    between atoms: N2_18  and  N3_20 
REMARK    6  A    between atoms: C14_22  and  C15_23 
ROOT
HETATM    1  C8  UNL     1       8.001  52.995   3.128  1.00  0.00     0.120 C 
HETATM    2  C9  UNL     1       8.915  52.154   2.528  1.00  0.00     0.060 C 
HETATM    3  C10 UNL     1      10.083  52.439   1.814  1.00  0.00    -0.004 C 
HETATM    4  C11 UNL     1      11.009  51.319   1.586  1.00  0.00     0.052 C 
HETATM    5  C12 UNL     1      10.400  53.694   1.326  1.00  0.00     0.224 C 
HETATM    6  O2  UNL     1      11.313  53.682   0.470  1.00  0.00    -0.284 OA
HETATM    7  C13 UNL     1       9.838  54.930   1.669  1.00  0.00     0.186 C 
HETATM    8  N4  UNL     1       8.792  55.180   2.474  1.00  0.00    -0.280 N 
ATOM      9  H4  UNL     1       8.595  56.171   2.617  1.00  0.00     0.189 HD
HETATM   10  N5  UNL     1       7.976  54.360   3.114  1.00  0.00    -0.284 N 
ATOM     11  H5  UNL     1       7.239  54.800   3.664  1.00  0.00     0.188 HD
ENDROOT
BRANCH   7  12
HETATM   12  N2  UNL     1      10.405  55.956   1.136  1.00  0.00    -0.281 N 
ATOM     13  H2  UNL     1      10.977  56.530   1.756  1.00  0.00     0.188 HD
BRANCH  12  14
HETATM   14  N3  UNL     1      10.328  56.358  -0.148  1.00  0.00    -0.309 N 
HETATM   15  C14 UNL     1       9.506  57.074  -0.747  1.00  0.00     0.118 C 
ATOM     16  H3  UNL     1      11.083  56.010  -0.739  1.00  0.00     0.186 HD
BRANCH  15  17
HETATM   17  C15 UNL     1       8.319  57.728  -0.220  1.00  0.00    -0.019 A 
HETATM   18  C16 UNL     1       7.244  57.108   0.344  1.00  0.00     0.013 A 
HETATM   19  C17 UNL     1       6.119  57.785   0.841  1.00  0.00     0.001 A 
HETATM   20  C18 UNL     1       6.126  59.150   0.741  1.00  0.00     0.000 A 
HETATM   21  C19 UNL     1       7.174  59.846   0.185  1.00  0.00     0.001 A 
HETATM   22  C20 UNL     1       8.240  59.128  -0.281  1.00  0.00     0.013 A 
ENDBRANCH  15  17
ENDBRANCH  12  14
ENDBRANCH   7  12
BRANCH   1  23
HETATM   23  N1  UNL     1       7.026  52.483   3.798  1.00  0.00    -0.339 N 
ATOM     24  H1  UNL     1       6.970  52.674   4.799  1.00  0.00     0.167 HD
BRANCH  23  25
HETATM   25  C7  UNL     1       6.035  51.675   3.211  1.00  0.00     0.067 A 
HETATM   26  C2  UNL     1       5.153  52.198   2.259  1.00  0.00     0.094 A 
HETATM   27  C3  UNL     1       4.203  51.398   1.705  1.00  0.00     0.039 A 
HETATM   28  C4  UNL     1       4.106  50.066   2.081  1.00  0.00     0.003 A 
HETATM   29  C5  UNL     1       4.962  49.532   3.014  1.00  0.00     0.002 A 
HETATM   30  C6  UNL     1       5.919  50.352   3.568  1.00  0.00     0.032 A 
BRANCH  26  31
HETATM   31  O1  UNL     1       5.324  53.540   1.944  1.00  0.00    -0.354 OA
HETATM   32  C1  UNL     1       4.434  54.487   2.504  1.00  0.00     0.210 C 
ENDBRANCH  26  31
ENDBRANCH  23  25
ENDBRANCH   1  23
TORSDOF 6
ENDMDL
MODEL 5
REMARK VINA RESULT: -9.421849556      3.206      5.328
REMARK  6 active torsions:
REMARK  status: ('A' for Active; 'I' for Inactive)
REMARK    1  A    between atoms: O1_2  and  C2_3 
REMARK    2  A    between atoms: C7_8  and  N1_9 
REMARK    3  A    between atoms: N1_9  and  C8_11 
REMARK    4  A    between atoms: C13_17  and  N2_18 
REMARK    5  A    between atoms: N2_18  and  N3_20 
REMARK    6  A    between atoms: C14_22  and  C15_23 
ROOT
HETATM    1  C8  UNL     1       8.026  53.026   2.972  1.00  0.00     0.120 C 
HETATM    2  C9  UNL     1       6.871  52.319   2.710  1.00  0.00     0.060 C 
HETATM    3  C10 UNL     1       5.561  52.760   2.503  1.00  0.00    -0.004 C 
HETATM    4  C11 UNL     1       4.619  51.789   1.923  1.00  0.00     0.052 C 
HETATM    5  C12 UNL     1       5.119  54.034   2.811  1.00  0.00     0.224 C 
HETATM    6  O2  UNL     1       3.873  54.139   2.842  1.00  0.00    -0.284 OA
HETATM    7  C13 UNL     1       5.881  55.179   3.081  1.00  0.00     0.186 C 
HETATM    8  N4  UNL     1       7.214  55.288   3.205  1.00  0.00    -0.280 N 
ATOM      9  H4  UNL     1       7.549  56.240   3.352  1.00  0.00     0.189 HD
HETATM   10  N5  UNL     1       8.165  54.371   3.168  1.00  0.00    -0.284 N 
ATOM     11  H5  UNL     1       9.118  54.708   3.301  1.00  0.00     0.188 HD
ENDROOT
BRANCH   7  12
HETATM   12  N2  UNL     1       5.204  56.265   3.229  1.00  0.00    -0.281 N 
ATOM     13  H2  UNL     1       5.354  56.778   4.097  1.00  0.00     0.188 HD
BRANCH  12  14
HETATM   14  N3  UNL     1       4.319  56.800   2.364  1.00  0.00    -0.309 N 
HETATM   15  C14 UNL     1       4.465  57.552   1.384  1.00  0.00     0.118 C 
ATOM     16  H3  UNL     1       3.350  56.538   2.546  1.00  0.00     0.186 HD
BRANCH  15  17
HETATM   17  C15 UNL     1       5.694  58.115   0.848  1.00  0.00    -0.019 A 
HETATM   18  C16 UNL     1       6.829  57.423   0.547  1.00  0.00     0.013 A 
HETATM   19  C17 UNL     1       7.993  58.011   0.029  1.00  0.00     0.001 A 
HETATM   20  C18 UNL     1       7.961  59.365  -0.178  1.00  0.00     0.000 A 
HETATM   21  C19 UNL     1       6.853  60.130   0.101  1.00  0.00     0.001 A 
HETATM   22  C20 UNL     1       5.752  59.496   0.604  1.00  0.00     0.013 A 
ENDBRANCH  15  17
ENDBRANCH  12  14
ENDBRANCH   7  12
BRANCH   1  23
HETATM   23  N1  UNL     1       9.144  52.390   3.055  1.00  0.00    -0.339 N 
ATOM     24  H1  UNL     1       9.517  52.179   3.981  1.00  0.00     0.167 HD
BRANCH  23  25
HETATM   25  C7  UNL     1       9.873  51.976   1.926  1.00  0.00     0.067 A 
HETATM   26  C2  UNL     1      10.759  52.847   1.283  1.00  0.00     0.094 A 
HETATM   27  C3  UNL     1      11.453  52.424   0.192  1.00  0.00     0.039 A 
HETATM   28  C4  UNL     1      11.284  51.132  -0.285  1.00  0.00     0.003 A 
HETATM   29  C5  UNL     1      10.418  50.261   0.331  1.00  0.00     0.002 A 
HETATM   30  C6  UNL     1       9.722  50.700   1.433  1.00  0.00     0.032 A 
BRANCH  26  31
HETATM   31  O1  UNL     1      10.865  54.119   1.830  1.00  0.00    -0.354 OA
HETATM   32  C1  UNL     1      10.433  55.227   1.061  1.00  0.00     0.210 C 
ENDBRANCH  26  31
ENDBRANCH  23  25
ENDBRANCH   1  23
TORSDOF 6
ENDMDL
