MODEL 1
REMARK VINA RESULT: -7.976515819      0.000      0.000
REMARK  16 active torsions:
REMARK  status: ('A' for Active; 'I' for Inactive)
REMARK    1  A    between atoms: N1_1  and  C1_4 
REMARK    2  A    between atoms: C2_10  and  N4_11 
REMARK    3  A    between atoms: C3_16  and  C4_17 
REMARK       I    between atoms: C4_17  and  N7_19 
REMARK    4  A    between atoms: N7_19  and  C5_21 
REMARK    5  A    between atoms: C7_23  and  C8_24 
REMARK    6  A    between atoms: C8_24  and  N8_25 
REMARK    7  A    between atoms: N8_25  and  C9_26 
REMARK    8  A    between atoms: N8_25  and  N14_44 
REMARK    9  A    between atoms: C9_26  and  C10_27 
REMARK   10  A    between atoms: C11_32  and  C12_33 
REMARK   11  A    between atoms: C12_33  and  N11_34 
REMARK   12  A    between atoms: C12_33  and  N12_38 
REMARK   13  A    between atoms: N14_44  and  N15_45 
REMARK   14  A    between atoms: C13_48  and  O3_49 
REMARK   15  A    between atoms: C14_51  and  O4_52 
REMARK   16  A    between atoms: C15_54  and  O5_55 
ROOT
HETATM    1  C5  UNL     1       3.101   5.713  11.846  1.00  0.00     0.072 A 
HETATM    2  C6  UNL     1       3.370   4.360  11.860  1.00  0.00     0.043 A 
HETATM    3  C7  UNL     1       2.746   3.405  12.680  1.00  0.00    -0.005 A 
HETATM    4  C13 UNL     1       1.786   3.836  13.559  1.00  0.00     0.109 A 
HETATM    5  C14 UNL     1       1.479   5.184  13.594  1.00  0.00     0.135 A 
HETATM    6  C15 UNL     1       2.116   6.105  12.760  1.00  0.00     0.128 A 
ENDROOT
BRANCH   3   7
HETATM    7  C8  UNL     1       3.020   2.003  12.396  1.00  0.00     0.153 C 
BRANCH   7   8
HETATM    8  N8  UNL     1       3.252   1.056  13.474  1.00  0.00    -0.203 NA
BRANCH   8   9
HETATM    9  C9  UNL     1       2.385  -0.078  13.105  1.00  0.00     0.189 C 
BRANCH   9  10
HETATM   10  C10 UNL     1       1.658  -0.702  14.208  1.00  0.00     0.112 A 
HETATM   11  N9  UNL     1       2.255  -1.156  15.355  1.00  0.00    -0.286 N 
HETATM   12  N10 UNL     1       1.363  -1.725  16.123  1.00  0.00    -0.284 N 
ATOM     13  H9  UNL     1       3.246  -1.064  15.576  1.00  0.00     0.188 HD
HETATM   14  C11 UNL     1       0.177  -1.654  15.500  1.00  0.00     0.156 A 
ATOM     15  H10 UNL     1       1.538  -2.148  17.034  1.00  0.00     0.188 HD
HETATM   16  N13 UNL     1       0.366  -1.027  14.334  1.00  0.00    -0.329 N 
ATOM     17  H13 UNL     1      -0.362  -0.827  13.647  1.00  0.00     0.168 HD
BRANCH  14  18
HETATM   18  C12 UNL     1      -1.110  -2.192  16.016  1.00  0.00     0.446 C 
BRANCH  18  19
HETATM   19  N11 UNL     1      -0.844  -3.217  16.997  1.00  0.00    -0.043 N 
ATOM     20 3H11 UNL     1       0.126  -3.530  16.975  1.00  0.00     0.277 HD
ATOM     21 2H11 UNL     1      -0.858  -2.852  17.950  1.00  0.00     0.277 HD
ATOM     22 1H11 UNL     1      -1.501  -3.988  16.870  1.00  0.00     0.277 HD
ENDBRANCH  18  19
BRANCH  18  23
HETATM   23  N12 UNL     1      -1.842  -2.768  14.934  1.00  0.00    -0.043 N 
ATOM     24 3H12 UNL     1      -2.811  -2.966  15.184  1.00  0.00     0.277 HD
ATOM     25 2H12 UNL     1      -2.020  -2.097  14.186  1.00  0.00     0.277 HD
ATOM     26 1H12 UNL     1      -1.349  -3.597  14.602  1.00  0.00     0.277 HD
ENDBRANCH  18  23
ENDBRANCH  14  18
ENDBRANCH   9  10
ENDBRANCH   8   9
BRANCH   8  27
HETATM   27  N14 UNL     1       4.546   0.671  13.568  1.00  0.00    -0.055 NA
BRANCH  27  28
HETATM   28  N15 UNL     1       5.038   0.848  14.878  1.00  0.00    -0.333 N 
ATOM     29 2H15 UNL     1       4.482   1.233  15.642  1.00  0.00     0.173 HD
ATOM     30 1H15 UNL     1       6.009   0.544  14.952  1.00  0.00     0.173 HD
ENDBRANCH  27  28
ENDBRANCH   8  27
ENDBRANCH   7   8
ENDBRANCH   3   7
BRANCH   4  31
HETATM   31  O3  UNL     1       1.144   2.918  14.381  1.00  0.00    -0.357 OA
ATOM     32  H3  UNL     1       1.652   2.405  14.999  1.00  0.00     0.217 HD
ENDBRANCH   4  31
BRANCH   1  33
HETATM   33  N7  UNL     1       3.723   6.670  11.033  1.00  0.00    -0.318 N 
HETATM   34  C4  UNL     1       3.383   6.949   9.710  1.00  0.00     0.293 C 
HETATM   35  O2  UNL     1       2.419   6.321   9.151  1.00  0.00    -0.264 OA
ATOM     36  H7  UNL     1       4.487   7.206  11.442  1.00  0.00     0.169 HD
BRANCH  34  37
HETATM   37  C3  UNL     1       4.060   7.938   8.845  1.00  0.00     0.207 A 
HETATM   38  N6  UNL     1       3.684   8.098   7.548  1.00  0.00    -0.264 N 
HETATM   39  N5  UNL     1       4.468   8.985   6.999  1.00  0.00    -0.218 N 
ATOM     40  H6  UNL     1       2.918   7.608   7.083  1.00  0.00     0.190 HD
HETATM   41  N4  UNL     1       5.380   9.429   7.927  1.00  0.00    -0.158 N 
ATOM     42  H5  UNL     1       4.413   9.299   6.030  1.00  0.00     0.210 HD
HETATM   43  N16 UNL     1       5.077   8.756   9.012  1.00  0.00    -0.255 N 
ATOM     44  H16 UNL     1       5.578   8.858   9.894  1.00  0.00     0.191 HD
BRANCH  41  45
HETATM   45  C2  UNL     1       6.384  10.372   7.583  1.00  0.00     0.214 A 
HETATM   46  C1  UNL     1       7.655  10.264   7.119  1.00  0.00     0.171 A 
HETATM   47  N2  UNL     1       8.122  11.539   6.994  1.00  0.00    -0.222 N 
HETATM   48  O1  UNL     1       7.176  12.367   7.368  1.00  0.00    -0.153 OA
ATOM     49  H2  UNL     1       9.051  11.805   6.666  1.00  0.00     0.198 HD
HETATM   50  N3  UNL     1       6.132  11.715   7.727  1.00  0.00    -0.219 N 
ATOM     51  H3  UNL     1       5.261  12.125   8.064  1.00  0.00     0.198 HD
BRANCH  46  52
HETATM   52  N1  UNL     1       8.273   9.168   6.861  1.00  0.00    -0.381 N 
ATOM     53  H12 UNL     1       9.263   8.986   7.024  1.00  0.00     0.157 HD
ATOM     54  H11 UNL     1       7.892   8.314   6.455  1.00  0.00     0.157 HD
ENDBRANCH  46  52
ENDBRANCH  41  45
ENDBRANCH  34  37
ENDBRANCH   1  33
BRANCH   5  55
HETATM   55  O4  UNL     1       0.518   5.614  14.481  1.00  0.00    -0.356 OA
ATOM     56  H4  UNL     1      -0.004   6.373  14.250  1.00  0.00     0.218 HD
ENDBRANCH   5  55
BRANCH   6  57
HETATM   57  O5  UNL     1       1.821   7.450  12.787  1.00  0.00    -0.356 OA
ATOM     58  H5  UNL     1       1.842   7.863  13.642  1.00  0.00     0.218 HD
ENDBRANCH   6  57
TORSDOF 16
ENDMDL
MODEL 2
REMARK VINA RESULT: -7.879369475      0.804      1.026
REMARK  16 active torsions:
REMARK  status: ('A' for Active; 'I' for Inactive)
REMARK    1  A    between atoms: N1_1  and  C1_4 
REMARK    2  A    between atoms: C2_10  and  N4_11 
REMARK    3  A    between atoms: C3_16  and  C4_17 
REMARK       I    between atoms: C4_17  and  N7_19 
REMARK    4  A    between atoms: N7_19  and  C5_21 
REMARK    5  A    between atoms: C7_23  and  C8_24 
REMARK    6  A    between atoms: C8_24  and  N8_25 
REMARK    7  A    between atoms: N8_25  and  C9_26 
REMARK    8  A    between atoms: N8_25  and  N14_44 
REMARK    9  A    between atoms: C9_26  and  C10_27 
REMARK   10  A    between atoms: C11_32  and  C12_33 
REMARK   11  A    between atoms: C12_33  and  N11_34 
REMARK   12  A    between atoms: C12_33  and  N12_38 
REMARK   13  A    between atoms: N14_44  and  N15_45 
REMARK   14  A    between atoms: C13_48  and  O3_49 
REMARK   15  A    between atoms: C14_51  and  O4_52 
REMARK   16  A    between atoms: C15_54  and  O5_55 
ROOT
HETATM    1  C5  UNL     1       3.102   5.705  11.983  1.00  0.00     0.072 A 
HETATM    2  C6  UNL     1       3.474   4.383  12.113  1.00  0.00     0.043 A 
HETATM    3  C7  UNL     1       2.866   3.434  12.952  1.00  0.00    -0.005 A 
HETATM    4  C13 UNL     1       1.810   3.840  13.727  1.00  0.00     0.109 A 
HETATM    5  C14 UNL     1       1.396   5.157  13.644  1.00  0.00     0.135 A 
HETATM    6  C15 UNL     1       2.021   6.072  12.795  1.00  0.00     0.128 A 
ENDROOT
BRANCH   3   7
HETATM    7  C8  UNL     1       3.270   2.044  12.789  1.00  0.00     0.153 C 
BRANCH   7   8
HETATM    8  N8  UNL     1       3.607   1.227  13.943  1.00  0.00    -0.203 NA
BRANCH   8   9
HETATM    9  C9  UNL     1       3.137  -0.113  13.542  1.00  0.00     0.189 C 
BRANCH   9  10
HETATM   10  C10 UNL     1       1.849  -0.522  14.094  1.00  0.00     0.112 A 
HETATM   11  N9  UNL     1       1.702  -1.505  15.039  1.00  0.00    -0.286 N 
HETATM   12  N10 UNL     1       0.432  -1.696  15.285  1.00  0.00    -0.284 N 
ATOM     13  H9  UNL     1       2.468  -2.011  15.483  1.00  0.00     0.188 HD
HETATM   14  C11 UNL     1      -0.269  -0.849  14.516  1.00  0.00     0.156 A 
ATOM     15  H10 UNL     1       0.044  -2.369  15.946  1.00  0.00     0.188 HD
HETATM   16  N13 UNL     1       0.603  -0.137  13.794  1.00  0.00    -0.329 N 
ATOM     17  H13 UNL     1       0.357   0.588  13.120  1.00  0.00     0.168 HD
BRANCH  14  18
HETATM   18  C12 UNL     1      -1.751  -0.741  14.469  1.00  0.00     0.446 C 
BRANCH  18  19
HETATM   19  N11 UNL     1      -2.308  -1.970  13.953  1.00  0.00    -0.043 N 
ATOM     20 3H11 UNL     1      -1.589  -2.665  13.754  1.00  0.00     0.277 HD
ATOM     21 2H11 UNL     1      -2.821  -2.490  14.666  1.00  0.00     0.277 HD
ATOM     22 1H11 UNL     1      -2.883  -1.765  13.136  1.00  0.00     0.277 HD
ENDBRANCH  18  19
BRANCH  18  23
HETATM   23  N12 UNL     1      -2.113   0.331  13.599  1.00  0.00    -0.043 N 
ATOM     24 3H12 UNL     1      -1.299   0.806  13.210  1.00  0.00     0.277 HD
ATOM     25 2H12 UNL     1      -2.519  -0.001  12.724  1.00  0.00     0.277 HD
ATOM     26 1H12 UNL     1      -2.734   0.969  14.097  1.00  0.00     0.277 HD
ENDBRANCH  18  23
ENDBRANCH  14  18
ENDBRANCH   9  10
ENDBRANCH   8   9
BRANCH   8  27
HETATM   27  N14 UNL     1       4.932   1.218  14.215  1.00  0.00    -0.055 NA
BRANCH  27  28
HETATM   28  N15 UNL     1       5.219   0.404  15.332  1.00  0.00    -0.333 N 
ATOM     29 2H15 UNL     1       5.347  -0.606  15.275  1.00  0.00     0.173 HD
ATOM     30 1H15 UNL     1       5.278   0.958  16.186  1.00  0.00     0.173 HD
ENDBRANCH  27  28
ENDBRANCH   8  27
ENDBRANCH   7   8
ENDBRANCH   3   7
BRANCH   4  31
HETATM   31  O3  UNL     1       1.181   2.927  14.565  1.00  0.00    -0.357 OA
ATOM     32  H3  UNL     1       0.552   2.313  14.205  1.00  0.00     0.217 HD
ENDBRANCH   4  31
BRANCH   1  33
HETATM   33  N7  UNL     1       3.707   6.655  11.150  1.00  0.00    -0.318 N 
HETATM   34  C4  UNL     1       3.397   6.866   9.808  1.00  0.00     0.293 C 
HETATM   35  O2  UNL     1       2.479   6.175   9.246  1.00  0.00    -0.264 OA
ATOM     36  H7  UNL     1       4.434   7.241  11.560  1.00  0.00     0.169 HD
BRANCH  34  37
HETATM   37  C3  UNL     1       4.058   7.849   8.923  1.00  0.00     0.207 A 
HETATM   38  N6  UNL     1       3.605   8.058   7.658  1.00  0.00    -0.264 N 
HETATM   39  N5  UNL     1       4.389   8.926   7.079  1.00  0.00    -0.218 N 
ATOM     40  H6  UNL     1       2.792   7.612   7.233  1.00  0.00     0.190 HD
HETATM   41  N4  UNL     1       5.377   9.309   7.955  1.00  0.00    -0.158 N 
ATOM     42  H5  UNL     1       4.285   9.268   6.124  1.00  0.00     0.210 HD
HETATM   43  N16 UNL     1       5.117   8.621   9.042  1.00  0.00    -0.255 N 
ATOM     44  H16 UNL     1       5.678   8.679   9.892  1.00  0.00     0.191 HD
BRANCH  41  45
HETATM   45  C2  UNL     1       6.396  10.219   7.568  1.00  0.00     0.214 A 
HETATM   46  C1  UNL     1       7.644  10.069   7.055  1.00  0.00     0.171 A 
HETATM   47  N2  UNL     1       8.145  11.330   6.907  1.00  0.00    -0.222 N 
HETATM   48  O1  UNL     1       7.240  12.188   7.314  1.00  0.00    -0.153 OA
ATOM     49  H2  UNL     1       9.068  11.565   6.542  1.00  0.00     0.198 HD
HETATM   50  N3  UNL     1       6.192  11.570   7.717  1.00  0.00    -0.219 N 
ATOM     51  H3  UNL     1       5.347  12.008   8.085  1.00  0.00     0.198 HD
BRANCH  46  52
HETATM   52  N1  UNL     1       8.217   8.954   6.779  1.00  0.00    -0.381 N 
ATOM     53  H12 UNL     1       9.057   8.585   7.225  1.00  0.00     0.157 HD
ATOM     54  H11 UNL     1       7.941   8.264   6.080  1.00  0.00     0.157 HD
ENDBRANCH  46  52
ENDBRANCH  41  45
ENDBRANCH  34  37
ENDBRANCH   1  33
BRANCH   5  55
HETATM   55  O4  UNL     1       0.339   5.562  14.428  1.00  0.00    -0.356 OA
ATOM     56  H4  UNL     1       0.314   6.465  14.722  1.00  0.00     0.218 HD
ENDBRANCH   5  55
BRANCH   6  57
HETATM   57  O5  UNL     1       1.620   7.386  12.704  1.00  0.00    -0.356 OA
ATOM     58  H5  UNL     1       2.102   8.005  13.239  1.00  0.00     0.218 HD
ENDBRANCH   6  57
TORSDOF 16
ENDMDL
MODEL 3
REMARK VINA RESULT: -7.859569657      1.352      1.563
REMARK  16 active torsions:
REMARK  status: ('A' for Active; 'I' for Inactive)
REMARK    1  A    between atoms: N1_1  and  C1_4 
REMARK    2  A    between atoms: C2_10  and  N4_11 
REMARK    3  A    between atoms: C3_16  and  C4_17 
REMARK       I    between atoms: C4_17  and  N7_19 
REMARK    4  A    between atoms: N7_19  and  C5_21 
REMARK    5  A    between atoms: C7_23  and  C8_24 
REMARK    6  A    between atoms: C8_24  and  N8_25 
REMARK    7  A    between atoms: N8_25  and  C9_26 
REMARK    8  A    between atoms: N8_25  and  N14_44 
REMARK    9  A    between atoms: C9_26  and  C10_27 
REMARK   10  A    between atoms: C11_32  and  C12_33 
REMARK   11  A    between atoms: C12_33  and  N11_34 
REMARK   12  A    between atoms: C12_33  and  N12_38 
REMARK   13  A    between atoms: N14_44  and  N15_45 
REMARK   14  A    between atoms: C13_48  and  O3_49 
REMARK   15  A    between atoms: C14_51  and  O4_52 
REMARK   16  A    between atoms: C15_54  and  O5_55 
ROOT
HETATM    1  C5  UNL     1       3.096   5.832  11.711  1.00  0.00     0.072 A 
HETATM    2  C6  UNL     1       3.374   4.481  11.742  1.00  0.00     0.043 A 
HETATM    3  C7  UNL     1       2.794   3.540  12.609  1.00  0.00    -0.005 A 
HETATM    4  C13 UNL     1       1.873   3.985  13.522  1.00  0.00     0.109 A 
HETATM    5  C14 UNL     1       1.559   5.332  13.543  1.00  0.00     0.135 A 
HETATM    6  C15 UNL     1       2.152   6.238  12.661  1.00  0.00     0.128 A 
ENDROOT
BRANCH   3   7
HETATM    7  C8  UNL     1       3.063   2.134  12.342  1.00  0.00     0.153 C 
BRANCH   7   8
HETATM    8  N8  UNL     1       3.130   1.170  13.428  1.00  0.00    -0.203 NA
BRANCH   8   9
HETATM    9  C9  UNL     1       2.120   0.168  13.038  1.00  0.00     0.189 C 
BRANCH   9  10
HETATM   10  C10 UNL     1       1.467  -0.532  14.140  1.00  0.00     0.112 A 
HETATM   11  N9  UNL     1       2.134  -1.032  15.229  1.00  0.00    -0.286 N 
HETATM   12  N10 UNL     1       1.297  -1.664  16.009  1.00  0.00    -0.284 N 
ATOM     13  H9  UNL     1       3.133  -0.927  15.404  1.00  0.00     0.188 HD
HETATM   14  C11 UNL     1       0.078  -1.590  15.453  1.00  0.00     0.156 A 
ATOM     15  H10 UNL     1       1.529  -2.131  16.886  1.00  0.00     0.188 HD
HETATM   16  N13 UNL     1       0.191  -0.896  14.314  1.00  0.00    -0.329 N 
ATOM     17  H13 UNL     1      -0.576  -0.679  13.678  1.00  0.00     0.168 HD
BRANCH  14  18
HETATM   18  C12 UNL     1      -1.168  -2.187  16.003  1.00  0.00     0.446 C 
BRANCH  18  19
HETATM   19  N11 UNL     1      -0.827  -3.202  16.973  1.00  0.00    -0.043 N 
ATOM     20 3H11 UNL     1      -1.099  -4.136  16.666  1.00  0.00     0.277 HD
ATOM     21 2H11 UNL     1       0.180  -3.355  17.033  1.00  0.00     0.277 HD
ATOM     22 1H11 UNL     1      -1.235  -2.959  17.877  1.00  0.00     0.277 HD
ENDBRANCH  18  19
BRANCH  18  23
HETATM   23  N12 UNL     1      -1.903  -2.794  14.941  1.00  0.00    -0.043 N 
ATOM     24 3H12 UNL     1      -1.721  -2.350  14.041  1.00  0.00     0.277 HD
ATOM     25 2H12 UNL     1      -1.558  -3.726  14.714  1.00  0.00     0.277 HD
ATOM     26 1H12 UNL     1      -2.895  -2.795  15.180  1.00  0.00     0.277 HD
ENDBRANCH  18  23
ENDBRANCH  14  18
ENDBRANCH   9  10
ENDBRANCH   8   9
BRANCH   8  27
HETATM   27  N14 UNL     1       4.353   0.605  13.558  1.00  0.00    -0.055 NA
BRANCH  27  28
HETATM   28  N15 UNL     1       5.044   1.131  14.670  1.00  0.00    -0.333 N 
ATOM     29 2H15 UNL     1       5.759   1.856  14.598  1.00  0.00     0.173 HD
ATOM     30 1H15 UNL     1       4.735   0.694  15.537  1.00  0.00     0.173 HD
ENDBRANCH  27  28
ENDBRANCH   8  27
ENDBRANCH   7   8
ENDBRANCH   3   7
BRANCH   4  31
HETATM   31  O3  UNL     1       1.275   3.082  14.392  1.00  0.00    -0.357 OA
ATOM     32  H3  UNL     1       0.712   2.398  14.048  1.00  0.00     0.217 HD
ENDBRANCH   4  31
BRANCH   1  33
HETATM   33  N7  UNL     1       3.674   6.774  10.850  1.00  0.00    -0.318 N 
HETATM   34  C4  UNL     1       3.301   6.992   9.525  1.00  0.00     0.293 C 
HETATM   35  O2  UNL     1       2.346   6.316   9.009  1.00  0.00    -0.264 OA
ATOM     36  H7  UNL     1       4.430   7.348  11.224  1.00  0.00     0.169 HD
BRANCH  34  37
HETATM   37  C3  UNL     1       3.933   7.967   8.610  1.00  0.00     0.207 A 
HETATM   38  N6  UNL     1       4.818   8.887   9.079  1.00  0.00    -0.264 N 
HETATM   39  N5  UNL     1       5.181   9.652   8.087  1.00  0.00    -0.218 N 
ATOM     40  H6  UNL     1       5.142   8.965  10.044  1.00  0.00     0.190 HD
HETATM   41  N4  UNL     1       4.542   9.249   6.938  1.00  0.00    -0.158 N 
ATOM     42  H5  UNL     1       5.838  10.429   8.152  1.00  0.00     0.210 HD
HETATM   43  N16 UNL     1       3.807   8.233   7.328  1.00  0.00    -0.255 N 
ATOM     44  H16 UNL     1       3.201   7.705   6.700  1.00  0.00     0.191 HD
BRANCH  41  45
HETATM   45  C2  UNL     1       4.724   9.938   5.710  1.00  0.00     0.214 A 
HETATM   46  C1  UNL     1       5.582   9.792   4.669  1.00  0.00     0.171 A 
HETATM   47  N2  UNL     1       5.268  10.778   3.779  1.00  0.00    -0.222 N 
HETATM   48  O1  UNL     1       4.272  11.477   4.268  1.00  0.00    -0.153 OA
ATOM     49  H2  UNL     1       5.731  10.944   2.885  1.00  0.00     0.198 HD
HETATM   50  N3  UNL     1       3.923  11.014   5.411  1.00  0.00    -0.219 N 
ATOM     51  H3  UNL     1       3.175  11.382   6.000  1.00  0.00     0.198 HD
BRANCH  46  52
HETATM   52  N1  UNL     1       6.502   8.902   4.569  1.00  0.00    -0.381 N 
ATOM     53  H12 UNL     1       6.604   8.076   5.159  1.00  0.00     0.157 HD
ATOM     54  H11 UNL     1       7.272   8.869   3.901  1.00  0.00     0.157 HD
ENDBRANCH  46  52
ENDBRANCH  41  45
ENDBRANCH  34  37
ENDBRANCH   1  33
BRANCH   5  55
HETATM   55  O4  UNL     1       0.638   5.775  14.464  1.00  0.00    -0.356 OA
ATOM     56  H4  UNL     1       0.688   6.679  14.755  1.00  0.00     0.218 HD
ENDBRANCH   5  55
BRANCH   6  57
HETATM   57  O5  UNL     1       1.850   7.582  12.673  1.00  0.00    -0.356 OA
ATOM     58  H5  UNL     1       1.454   7.912  13.471  1.00  0.00     0.218 HD
ENDBRANCH   6  57
TORSDOF 16
ENDMDL
MODEL 4
REMARK VINA RESULT: -7.857117582      1.180      1.395
REMARK  16 active torsions:
REMARK  status: ('A' for Active; 'I' for Inactive)
REMARK    1  A    between atoms: N1_1  and  C1_4 
REMARK    2  A    between atoms: C2_10  and  N4_11 
REMARK    3  A    between atoms: C3_16  and  C4_17 
REMARK       I    between atoms: C4_17  and  N7_19 
REMARK    4  A    between atoms: N7_19  and  C5_21 
REMARK    5  A    between atoms: C7_23  and  C8_24 
REMARK    6  A    between atoms: C8_24  and  N8_25 
REMARK    7  A    between atoms: N8_25  and  C9_26 
REMARK    8  A    between atoms: N8_25  and  N14_44 
REMARK    9  A    between atoms: C9_26  and  C10_27 
REMARK   10  A    between atoms: C11_32  and  C12_33 
REMARK   11  A    between atoms: C12_33  and  N11_34 
REMARK   12  A    between atoms: C12_33  and  N12_38 
REMARK   13  A    between atoms: N14_44  and  N15_45 
REMARK   14  A    between atoms: C13_48  and  O3_49 
REMARK   15  A    between atoms: C14_51  and  O4_52 
REMARK   16  A    between atoms: C15_54  and  O5_55 
ROOT
HETATM    1  C5  UNL     1       2.856   5.255  12.219  1.00  0.00     0.072 A 
HETATM    2  C6  UNL     1       3.230   3.937  12.380  1.00  0.00     0.043 A 
HETATM    3  C7  UNL     1       2.575   2.985  13.179  1.00  0.00    -0.005 A 
HETATM    4  C13 UNL     1       1.465   3.384  13.879  1.00  0.00     0.109 A 
HETATM    5  C14 UNL     1       1.046   4.697  13.762  1.00  0.00     0.135 A 
HETATM    6  C15 UNL     1       1.719   5.614  12.953  1.00  0.00     0.128 A 
ENDROOT
BRANCH   3   7
HETATM    7  C8  UNL     1       3.002   1.599  13.050  1.00  0.00     0.153 C 
BRANCH   7   8
HETATM    8  N8  UNL     1       3.495   0.862  14.201  1.00  0.00    -0.203 NA
BRANCH   8   9
HETATM    9  C9  UNL     1       3.009  -0.508  13.945  1.00  0.00     0.189 C 
BRANCH   9  10
HETATM   10  C10 UNL     1       1.795  -0.891  14.660  1.00  0.00     0.112 A 
HETATM   11  N9  UNL     1       1.794  -1.589  15.840  1.00  0.00    -0.286 N 
HETATM   12  N10 UNL     1       0.563  -1.845  16.201  1.00  0.00    -0.284 N 
ATOM     13  H9  UNL     1       2.627  -1.866  16.359  1.00  0.00     0.188 HD
HETATM   14  C11 UNL     1      -0.255  -1.324  15.274  1.00  0.00     0.156 A 
ATOM     15  H10 UNL     1       0.277  -2.351  17.039  1.00  0.00     0.188 HD
HETATM   16  N13 UNL     1       0.505  -0.743  14.339  1.00  0.00    -0.329 N 
ATOM     17  H13 UNL     1       0.155  -0.262  13.511  1.00  0.00     0.168 HD
BRANCH  14  18
HETATM   18  C12 UNL     1      -1.740  -1.398  15.285  1.00  0.00     0.446 C 
BRANCH  18  19
HETATM   19  N11 UNL     1      -2.164  -2.445  16.185  1.00  0.00    -0.043 N 
ATOM     20 3H11 UNL     1      -1.628  -3.303  16.057  1.00  0.00     0.277 HD
ATOM     21 2H11 UNL     1      -1.902  -2.252  17.152  1.00  0.00     0.277 HD
ATOM     22 1H11 UNL     1      -3.167  -2.598  16.081  1.00  0.00     0.277 HD
ENDBRANCH  18  19
BRANCH  18  23
HETATM   23  N12 UNL     1      -2.202  -1.705  13.970  1.00  0.00    -0.043 N 
ATOM     24 3H12 UNL     1      -2.208  -0.887  13.361  1.00  0.00     0.277 HD
ATOM     25 2H12 UNL     1      -1.533  -2.269  13.447  1.00  0.00     0.277 HD
ATOM     26 1H12 UNL     1      -3.119  -2.149  14.034  1.00  0.00     0.277 HD
ENDBRANCH  18  23
ENDBRANCH  14  18
ENDBRANCH   9  10
ENDBRANCH   8   9
BRANCH   8  27
HETATM   27  N14 UNL     1       4.844   0.889  14.306  1.00  0.00    -0.055 NA
BRANCH  27  28
HETATM   28  N15 UNL     1       5.275   0.283  15.506  1.00  0.00    -0.333 N 
ATOM     29 2H15 UNL     1       5.161  -0.710  15.709  1.00  0.00     0.173 HD
ATOM     30 1H15 UNL     1       5.708   0.965  16.128  1.00  0.00     0.173 HD
ENDBRANCH  27  28
ENDBRANCH   8  27
ENDBRANCH   7   8
ENDBRANCH   3   7
BRANCH   4  31
HETATM   31  O3  UNL     1       0.788   2.469  14.676  1.00  0.00    -0.357 OA
ATOM     32  H3  UNL     1       1.243   2.045  15.395  1.00  0.00     0.217 HD
ENDBRANCH   4  31
BRANCH   1  33
HETATM   33  N7  UNL     1       3.508   6.208  11.425  1.00  0.00    -0.318 N 
HETATM   34  C4  UNL     1       3.034   6.710  10.215  1.00  0.00     0.293 C 
HETATM   35  O2  UNL     1       1.908   6.316   9.755  1.00  0.00    -0.264 OA
ATOM     36  H7  UNL     1       4.402   6.563  11.761  1.00  0.00     0.169 HD
BRANCH  34  37
HETATM   37  C3  UNL     1       3.739   7.693   9.364  1.00  0.00     0.207 A 
HETATM   38  N6  UNL     1       3.240   8.947   9.196  1.00  0.00    -0.264 N 
HETATM   39  N5  UNL     1       4.015   9.590   8.365  1.00  0.00    -0.218 N 
ATOM     40  H6  UNL     1       2.402   9.322   9.642  1.00  0.00     0.190 HD
HETATM   41  N4  UNL     1       5.045   8.769   7.970  1.00  0.00    -0.158 N 
ATOM     42  H5  UNL     1       3.878  10.552   8.057  1.00  0.00     0.210 HD
HETATM   43  N16 UNL     1       4.814   7.645   8.608  1.00  0.00    -0.255 N 
ATOM     44  H16 UNL     1       5.407   6.820   8.525  1.00  0.00     0.191 HD
BRANCH  41  45
HETATM   45  C2  UNL     1       6.017   9.203   7.030  1.00  0.00     0.214 A 
HETATM   46  C1  UNL     1       5.987   9.458   5.698  1.00  0.00     0.171 A 
HETATM   47  N2  UNL     1       7.254   9.834   5.356  1.00  0.00    -0.222 N 
HETATM   48  O1  UNL     1       8.001   9.802   6.434  1.00  0.00    -0.153 OA
ATOM     49  H2  UNL     1       7.567  10.095   4.421  1.00  0.00     0.198 HD
HETATM   50  N3  UNL     1       7.308   9.430   7.445  1.00  0.00    -0.219 N 
ATOM     51  H3  UNL     1       7.655   9.321   8.398  1.00  0.00     0.198 HD
BRANCH  46  52
HETATM   52  N1  UNL     1       4.962   9.354   4.932  1.00  0.00    -0.381 N 
ATOM     53  H12 UNL     1       4.948   9.509   3.924  1.00  0.00     0.157 HD
ATOM     54  H11 UNL     1       4.007   9.109   5.194  1.00  0.00     0.157 HD
ENDBRANCH  46  52
ENDBRANCH  41  45
ENDBRANCH  34  37
ENDBRANCH   1  33
BRANCH   5  55
HETATM   55  O4  UNL     1      -0.066   5.095  14.470  1.00  0.00    -0.356 OA
ATOM     56  H4  UNL     1       0.062   5.511  15.315  1.00  0.00     0.218 HD
ENDBRANCH   5  55
BRANCH   6  57
HETATM   57  O5  UNL     1       1.313   6.925  12.830  1.00  0.00    -0.356 OA
ATOM     58  H5  UNL     1       0.787   7.126  12.065  1.00  0.00     0.218 HD
ENDBRANCH   6  57
TORSDOF 16
ENDMDL
MODEL 5
REMARK VINA RESULT: -7.828245546      2.130      2.987
REMARK  16 active torsions:
REMARK  status: ('A' for Active; 'I' for Inactive)
REMARK    1  A    between atoms: N1_1  and  C1_4 
REMARK    2  A    between atoms: C2_10  and  N4_11 
REMARK    3  A    between atoms: C3_16  and  C4_17 
REMARK       I    between atoms: C4_17  and  N7_19 
REMARK    4  A    between atoms: N7_19  and  C5_21 
REMARK    5  A    between atoms: C7_23  and  C8_24 
REMARK    6  A    between atoms: C8_24  and  N8_25 
REMARK    7  A    between atoms: N8_25  and  C9_26 
REMARK    8  A    between atoms: N8_25  and  N14_44 
REMARK    9  A    between atoms: C9_26  and  C10_27 
REMARK   10  A    between atoms: C11_32  and  C12_33 
REMARK   11  A    between atoms: C12_33  and  N11_34 
REMARK   12  A    between atoms: C12_33  and  N12_38 
REMARK   13  A    between atoms: N14_44  and  N15_45 
REMARK   14  A    between atoms: C13_48  and  O3_49 
REMARK   15  A    between atoms: C14_51  and  O4_52 
REMARK   16  A    between atoms: C15_54  and  O5_55 
ROOT
HETATM    1  C5  UNL     1       2.308   5.749  11.204  1.00  0.00     0.072 A 
HETATM    2  C6  UNL     1       1.565   4.671  10.770  1.00  0.00     0.043 A 
HETATM    3  C7  UNL     1       0.522   4.050  11.478  1.00  0.00    -0.005 A 
HETATM    4  C13 UNL     1       0.205   4.538  12.720  1.00  0.00     0.109 A 
HETATM    5  C14 UNL     1       0.921   5.614  13.211  1.00  0.00     0.135 A 
HETATM    6  C15 UNL     1       1.948   6.210  12.476  1.00  0.00     0.128 A 
ENDROOT
BRANCH   3   7
HETATM    7  C8  UNL     1      -0.276   3.065  10.761  1.00  0.00     0.153 C 
BRANCH   7   8
HETATM    8  N8  UNL     1      -0.309   1.678  11.192  1.00  0.00    -0.203 NA
BRANCH   8   9
HETATM    9  C9  UNL     1       1.083   1.434  11.617  1.00  0.00     0.189 C 
BRANCH   9  10
HETATM   10  C10 UNL     1       1.247   0.887  12.961  1.00  0.00     0.112 A 
HETATM   11  N9  UNL     1       1.320   1.656  14.093  1.00  0.00    -0.286 N 
HETATM   12  N10 UNL     1       1.537   0.894  15.133  1.00  0.00    -0.284 N 
ATOM     13  H9  UNL     1       1.220   2.671  14.121  1.00  0.00     0.188 HD
HETATM   14  C11 UNL     1       1.608  -0.376  14.705  1.00  0.00     0.156 A 
ATOM     15  H10 UNL     1       1.635   1.208  16.098  1.00  0.00     0.188 HD
HETATM   16  N13 UNL     1       1.428  -0.370  13.379  1.00  0.00    -0.329 N 
ATOM     17  H13 UNL     1       1.429  -1.196  12.781  1.00  0.00     0.168 HD
BRANCH  14  18
HETATM   18  C12 UNL     1       1.857  -1.569  15.558  1.00  0.00     0.446 C 
BRANCH  18  19
HETATM   19  N11 UNL     1       0.618  -1.991  16.169  1.00  0.00    -0.043 N 
ATOM     20 3H11 UNL     1       0.544  -1.686  17.140  1.00  0.00     0.277 HD
ATOM     21 2H11 UNL     1      -0.187  -1.487  15.796  1.00  0.00     0.277 HD
ATOM     22 1H11 UNL     1       0.519  -3.002  16.074  1.00  0.00     0.277 HD
ENDBRANCH  18  19
BRANCH  18  23
HETATM   23  N12 UNL     1       2.783  -1.221  16.586  1.00  0.00    -0.043 N 
ATOM     24 3H12 UNL     1       3.678  -0.906  16.211  1.00  0.00     0.277 HD
ATOM     25 2H12 UNL     1       2.520  -0.364  17.071  1.00  0.00     0.277 HD
ATOM     26 1H12 UNL     1       2.887  -2.012  17.223  1.00  0.00     0.277 HD
ENDBRANCH  18  23
ENDBRANCH  14  18
ENDBRANCH   9  10
ENDBRANCH   8   9
BRANCH   8  27
HETATM   27  N14 UNL     1      -1.174   1.462  12.211  1.00  0.00    -0.055 NA
BRANCH  27  28
HETATM   28  N15 UNL     1      -2.504   1.712  11.812  1.00  0.00    -0.333 N 
ATOM     29 2H15 UNL     1      -2.971   1.207  11.059  1.00  0.00     0.173 HD
ATOM     30 1H15 UNL     1      -2.924   2.453  12.373  1.00  0.00     0.173 HD
ENDBRANCH  27  28
ENDBRANCH   8  27
ENDBRANCH   7   8
ENDBRANCH   3   7
BRANCH   4  31
HETATM   31  O3  UNL     1      -0.824   3.951  13.447  1.00  0.00    -0.357 OA
ATOM     32  H3  UNL     1      -0.891   4.112  14.380  1.00  0.00     0.217 HD
ENDBRANCH   4  31
BRANCH   1  33
HETATM   33  N7  UNL     1       3.350   6.370  10.503  1.00  0.00    -0.318 N 
HETATM   34  C4  UNL     1       3.200   7.411   9.589  1.00  0.00     0.293 C 
HETATM   35  O2  UNL     1       2.038   7.890   9.349  1.00  0.00    -0.264 OA
ATOM     36  H7  UNL     1       4.296   6.032  10.675  1.00  0.00     0.169 HD
BRANCH  34  37
HETATM   37  C3  UNL     1       4.298   8.045   8.828  1.00  0.00     0.207 A 
HETATM   38  N6  UNL     1       4.606   9.356   9.017  1.00  0.00    -0.264 N 
HETATM   39  N5  UNL     1       5.566   9.675   8.192  1.00  0.00    -0.218 N 
ATOM     40  H6  UNL     1       4.162   9.983   9.688  1.00  0.00     0.190 HD
HETATM   41  N4  UNL     1       5.912   8.576   7.443  1.00  0.00    -0.158 N 
ATOM     42  H5  UNL     1       5.994  10.598   8.116  1.00  0.00     0.210 HD
HETATM   43  N16 UNL     1       5.108   7.634   7.877  1.00  0.00    -0.255 N 
ATOM     44  H16 UNL     1       5.112   6.681   7.514  1.00  0.00     0.191 HD
BRANCH  41  45
HETATM   45  C2  UNL     1       6.907   8.654   6.433  1.00  0.00     0.214 A 
HETATM   46  C1  UNL     1       6.867   8.770   5.081  1.00  0.00     0.171 A 
HETATM   47  N2  UNL     1       8.166   8.779   4.663  1.00  0.00    -0.222 N 
HETATM   48  O1  UNL     1       8.942   8.672   5.716  1.00  0.00    -0.153 OA
ATOM     49  H2  UNL     1       8.481   8.855   3.696  1.00  0.00     0.198 HD
HETATM   50  N3  UNL     1       8.235   8.591   6.782  1.00  0.00    -0.219 N 
ATOM     51  H3  UNL     1       8.598   8.498   7.731  1.00  0.00     0.198 HD
BRANCH  46  52
HETATM   52  N1  UNL     1       5.806   8.847   4.362  1.00  0.00    -0.381 N 
ATOM     53  H12 UNL     1       4.847   8.750   4.695  1.00  0.00     0.157 HD
ATOM     54  H11 UNL     1       5.741   9.012   3.357  1.00  0.00     0.157 HD
ENDBRANCH  46  52
ENDBRANCH  41  45
ENDBRANCH  34  37
ENDBRANCH   1  33
BRANCH   5  55
HETATM   55  O4  UNL     1       0.603   6.097  14.460  1.00  0.00    -0.356 OA
ATOM     56  H4  UNL     1       1.034   5.716  15.215  1.00  0.00     0.218 HD
ENDBRANCH   5  55
BRANCH   6  57
HETATM   57  O5  UNL     1       2.670   7.281  12.954  1.00  0.00    -0.356 OA
ATOM     58  H5  UNL     1       2.244   7.804  13.623  1.00  0.00     0.218 HD
ENDBRANCH   6  57
TORSDOF 16
ENDMDL
