MODEL 1
REMARK VINA RESULT: -6.463923206      0.000      0.000
REMARK  18 active torsions:
REMARK  status: ('A' for Active; 'I' for Inactive)
REMARK    1  A    between atoms: C2_3  and  O1_4 
REMARK    2  A    between atoms: C2_3  and  C12_34 
REMARK    3  A    between atoms: C2_3  and  N8_39 
REMARK    4  A    between atoms: O1_4  and  C3_5 
REMARK    5  A    between atoms: C3_5  and  O2_6 
REMARK    6  A    between atoms: C3_5  and  N2_8 
REMARK    7  A    between atoms: N2_8  and  O3_9 
REMARK    8  A    between atoms: N2_8  and  C4_11 
REMARK    9  A    between atoms: C4_11  and  C5_12 
REMARK   10  A    between atoms: C7_14  and  C8_15 
REMARK   11  A    between atoms: C9_19  and  N3_20 
REMARK   12  A    between atoms: C10_23  and  N5_24 
REMARK   13  A    between atoms: N6_27  and  N7_28 
REMARK   14  A    between atoms: C11_31  and  O7_32 
REMARK   15  A    between atoms: C12_34  and  O8_35 
REMARK   16  A    between atoms: C12_34  and  O9_37 
REMARK   17  A    between atoms: C14_43  and  N10_44 
REMARK   18  A    between atoms: C15_49  and  N12_50 
ROOT
HETATM    1  N1  UNL     1      -0.325   3.395   9.438  1.00  0.00    -0.192 NA
HETATM    2  C1  UNL     1      -0.373   3.226  10.617  1.00  0.00     0.128 C 
HETATM    3  C2  UNL     1      -0.387   3.077  12.122  1.00  0.00     0.301 C 
ENDROOT
BRANCH   3   4
HETATM    4  O1  UNL     1      -1.040   4.071  12.672  1.00  0.00    -0.293 OA
BRANCH   4   5
HETATM    5  C3  UNL     1      -0.761   5.379  12.692  1.00  0.00     0.399 C 
BRANCH   5   6
HETATM    6  O2  UNL     1      -2.001   5.731  13.700  1.00  0.00    -0.353 OA
ATOM      7  H2  UNL     1      -1.530   5.444  14.474  1.00  0.00     0.214 HD
ENDBRANCH   5   6
BRANCH   5   8
HETATM    8  N2  UNL     1       0.203   5.851  13.520  1.00  0.00    -0.217 N 
BRANCH   8   9
HETATM    9  O3  UNL     1       0.207   5.267  14.793  1.00  0.00    -0.284 OA
ATOM     10  H3  UNL     1       1.030   5.354  15.262  1.00  0.00     0.245 HD
ENDBRANCH   8   9
BRANCH   8  11
HETATM   11  C4  UNL     1       1.296   6.698  13.419  1.00  0.00     0.138 C 
BRANCH  11  12
HETATM   12  C5  UNL     1       2.547   6.067  13.075  1.00  0.00     0.038 A 
HETATM   13  C6  UNL     1       3.487   5.566  13.996  1.00  0.00     0.062 A 
HETATM   14  C7  UNL     1       4.616   5.155  13.314  1.00  0.00     0.155 A 
HETATM   15  O6  UNL     1       4.354   5.412  12.032  1.00  0.00    -0.284 OA
HETATM   16  C9  UNL     1       3.158   5.939  11.856  1.00  0.00     0.185 A 
BRANCH  14  17
HETATM   17  C8  UNL     1       5.893   4.559  13.753  1.00  0.00     0.234 C 
HETATM   18  O4  UNL     1       6.956   4.875  13.272  1.00  0.00    -0.642 OA
HETATM   19  O5  UNL     1       5.785   3.605  14.764  1.00  0.00    -0.642 OA
ENDBRANCH  14  17
BRANCH  16  20
HETATM   20  N3  UNL     1       2.719   6.252  10.512  1.00  0.00    -0.179 N 
HETATM   21  N4  UNL     1       1.598   5.912   9.915  1.00  0.00    -0.119 N 
HETATM   22  C10 UNL     1       1.492   6.460   8.717  1.00  0.00     0.715 A 
ATOM     23  H4  UNL     1       0.895   5.299  10.327  1.00  0.00     0.206 HD
HETATM   24  N6  UNL     1       2.569   7.187   8.508  1.00  0.00    -0.051 N 
HETATM   25  C11 UNL     1       3.351   7.054   9.641  1.00  0.00     0.283 A 
BRANCH  22  26
HETATM   26  N5  UNL     1       0.520   6.236   7.840  1.00  0.00    -0.231 N 
ATOM     27  H52 UNL     1      -0.361   5.759   8.031  1.00  0.00     0.174 HD
ATOM     28  H51 UNL     1       0.490   6.576   6.879  1.00  0.00     0.174 HD
ENDBRANCH  22  26
BRANCH  24  29
HETATM   29  N7  UNL     1       2.838   8.009   7.401  1.00  0.00    -0.321 N 
ATOM     30  H72 UNL     1       2.213   8.191   6.616  1.00  0.00     0.178 HD
ATOM     31  H71 UNL     1       3.713   8.488   7.187  1.00  0.00     0.178 HD
ENDBRANCH  24  29
BRANCH  25  32
HETATM   32  O7  UNL     1       4.576   7.670   9.795  1.00  0.00    -0.329 OA
ATOM     33  H7  UNL     1       4.801   8.573   9.603  1.00  0.00     0.221 HD
ENDBRANCH  25  32
ENDBRANCH  16  20
ENDBRANCH  11  12
ENDBRANCH   8  11
ENDBRANCH   5   8
ENDBRANCH   4   5
ENDBRANCH   3   4
BRANCH   3  34
HETATM   34  C12 UNL     1      -1.419   1.868  12.381  1.00  0.00     0.327 C 
BRANCH  34  35
HETATM   35  O8  UNL     1      -2.433   2.505  13.188  1.00  0.00    -0.366 OA
ATOM     36  H8  UNL     1      -2.999   1.775  13.409  1.00  0.00     0.212 HD
ENDBRANCH  34  35
BRANCH  34  37
HETATM   37  O9  UNL     1      -1.948   1.461  11.197  1.00  0.00    -0.366 OA
ATOM     38  H9  UNL     1      -2.719   0.932  11.359  1.00  0.00     0.212 HD
ENDBRANCH  34  37
ENDBRANCH   3  34
BRANCH   3  39
HETATM   39  N8  UNL     1       0.856   2.603  12.487  1.00  0.00    -0.126 N 
HETATM   40  C13 UNL     1       1.982   2.469  11.732  1.00  0.00     0.223 A 
HETATM   41  N9  UNL     1       3.142   2.002  12.184  1.00  0.00    -0.187 N 
HETATM   42  C14 UNL     1       3.304   1.615  13.436  1.00  0.00     0.691 A 
ATOM     43  H9  UNL     1       3.932   1.941  11.543  1.00  0.00     0.185 HD
HETATM   44  N11 UNL     1       2.233   1.703  14.253  1.00  0.00    -0.022 N 
HETATM   45  C15 UNL     1       1.070   2.178  13.786  1.00  0.00     0.697 A 
ATOM     46  H11 UNL     1       2.309   1.407  15.226  1.00  0.00     0.203 HD
BRANCH  42  47
HETATM   47  N10 UNL     1       4.386   1.162  13.963  1.00  0.00    -0.234 N 
ATOM     48 2H10 UNL     1       5.194   1.783  13.938  1.00  0.00     0.174 HD
ATOM     49 1H10 UNL     1       4.514   0.248  14.396  1.00  0.00     0.174 HD
ENDBRANCH  42  47
BRANCH  45  50
HETATM   50  N12 UNL     1       0.106   2.213  14.608  1.00  0.00    -0.234 N 
ATOM     51 2H12 UNL     1      -0.193   3.139  14.917  1.00  0.00     0.174 HD
ATOM     52 1H12 UNL     1      -0.304   1.335  14.925  1.00  0.00     0.174 HD
ENDBRANCH  45  50
ENDBRANCH   3  39
TORSDOF 18
ENDMDL
MODEL 2
REMARK VINA RESULT: -6.362357280      3.845      7.456
REMARK  18 active torsions:
REMARK  status: ('A' for Active; 'I' for Inactive)
REMARK    1  A    between atoms: C2_3  and  O1_4 
REMARK    2  A    between atoms: C2_3  and  C12_34 
REMARK    3  A    between atoms: C2_3  and  N8_39 
REMARK    4  A    between atoms: O1_4  and  C3_5 
REMARK    5  A    between atoms: C3_5  and  O2_6 
REMARK    6  A    between atoms: C3_5  and  N2_8 
REMARK    7  A    between atoms: N2_8  and  O3_9 
REMARK    8  A    between atoms: N2_8  and  C4_11 
REMARK    9  A    between atoms: C4_11  and  C5_12 
REMARK   10  A    between atoms: C7_14  and  C8_15 
REMARK   11  A    between atoms: C9_19  and  N3_20 
REMARK   12  A    between atoms: C10_23  and  N5_24 
REMARK   13  A    between atoms: N6_27  and  N7_28 
REMARK   14  A    between atoms: C11_31  and  O7_32 
REMARK   15  A    between atoms: C12_34  and  O8_35 
REMARK   16  A    between atoms: C12_34  and  O9_37 
REMARK   17  A    between atoms: C14_43  and  N10_44 
REMARK   18  A    between atoms: C15_49  and  N12_50 
ROOT
HETATM    1  N1  UNL     1      -0.109   6.362  13.082  1.00  0.00    -0.192 NA
HETATM    2  C1  UNL     1       0.537   5.505  12.562  1.00  0.00     0.128 C 
HETATM    3  C2  UNL     1       1.344   4.372  11.969  1.00  0.00     0.301 C 
ENDROOT
BRANCH   3   4
HETATM    4  O1  UNL     1       0.563   3.358  11.684  1.00  0.00    -0.293 OA
BRANCH   4   5
HETATM    5  C3  UNL     1      -0.557   2.938  12.282  1.00  0.00     0.399 C 
BRANCH   5   6
HETATM    6  O2  UNL     1      -1.331   2.665  10.867  1.00  0.00    -0.353 OA
ATOM      7  H2  UNL     1      -0.603   2.977  10.341  1.00  0.00     0.214 HD
ENDBRANCH   5   6
BRANCH   5   8
HETATM    8  N2  UNL     1      -0.650   1.658  12.717  1.00  0.00    -0.217 N 
BRANCH   8   9
HETATM    9  O3  UNL     1      -0.139   0.706  11.826  1.00  0.00    -0.284 OA
ATOM     10  H3  UNL     1       0.034  -0.144  12.215  1.00  0.00     0.245 HD
ENDBRANCH   8   9
BRANCH   8  11
HETATM   11  C4  UNL     1      -1.018   1.013  13.889  1.00  0.00     0.138 C 
BRANCH  11  12
HETATM   12  C5  UNL     1       0.022   0.252  14.538  1.00  0.00     0.038 A 
HETATM   13  C6  UNL     1       1.350   0.683  14.728  1.00  0.00     0.062 A 
HETATM   14  C7  UNL     1       2.090  -0.353  15.264  1.00  0.00     0.155 A 
HETATM   15  O6  UNL     1       1.229  -1.364  15.382  1.00  0.00    -0.284 OA
HETATM   16  C9  UNL     1       0.016  -1.047  14.972  1.00  0.00     0.185 A 
BRANCH  14  17
HETATM   17  C8  UNL     1       3.505  -0.472  15.664  1.00  0.00     0.234 C 
HETATM   18  O4  UNL     1       3.866  -1.189  16.569  1.00  0.00    -0.642 OA
HETATM   19  O5  UNL     1       4.399   0.301  14.923  1.00  0.00    -0.642 OA
ENDBRANCH  14  17
BRANCH  16  20
HETATM   20  N3  UNL     1      -1.036  -2.036  15.059  1.00  0.00    -0.179 N 
HETATM   21  N4  UNL     1      -1.908  -2.391  14.141  1.00  0.00    -0.119 N 
HETATM   22  C10 UNL     1      -2.661  -3.401  14.539  1.00  0.00     0.715 A 
ATOM     23  H4  UNL     1      -1.991  -1.941  13.229  1.00  0.00     0.206 HD
HETATM   24  N6  UNL     1      -2.283  -3.731  15.756  1.00  0.00    -0.051 N 
HETATM   25  C11 UNL     1      -1.257  -2.866  16.091  1.00  0.00     0.283 A 
BRANCH  22  26
HETATM   26  N5  UNL     1      -3.684  -3.922  13.871  1.00  0.00    -0.231 N 
ATOM     27  H52 UNL     1      -3.845  -3.846  12.867  1.00  0.00     0.174 HD
ATOM     28  H51 UNL     1      -4.403  -4.532  14.258  1.00  0.00     0.174 HD
ENDBRANCH  22  26
BRANCH  24  29
HETATM   29  N7  UNL     1      -2.756  -4.804  16.531  1.00  0.00    -0.321 N 
ATOM     30  H72 UNL     1      -2.320  -5.722  16.624  1.00  0.00     0.178 HD
ATOM     31  H71 UNL     1      -3.629  -4.847  17.056  1.00  0.00     0.178 HD
ENDBRANCH  24  29
BRANCH  25  32
HETATM   32  O7  UNL     1      -0.604  -2.897  17.305  1.00  0.00    -0.329 OA
ATOM     33  H7  UNL     1       0.188  -3.373  17.527  1.00  0.00     0.221 HD
ENDBRANCH  25  32
ENDBRANCH  16  20
ENDBRANCH  11  12
ENDBRANCH   8  11
ENDBRANCH   5   8
ENDBRANCH   4   5
ENDBRANCH   3   4
BRANCH   3  34
HETATM   34  C12 UNL     1       1.705   4.890  10.488  1.00  0.00     0.327 C 
BRANCH  34  35
HETATM   35  O8  UNL     1       1.425   3.724   9.683  1.00  0.00    -0.366 OA
ATOM     36  H8  UNL     1       0.965   4.100   8.942  1.00  0.00     0.212 HD
ENDBRANCH  34  35
BRANCH  34  37
HETATM   37  O9  UNL     1       0.871   5.908  10.147  1.00  0.00    -0.366 OA
ATOM     38  H9  UNL     1       0.213   5.588   9.541  1.00  0.00     0.212 HD
ENDBRANCH  34  37
ENDBRANCH   3  34
BRANCH   3  39
HETATM   39  N8  UNL     1       2.536   4.327  12.661  1.00  0.00    -0.126 N 
HETATM   40  C13 UNL     1       3.161   5.312  13.365  1.00  0.00     0.223 A 
HETATM   41  N9  UNL     1       4.317   5.163  14.005  1.00  0.00    -0.187 N 
HETATM   42  C14 UNL     1       4.977   4.020  14.009  1.00  0.00     0.691 A 
ATOM     43  H9  UNL     1       4.706   5.960  14.509  1.00  0.00     0.185 HD
HETATM   44  N11 UNL     1       4.434   2.991  13.324  1.00  0.00    -0.022 N 
HETATM   45  C15 UNL     1       3.266   3.152  12.685  1.00  0.00     0.697 A 
ATOM     46  H11 UNL     1       4.913   2.091  13.293  1.00  0.00     0.203 HD
BRANCH  42  47
HETATM   47  N10 UNL     1       6.090   3.782  14.606  1.00  0.00    -0.234 N 
ATOM     48 2H10 UNL     1       6.812   4.497  14.518  1.00  0.00     0.174 HD
ATOM     49 1H10 UNL     1       6.321   2.951  15.153  1.00  0.00     0.174 HD
ENDBRANCH  42  47
BRANCH  45  50
HETATM   50  N12 UNL     1       2.830   2.147  12.049  1.00  0.00    -0.234 N 
ATOM     51 2H12 UNL     1       2.682   2.273  11.048  1.00  0.00     0.174 HD
ATOM     52 1H12 UNL     1       2.638   1.285  12.560  1.00  0.00     0.174 HD
ENDBRANCH  45  50
ENDBRANCH   3  39
TORSDOF 18
ENDMDL
MODEL 3
REMARK VINA RESULT: -6.297327196      3.014      5.584
REMARK  18 active torsions:
REMARK  status: ('A' for Active; 'I' for Inactive)
REMARK    1  A    between atoms: C2_3  and  O1_4 
REMARK    2  A    between atoms: C2_3  and  C12_34 
REMARK    3  A    between atoms: C2_3  and  N8_39 
REMARK    4  A    between atoms: O1_4  and  C3_5 
REMARK    5  A    between atoms: C3_5  and  O2_6 
REMARK    6  A    between atoms: C3_5  and  N2_8 
REMARK    7  A    between atoms: N2_8  and  O3_9 
REMARK    8  A    between atoms: N2_8  and  C4_11 
REMARK    9  A    between atoms: C4_11  and  C5_12 
REMARK   10  A    between atoms: C7_14  and  C8_15 
REMARK   11  A    between atoms: C9_19  and  N3_20 
REMARK   12  A    between atoms: C10_23  and  N5_24 
REMARK   13  A    between atoms: N6_27  and  N7_28 
REMARK   14  A    between atoms: C11_31  and  O7_32 
REMARK   15  A    between atoms: C12_34  and  O8_35 
REMARK   16  A    between atoms: C12_34  and  O9_37 
REMARK   17  A    between atoms: C14_43  and  N10_44 
REMARK   18  A    between atoms: C15_49  and  N12_50 
ROOT
HETATM    1  N1  UNL     1      -0.523   5.151  13.169  1.00  0.00    -0.192 NA
HETATM    2  C1  UNL     1       0.644   4.921  13.243  1.00  0.00     0.128 C 
HETATM    3  C2  UNL     1       2.120   4.594  13.264  1.00  0.00     0.301 C 
ENDROOT
BRANCH   3   4
HETATM    4  O1  UNL     1       2.755   5.297  12.357  1.00  0.00    -0.293 OA
BRANCH   4   5
HETATM    5  C3  UNL     1       2.277   6.044  11.357  1.00  0.00     0.399 C 
BRANCH   5   6
HETATM    6  O2  UNL     1       2.097   7.370  12.299  1.00  0.00    -0.353 OA
ATOM      7  H2  UNL     1       1.447   7.761  11.726  1.00  0.00     0.214 HD
ENDBRANCH   5   6
BRANCH   5   8
HETATM    8  N2  UNL     1       3.133   6.633  10.486  1.00  0.00    -0.217 N 
BRANCH   8   9
HETATM    9  O3  UNL     1       4.397   6.916  11.020  1.00  0.00    -0.284 OA
ATOM     10  H3  UNL     1       5.033   7.221  10.382  1.00  0.00     0.245 HD
ENDBRANCH   8   9
BRANCH   8  11
HETATM   11  C4  UNL     1       3.146   6.940   9.134  1.00  0.00     0.138 C 
BRANCH  11  12
HETATM   12  C5  UNL     1       2.941   8.330   8.805  1.00  0.00     0.038 A 
HETATM   13  C6  UNL     1       1.846   9.113   9.219  1.00  0.00     0.062 A 
HETATM   14  C7  UNL     1       1.916  10.350   8.609  1.00  0.00     0.155 A 
HETATM   15  O6  UNL     1       3.015  10.298   7.855  1.00  0.00    -0.284 OA
HETATM   16  C9  UNL     1       3.637   9.139   7.947  1.00  0.00     0.185 A 
BRANCH  14  17
HETATM   17  C8  UNL     1       1.058  11.549   8.670  1.00  0.00     0.234 C 
HETATM   18  O4  UNL     1      -0.076  11.558   8.251  1.00  0.00    -0.642 OA
HETATM   19  O5  UNL     1       1.649  12.673   9.247  1.00  0.00    -0.642 OA
ENDBRANCH  14  17
BRANCH  16  20
HETATM   20  N3  UNL     1       4.862   8.939   7.202  1.00  0.00    -0.179 N 
HETATM   21  N4  UNL     1       5.057   9.025   5.904  1.00  0.00    -0.119 N 
HETATM   22  C10 UNL     1       6.331   8.874   5.586  1.00  0.00     0.715 A 
ATOM     23  H4  UNL     1       4.314   9.190   5.225  1.00  0.00     0.206 HD
HETATM   24  N6  UNL     1       7.006   8.684   6.700  1.00  0.00    -0.051 N 
HETATM   25  C11 UNL     1       6.078   8.719   7.725  1.00  0.00     0.283 A 
BRANCH  22  26
HETATM   26  N5  UNL     1       6.826   8.824   4.355  1.00  0.00    -0.231 N 
ATOM     27  H52 UNL     1       6.353   8.449   3.533  1.00  0.00     0.174 HD
ATOM     28  H51 UNL     1       7.715   9.220   4.050  1.00  0.00     0.174 HD
ENDBRANCH  22  26
BRANCH  24  29
HETATM   29  N7  UNL     1       8.398   8.561   6.839  1.00  0.00    -0.321 N 
ATOM     30  H72 UNL     1       8.940   8.739   7.685  1.00  0.00     0.178 HD
ATOM     31  H71 UNL     1       9.075   8.344   6.107  1.00  0.00     0.178 HD
ENDBRANCH  24  29
BRANCH  25  32
HETATM   32  O7  UNL     1       6.408   8.548   9.053  1.00  0.00    -0.329 OA
ATOM     33  H7  UNL     1       6.837   7.802   9.455  1.00  0.00     0.221 HD
ENDBRANCH  25  32
ENDBRANCH  16  20
ENDBRANCH  11  12
ENDBRANCH   8  11
ENDBRANCH   5   8
ENDBRANCH   4   5
ENDBRANCH   3   4
BRANCH   3  34
HETATM   34  C12 UNL     1       2.653   5.302  14.609  1.00  0.00     0.327 C 
BRANCH  34  35
HETATM   35  O8  UNL     1       3.896   5.889  14.169  1.00  0.00    -0.366 OA
ATOM     36  H8  UNL     1       4.355   6.023  14.990  1.00  0.00     0.212 HD
ENDBRANCH  34  35
BRANCH  34  37
HETATM   37  O9  UNL     1       1.781   6.274  14.987  1.00  0.00    -0.366 OA
ATOM     38  H9  UNL     1       2.262   7.065  15.199  1.00  0.00     0.212 HD
ENDBRANCH  34  37
ENDBRANCH   3  34
BRANCH   3  39
HETATM   39  N8  UNL     1       2.225   3.236  13.479  1.00  0.00    -0.126 N 
HETATM   40  C13 UNL     1       1.328   2.383  14.049  1.00  0.00     0.223 A 
HETATM   41  N9  UNL     1       1.526   1.078  14.207  1.00  0.00    -0.187 N 
HETATM   42  C14 UNL     1       2.638   0.482  13.818  1.00  0.00     0.691 A 
ATOM     43  H9  UNL     1       0.793   0.518  14.643  1.00  0.00     0.185 HD
HETATM   44  N11 UNL     1       3.587   1.256  13.252  1.00  0.00    -0.022 N 
HETATM   45  C15 UNL     1       3.376   2.571  13.095  1.00  0.00     0.697 A 
ATOM     46  H11 UNL     1       4.467   0.841  12.944  1.00  0.00     0.203 HD
BRANCH  42  47
HETATM   47  N10 UNL     1       2.911  -0.770  13.919  1.00  0.00    -0.234 N 
ATOM     48 2H10 UNL     1       2.520  -1.254  14.727  1.00  0.00     0.174 HD
ATOM     49 1H10 UNL     1       3.479  -1.322  13.276  1.00  0.00     0.174 HD
ENDBRANCH  42  47
BRANCH  45  50
HETATM   50  N12 UNL     1       4.321   3.235  12.573  1.00  0.00    -0.234 N 
ATOM     51 2H12 UNL     1       4.339   3.272  11.554  1.00  0.00     0.174 HD
ATOM     52 1H12 UNL     1       5.010   3.676  13.183  1.00  0.00     0.174 HD
ENDBRANCH  45  50
ENDBRANCH   3  39
TORSDOF 18
ENDMDL
MODEL 4
REMARK VINA RESULT: -6.284130755      2.314      4.675
REMARK  18 active torsions:
REMARK  status: ('A' for Active; 'I' for Inactive)
REMARK    1  A    between atoms: C2_3  and  O1_4 
REMARK    2  A    between atoms: C2_3  and  C12_34 
REMARK    3  A    between atoms: C2_3  and  N8_39 
REMARK    4  A    between atoms: O1_4  and  C3_5 
REMARK    5  A    between atoms: C3_5  and  O2_6 
REMARK    6  A    between atoms: C3_5  and  N2_8 
REMARK    7  A    between atoms: N2_8  and  O3_9 
REMARK    8  A    between atoms: N2_8  and  C4_11 
REMARK    9  A    between atoms: C4_11  and  C5_12 
REMARK   10  A    between atoms: C7_14  and  C8_15 
REMARK   11  A    between atoms: C9_19  and  N3_20 
REMARK   12  A    between atoms: C10_23  and  N5_24 
REMARK   13  A    between atoms: N6_27  and  N7_28 
REMARK   14  A    between atoms: C11_31  and  O7_32 
REMARK   15  A    between atoms: C12_34  and  O8_35 
REMARK   16  A    between atoms: C12_34  and  O9_37 
REMARK   17  A    between atoms: C14_43  and  N10_44 
REMARK   18  A    between atoms: C15_49  and  N12_50 
ROOT
HETATM    1  N1  UNL     1      -4.244   4.200  12.510  1.00  0.00    -0.192 NA
HETATM    2  C1  UNL     1      -3.056   4.227  12.427  1.00  0.00     0.128 C 
HETATM    3  C2  UNL     1      -1.552   4.202  12.266  1.00  0.00     0.301 C 
ENDROOT
BRANCH   3   4
HETATM    4  O1  UNL     1      -1.215   4.622  11.071  1.00  0.00    -0.293 OA
BRANCH   4   5
HETATM    5  C3  UNL     1      -0.230   4.216  10.262  1.00  0.00     0.399 C 
BRANCH   5   6
HETATM    6  O2  UNL     1      -1.261   3.615   9.142  1.00  0.00    -0.353 OA
ATOM      7  H2  UNL     1      -1.447   4.468   8.769  1.00  0.00     0.214 HD
ENDBRANCH   5   6
BRANCH   5   8
HETATM    8  N2  UNL     1       0.358   5.100   9.418  1.00  0.00    -0.217 N 
BRANCH   8   9
HETATM    9  O3  UNL     1      -0.253   6.360   9.385  1.00  0.00    -0.284 OA
ATOM     10  H3  UNL     1       0.354   7.091   9.416  1.00  0.00     0.245 HD
ENDBRANCH   8   9
BRANCH   8  11
HETATM   11  C4  UNL     1       1.503   5.143   8.638  1.00  0.00     0.138 C 
BRANCH  11  12
HETATM   12  C5  UNL     1       2.497   6.109   9.037  1.00  0.00     0.038 A 
HETATM   13  C6  UNL     1       3.098   7.059   8.188  1.00  0.00     0.062 A 
HETATM   14  C7  UNL     1       4.092   7.722   8.881  1.00  0.00     0.155 A 
HETATM   15  O6  UNL     1       4.082   7.178  10.098  1.00  0.00    -0.284 OA
HETATM   16  C9  UNL     1       3.165   6.239  10.226  1.00  0.00     0.185 A 
BRANCH  14  17
HETATM   17  C8  UNL     1       5.031   8.797   8.506  1.00  0.00     0.234 C 
HETATM   18  O4  UNL     1       6.230   8.645   8.518  1.00  0.00    -0.642 OA
HETATM   19  O5  UNL     1       4.435  10.002   8.134  1.00  0.00    -0.642 OA
ENDBRANCH  14  17
BRANCH  16  20
HETATM   20  N3  UNL     1       3.017   5.570  11.501  1.00  0.00    -0.179 N 
HETATM   21  N4  UNL     1       3.435   4.374  11.853  1.00  0.00    -0.119 N 
HETATM   22  C10 UNL     1       3.209   4.129  13.132  1.00  0.00     0.715 A 
ATOM     23  H4  UNL     1       3.880   3.714  11.215  1.00  0.00     0.206 HD
HETATM   24  N6  UNL     1       2.627   5.191  13.649  1.00  0.00    -0.051 N 
HETATM   25  C11 UNL     1       2.499   6.103  12.618  1.00  0.00     0.283 A 
BRANCH  22  26
HETATM   26  N5  UNL     1       3.437   2.982  13.759  1.00  0.00    -0.231 N 
ATOM     27  H52 UNL     1       4.067   2.845  14.549  1.00  0.00     0.174 HD
ATOM     28  H51 UNL     1       2.956   2.099  13.586  1.00  0.00     0.174 HD
ENDBRANCH  22  26
BRANCH  24  29
HETATM   29  N7  UNL     1       2.284   5.401  14.995  1.00  0.00    -0.321 N 
ATOM     30  H72 UNL     1       1.486   4.998  15.487  1.00  0.00     0.178 HD
ATOM     31  H71 UNL     1       2.737   6.033  15.656  1.00  0.00     0.178 HD
ENDBRANCH  24  29
BRANCH  25  32
HETATM   32  O7  UNL     1       1.923   7.347  12.771  1.00  0.00    -0.329 OA
ATOM     33  H7  UNL     1       2.339   8.148  13.066  1.00  0.00     0.221 HD
ENDBRANCH  25  32
ENDBRANCH  16  20
ENDBRANCH  11  12
ENDBRANCH   8  11
ENDBRANCH   5   8
ENDBRANCH   4   5
ENDBRANCH   3   4
BRANCH   3  34
HETATM   34  C12 UNL     1      -1.047   5.439  13.165  1.00  0.00     0.327 C 
BRANCH  34  35
HETATM   35  O8  UNL     1      -1.013   6.516  12.205  1.00  0.00    -0.366 OA
ATOM     36  H8  UNL     1      -0.115   6.483  11.899  1.00  0.00     0.212 HD
ENDBRANCH  34  35
BRANCH  34  37
HETATM   37  O9  UNL     1      -1.964   5.701  14.133  1.00  0.00    -0.366 OA
ATOM     38  H9  UNL     1      -2.824   5.788  13.740  1.00  0.00     0.212 HD
ENDBRANCH  34  37
ENDBRANCH   3  34
BRANCH   3  39
HETATM   39  N8  UNL     1      -1.103   3.061  12.898  1.00  0.00    -0.126 N 
HETATM   40  C13 UNL     1      -0.240   2.941  13.946  1.00  0.00     0.223 A 
HETATM   41  N9  UNL     1       0.129   1.784  14.488  1.00  0.00    -0.187 N 
HETATM   42  C14 UNL     1      -0.317   0.624  14.044  1.00  0.00     0.691 A 
ATOM     43  H9  UNL     1       0.778   1.795  15.275  1.00  0.00     0.185 HD
HETATM   44  N11 UNL     1      -1.168   0.650  12.997  1.00  0.00    -0.022 N 
HETATM   45  C15 UNL     1      -1.536   1.822  12.460  1.00  0.00     0.697 A 
ATOM     46  H11 UNL     1      -1.532  -0.223  12.614  1.00  0.00     0.203 HD
BRANCH  42  47
HETATM   47  N10 UNL     1      -0.025  -0.537  14.510  1.00  0.00    -0.234 N 
ATOM     48 2H10 UNL     1       0.612  -0.557  15.307  1.00  0.00     0.174 HD
ATOM     49 1H10 UNL     1      -0.362  -1.435  14.162  1.00  0.00     0.174 HD
ENDBRANCH  42  47
BRANCH  45  50
HETATM   50  N12 UNL     1      -2.324   1.765  11.468  1.00  0.00    -0.234 N 
ATOM     51 2H12 UNL     1      -2.905   2.587  11.304  1.00  0.00     0.174 HD
ATOM     52 1H12 UNL     1      -2.348   0.914  10.907  1.00  0.00     0.174 HD
ENDBRANCH  45  50
ENDBRANCH   3  39
TORSDOF 18
ENDMDL
MODEL 5
REMARK VINA RESULT: -6.201772714      2.970      5.630
REMARK  18 active torsions:
REMARK  status: ('A' for Active; 'I' for Inactive)
REMARK    1  A    between atoms: C2_3  and  O1_4 
REMARK    2  A    between atoms: C2_3  and  C12_34 
REMARK    3  A    between atoms: C2_3  and  N8_39 
REMARK    4  A    between atoms: O1_4  and  C3_5 
REMARK    5  A    between atoms: C3_5  and  O2_6 
REMARK    6  A    between atoms: C3_5  and  N2_8 
REMARK    7  A    between atoms: N2_8  and  O3_9 
REMARK    8  A    between atoms: N2_8  and  C4_11 
REMARK    9  A    between atoms: C4_11  and  C5_12 
REMARK   10  A    between atoms: C7_14  and  C8_15 
REMARK   11  A    between atoms: C9_19  and  N3_20 
REMARK   12  A    between atoms: C10_23  and  N5_24 
REMARK   13  A    between atoms: N6_27  and  N7_28 
REMARK   14  A    between atoms: C11_31  and  O7_32 
REMARK   15  A    between atoms: C12_34  and  O8_35 
REMARK   16  A    between atoms: C12_34  and  O9_37 
REMARK   17  A    between atoms: C14_43  and  N10_44 
REMARK   18  A    between atoms: C15_49  and  N12_50 
ROOT
HETATM    1  N1  UNL     1      -0.753   4.916  13.457  1.00  0.00    -0.192 NA
HETATM    2  C1  UNL     1       0.419   4.701  13.479  1.00  0.00     0.128 C 
HETATM    3  C2  UNL     1       1.899   4.393  13.434  1.00  0.00     0.301 C 
ENDROOT
BRANCH   3   4
HETATM    4  O1  UNL     1       2.483   5.099  12.496  1.00  0.00    -0.293 OA
BRANCH   4   5
HETATM    5  C3  UNL     1       1.951   5.814  11.498  1.00  0.00     0.399 C 
BRANCH   5   6
HETATM    6  O2  UNL     1       2.194   7.243  12.258  1.00  0.00    -0.353 OA
ATOM      7  H2  UNL     1       1.519   7.080  12.906  1.00  0.00     0.214 HD
ENDBRANCH   5   6
BRANCH   5   8
HETATM    8  N2  UNL     1       2.704   6.126  10.415  1.00  0.00    -0.217 N 
BRANCH   8   9
HETATM    9  O3  UNL     1       3.907   6.777  10.716  1.00  0.00    -0.284 OA
ATOM     10  H3  UNL     1       4.428   6.348  11.386  1.00  0.00     0.245 HD
ENDBRANCH   8   9
BRANCH   8  11
HETATM   11  C4  UNL     1       2.669   5.869   9.053  1.00  0.00     0.138 C 
BRANCH  11  12
HETATM   12  C5  UNL     1       1.923   6.813   8.256  1.00  0.00     0.038 A 
HETATM   13  C6  UNL     1       0.528   6.792   8.062  1.00  0.00     0.062 A 
HETATM   14  C7  UNL     1       0.185   7.762   7.140  1.00  0.00     0.155 A 
HETATM   15  O6  UNL     1       1.339   8.333   6.798  1.00  0.00    -0.284 OA
HETATM   16  C9  UNL     1       2.371   7.809   7.429  1.00  0.00     0.185 A 
BRANCH  14  17
HETATM   17  C8  UNL     1      -1.107   8.186   6.565  1.00  0.00     0.234 C 
HETATM   18  O4  UNL     1      -1.852   8.947   7.137  1.00  0.00    -0.642 OA
HETATM   19  O5  UNL     1      -1.405   7.648   5.314  1.00  0.00    -0.642 OA
ENDBRANCH  14  17
BRANCH  16  20
HETATM   20  N3  UNL     1       3.693   8.341   7.179  1.00  0.00    -0.179 N 
HETATM   21  N4  UNL     1       4.727   8.387   7.990  1.00  0.00    -0.119 N 
HETATM   22  C10 UNL     1       5.807   8.855   7.388  1.00  0.00     0.715 A 
ATOM     23  H4  UNL     1       4.698   8.097   8.968  1.00  0.00     0.206 HD
HETATM   24  N6  UNL     1       5.487   9.126   6.141  1.00  0.00    -0.051 N 
HETATM   25  C11 UNL     1       4.148   8.807   6.005  1.00  0.00     0.283 A 
BRANCH  22  26
HETATM   26  N5  UNL     1       6.977   9.101   7.965  1.00  0.00    -0.231 N 
ATOM     27  H52 UNL     1       7.860   8.639   7.751  1.00  0.00     0.174 HD
ATOM     28  H51 UNL     1       7.166   9.837   8.645  1.00  0.00     0.174 HD
ENDBRANCH  22  26
BRANCH  24  29
HETATM   29  N7  UNL     1       6.347   9.565   5.119  1.00  0.00    -0.321 N 
ATOM     30  H72 UNL     1       7.143   9.054   4.737  1.00  0.00     0.178 HD
ATOM     31  H71 UNL     1       6.345  10.476   4.660  1.00  0.00     0.178 HD
ENDBRANCH  24  29
BRANCH  25  32
HETATM   32  O7  UNL     1       3.445   8.963   4.829  1.00  0.00    -0.329 OA
ATOM     33  H7  UNL     1       3.670   9.511   4.086  1.00  0.00     0.221 HD
ENDBRANCH  25  32
ENDBRANCH  16  20
ENDBRANCH  11  12
ENDBRANCH   8  11
ENDBRANCH   5   8
ENDBRANCH   4   5
ENDBRANCH   3   4
BRANCH   3  34
HETATM   34  C12 UNL     1       2.484   5.113  14.750  1.00  0.00     0.327 C 
BRANCH  34  35
HETATM   35  O8  UNL     1       3.750   5.622  14.279  1.00  0.00    -0.366 OA
ATOM     36  H8  UNL     1       4.288   5.572  15.060  1.00  0.00     0.212 HD
ENDBRANCH  34  35
BRANCH  34  37
HETATM   37  O9  UNL     1       1.668   6.140  15.106  1.00  0.00    -0.366 OA
ATOM     38  H9  UNL     1       1.369   6.013  15.998  1.00  0.00     0.212 HD
ENDBRANCH  34  37
ENDBRANCH   3  34
BRANCH   3  39
HETATM   39  N8  UNL     1       2.031   3.037  13.648  1.00  0.00    -0.126 N 
HETATM   40  C13 UNL     1       1.183   2.180  14.284  1.00  0.00     0.223 A 
HETATM   41  N9  UNL     1       1.403   0.877  14.435  1.00  0.00    -0.187 N 
HETATM   42  C14 UNL     1       2.491   0.289  13.974  1.00  0.00     0.691 A 
ATOM     43  H9  UNL     1       0.707   0.314  14.924  1.00  0.00     0.185 HD
HETATM   44  N11 UNL     1       3.393   1.068  13.340  1.00  0.00    -0.022 N 
HETATM   45  C15 UNL     1       3.159   2.380  13.191  1.00  0.00     0.697 A 
ATOM     46  H11 UNL     1       4.253   0.659  12.975  1.00  0.00     0.203 HD
BRANCH  42  47
HETATM   47  N10 UNL     1       2.782  -0.960  14.064  1.00  0.00    -0.234 N 
ATOM     48 2H10 UNL     1       2.449  -1.557  13.307  1.00  0.00     0.174 HD
ATOM     49 1H10 UNL     1       3.307  -1.409  14.815  1.00  0.00     0.174 HD
ENDBRANCH  42  47
BRANCH  45  50
HETATM   50  N12 UNL     1       4.060   3.049  12.601  1.00  0.00    -0.234 N 
ATOM     51 2H12 UNL     1       3.758   3.907  12.139  1.00  0.00     0.174 HD
ATOM     52 1H12 UNL     1       5.017   2.696  12.604  1.00  0.00     0.174 HD
ENDBRANCH  45  50
ENDBRANCH   3  39
TORSDOF 18
ENDMDL
