MODEL 1
REMARK VINA RESULT: -7.172185716      0.000      0.000
REMARK  17 active torsions:
REMARK  status: ('A' for Active; 'I' for Inactive)
REMARK    1  A    between atoms: N1_5  and  C4_7 
REMARK    2  A    between atoms: C4_7  and  C5_8 
REMARK    3  A    between atoms: C5_8  and  N2_9 
REMARK    4  A    between atoms: C6_13  and  C7_14 
REMARK    5  A    between atoms: C7_14  and  N3_15 
REMARK    6  A    between atoms: C8_16  and  C9_17 
REMARK    7  A    between atoms: C9_17  and  O2_18 
REMARK    8  A    between atoms: C9_17  and  C10_20 
REMARK    9  A    between atoms: C10_20  and  O3_21 
REMARK   10  A    between atoms: C10_20  and  O4_23 
REMARK   11  A    between atoms: C11_25  and  O5_26 
REMARK   12  A    between atoms: N4_28  and  N5_29 
REMARK   13  A    between atoms: N5_29  and  C12_31 
REMARK   14  A    between atoms: C13_38  and  C14_39 
REMARK   15  A    between atoms: N10_43  and  O7_45 
REMARK   16  A    between atoms: C16_47  and  O8_48 
REMARK   17  A    between atoms: C17_50  and  O9_51 
ROOT
HETATM    1  N3  UNL     1       1.529   4.913  11.781  1.00  0.00    -0.150 N 
HETATM    2  C8  UNL     1       1.099   4.619  10.561  1.00  0.00     0.120 A 
HETATM    3  C11 UNL     1       1.720   5.546   9.685  1.00  0.00     0.206 A 
HETATM    4  N4  UNL     1       2.501   6.349  10.375  1.00  0.00    -0.061 N 
HETATM    5  C15 UNL     1       2.379   5.955  11.672  1.00  0.00     0.732 A 
HETATM    6  N10 UNL     1       3.047   6.567  12.604  1.00  0.00    -0.096 N 
ATOM      7  H10 UNL     1       3.639   7.342  12.304  1.00  0.00     0.213 HD
ENDROOT
BRANCH   1   8
HETATM    8  C7  UNL     1       1.140   4.346  13.012  1.00  0.00     0.134 C 
BRANCH   8   9
HETATM    9  C6  UNL     1       1.702   3.032  13.400  1.00  0.00     0.068 A 
HETATM   10  C3  UNL     1       0.694   2.033  13.567  1.00  0.00     0.158 A 
HETATM   11  O1  UNL     1       1.141   0.817  13.916  1.00  0.00    -0.295 OA
HETATM   12  N1  UNL     1      -0.509   2.182  13.430  1.00  0.00    -0.368 N 
HETATM   13  C2  UNL     1       2.362   0.465  14.111  1.00  0.00     0.087 A 
HETATM   14  C1  UNL     1       2.723  -0.954  14.506  1.00  0.00     0.080 C 
HETATM   15  C17 UNL     1       3.352   1.404  13.958  1.00  0.00     0.129 A 
HETATM   16  C16 UNL     1       2.984   2.688  13.600  1.00  0.00     0.117 A 
ATOM     17  H1  UNL     1      -0.874   1.253  13.639  1.00  0.00     0.161 HD
BRANCH  15  18
HETATM   18  O9  UNL     1       4.702   1.110  14.145  1.00  0.00    -0.356 OA
ATOM     19  H9  UNL     1       5.253   1.593  14.750  1.00  0.00     0.218 HD
ENDBRANCH  15  18
BRANCH  16  20
HETATM   20  O8  UNL     1       3.982   3.653  13.455  1.00  0.00    -0.357 OA
ATOM     21  H8  UNL     1       3.982   4.412  14.027  1.00  0.00     0.217 HD
ENDBRANCH  16  20
BRANCH  12  22
HETATM   22  C4  UNL     1      -1.616   2.874  13.161  1.00  0.00     0.149 C 
BRANCH  22  23
HETATM   23  C5  UNL     1      -2.840   1.991  12.778  1.00  0.00     0.249 C 
BRANCH  23  24
HETATM   24  N2  UNL     1      -2.718   1.726  11.361  1.00  0.00    -0.078 N 
ATOM     25  H23 UNL     1      -1.956   2.236  10.917  1.00  0.00     0.274 HD
ATOM     26  H22 UNL     1      -2.379   0.787  11.152  1.00  0.00     0.274 HD
ATOM     27  H21 UNL     1      -3.632   1.927  10.955  1.00  0.00     0.274 HD
ENDBRANCH  23  24
ENDBRANCH  22  23
ENDBRANCH  12  22
ENDBRANCH   8   9
ENDBRANCH   1   8
BRANCH   2  28
HETATM   28  C9  UNL     1       0.122   3.639  10.018  1.00  0.00     0.228 C 
BRANCH  28  29
HETATM   29  O2  UNL     1       0.763   3.045   8.845  1.00  0.00    -0.384 OA
ATOM     30  H2  UNL     1       0.593   3.643   8.126  1.00  0.00     0.210 HD
ENDBRANCH  28  29
BRANCH  28  31
HETATM   31  C10 UNL     1      -1.085   4.301   9.440  1.00  0.00     0.288 C 
BRANCH  31  32
HETATM   32  O3  UNL     1      -1.853   4.756  10.602  1.00  0.00    -0.368 OA
ATOM     33  H3  UNL     1      -1.818   4.029  11.213  1.00  0.00     0.212 HD
ENDBRANCH  31  32
BRANCH  31  34
HETATM   34  O4  UNL     1      -1.944   3.331   8.866  1.00  0.00    -0.368 OA
ATOM     35  H4  UNL     1      -1.924   3.397   7.919  1.00  0.00     0.212 HD
ENDBRANCH  31  34
ENDBRANCH  28  31
ENDBRANCH   2  28
BRANCH   3  36
HETATM   36  O5  UNL     1       1.520   5.580   8.309  1.00  0.00    -0.343 OA
ATOM     37  H5  UNL     1       1.899   6.231   7.729  1.00  0.00     0.219 HD
ENDBRANCH   3  36
BRANCH   4  38
HETATM   38  N5  UNL     1       3.442   7.312   9.939  1.00  0.00    -0.283 N 
ATOM     39  H5  UNL     1       4.406   7.195  10.253  1.00  0.00     0.184 HD
BRANCH  38  40
HETATM   40  C12 UNL     1       3.167   8.418   9.110  1.00  0.00     0.272 A 
HETATM   41  N6  UNL     1       2.170   9.332   9.523  1.00  0.00    -0.292 N 
HETATM   42  N7  UNL     1       2.663  10.511   9.428  1.00  0.00    -0.244 N 
ATOM     43  H6  UNL     1       1.230   9.096   9.841  1.00  0.00     0.184 HD
HETATM   44  N8  UNL     1       3.984  10.473   8.966  1.00  0.00    -0.282 N 
ATOM     45  H7  UNL     1       2.158  11.367   9.658  1.00  0.00     0.208 HD
HETATM   46  C13 UNL     1       4.364   9.246   8.753  1.00  0.00     0.136 A 
ATOM     47  H8  UNL     1       4.569  11.295   8.816  1.00  0.00     0.188 HD
BRANCH  46  48
HETATM   48  C14 UNL     1       5.648   8.753   8.286  1.00  0.00     0.282 C 
HETATM   49  N9  UNL     1       6.718   9.646   7.994  1.00  0.00    -0.056 NA
HETATM   50  O6  UNL     1       5.833   7.528   8.134  1.00  0.00    -0.270 OA
ENDBRANCH  46  48
ENDBRANCH  38  40
ENDBRANCH   4  38
BRANCH   6  51
HETATM   51  O7  UNL     1       3.046   6.290  13.924  1.00  0.00    -0.276 OA
ATOM     52  H7  UNL     1       2.966   6.909  14.641  1.00  0.00     0.245 HD
ENDBRANCH   6  51
TORSDOF 17
ENDMDL
MODEL 2
REMARK VINA RESULT: -6.857563433      1.649      3.020
REMARK  17 active torsions:
REMARK  status: ('A' for Active; 'I' for Inactive)
REMARK    1  A    between atoms: N1_5  and  C4_7 
REMARK    2  A    between atoms: C4_7  and  C5_8 
REMARK    3  A    between atoms: C5_8  and  N2_9 
REMARK    4  A    between atoms: C6_13  and  C7_14 
REMARK    5  A    between atoms: C7_14  and  N3_15 
REMARK    6  A    between atoms: C8_16  and  C9_17 
REMARK    7  A    between atoms: C9_17  and  O2_18 
REMARK    8  A    between atoms: C9_17  and  C10_20 
REMARK    9  A    between atoms: C10_20  and  O3_21 
REMARK   10  A    between atoms: C10_20  and  O4_23 
REMARK   11  A    between atoms: C11_25  and  O5_26 
REMARK   12  A    between atoms: N4_28  and  N5_29 
REMARK   13  A    between atoms: N5_29  and  C12_31 
REMARK   14  A    between atoms: C13_38  and  C14_39 
REMARK   15  A    between atoms: N10_43  and  O7_45 
REMARK   16  A    between atoms: C16_47  and  O8_48 
REMARK   17  A    between atoms: C17_50  and  O9_51 
ROOT
HETATM    1  N3  UNL     1       1.066   4.401  11.102  1.00  0.00    -0.150 N 
HETATM    2  C8  UNL     1       1.134   5.232  12.134  1.00  0.00     0.120 A 
HETATM    3  C11 UNL     1       2.044   6.254  11.765  1.00  0.00     0.206 A 
HETATM    4  N4  UNL     1       2.484   6.033  10.545  1.00  0.00    -0.061 N 
HETATM    5  C15 UNL     1       1.877   4.884  10.138  1.00  0.00     0.732 A 
HETATM    6  N10 UNL     1       2.113   4.408   8.953  1.00  0.00    -0.096 N 
ATOM      7  H10 UNL     1       2.770   4.932   8.375  1.00  0.00     0.213 HD
ENDROOT
BRANCH   1   8
HETATM    8  C7  UNL     1       0.372   3.178  11.000  1.00  0.00     0.134 C 
BRANCH   8   9
HETATM    9  C6  UNL     1       0.717   2.083  11.935  1.00  0.00     0.068 A 
HETATM   10  C3  UNL     1      -0.433   1.366  12.388  1.00  0.00     0.158 A 
HETATM   11  O1  UNL     1      -0.185   0.357  13.236  1.00  0.00    -0.295 OA
HETATM   12  N1  UNL     1      -1.594   1.585  12.083  1.00  0.00    -0.368 N 
HETATM   13  C2  UNL     1       0.961  -0.024  13.676  1.00  0.00     0.087 A 
HETATM   14  C1  UNL     1       1.092  -1.188  14.640  1.00  0.00     0.080 C 
HETATM   15  C17 UNL     1       2.084   0.647  13.259  1.00  0.00     0.129 A 
HETATM   16  C16 UNL     1       1.925   1.704  12.383  1.00  0.00     0.117 A 
ATOM     17  H1  UNL     1      -2.100   0.873  12.610  1.00  0.00     0.161 HD
BRANCH  15  18
HETATM   18  O9  UNL     1       3.367   0.299  13.681  1.00  0.00    -0.356 OA
ATOM     19  H9  UNL     1       4.057   0.940  13.804  1.00  0.00     0.218 HD
ENDBRANCH  15  18
BRANCH  16  20
HETATM   20  O8  UNL     1       3.059   2.400  11.963  1.00  0.00    -0.357 OA
ATOM     21  H8  UNL     1       3.911   1.985  12.028  1.00  0.00     0.217 HD
ENDBRANCH  16  20
BRANCH  12  22
HETATM   22  C4  UNL     1      -2.574   2.230  11.451  1.00  0.00     0.149 C 
BRANCH  22  23
HETATM   23  C5  UNL     1      -3.459   3.111  12.382  1.00  0.00     0.249 C 
BRANCH  23  24
HETATM   24  N2  UNL     1      -2.793   4.391  12.479  1.00  0.00    -0.078 N 
ATOM     25  H23 UNL     1      -2.711   4.735  13.435  1.00  0.00     0.274 HD
ATOM     26  H22 UNL     1      -1.794   4.343  12.277  1.00  0.00     0.274 HD
ATOM     27  H21 UNL     1      -3.302   5.023  11.861  1.00  0.00     0.274 HD
ENDBRANCH  23  24
ENDBRANCH  22  23
ENDBRANCH  12  22
ENDBRANCH   8   9
ENDBRANCH   1   8
BRANCH   2  28
HETATM   28  C9  UNL     1       0.543   5.235  13.498  1.00  0.00     0.228 C 
BRANCH  28  29
HETATM   29  O2  UNL     1       0.207   6.630  13.785  1.00  0.00    -0.384 OA
ATOM     30  H2  UNL     1      -0.718   6.634  14.000  1.00  0.00     0.210 HD
ENDBRANCH  28  29
BRANCH  28  31
HETATM   31  C10 UNL     1       1.547   4.909  14.554  1.00  0.00     0.288 C 
BRANCH  31  32
HETATM   32  O3  UNL     1       1.788   6.180  15.242  1.00  0.00    -0.368 OA
ATOM     33  H3  UNL     1       1.854   5.948  16.161  1.00  0.00     0.212 HD
ENDBRANCH  31  32
BRANCH  31  34
HETATM   34  O4  UNL     1       2.806   4.639  13.962  1.00  0.00    -0.368 OA
ATOM     35  H4  UNL     1       2.893   3.708  13.792  1.00  0.00     0.212 HD
ENDBRANCH  31  34
ENDBRANCH  28  31
ENDBRANCH   2  28
BRANCH   3  36
HETATM   36  O5  UNL     1       2.400   7.321  12.583  1.00  0.00    -0.343 OA
ATOM     37  H5  UNL     1       2.862   8.096  12.283  1.00  0.00     0.219 HD
ENDBRANCH   3  36
BRANCH   4  38
HETATM   38  N5  UNL     1       3.264   6.846   9.688  1.00  0.00    -0.283 N 
ATOM     39  H5  UNL     1       4.229   6.557   9.525  1.00  0.00     0.184 HD
BRANCH  38  40
HETATM   40  C12 UNL     1       2.827   8.019   9.040  1.00  0.00     0.272 A 
HETATM   41  N6  UNL     1       1.977   8.898   9.751  1.00  0.00    -0.292 N 
HETATM   42  N7  UNL     1       2.460  10.079   9.637  1.00  0.00    -0.244 N 
ATOM     43  H6  UNL     1       1.133   8.638  10.262  1.00  0.00     0.184 HD
HETATM   44  N8  UNL     1       3.634  10.076   8.874  1.00  0.00    -0.282 N 
ATOM     45  H7  UNL     1       2.042  10.914  10.049  1.00  0.00     0.208 HD
HETATM   46  C13 UNL     1       3.925   8.871   8.478  1.00  0.00     0.136 A 
ATOM     47  H8  UNL     1       4.186  10.906   8.657  1.00  0.00     0.188 HD
BRANCH  46  48
HETATM   48  C14 UNL     1       5.051   8.415   7.683  1.00  0.00     0.282 C 
HETATM   49  N9  UNL     1       5.225   8.847   6.337  1.00  0.00    -0.056 NA
HETATM   50  O6  UNL     1       5.889   7.631   8.172  1.00  0.00    -0.270 OA
ENDBRANCH  46  48
ENDBRANCH  38  40
ENDBRANCH   4  38
BRANCH   6  51
HETATM   51  O7  UNL     1       1.585   3.296   8.400  1.00  0.00    -0.276 OA
ATOM     52  H7  UNL     1       1.900   2.829   7.634  1.00  0.00     0.245 HD
ENDBRANCH   6  51
TORSDOF 17
ENDMDL
MODEL 3
REMARK VINA RESULT: -6.636336951      1.511      1.793
REMARK  17 active torsions:
REMARK  status: ('A' for Active; 'I' for Inactive)
REMARK    1  A    between atoms: N1_5  and  C4_7 
REMARK    2  A    between atoms: C4_7  and  C5_8 
REMARK    3  A    between atoms: C5_8  and  N2_9 
REMARK    4  A    between atoms: C6_13  and  C7_14 
REMARK    5  A    between atoms: C7_14  and  N3_15 
REMARK    6  A    between atoms: C8_16  and  C9_17 
REMARK    7  A    between atoms: C9_17  and  O2_18 
REMARK    8  A    between atoms: C9_17  and  C10_20 
REMARK    9  A    between atoms: C10_20  and  O3_21 
REMARK   10  A    between atoms: C10_20  and  O4_23 
REMARK   11  A    between atoms: C11_25  and  O5_26 
REMARK   12  A    between atoms: N4_28  and  N5_29 
REMARK   13  A    between atoms: N5_29  and  C12_31 
REMARK   14  A    between atoms: C13_38  and  C14_39 
REMARK   15  A    between atoms: N10_43  and  O7_45 
REMARK   16  A    between atoms: C16_47  and  O8_48 
REMARK   17  A    between atoms: C17_50  and  O9_51 
ROOT
HETATM    1  N3  UNL     1       1.823   5.131  11.369  1.00  0.00    -0.150 N 
HETATM    2  C8  UNL     1       1.014   4.961  10.332  1.00  0.00     0.120 A 
HETATM    3  C11 UNL     1       1.606   5.654   9.246  1.00  0.00     0.206 A 
HETATM    4  N4  UNL     1       2.738   6.200   9.636  1.00  0.00    -0.061 N 
HETATM    5  C15 UNL     1       2.868   5.876  10.951  1.00  0.00     0.732 A 
HETATM    6  N10 UNL     1       3.908   6.275  11.620  1.00  0.00    -0.096 N 
ATOM      7  H10 UNL     1       4.588   6.838  11.110  1.00  0.00     0.213 HD
ENDROOT
BRANCH   1   8
HETATM    8  C7  UNL     1       1.641   4.719  12.705  1.00  0.00     0.134 C 
BRANCH   8   9
HETATM    9  C6  UNL     1       1.923   3.308  13.060  1.00  0.00     0.068 A 
HETATM   10  C3  UNL     1       0.747   2.596  13.449  1.00  0.00     0.158 A 
HETATM   11  O1  UNL     1       0.937   1.310  13.780  1.00  0.00    -0.295 OA
HETATM   12  N1  UNL     1      -0.387   3.042  13.512  1.00  0.00    -0.368 N 
HETATM   13  C2  UNL     1       2.048   0.664  13.781  1.00  0.00     0.087 A 
HETATM   14  C1  UNL     1       2.114  -0.797  14.183  1.00  0.00     0.080 C 
HETATM   15  C17 UNL     1       3.195   1.323  13.412  1.00  0.00     0.129 A 
HETATM   16  C16 UNL     1       3.096   2.655  13.055  1.00  0.00     0.117 A 
ATOM     17  H1  UNL     1      -0.925   2.236  13.830  1.00  0.00     0.161 HD
BRANCH  15  18
HETATM   18  O9  UNL     1       4.442   0.700  13.380  1.00  0.00    -0.356 OA
ATOM     19  H9  UNL     1       4.594  -0.162  13.750  1.00  0.00     0.218 HD
ENDBRANCH  15  18
BRANCH  16  20
HETATM   20  O8  UNL     1       4.258   3.337  12.691  1.00  0.00    -0.357 OA
ATOM     21  H8  UNL     1       4.918   3.516  13.350  1.00  0.00     0.217 HD
ENDBRANCH  16  20
BRANCH  12  22
HETATM   22  C4  UNL     1      -1.319   3.987  13.400  1.00  0.00     0.149 C 
BRANCH  22  23
HETATM   23  C5  UNL     1      -2.681   3.475  12.843  1.00  0.00     0.249 C 
BRANCH  23  24
HETATM   24  N2  UNL     1      -3.468   4.654  12.558  1.00  0.00    -0.078 N 
ATOM     25  H23 UNL     1      -3.037   5.274  11.873  1.00  0.00     0.274 HD
ATOM     26  H22 UNL     1      -4.318   4.456  12.030  1.00  0.00     0.274 HD
ATOM     27  H21 UNL     1      -3.644   5.102  13.457  1.00  0.00     0.274 HD
ENDBRANCH  23  24
ENDBRANCH  22  23
ENDBRANCH  12  22
ENDBRANCH   8   9
ENDBRANCH   1   8
BRANCH   2  28
HETATM   28  C9  UNL     1      -0.308   4.306  10.150  1.00  0.00     0.228 C 
BRANCH  28  29
HETATM   29  O2  UNL     1      -0.144   3.384   9.025  1.00  0.00    -0.384 OA
ATOM     30  H2  UNL     1       0.444   2.703   9.332  1.00  0.00     0.210 HD
ENDBRANCH  28  29
BRANCH  28  31
HETATM   31  C10 UNL     1      -1.350   5.254   9.655  1.00  0.00     0.288 C 
BRANCH  31  32
HETATM   32  O3  UNL     1      -1.548   6.198  10.758  1.00  0.00    -0.368 OA
ATOM     33  H3  UNL     1      -2.123   6.865  10.404  1.00  0.00     0.212 HD
ENDBRANCH  31  32
BRANCH  31  34
HETATM   34  O4  UNL     1      -2.606   4.602   9.581  1.00  0.00    -0.368 OA
ATOM     35  H4  UNL     1      -2.843   4.254  10.433  1.00  0.00     0.212 HD
ENDBRANCH  31  34
ENDBRANCH  28  31
ENDBRANCH   2  28
BRANCH   3  36
HETATM   36  O5  UNL     1       1.058   5.728   7.970  1.00  0.00    -0.343 OA
ATOM     37  H5  UNL     1       1.227   6.432   7.354  1.00  0.00     0.219 HD
ENDBRANCH   3  36
BRANCH   4  38
HETATM   38  N5  UNL     1       3.755   6.838   8.887  1.00  0.00    -0.283 N 
ATOM     39  H5  UNL     1       4.393   6.238   8.363  1.00  0.00     0.184 HD
BRANCH  38  40
HETATM   40  C12 UNL     1       3.967   8.229   8.800  1.00  0.00     0.272 A 
HETATM   41  N6  UNL     1       5.151   8.761   9.360  1.00  0.00    -0.292 N 
HETATM   42  N7  UNL     1       5.688   9.522   8.480  1.00  0.00    -0.244 N 
ATOM     43  H6  UNL     1       5.513   8.574  10.295  1.00  0.00     0.184 HD
HETATM   44  N8  UNL     1       4.930   9.547   7.302  1.00  0.00    -0.282 N 
ATOM     45  H7  UNL     1       6.554  10.043   8.619  1.00  0.00     0.208 HD
HETATM   46  C13 UNL     1       3.877   8.791   7.413  1.00  0.00     0.136 A 
ATOM     47  H8  UNL     1       5.172  10.086   6.470  1.00  0.00     0.188 HD
BRANCH  46  48
HETATM   48  C14 UNL     1       2.837   8.520   6.437  1.00  0.00     0.282 C 
HETATM   49  N9  UNL     1       3.057   8.734   5.046  1.00  0.00    -0.056 NA
HETATM   50  O6  UNL     1       1.725   8.092   6.806  1.00  0.00    -0.270 OA
ENDBRANCH  46  48
ENDBRANCH  38  40
ENDBRANCH   4  38
BRANCH   6  51
HETATM   51  O7  UNL     1       4.188   6.027  12.917  1.00  0.00    -0.276 OA
ATOM     52  H7  UNL     1       4.692   6.573  13.510  1.00  0.00     0.245 HD
ENDBRANCH   6  51
TORSDOF 17
ENDMDL
MODEL 4
REMARK VINA RESULT: -6.626963283      2.004      3.529
REMARK  17 active torsions:
REMARK  status: ('A' for Active; 'I' for Inactive)
REMARK    1  A    between atoms: N1_5  and  C4_7 
REMARK    2  A    between atoms: C4_7  and  C5_8 
REMARK    3  A    between atoms: C5_8  and  N2_9 
REMARK    4  A    between atoms: C6_13  and  C7_14 
REMARK    5  A    between atoms: C7_14  and  N3_15 
REMARK    6  A    between atoms: C8_16  and  C9_17 
REMARK    7  A    between atoms: C9_17  and  O2_18 
REMARK    8  A    between atoms: C9_17  and  C10_20 
REMARK    9  A    between atoms: C10_20  and  O3_21 
REMARK   10  A    between atoms: C10_20  and  O4_23 
REMARK   11  A    between atoms: C11_25  and  O5_26 
REMARK   12  A    between atoms: N4_28  and  N5_29 
REMARK   13  A    between atoms: N5_29  and  C12_31 
REMARK   14  A    between atoms: C13_38  and  C14_39 
REMARK   15  A    between atoms: N10_43  and  O7_45 
REMARK   16  A    between atoms: C16_47  and  O8_48 
REMARK   17  A    between atoms: C17_50  and  O9_51 
ROOT
HETATM    1  N3  UNL     1       1.003   4.316  11.148  1.00  0.00    -0.150 N 
HETATM    2  C8  UNL     1       1.107   5.163  12.164  1.00  0.00     0.120 A 
HETATM    3  C11 UNL     1       2.010   6.174  11.749  1.00  0.00     0.206 A 
HETATM    4  N4  UNL     1       2.410   5.932  10.519  1.00  0.00    -0.061 N 
HETATM    5  C15 UNL     1       1.785   4.780  10.151  1.00  0.00     0.732 A 
HETATM    6  N10 UNL     1       1.981   4.283   8.966  1.00  0.00    -0.096 N 
ATOM      7  H10 UNL     1       2.622   4.795   8.359  1.00  0.00     0.213 HD
ENDROOT
BRANCH   1   8
HETATM    8  C7  UNL     1       0.300   3.095  11.087  1.00  0.00     0.134 C 
BRANCH   8   9
HETATM    9  C6  UNL     1       0.679   2.008  12.020  1.00  0.00     0.068 A 
HETATM   10  C3  UNL     1      -0.454   1.290  12.512  1.00  0.00     0.158 A 
HETATM   11  O1  UNL     1      -0.176   0.288  13.360  1.00  0.00    -0.295 OA
HETATM   12  N1  UNL     1      -1.625   1.502  12.241  1.00  0.00    -0.368 N 
HETATM   13  C2  UNL     1       0.984  -0.084  13.768  1.00  0.00     0.087 A 
HETATM   14  C1  UNL     1       1.150  -1.240  14.737  1.00  0.00     0.080 C 
HETATM   15  C17 UNL     1       2.091   0.588  13.312  1.00  0.00     0.129 A 
HETATM   16  C16 UNL     1       1.901   1.638  12.433  1.00  0.00     0.117 A 
ATOM     17  H1  UNL     1      -2.112   0.792  12.789  1.00  0.00     0.161 HD
BRANCH  15  18
HETATM   18  O9  UNL     1       3.388   0.249  13.698  1.00  0.00    -0.356 OA
ATOM     19  H9  UNL     1       4.159   0.633  13.296  1.00  0.00     0.218 HD
ENDBRANCH  15  18
BRANCH  16  20
HETATM   20  O8  UNL     1       3.019   2.336  11.974  1.00  0.00    -0.357 OA
ATOM     21  H8  UNL     1       3.114   2.503  11.044  1.00  0.00     0.217 HD
ENDBRANCH  16  20
BRANCH  12  22
HETATM   22  C4  UNL     1      -2.627   2.138  11.634  1.00  0.00     0.149 C 
BRANCH  22  23
HETATM   23  C5  UNL     1      -3.502   3.002  12.590  1.00  0.00     0.249 C 
BRANCH  23  24
HETATM   24  N2  UNL     1      -2.799   4.254  12.758  1.00  0.00    -0.078 N 
ATOM     25  H23 UNL     1      -2.736   4.557  13.729  1.00  0.00     0.274 HD
ATOM     26  H22 UNL     1      -1.796   4.182  12.585  1.00  0.00     0.274 HD
ATOM     27  H21 UNL     1      -3.268   4.927  12.152  1.00  0.00     0.274 HD
ENDBRANCH  23  24
ENDBRANCH  22  23
ENDBRANCH  12  22
ENDBRANCH   8   9
ENDBRANCH   1   8
BRANCH   2  28
HETATM   28  C9  UNL     1       0.560   5.190  13.545  1.00  0.00     0.228 C 
BRANCH  28  29
HETATM   29  O2  UNL     1       0.217   6.587  13.811  1.00  0.00    -0.384 OA
ATOM     30  H2  UNL     1      -0.396   6.838  13.129  1.00  0.00     0.210 HD
ENDBRANCH  28  29
BRANCH  28  31
HETATM   31  C10 UNL     1       1.601   4.900  14.576  1.00  0.00     0.288 C 
BRANCH  31  32
HETATM   32  O3  UNL     1       1.862   6.192  15.215  1.00  0.00    -0.368 OA
ATOM     33  H3  UNL     1       2.790   6.179  15.415  1.00  0.00     0.212 HD
ENDBRANCH  31  32
BRANCH  31  34
HETATM   34  O4  UNL     1       2.840   4.613  13.949  1.00  0.00    -0.368 OA
ATOM     35  H4  UNL     1       3.000   3.677  13.957  1.00  0.00     0.212 HD
ENDBRANCH  31  34
ENDBRANCH  28  31
ENDBRANCH   2  28
BRANCH   3  36
HETATM   36  O5  UNL     1       2.397   7.252  12.538  1.00  0.00    -0.343 OA
ATOM     37  H5  UNL     1       3.292   7.558  12.626  1.00  0.00     0.219 HD
ENDBRANCH   3  36
BRANCH   4  38
HETATM   38  N5  UNL     1       3.166   6.727   9.626  1.00  0.00    -0.283 N 
ATOM     39  H5  UNL     1       3.890   6.256   9.083  1.00  0.00     0.184 HD
BRANCH  38  40
HETATM   40  C12 UNL     1       3.007   8.112   9.418  1.00  0.00     0.272 A 
HETATM   41  N6  UNL     1       4.163   8.887   9.168  1.00  0.00    -0.292 N 
HETATM   42  N7  UNL     1       3.931   9.606   8.133  1.00  0.00    -0.244 N 
ATOM     43  H6  UNL     1       5.026   8.876   9.713  1.00  0.00     0.184 HD
HETATM   44  N8  UNL     1       2.648   9.366   7.627  1.00  0.00    -0.282 N 
ATOM     45  H7  UNL     1       4.595  10.268   7.731  1.00  0.00     0.208 HD
HETATM   46  C13 UNL     1       2.027   8.475   8.344  1.00  0.00     0.136 A 
ATOM     47  H8  UNL     1       2.253   9.828   6.807  1.00  0.00     0.188 HD
BRANCH  46  48
HETATM   48  C14 UNL     1       0.694   7.927   8.170  1.00  0.00     0.282 C 
HETATM   49  N9  UNL     1      -0.462   8.657   8.570  1.00  0.00    -0.056 NA
HETATM   50  O6  UNL     1       0.540   6.798   7.662  1.00  0.00    -0.270 OA
ENDBRANCH  46  48
ENDBRANCH  38  40
ENDBRANCH   4  38
BRANCH   6  51
HETATM   51  O7  UNL     1       1.431   3.165   8.449  1.00  0.00    -0.276 OA
ATOM     52  H7  UNL     1       0.552   3.065   8.101  1.00  0.00     0.245 HD
ENDBRANCH   6  51
TORSDOF 17
ENDMDL
MODEL 5
REMARK VINA RESULT: -6.443169298      4.853      7.113
REMARK  17 active torsions:
REMARK  status: ('A' for Active; 'I' for Inactive)
REMARK    1  A    between atoms: N1_5  and  C4_7 
REMARK    2  A    between atoms: C4_7  and  C5_8 
REMARK    3  A    between atoms: C5_8  and  N2_9 
REMARK    4  A    between atoms: C6_13  and  C7_14 
REMARK    5  A    between atoms: C7_14  and  N3_15 
REMARK    6  A    between atoms: C8_16  and  C9_17 
REMARK    7  A    between atoms: C9_17  and  O2_18 
REMARK    8  A    between atoms: C9_17  and  C10_20 
REMARK    9  A    between atoms: C10_20  and  O3_21 
REMARK   10  A    between atoms: C10_20  and  O4_23 
REMARK   11  A    between atoms: C11_25  and  O5_26 
REMARK   12  A    between atoms: N4_28  and  N5_29 
REMARK   13  A    between atoms: N5_29  and  C12_31 
REMARK   14  A    between atoms: C13_38  and  C14_39 
REMARK   15  A    between atoms: N10_43  and  O7_45 
REMARK   16  A    between atoms: C16_47  and  O8_48 
REMARK   17  A    between atoms: C17_50  and  O9_51 
ROOT
HETATM    1  N3  UNL     1       1.346  10.301   7.760  1.00  0.00    -0.150 N 
HETATM    2  C8  UNL     1       1.527  11.017   8.861  1.00  0.00     0.120 A 
HETATM    3  C11 UNL     1       2.896  11.388   8.876  1.00  0.00     0.206 A 
HETATM    4  N4  UNL     1       3.493  10.911   7.805  1.00  0.00    -0.061 N 
HETATM    5  C15 UNL     1       2.531  10.238   7.117  1.00  0.00     0.732 A 
HETATM    6  N10 UNL     1       2.822   9.655   5.993  1.00  0.00    -0.096 N 
ATOM      7  H10 UNL     1       3.791   9.726   5.682  1.00  0.00     0.213 HD
ENDROOT
BRANCH   1   8
HETATM    8  C7  UNL     1       0.186   9.625   7.329  1.00  0.00     0.134 C 
BRANCH   8   9
HETATM    9  C6  UNL     1      -0.189   8.357   7.999  1.00  0.00     0.068 A 
HETATM   10  C3  UNL     1      -1.460   8.437   8.647  1.00  0.00     0.158 A 
HETATM   11  O1  UNL     1      -1.859   7.317   9.270  1.00  0.00    -0.295 OA
HETATM   12  N1  UNL     1      -2.197   9.408   8.690  1.00  0.00    -0.368 N 
HETATM   13  C2  UNL     1      -1.226   6.201   9.341  1.00  0.00     0.087 A 
HETATM   14  C1  UNL     1      -1.801   5.011  10.086  1.00  0.00     0.080 C 
HETATM   15  C17 UNL     1      -0.002   6.096   8.728  1.00  0.00     0.129 A 
HETATM   16  C16 UNL     1       0.491   7.202   8.061  1.00  0.00     0.117 A 
ATOM     17  H1  UNL     1      -2.985   9.066   9.241  1.00  0.00     0.161 HD
BRANCH  15  18
HETATM   18  O9  UNL     1       0.751   4.922   8.750  1.00  0.00    -0.356 OA
ATOM     19  H9  UNL     1       1.573   4.832   8.282  1.00  0.00     0.218 HD
ENDBRANCH  15  18
BRANCH  16  20
HETATM   20  O8  UNL     1       1.740   7.109   7.445  1.00  0.00    -0.357 OA
ATOM     21  H8  UNL     1       2.495   7.504   7.863  1.00  0.00     0.217 HD
ENDBRANCH  16  20
BRANCH  12  22
HETATM   22  C4  UNL     1      -2.553  10.664   8.424  1.00  0.00     0.149 C 
BRANCH  22  23
HETATM   23  C5  UNL     1      -3.607  11.249   9.411  1.00  0.00     0.249 C 
BRANCH  23  24
HETATM   24  N2  UNL     1      -2.857  11.843  10.495  1.00  0.00    -0.078 N 
ATOM     25  H23 UNL     1      -1.857  11.908  10.309  1.00  0.00     0.274 HD
ATOM     26  H22 UNL     1      -3.029  12.842  10.607  1.00  0.00     0.274 HD
ATOM     27  H21 UNL     1      -3.081  11.297  11.327  1.00  0.00     0.274 HD
ENDBRANCH  23  24
ENDBRANCH  22  23
ENDBRANCH  12  22
ENDBRANCH   8   9
ENDBRANCH   1   8
BRANCH   2  28
HETATM   28  C9  UNL     1       0.653  11.394  10.003  1.00  0.00     0.228 C 
BRANCH  28  29
HETATM   29  O2  UNL     1       1.199  12.648  10.526  1.00  0.00    -0.384 OA
ATOM     30  H2  UNL     1       1.017  12.639  11.459  1.00  0.00     0.210 HD
ENDBRANCH  28  29
BRANCH  28  31
HETATM   31  C10 UNL     1       0.794  10.460  11.160  1.00  0.00     0.288 C 
BRANCH  31  32
HETATM   32  O3  UNL     1      -0.562   9.961  11.402  1.00  0.00    -0.368 OA
ATOM     33  H3  UNL     1      -0.719   9.341  10.700  1.00  0.00     0.212 HD
ENDBRANCH  31  32
BRANCH  31  34
HETATM   34  O4  UNL     1       1.067  11.190  12.344  1.00  0.00    -0.368 OA
ATOM     35  H4  UNL     1       2.005  11.248  12.482  1.00  0.00     0.212 HD
ENDBRANCH  31  34
ENDBRANCH  28  31
ENDBRANCH   2  28
BRANCH   3  36
HETATM   36  O5  UNL     1       3.494  12.142   9.880  1.00  0.00    -0.343 OA
ATOM     37  H5  UNL     1       3.114  12.289  10.739  1.00  0.00     0.219 HD
ENDBRANCH   3  36
BRANCH   4  38
HETATM   38  N5  UNL     1       4.792  11.150   7.296  1.00  0.00    -0.283 N 
ATOM     39  H5  UNL     1       4.877  11.831   6.541  1.00  0.00     0.184 HD
BRANCH  38  40
HETATM   40  C12 UNL     1       5.978  10.532   7.738  1.00  0.00     0.272 A 
HETATM   41  N6  UNL     1       6.068  10.154   9.098  1.00  0.00    -0.292 N 
HETATM   42  N7  UNL     1       6.472   8.938   9.137  1.00  0.00    -0.244 N 
ATOM     43  H6  UNL     1       5.850  10.742   9.903  1.00  0.00     0.184 HD
HETATM   44  N8  UNL     1       6.667   8.429   7.847  1.00  0.00    -0.282 N 
ATOM     45  H7  UNL     1       6.630   8.411   9.995  1.00  0.00     0.208 HD
HETATM   46  C13 UNL     1       6.389   9.326   6.947  1.00  0.00     0.136 A 
ATOM     47  H8  UNL     1       6.986   7.482   7.641  1.00  0.00     0.188 HD
BRANCH  46  48
HETATM   48  C14 UNL     1       6.443   9.220   5.500  1.00  0.00     0.282 C 
HETATM   49  N9  UNL     1       7.483   8.494   4.852  1.00  0.00    -0.056 NA
HETATM   50  O6  UNL     1       5.570   9.769   4.797  1.00  0.00    -0.270 OA
ENDBRANCH  46  48
ENDBRANCH  38  40
ENDBRANCH   4  38
BRANCH   6  51
HETATM   51  O7  UNL     1       1.985   8.964   5.191  1.00  0.00    -0.276 OA
ATOM     52  H7  UNL     1       1.145   8.587   5.426  1.00  0.00     0.245 HD
ENDBRANCH   6  51
TORSDOF 17
ENDMDL
