MODEL 1
REMARK VINA RESULT: -8.092927081      0.000      0.000
REMARK  16 active torsions:
REMARK  status: ('A' for Active; 'I' for Inactive)
REMARK    1  A    between atoms: C2_2  and  O1_4 
REMARK    2  A    between atoms: C2_2  and  C4_6 
REMARK    3  A    between atoms: C4_6  and  O2_7 
REMARK    4  A    between atoms: C4_6  and  N1_9 
REMARK    5  A    between atoms: N1_9  and  C5_11 
REMARK    6  A    between atoms: C6_14  and  C7_15 
REMARK    7  A    between atoms: N3_17  and  O3_18 
REMARK    8  A    between atoms: C11_26  and  O4_27 
REMARK    9  A    between atoms: N8_35  and  C13_36 
REMARK   10  A    between atoms: C13_36  and  N9_37 
REMARK   11  A    between atoms: C13_36  and  C14_41 
REMARK   12  A    between atoms: C14_41  and  O5_42 
REMARK   13  A    between atoms: C14_41  and  O6_44 
REMARK   14  A    between atoms: C15_49  and  C16_50 
REMARK   15  A    between atoms: C16_50  and  N11_51 
REMARK   16  A    between atoms: C16_50  and  O8_55 
ROOT
HETATM    1  C7  UNL     1     -31.456 -12.215  -4.394  1.00  0.00     0.180 C 
HETATM    2  C8  UNL     1     -32.080 -11.978  -5.736  1.00  0.00     0.211 C 
HETATM    3  N3  UNL     1     -32.035 -10.540  -6.034  1.00  0.00    -0.185 N 
HETATM    4  N4  UNL     1     -31.047  -9.601  -5.639  1.00  0.00    -0.219 N 
ATOM      5  H4  UNL     1     -31.295  -8.623  -5.789  1.00  0.00     0.210 HD
HETATM    6  N5  UNL     1     -29.902  -9.792  -5.126  1.00  0.00    -0.268 N 
ATOM      7  H5  UNL     1     -29.346  -8.963  -4.916  1.00  0.00     0.190 HD
HETATM    8  C9  UNL     1     -29.323 -11.044  -4.820  1.00  0.00     0.150 C 
HETATM    9  C10 UNL     1     -27.895 -11.257  -4.824  1.00  0.00     0.150 A 
HETATM   10  C11 UNL     1     -27.278 -12.473  -4.510  1.00  0.00     0.187 A 
HETATM   11  N6  UNL     1     -25.964 -12.311  -4.605  1.00  0.00    -0.168 N 
ATOM     12  H6  UNL     1     -25.261 -13.030  -4.432  1.00  0.00     0.186 HD
HETATM   13  C12 UNL     1     -25.705 -11.007  -4.977  1.00  0.00     0.682 A 
HETATM   14  N7  UNL     1     -24.510 -10.605  -5.124  1.00  0.00    -0.234 N 
ATOM     15  H71 UNL     1     -24.319  -9.642  -5.398  1.00  0.00     0.174 HD
ATOM     16  H72 UNL     1     -23.605 -11.067  -5.029  1.00  0.00     0.174 HD
HETATM   17  N8  UNL     1     -26.919 -10.388  -5.103  1.00  0.00    -0.140 N 
HETATM   18  N10 UNL     1     -30.036 -12.108  -4.497  1.00  0.00    -0.359 N 
ATOM     19  H10 UNL     1     -29.507 -12.957  -4.298  1.00  0.00     0.162 HD
ENDROOT
BRANCH   1  20
HETATM   20  C6  UNL     1     -31.862 -13.479  -3.757  1.00  0.00     0.150 A 
HETATM   21  N2  UNL     1     -32.787 -13.653  -2.803  1.00  0.00    -0.322 N 
HETATM   22  C5  UNL     1     -32.907 -14.927  -2.452  1.00  0.00     0.143 A 
ATOM     23  H2  UNL     1     -33.334 -12.895  -2.395  1.00  0.00     0.169 HD
HETATM   24  C15 UNL     1     -31.983 -15.590  -3.254  1.00  0.00     0.154 A 
HETATM   25  O7  UNL     1     -31.407 -14.686  -3.992  1.00  0.00    -0.291 OA
BRANCH  22  26
HETATM   26  N1  UNL     1     -33.728 -15.574  -1.514  1.00  0.00    -0.322 N 
ATOM     27  H1  UNL     1     -34.446 -16.169  -1.929  1.00  0.00     0.169 HD
BRANCH  26  28
HETATM   28  C4  UNL     1     -33.741 -15.552  -0.134  1.00  0.00     0.151 C 
BRANCH  28  29
HETATM   29  C2  UNL     1     -34.382 -14.712   0.860  1.00  0.00     0.115 C 
HETATM   30  C1  UNL     1     -35.832 -15.223   0.993  1.00  0.00     0.054 C 
HETATM   31  C3  UNL     1     -34.528 -13.279   0.290  1.00  0.00     0.054 C 
BRANCH  29  32
HETATM   32  O1  UNL     1     -33.789 -14.572   2.065  1.00  0.00    -0.382 OA
ATOM     33  H1  UNL     1     -33.716 -13.659   2.318  1.00  0.00     0.211 HD
ENDBRANCH  29  32
ENDBRANCH  28  29
BRANCH  28  34
HETATM   34  O2  UNL     1     -33.014 -16.501   0.423  1.00  0.00    -0.347 OA
ATOM     35  H2  UNL     1     -33.549 -17.233   0.707  1.00  0.00     0.219 HD
ENDBRANCH  28  34
ENDBRANCH  26  28
ENDBRANCH  22  26
BRANCH  24  36
HETATM   36  C16 UNL     1     -31.650 -17.030  -3.325  1.00  0.00     0.378 C 
BRANCH  36  37
HETATM   37  N11 UNL     1     -32.649 -17.713  -4.156  1.00  0.00    -0.047 N 
ATOM     38 3H11 UNL     1     -32.792 -18.683  -3.873  1.00  0.00     0.277 HD
ATOM     39 2H11 UNL     1     -33.595 -17.373  -3.985  1.00  0.00     0.277 HD
ATOM     40 1H11 UNL     1     -32.380 -17.632  -5.137  1.00  0.00     0.277 HD
ENDBRANCH  36  37
BRANCH  36  41
HETATM   41  O8  UNL     1     -31.639 -17.644  -2.089  1.00  0.00    -0.365 OA
ATOM     42  H8  UNL     1     -31.806 -17.043  -1.373  1.00  0.00     0.212 HD
ENDBRANCH  36  41
ENDBRANCH  24  36
ENDBRANCH   1  20
BRANCH   3  43
HETATM   43  O3  UNL     1     -33.072 -10.095  -6.773  1.00  0.00    -0.271 OA
ATOM     44  H3  UNL     1     -33.915 -10.443  -6.508  1.00  0.00     0.246 HD
ENDBRANCH   3  43
BRANCH  10  45
HETATM   45  O4  UNL     1     -27.960 -13.631  -4.163  1.00  0.00    -0.344 OA
ATOM     46  H4  UNL     1     -27.628 -14.510  -4.299  1.00  0.00     0.219 HD
ENDBRANCH  10  45
BRANCH  17  47
HETATM   47  C13 UNL     1     -27.040  -9.016  -5.492  1.00  0.00     0.359 C 
BRANCH  47  48
HETATM   48  N9  UNL     1     -26.080  -8.693  -6.570  1.00  0.00    -0.052 N 
ATOM     49  H93 UNL     1     -26.383  -7.888  -7.119  1.00  0.00     0.277 HD
ATOM     50  H92 UNL     1     -25.211  -8.307  -6.200  1.00  0.00     0.277 HD
ATOM     51  H91 UNL     1     -25.911  -9.509  -7.157  1.00  0.00     0.277 HD
ENDBRANCH  47  48
BRANCH  47  52
HETATM   52  C14 UNL     1     -26.748  -8.060  -4.350  1.00  0.00     0.304 C 
BRANCH  52  53
HETATM   53  O5  UNL     1     -27.837  -7.944  -3.492  1.00  0.00    -0.368 OA
ATOM     54  H5  UNL     1     -27.586  -8.104  -2.590  1.00  0.00     0.212 HD
ENDBRANCH  52  53
BRANCH  52  55
HETATM   55  O6  UNL     1     -26.357  -6.802  -4.774  1.00  0.00    -0.368 OA
ATOM     56  H6  UNL     1     -25.571  -6.487  -4.343  1.00  0.00     0.212 HD
ENDBRANCH  52  55
ENDBRANCH  47  52
ENDBRANCH  17  47
TORSDOF 16
ENDMDL
MODEL 2
REMARK VINA RESULT: -7.878137291      4.463      8.983
REMARK  16 active torsions:
REMARK  status: ('A' for Active; 'I' for Inactive)
REMARK    1  A    between atoms: C2_2  and  O1_4 
REMARK    2  A    between atoms: C2_2  and  C4_6 
REMARK    3  A    between atoms: C4_6  and  O2_7 
REMARK    4  A    between atoms: C4_6  and  N1_9 
REMARK    5  A    between atoms: N1_9  and  C5_11 
REMARK    6  A    between atoms: C6_14  and  C7_15 
REMARK    7  A    between atoms: N3_17  and  O3_18 
REMARK    8  A    between atoms: C11_26  and  O4_27 
REMARK    9  A    between atoms: N8_35  and  C13_36 
REMARK   10  A    between atoms: C13_36  and  N9_37 
REMARK   11  A    between atoms: C13_36  and  C14_41 
REMARK   12  A    between atoms: C14_41  and  O5_42 
REMARK   13  A    between atoms: C14_41  and  O6_44 
REMARK   14  A    between atoms: C15_49  and  C16_50 
REMARK   15  A    between atoms: C16_50  and  N11_51 
REMARK   16  A    between atoms: C16_50  and  O8_55 
ROOT
HETATM    1  C7  UNL     1     -27.029 -11.468  -4.087  1.00  0.00     0.180 C 
HETATM    2  C8  UNL     1     -27.588 -12.813  -3.730  1.00  0.00     0.211 C 
HETATM    3  N3  UNL     1     -28.795 -12.626  -2.914  1.00  0.00    -0.185 N 
HETATM    4  N4  UNL     1     -29.736 -11.566  -2.985  1.00  0.00    -0.219 N 
ATOM      5  H4  UNL     1     -30.399 -11.524  -2.210  1.00  0.00     0.210 HD
HETATM    6  N5  UNL     1     -29.880 -10.664  -3.865  1.00  0.00    -0.268 N 
ATOM      7  H5  UNL     1     -30.632  -9.990  -3.717  1.00  0.00     0.190 HD
HETATM    8  C9  UNL     1     -29.098 -10.502  -5.031  1.00  0.00     0.150 C 
HETATM    9  C10 UNL     1     -29.622  -9.908  -6.238  1.00  0.00     0.150 A 
HETATM   10  C11 UNL     1     -28.879  -9.713  -7.408  1.00  0.00     0.187 A 
HETATM   11  N6  UNL     1     -29.667  -9.139  -8.310  1.00  0.00    -0.168 N 
ATOM     12  H6  UNL     1     -29.394  -8.878  -9.257  1.00  0.00     0.186 HD
HETATM   13  C12 UNL     1     -30.916  -8.954  -7.753  1.00  0.00     0.682 A 
HETATM   14  N7  UNL     1     -31.845  -8.409  -8.425  1.00  0.00    -0.234 N 
ATOM     15  H71 UNL     1     -32.768  -8.272  -8.013  1.00  0.00     0.174 HD
ATOM     16  H72 UNL     1     -31.893  -8.046  -9.377  1.00  0.00     0.174 HD
HETATM   17  N8  UNL     1     -30.851  -9.440  -6.476  1.00  0.00    -0.140 N 
HETATM   18  N10 UNL     1     -27.831 -10.869  -5.105  1.00  0.00    -0.359 N 
ATOM     19  H10 UNL     1     -27.369 -10.704  -5.999  1.00  0.00     0.162 HD
ENDROOT
BRANCH   1  20
HETATM   20  C6  UNL     1     -25.604 -11.488  -4.456  1.00  0.00     0.150 A 
HETATM   21  N2  UNL     1     -24.882 -12.539  -4.869  1.00  0.00    -0.322 N 
HETATM   22  C5  UNL     1     -23.621 -12.209  -5.122  1.00  0.00     0.143 A 
ATOM     23  H2  UNL     1     -25.257 -13.481  -4.977  1.00  0.00     0.169 HD
HETATM   24  C15 UNL     1     -23.564 -10.848  -4.841  1.00  0.00     0.154 A 
HETATM   25  O7  UNL     1     -24.754 -10.490  -4.458  1.00  0.00    -0.291 OA
BRANCH  22  26
HETATM   26  N1  UNL     1     -22.521 -12.959  -5.566  1.00  0.00    -0.322 N 
ATOM     27  H1  UNL     1     -22.239 -12.757  -6.526  1.00  0.00     0.169 HD
BRANCH  26  28
HETATM   28  C4  UNL     1     -21.750 -13.919  -4.942  1.00  0.00     0.151 C 
BRANCH  28  29
HETATM   29  C2  UNL     1     -20.442 -13.918  -4.315  1.00  0.00     0.115 C 
HETATM   30  C1  UNL     1     -19.473 -14.566  -5.328  1.00  0.00     0.054 C 
HETATM   31  C3  UNL     1     -20.458 -14.899  -3.115  1.00  0.00     0.054 C 
BRANCH  29  32
HETATM   32  O1  UNL     1     -19.957 -12.753  -3.834  1.00  0.00    -0.382 OA
ATOM     33  H1  UNL     1     -19.082 -12.857  -3.479  1.00  0.00     0.211 HD
ENDBRANCH  29  32
ENDBRANCH  28  29
BRANCH  28  34
HETATM   34  O2  UNL     1     -22.313 -15.111  -4.897  1.00  0.00    -0.347 OA
ATOM     35  H2  UNL     1     -23.238 -15.072  -5.109  1.00  0.00     0.219 HD
ENDBRANCH  28  34
ENDBRANCH  26  28
ENDBRANCH  22  26
BRANCH  24  36
HETATM   36  C16 UNL     1     -22.423  -9.909  -4.930  1.00  0.00     0.378 C 
BRANCH  36  37
HETATM   37  N11 UNL     1     -22.061  -9.726  -6.342  1.00  0.00    -0.047 N 
ATOM     38 3H11 UNL     1     -22.877  -9.708  -6.953  1.00  0.00     0.277 HD
ATOM     39 2H11 UNL     1     -21.716  -8.786  -6.536  1.00  0.00     0.277 HD
ATOM     40 1H11 UNL     1     -21.392 -10.448  -6.611  1.00  0.00     0.277 HD
ENDBRANCH  36  37
BRANCH  36  41
HETATM   41  O8  UNL     1     -21.301 -10.356  -4.263  1.00  0.00    -0.365 OA
ATOM     42  H8  UNL     1     -21.280 -10.093  -3.350  1.00  0.00     0.212 HD
ENDBRANCH  36  41
ENDBRANCH  24  36
ENDBRANCH   1  20
BRANCH   3  43
HETATM   43  O3  UNL     1     -29.000 -13.595  -1.999  1.00  0.00    -0.271 OA
ATOM     44  H3  UNL     1     -29.344 -13.282  -1.171  1.00  0.00     0.246 HD
ENDBRANCH   3  43
BRANCH  10  45
HETATM   45  O4  UNL     1     -27.548 -10.072  -7.559  1.00  0.00    -0.344 OA
ATOM     46  H4  UNL     1     -27.118 -10.760  -7.065  1.00  0.00     0.219 HD
ENDBRANCH  10  45
BRANCH  17  47
HETATM   47  C13 UNL     1     -31.978  -9.425  -5.594  1.00  0.00     0.359 C 
BRANCH  47  48
HETATM   48  N9  UNL     1     -33.073 -10.261  -6.133  1.00  0.00    -0.052 N 
ATOM     49  H93 UNL     1     -32.771 -10.805  -6.941  1.00  0.00     0.277 HD
ATOM     50  H92 UNL     1     -33.305 -11.032  -5.507  1.00  0.00     0.277 HD
ATOM     51  H91 UNL     1     -33.890  -9.688  -6.346  1.00  0.00     0.277 HD
ENDBRANCH  47  48
BRANCH  47  52
HETATM   52  C14 UNL     1     -32.549  -8.031  -5.405  1.00  0.00     0.304 C 
BRANCH  52  53
HETATM   53  O5  UNL     1     -31.579  -7.054  -5.599  1.00  0.00    -0.368 OA
ATOM     54  H5  UNL     1     -31.891  -6.198  -5.330  1.00  0.00     0.212 HD
ENDBRANCH  52  53
BRANCH  52  55
HETATM   55  O6  UNL     1     -33.151  -7.848  -4.172  1.00  0.00    -0.368 OA
ATOM     56  H6  UNL     1     -33.969  -7.368  -4.220  1.00  0.00     0.212 HD
ENDBRANCH  52  55
ENDBRANCH  47  52
ENDBRANCH  17  47
TORSDOF 16
ENDMDL
MODEL 3
REMARK VINA RESULT: -7.830574286      1.378      1.565
REMARK  16 active torsions:
REMARK  status: ('A' for Active; 'I' for Inactive)
REMARK    1  A    between atoms: C2_2  and  O1_4 
REMARK    2  A    between atoms: C2_2  and  C4_6 
REMARK    3  A    between atoms: C4_6  and  O2_7 
REMARK    4  A    between atoms: C4_6  and  N1_9 
REMARK    5  A    between atoms: N1_9  and  C5_11 
REMARK    6  A    between atoms: C6_14  and  C7_15 
REMARK    7  A    between atoms: N3_17  and  O3_18 
REMARK    8  A    between atoms: C11_26  and  O4_27 
REMARK    9  A    between atoms: N8_35  and  C13_36 
REMARK   10  A    between atoms: C13_36  and  N9_37 
REMARK   11  A    between atoms: C13_36  and  C14_41 
REMARK   12  A    between atoms: C14_41  and  O5_42 
REMARK   13  A    between atoms: C14_41  and  O6_44 
REMARK   14  A    between atoms: C15_49  and  C16_50 
REMARK   15  A    between atoms: C16_50  and  N11_51 
REMARK   16  A    between atoms: C16_50  and  O8_55 
ROOT
HETATM    1  C7  UNL     1     -31.830 -12.411  -4.792  1.00  0.00     0.180 C 
HETATM    2  C8  UNL     1     -32.695 -11.752  -5.824  1.00  0.00     0.211 C 
HETATM    3  N3  UNL     1     -32.630 -10.296  -5.639  1.00  0.00    -0.185 N 
HETATM    4  N4  UNL     1     -31.533  -9.527  -5.172  1.00  0.00    -0.219 N 
ATOM      5  H4  UNL     1     -31.752  -8.558  -4.940  1.00  0.00     0.210 HD
HETATM    6  N5  UNL     1     -30.321  -9.861  -4.998  1.00  0.00    -0.268 N 
ATOM      7  H5  UNL     1     -29.690  -9.140  -4.647  1.00  0.00     0.190 HD
HETATM    8  C9  UNL     1     -29.763 -11.135  -5.243  1.00  0.00     0.150 C 
HETATM    9  C10 UNL     1     -28.379 -11.315  -5.611  1.00  0.00     0.150 A 
HETATM   10  C11 UNL     1     -27.780 -12.558  -5.845  1.00  0.00     0.187 A 
HETATM   11  N6  UNL     1     -26.504 -12.355  -6.151  1.00  0.00    -0.168 N 
ATOM     12  H6  UNL     1     -25.822 -13.081  -6.370  1.00  0.00     0.186 HD
HETATM   13  C12 UNL     1     -26.253 -10.998  -6.121  1.00  0.00     0.682 A 
HETATM   14  N7  UNL     1     -25.090 -10.554  -6.372  1.00  0.00    -0.234 N 
ATOM     15  H71 UNL     1     -24.905  -9.552  -6.351  1.00  0.00     0.174 HD
ATOM     16  H72 UNL     1     -24.212 -11.008  -6.622  1.00  0.00     0.174 HD
HETATM   17  N8  UNL     1     -27.431 -10.390  -5.786  1.00  0.00    -0.140 N 
HETATM   18  N10 UNL     1     -30.455 -12.256  -5.146  1.00  0.00    -0.359 N 
ATOM     19  H10 UNL     1     -29.946 -13.116  -5.348  1.00  0.00     0.162 HD
ENDROOT
BRANCH   1  20
HETATM   20  C6  UNL     1     -32.171 -13.820  -4.534  1.00  0.00     0.150 A 
HETATM   21  N2  UNL     1     -32.990 -14.302  -3.589  1.00  0.00    -0.322 N 
HETATM   22  C5  UNL     1     -33.077 -15.626  -3.633  1.00  0.00     0.143 A 
ATOM     23  H2  UNL     1     -33.487 -13.721  -2.915  1.00  0.00     0.169 HD
HETATM   24  C15 UNL     1     -32.246 -15.986  -4.689  1.00  0.00     0.154 A 
HETATM   25  O7  UNL     1     -31.748 -14.885  -5.172  1.00  0.00    -0.291 OA
BRANCH  22  26
HETATM   26  N1  UNL     1     -33.795 -16.551  -2.859  1.00  0.00    -0.322 N 
ATOM     27  H1  UNL     1     -33.980 -17.436  -3.331  1.00  0.00     0.169 HD
BRANCH  26  28
HETATM   28  C4  UNL     1     -34.298 -16.481  -1.576  1.00  0.00     0.151 C 
BRANCH  28  29
HETATM   29  C2  UNL     1     -33.814 -15.925  -0.325  1.00  0.00     0.115 C 
HETATM   30  C1  UNL     1     -33.147 -17.089   0.439  1.00  0.00     0.054 C 
HETATM   31  C3  UNL     1     -35.027 -15.531   0.554  1.00  0.00     0.054 C 
BRANCH  29  32
HETATM   32  O1  UNL     1     -33.018 -14.835  -0.369  1.00  0.00    -0.382 OA
ATOM     33  H1  UNL     1     -33.426 -14.122  -0.846  1.00  0.00     0.211 HD
ENDBRANCH  29  32
ENDBRANCH  28  29
BRANCH  28  34
HETATM   34  O2  UNL     1     -35.485 -17.040  -1.434  1.00  0.00    -0.347 OA
ATOM     35  H2  UNL     1     -35.418 -17.931  -1.111  1.00  0.00     0.219 HD
ENDBRANCH  28  34
ENDBRANCH  26  28
ENDBRANCH  22  26
BRANCH  24  36
HETATM   36  C16 UNL     1     -31.927 -17.327  -5.230  1.00  0.00     0.378 C 
BRANCH  36  37
HETATM   37  N11 UNL     1     -32.371 -17.398  -6.628  1.00  0.00    -0.047 N 
ATOM     38 3H11 UNL     1     -33.383 -17.497  -6.709  1.00  0.00     0.277 HD
ATOM     39 2H11 UNL     1     -32.276 -16.505  -7.112  1.00  0.00     0.277 HD
ATOM     40 1H11 UNL     1     -31.869 -18.150  -7.100  1.00  0.00     0.277 HD
ENDBRANCH  36  37
BRANCH  36  41
HETATM   41  O8  UNL     1     -32.544 -18.349  -4.540  1.00  0.00    -0.365 OA
ATOM     42  H8  UNL     1     -31.935 -19.006  -4.222  1.00  0.00     0.212 HD
ENDBRANCH  36  41
ENDBRANCH  24  36
ENDBRANCH   1  20
BRANCH   3  43
HETATM   43  O3  UNL     1     -33.767  -9.646  -5.962  1.00  0.00    -0.271 OA
ATOM     44  H3  UNL     1     -34.541  -9.970  -5.515  1.00  0.00     0.246 HD
ENDBRANCH   3  43
BRANCH  10  45
HETATM   45  O4  UNL     1     -28.442 -13.775  -5.762  1.00  0.00    -0.344 OA
ATOM     46  H4  UNL     1     -28.117 -14.531  -5.290  1.00  0.00     0.219 HD
ENDBRANCH  10  45
BRANCH  17  47
HETATM   47  C13 UNL     1     -27.551  -8.967  -5.671  1.00  0.00     0.359 C 
BRANCH  47  48
HETATM   48  N9  UNL     1     -26.813  -8.293  -6.761  1.00  0.00    -0.052 N 
ATOM     49  H93 UNL     1     -25.818  -8.211  -6.550  1.00  0.00     0.277 HD
ATOM     50  H92 UNL     1     -26.744  -8.880  -7.592  1.00  0.00     0.277 HD
ATOM     51  H91 UNL     1     -27.231  -7.387  -6.971  1.00  0.00     0.277 HD
ENDBRANCH  47  48
BRANCH  47  52
HETATM   52  C14 UNL     1     -26.980  -8.439  -4.368  1.00  0.00     0.304 C 
BRANCH  52  53
HETATM   53  O5  UNL     1     -27.981  -8.215  -3.429  1.00  0.00    -0.368 OA
ATOM     54  H5  UNL     1     -28.054  -8.940  -2.820  1.00  0.00     0.212 HD
ENDBRANCH  52  53
BRANCH  52  55
HETATM   55  O6  UNL     1     -26.227  -7.288  -4.527  1.00  0.00    -0.368 OA
ATOM     56  H6  UNL     1     -25.683  -7.088  -3.774  1.00  0.00     0.212 HD
ENDBRANCH  52  55
ENDBRANCH  47  52
ENDBRANCH  17  47
TORSDOF 16
ENDMDL
MODEL 4
REMARK VINA RESULT: -7.812143124      4.914      9.121
REMARK  16 active torsions:
REMARK  status: ('A' for Active; 'I' for Inactive)
REMARK    1  A    between atoms: C2_2  and  O1_4 
REMARK    2  A    between atoms: C2_2  and  C4_6 
REMARK    3  A    between atoms: C4_6  and  O2_7 
REMARK    4  A    between atoms: C4_6  and  N1_9 
REMARK    5  A    between atoms: N1_9  and  C5_11 
REMARK    6  A    between atoms: C6_14  and  C7_15 
REMARK    7  A    between atoms: N3_17  and  O3_18 
REMARK    8  A    between atoms: C11_26  and  O4_27 
REMARK    9  A    between atoms: N8_35  and  C13_36 
REMARK   10  A    between atoms: C13_36  and  N9_37 
REMARK   11  A    between atoms: C13_36  and  C14_41 
REMARK   12  A    between atoms: C14_41  and  O5_42 
REMARK   13  A    between atoms: C14_41  and  O6_44 
REMARK   14  A    between atoms: C15_49  and  C16_50 
REMARK   15  A    between atoms: C16_50  and  N11_51 
REMARK   16  A    between atoms: C16_50  and  O8_55 
ROOT
HETATM    1  C7  UNL     1     -22.895 -10.990  -4.534  1.00  0.00     0.180 C 
HETATM    2  C8  UNL     1     -22.159 -10.285  -5.634  1.00  0.00     0.211 C 
HETATM    3  N3  UNL     1     -20.728 -10.251  -5.302  1.00  0.00    -0.185 N 
HETATM    4  N4  UNL     1     -19.980 -11.215  -4.579  1.00  0.00    -0.219 N 
ATOM      5  H4  UNL     1     -19.046 -10.916  -4.298  1.00  0.00     0.210 HD
HETATM    6  N5  UNL     1     -20.295 -12.394  -4.228  1.00  0.00    -0.268 N 
ATOM      7  H5  UNL     1     -19.596 -12.922  -3.706  1.00  0.00     0.190 HD
HETATM    8  C9  UNL     1     -21.522 -13.043  -4.493  1.00  0.00     0.150 C 
HETATM    9  C10 UNL     1     -21.623 -14.477  -4.629  1.00  0.00     0.150 A 
HETATM   10  C11 UNL     1     -22.818 -15.163  -4.873  1.00  0.00     0.187 A 
HETATM   11  N6  UNL     1     -22.549 -16.462  -4.930  1.00  0.00    -0.168 N 
ATOM     12  H6  UNL     1     -23.229 -17.204  -5.095  1.00  0.00     0.186 HD
HETATM   13  C12 UNL     1     -21.195 -16.642  -4.728  1.00  0.00     0.682 A 
HETATM   14  N7  UNL     1     -20.695 -17.809  -4.728  1.00  0.00    -0.234 N 
ATOM     15  H71 UNL     1     -19.695 -17.942  -4.578  1.00  0.00     0.174 HD
ATOM     16  H72 UNL     1     -21.095 -18.737  -4.863  1.00  0.00     0.174 HD
HETATM   17  N8  UNL     1     -20.658 -15.397  -4.547  1.00  0.00    -0.140 N 
HETATM   18  N10 UNL     1     -22.666 -12.397  -4.626  1.00  0.00    -0.359 N 
ATOM     19  H10 UNL     1     -23.486 -12.973  -4.817  1.00  0.00     0.162 HD
ENDROOT
BRANCH   1  20
HETATM   20  C6  UNL     1     -24.333 -10.675  -4.476  1.00  0.00     0.150 A 
HETATM   21  N2  UNL     1     -25.345 -11.521  -4.244  1.00  0.00    -0.322 N 
HETATM   22  C5  UNL     1     -26.522 -10.906  -4.258  1.00  0.00     0.143 A 
ATOM     23  H2  UNL     1     -25.226 -12.520  -4.076  1.00  0.00     0.169 HD
HETATM   24  C15 UNL     1     -26.207  -9.577  -4.520  1.00  0.00     0.154 A 
HETATM   25  O7  UNL     1     -24.913  -9.510  -4.636  1.00  0.00    -0.291 OA
BRANCH  22  26
HETATM   26  N1  UNL     1     -27.832 -11.373  -4.070  1.00  0.00    -0.322 N 
ATOM     27  H1  UNL     1     -27.973 -11.880  -3.196  1.00  0.00     0.169 HD
BRANCH  26  28
HETATM   28  C4  UNL     1     -28.965 -11.270  -4.852  1.00  0.00     0.151 C 
BRANCH  28  29
HETATM   29  C2  UNL     1     -30.203 -10.519  -4.751  1.00  0.00     0.115 C 
HETATM   30  C1  UNL     1     -31.338 -11.561  -4.654  1.00  0.00     0.054 C 
HETATM   31  C3  UNL     1     -30.462  -9.790  -6.093  1.00  0.00     0.054 C 
BRANCH  29  32
HETATM   32  O1  UNL     1     -30.308  -9.575  -3.791  1.00  0.00    -0.382 OA
ATOM     33  H1  UNL     1     -30.850  -8.847  -4.072  1.00  0.00     0.211 HD
ENDBRANCH  29  32
ENDBRANCH  28  29
BRANCH  28  34
HETATM   34  O2  UNL     1     -28.934 -12.015  -5.940  1.00  0.00    -0.347 OA
ATOM     35  H2  UNL     1     -28.082 -12.414  -6.069  1.00  0.00     0.219 HD
ENDBRANCH  28  34
ENDBRANCH  26  28
ENDBRANCH  22  26
BRANCH  24  36
HETATM   36  C16 UNL     1     -27.096  -8.401  -4.658  1.00  0.00     0.378 C 
BRANCH  36  37
HETATM   37  N11 UNL     1     -26.280  -7.212  -4.932  1.00  0.00    -0.047 N 
ATOM     38 3H11 UNL     1     -25.292  -7.363  -4.730  1.00  0.00     0.277 HD
ATOM     39 2H11 UNL     1     -26.195  -7.021  -5.930  1.00  0.00     0.277 HD
ATOM     40 1H11 UNL     1     -26.664  -6.418  -4.418  1.00  0.00     0.277 HD
ENDBRANCH  36  37
BRANCH  36  41
HETATM   41  O8  UNL     1     -27.839  -8.149  -3.522  1.00  0.00    -0.365 OA
ATOM     42  H8  UNL     1     -28.034  -7.227  -3.402  1.00  0.00     0.212 HD
ENDBRANCH  36  41
ENDBRANCH  24  36
ENDBRANCH   1  20
BRANCH   3  43
HETATM   43  O3  UNL     1     -20.082  -9.157  -5.755  1.00  0.00    -0.271 OA
ATOM     44  H3  UNL     1     -19.746  -8.592  -5.070  1.00  0.00     0.246 HD
ENDBRANCH   3  43
BRANCH  10  45
HETATM   45  O4  UNL     1     -24.055 -14.553  -5.023  1.00  0.00    -0.344 OA
ATOM     46  H4  UNL     1     -24.818 -14.749  -4.492  1.00  0.00     0.219 HD
ENDBRANCH  10  45
BRANCH  17  47
HETATM   47  C13 UNL     1     -19.259 -15.194  -4.319  1.00  0.00     0.359 C 
BRANCH  47  48
HETATM   48  N9  UNL     1     -18.464 -15.755  -5.433  1.00  0.00    -0.052 N 
ATOM     49  H93 UNL     1     -18.720 -16.723  -5.632  1.00  0.00     0.277 HD
ATOM     50  H92 UNL     1     -18.722 -15.342  -6.329  1.00  0.00     0.277 HD
ATOM     51  H91 UNL     1     -17.465 -15.659  -5.245  1.00  0.00     0.277 HD
ENDBRANCH  47  48
BRANCH  47  52
HETATM   52  C14 UNL     1     -18.771 -15.873  -3.053  1.00  0.00     0.304 C 
BRANCH  52  53
HETATM   53  O5  UNL     1     -19.391 -15.348  -1.923  1.00  0.00    -0.368 OA
ATOM     54  H5  UNL     1     -18.767 -14.907  -1.359  1.00  0.00     0.212 HD
ENDBRANCH  52  53
BRANCH  52  55
HETATM   55  O6  UNL     1     -17.397 -15.816  -2.895  1.00  0.00    -0.368 OA
ATOM     56  H6  UNL     1     -16.923 -16.321  -3.545  1.00  0.00     0.212 HD
ENDBRANCH  52  55
ENDBRANCH  47  52
ENDBRANCH  17  47
TORSDOF 16
ENDMDL
MODEL 5
REMARK VINA RESULT: -7.796136318      2.544      3.527
REMARK  16 active torsions:
REMARK  status: ('A' for Active; 'I' for Inactive)
REMARK    1  A    between atoms: C2_2  and  O1_4 
REMARK    2  A    between atoms: C2_2  and  C4_6 
REMARK    3  A    between atoms: C4_6  and  O2_7 
REMARK    4  A    between atoms: C4_6  and  N1_9 
REMARK    5  A    between atoms: N1_9  and  C5_11 
REMARK    6  A    between atoms: C6_14  and  C7_15 
REMARK    7  A    between atoms: N3_17  and  O3_18 
REMARK    8  A    between atoms: C11_26  and  O4_27 
REMARK    9  A    between atoms: N8_35  and  C13_36 
REMARK   10  A    between atoms: C13_36  and  N9_37 
REMARK   11  A    between atoms: C13_36  and  C14_41 
REMARK   12  A    between atoms: C14_41  and  O5_42 
REMARK   13  A    between atoms: C14_41  and  O6_44 
REMARK   14  A    between atoms: C15_49  and  C16_50 
REMARK   15  A    between atoms: C16_50  and  N11_51 
REMARK   16  A    between atoms: C16_50  and  O8_55 
ROOT
HETATM    1  C7  UNL     1     -28.574 -11.486  -4.847  1.00  0.00     0.180 C 
HETATM    2  C8  UNL     1     -28.865 -10.644  -6.053  1.00  0.00     0.211 C 
HETATM    3  N3  UNL     1     -28.118  -9.383  -5.945  1.00  0.00    -0.185 N 
HETATM    4  N4  UNL     1     -26.854  -9.171  -5.336  1.00  0.00    -0.219 N 
ATOM      5  H4  UNL     1     -26.597  -8.193  -5.204  1.00  0.00     0.210 HD
HETATM    6  N5  UNL     1     -25.995 -10.013  -4.930  1.00  0.00    -0.268 N 
ATOM      7  H5  UNL     1     -25.142  -9.637  -4.515  1.00  0.00     0.190 HD
HETATM    8  C9  UNL     1     -26.108 -11.420  -4.997  1.00  0.00     0.150 C 
HETATM    9  C10 UNL     1     -24.956 -12.283  -5.102  1.00  0.00     0.150 A 
HETATM   10  C11 UNL     1     -25.021 -13.681  -5.153  1.00  0.00     0.187 A 
HETATM   11  N6  UNL     1     -23.782 -14.151  -5.238  1.00  0.00    -0.168 N 
ATOM     12  H6  UNL     1     -23.523 -15.136  -5.291  1.00  0.00     0.186 HD
HETATM   13  C12 UNL     1     -22.904 -13.087  -5.244  1.00  0.00     0.682 A 
HETATM   14  N7  UNL     1     -21.652 -13.287  -5.310  1.00  0.00    -0.234 N 
ATOM     15  H71 UNL     1     -21.003 -12.500  -5.315  1.00  0.00     0.174 HD
ATOM     16  H72 UNL     1     -21.085 -14.133  -5.373  1.00  0.00     0.174 HD
HETATM   17  N8  UNL     1     -23.663 -11.953  -5.160  1.00  0.00    -0.140 N 
HETATM   18  N10 UNL     1     -27.267 -12.052  -4.959  1.00  0.00    -0.359 N 
ATOM     19  H10 UNL     1     -27.224 -13.070  -5.017  1.00  0.00     0.162 HD
ENDROOT
BRANCH   1  20
HETATM   20  C6  UNL     1     -29.592 -12.513  -4.571  1.00  0.00     0.150 A 
HETATM   21  N2  UNL     1     -30.449 -12.558  -3.543  1.00  0.00    -0.322 N 
HETATM   22  C5  UNL     1     -31.236 -13.626  -3.596  1.00  0.00     0.143 A 
ATOM     23  H2  UNL     1     -30.492 -11.855  -2.806  1.00  0.00     0.169 HD
HETATM   24  C15 UNL     1     -30.830 -14.290  -4.749  1.00  0.00     0.154 A 
HETATM   25  O7  UNL     1     -29.867 -13.587  -5.271  1.00  0.00    -0.291 OA
BRANCH  22  26
HETATM   26  N1  UNL     1     -32.264 -14.084  -2.756  1.00  0.00    -0.322 N 
ATOM     27  H1  UNL     1     -33.202 -13.947  -3.133  1.00  0.00     0.169 HD
BRANCH  26  28
HETATM   28  C4  UNL     1     -32.236 -14.685  -1.515  1.00  0.00     0.151 C 
BRANCH  28  29
HETATM   29  C2  UNL     1     -33.221 -15.369  -0.697  1.00  0.00     0.115 C 
HETATM   30  C1  UNL     1     -34.131 -16.148  -1.672  1.00  0.00     0.054 C 
HETATM   31  C3  UNL     1     -34.158 -14.318  -0.051  1.00  0.00     0.054 C 
BRANCH  29  32
HETATM   32  O1  UNL     1     -32.788 -16.151   0.316  1.00  0.00    -0.382 OA
ATOM     33  H1  UNL     1     -33.511 -16.488   0.832  1.00  0.00     0.211 HD
ENDBRANCH  29  32
ENDBRANCH  28  29
BRANCH  28  34
HETATM   34  O2  UNL     1     -31.059 -14.637  -0.922  1.00  0.00    -0.347 OA
ATOM     35  H2  UNL     1     -30.829 -13.751  -0.667  1.00  0.00     0.219 HD
ENDBRANCH  28  34
ENDBRANCH  26  28
ENDBRANCH  22  26
BRANCH  24  36
HETATM   36  C16 UNL     1     -31.332 -15.549  -5.345  1.00  0.00     0.378 C 
BRANCH  36  37
HETATM   37  N11 UNL     1     -31.198 -15.475  -6.806  1.00  0.00    -0.047 N 
ATOM     38 3H11 UNL     1     -32.037 -15.110  -7.255  1.00  0.00     0.277 HD
ATOM     39 2H11 UNL     1     -30.549 -14.746  -7.100  1.00  0.00     0.277 HD
ATOM     40 1H11 UNL     1     -30.936 -16.394  -7.163  1.00  0.00     0.277 HD
ENDBRANCH  36  37
BRANCH  36  41
HETATM   41  O8  UNL     1     -32.659 -15.793  -5.056  1.00  0.00    -0.365 OA
ATOM     42  H8  UNL     1     -33.040 -16.472  -5.600  1.00  0.00     0.212 HD
ENDBRANCH  36  41
ENDBRANCH  24  36
ENDBRANCH   1  20
BRANCH   3  43
HETATM   43  O3  UNL     1     -28.739  -8.324  -6.502  1.00  0.00    -0.271 OA
ATOM     44  H3  UNL     1     -28.484  -7.486  -6.134  1.00  0.00     0.246 HD
ENDBRANCH   3  43
BRANCH  10  45
HETATM   45  O4  UNL     1     -26.199 -14.412  -5.118  1.00  0.00    -0.344 OA
ATOM     46  H4  UNL     1     -26.248 -15.354  -5.227  1.00  0.00     0.219 HD
ENDBRANCH  10  45
BRANCH  17  47
HETATM   47  C13 UNL     1     -23.084 -10.643  -5.152  1.00  0.00     0.359 C 
BRANCH  47  48
HETATM   48  N9  UNL     1     -22.752 -10.212  -6.527  1.00  0.00    -0.052 N 
ATOM     49  H93 UNL     1     -22.732 -10.999  -7.176  1.00  0.00     0.277 HD
ATOM     50  H92 UNL     1     -23.513  -9.683  -6.953  1.00  0.00     0.277 HD
ATOM     51  H91 UNL     1     -21.876  -9.690  -6.539  1.00  0.00     0.277 HD
ENDBRANCH  47  48
BRANCH  47  52
HETATM   52  C14 UNL     1     -21.793 -10.584  -4.356  1.00  0.00     0.304 C 
BRANCH  52  53
HETATM   53  O5  UNL     1     -21.856  -9.618  -3.356  1.00  0.00    -0.368 OA
ATOM     54  H5  UNL     1     -22.071  -8.764  -3.712  1.00  0.00     0.212 HD
ENDBRANCH  52  53
BRANCH  52  55
HETATM   55  O6  UNL     1     -20.674 -10.365  -5.141  1.00  0.00    -0.368 OA
ATOM     56  H6  UNL     1     -20.447  -9.446  -5.224  1.00  0.00     0.212 HD
ENDBRANCH  52  55
ENDBRANCH  47  52
ENDBRANCH  17  47
TORSDOF 16
ENDMDL
