MODEL 1
REMARK VINA RESULT: -8.782842439      0.000      0.000
REMARK  14 active torsions:
REMARK  status: ('A' for Active; 'I' for Inactive)
REMARK    1  A    between atoms: N1_1  and  C1_4 
REMARK    2  A    between atoms: C2_7  and  C3_8 
REMARK    3  A    between atoms: C3_8  and  O1_9 
REMARK    4  A    between atoms: C4_13  and  N4_14 
REMARK    5  A    between atoms: N4_14  and  N5_16 
REMARK    6  A    between atoms: C5_18  and  C6_19 
REMARK    7  A    between atoms: C6_19  and  S1_20 
REMARK    8  A    between atoms: S1_20  and  S2_21 
REMARK    9  A    between atoms: S2_21  and  C7_22 
REMARK   10  A    between atoms: C9_32  and  N10_33 
REMARK   11  A    between atoms: C10_36  and  O3_37 
REMARK   12  A    between atoms: C10_36  and  C11_39 
REMARK   13  A    between atoms: C11_39  and  O4_40 
REMARK   14  A    between atoms: C12_43  and  O6_44 
ROOT
HETATM    1  C3  UNL     1     -30.582 -10.239  -4.625  1.00  0.00     0.300 C 
HETATM    2  N3  UNL     1     -29.694 -10.563  -5.752  1.00  0.00    -0.314 N 
ATOM      3  H3  UNL     1     -29.542  -9.973  -6.570  1.00  0.00     0.166 HD
HETATM    4  C4  UNL     1     -29.137 -11.707  -5.546  1.00  0.00     0.162 C 
HETATM    5  C10 UNL     1     -29.660 -12.234  -4.272  1.00  0.00     0.250 C 
HETATM    6  O5  UNL     1     -30.778 -11.441  -4.025  1.00  0.00    -0.286 OA
ENDROOT
BRANCH   4   7
HETATM    7  N4  UNL     1     -28.198 -12.370  -6.420  1.00  0.00    -0.285 N 
ATOM      8  H4  UNL     1     -27.827 -11.861  -7.221  1.00  0.00     0.188 HD
BRANCH   7   9
HETATM    9  N5  UNL     1     -27.783 -13.679  -6.207  1.00  0.00    -0.314 N 
HETATM   10  C5  UNL     1     -26.545 -13.937  -6.066  1.00  0.00     0.091 C 
ATOM     11  H5  UNL     1     -28.470 -14.432  -6.162  1.00  0.00     0.185 HD
BRANCH  10  12
HETATM   12  C6  UNL     1     -25.538 -12.863  -6.125  1.00  0.00     0.132 C 
BRANCH  12  13
HETATM   13  S1  UNL     1     -24.146 -13.183  -5.003  1.00  0.00    -0.086 SA
BRANCH  13  14
HETATM   14  S2  UNL     1     -23.344 -11.313  -4.311  1.00  0.00    -0.034 SA
BRANCH  14  15
HETATM   15  C7  UNL     1     -24.375 -10.031  -5.010  1.00  0.00     0.142 A 
HETATM   16  N6  UNL     1     -25.687 -10.008  -4.746  1.00  0.00    -0.246 N 
HETATM   17  N7  UNL     1     -26.425  -9.053  -5.272  1.00  0.00     0.046 N 
ATOM     18  H6  UNL     1     -26.107 -10.718  -4.146  1.00  0.00     0.191 HD
HETATM   19  O2  UNL     1     -27.602  -8.520  -5.401  1.00  0.00    -0.104 OA
HETATM   20  C8  UNL     1     -25.924  -8.098  -6.066  1.00  0.00     0.749 A 
HETATM   21  N8  UNL     1     -27.160  -7.562  -6.186  1.00  0.00    -0.066 N 
ATOM     22  H8  UNL     1     -27.569  -6.763  -6.671  1.00  0.00     0.216 HD
HETATM   23  N9  UNL     1     -24.604  -8.095  -6.352  1.00  0.00    -0.169 N 
HETATM   24  C9  UNL     1     -23.818  -9.053  -5.833  1.00  0.00     0.151 A 
ATOM     25  H9  UNL     1     -24.209  -7.373  -6.955  1.00  0.00     0.186 HD
BRANCH  24  26
HETATM   26  N10 UNL     1     -22.562  -9.043  -6.110  1.00  0.00    -0.383 N 
ATOM     27 2H10 UNL     1     -22.258  -9.366  -7.028  1.00  0.00     0.157 HD
ATOM     28 1H10 UNL     1     -21.869  -8.719  -5.435  1.00  0.00     0.157 HD
ENDBRANCH  24  26
ENDBRANCH  14  15
ENDBRANCH  13  14
ENDBRANCH  12  13
ENDBRANCH  10  12
ENDBRANCH   7   9
ENDBRANCH   4   7
BRANCH   5  29
HETATM   29  O3  UNL     1     -30.098 -13.583  -4.498  1.00  0.00    -0.358 OA
ATOM     30  H3  UNL     1     -30.475 -13.908  -3.689  1.00  0.00     0.213 HD
ENDBRANCH   5  29
BRANCH   5  31
HETATM   31  C11 UNL     1     -28.684 -12.356  -3.170  1.00  0.00     0.241 C 
BRANCH  31  32
HETATM   32  O4  UNL     1     -27.634 -11.504  -3.117  1.00  0.00    -0.395 OA
ATOM     33  H4  UNL     1     -27.577 -10.881  -2.402  1.00  0.00     0.209 HD
ENDBRANCH  31  32
ENDBRANCH   5  31
BRANCH   1  34
HETATM   34  C2  UNL     1     -31.725  -9.495  -5.123  1.00  0.00     0.149 A 
HETATM   35  N2  UNL     1     -31.811  -8.153  -4.889  1.00  0.00    -0.185 N 
HETATM   36  C1  UNL     1     -32.785  -7.351  -5.306  1.00  0.00     0.679 A 
ATOM     37  H2  UNL     1     -31.060  -7.728  -4.345  1.00  0.00     0.184 HD
HETATM   38  N11 UNL     1     -33.789  -7.875  -6.024  1.00  0.00    -0.154 N 
HETATM   39  C13 UNL     1     -33.786  -9.186  -6.302  1.00  0.00     0.295 A 
ATOM     40  H11 UNL     1     -34.548  -7.281  -6.357  1.00  0.00     0.187 HD
HETATM   41  C12 UNL     1     -32.752 -10.015  -5.853  1.00  0.00     0.166 A 
HETATM   42  O7  UNL     1     -34.720  -9.693  -6.974  1.00  0.00    -0.265 OA
BRANCH  36  43
HETATM   43  N1  UNL     1     -32.786  -6.065  -5.033  1.00  0.00    -0.234 N 
ATOM     44  H12 UNL     1     -32.130  -5.697  -4.344  1.00  0.00     0.174 HD
ATOM     45  H11 UNL     1     -33.429  -5.420  -5.491  1.00  0.00     0.174 HD
ENDBRANCH  36  43
BRANCH  41  46
HETATM   46  O6  UNL     1     -32.830 -11.320  -6.173  1.00  0.00    -0.354 OA
ATOM     47  H6  UNL     1     -33.259 -11.631  -6.961  1.00  0.00     0.218 HD
ENDBRANCH  41  46
ENDBRANCH   1  34
BRANCH   1  48
HETATM   48  O1  UNL     1     -29.866  -9.357  -3.759  1.00  0.00    -0.343 OA
ATOM     49  H1  UNL     1     -29.033  -9.179  -4.181  1.00  0.00     0.215 HD
ENDBRANCH   1  48
TORSDOF 14
ENDMDL
MODEL 2
REMARK VINA RESULT: -8.248889965      2.334      3.250
REMARK  14 active torsions:
REMARK  status: ('A' for Active; 'I' for Inactive)
REMARK    1  A    between atoms: N1_1  and  C1_4 
REMARK    2  A    between atoms: C2_7  and  C3_8 
REMARK    3  A    between atoms: C3_8  and  O1_9 
REMARK    4  A    between atoms: C4_13  and  N4_14 
REMARK    5  A    between atoms: N4_14  and  N5_16 
REMARK    6  A    between atoms: C5_18  and  C6_19 
REMARK    7  A    between atoms: C6_19  and  S1_20 
REMARK    8  A    between atoms: S1_20  and  S2_21 
REMARK    9  A    between atoms: S2_21  and  C7_22 
REMARK   10  A    between atoms: C9_32  and  N10_33 
REMARK   11  A    between atoms: C10_36  and  O3_37 
REMARK   12  A    between atoms: C10_36  and  C11_39 
REMARK   13  A    between atoms: C11_39  and  O4_40 
REMARK   14  A    between atoms: C12_43  and  O6_44 
ROOT
HETATM    1  C3  UNL     1     -30.767 -10.133  -4.610  1.00  0.00     0.300 C 
HETATM    2  N3  UNL     1     -29.834 -10.331  -5.730  1.00  0.00    -0.314 N 
ATOM      3  H3  UNL     1     -29.686  -9.672  -6.495  1.00  0.00     0.166 HD
HETATM    4  C4  UNL     1     -29.235 -11.464  -5.597  1.00  0.00     0.162 C 
HETATM    5  C10 UNL     1     -29.769 -12.110  -4.385  1.00  0.00     0.250 C 
HETATM    6  O5  UNL     1     -30.927 -11.386  -4.112  1.00  0.00    -0.286 OA
ENDROOT
BRANCH   4   7
HETATM    7  N4  UNL     1     -28.244 -12.017  -6.490  1.00  0.00    -0.285 N 
ATOM      8  H4  UNL     1     -28.229 -11.706  -7.461  1.00  0.00     0.188 HD
BRANCH   7   9
HETATM    9  N5  UNL     1     -27.311 -12.957  -6.072  1.00  0.00    -0.314 N 
HETATM   10  C5  UNL     1     -26.067 -12.717  -6.200  1.00  0.00     0.091 C 
ATOM     11  H5  UNL     1     -27.622 -13.838  -5.662  1.00  0.00     0.185 HD
BRANCH  10  12
HETATM   12  C6  UNL     1     -25.599 -11.450  -6.787  1.00  0.00     0.132 C 
BRANCH  12  13
HETATM   13  S1  UNL     1     -25.177 -10.230  -5.509  1.00  0.00    -0.086 SA
BRANCH  13  14
HETATM   14  S2  UNL     1     -23.311  -9.289  -6.009  1.00  0.00    -0.034 SA
BRANCH  14  15
HETATM   15  C7  UNL     1     -22.023 -10.410  -5.484  1.00  0.00     0.142 A 
HETATM   16  N6  UNL     1     -22.252 -11.728  -5.456  1.00  0.00    -0.246 N 
HETATM   17  N7  UNL     1     -21.286 -12.534  -5.065  1.00  0.00     0.046 N 
ATOM     18  H6  UNL     1     -23.160 -12.102  -5.732  1.00  0.00     0.191 HD
HETATM   19  O2  UNL     1     -20.898 -13.752  -4.837  1.00  0.00    -0.104 OA
HETATM   20  C8  UNL     1     -20.078 -12.096  -4.691  1.00  0.00     0.749 A 
HETATM   21  N8  UNL     1     -19.696 -13.373  -4.460  1.00  0.00    -0.066 N 
ATOM     22  H8  UNL     1     -18.848 -13.838  -4.137  1.00  0.00     0.216 HD
HETATM   23  N9  UNL     1     -19.816 -10.771  -4.707  1.00  0.00    -0.169 N 
HETATM   24  C9  UNL     1     -20.776  -9.917  -5.100  1.00  0.00     0.151 A 
ATOM     25  H9  UNL     1     -18.899 -10.423  -4.425  1.00  0.00     0.186 HD
BRANCH  24  26
HETATM   26  N10 UNL     1     -20.518  -8.657  -5.113  1.00  0.00    -0.383 N 
ATOM     27 2H10 UNL     1     -19.659  -8.335  -5.558  1.00  0.00     0.157 HD
ATOM     28 1H10 UNL     1     -21.152  -7.978  -4.691  1.00  0.00     0.157 HD
ENDBRANCH  24  26
ENDBRANCH  14  15
ENDBRANCH  13  14
ENDBRANCH  12  13
ENDBRANCH  10  12
ENDBRANCH   7   9
ENDBRANCH   4   7
BRANCH   5  29
HETATM   29  O3  UNL     1     -30.142 -13.454  -4.728  1.00  0.00    -0.358 OA
ATOM     30  H3  UNL     1     -30.847 -13.720  -4.149  1.00  0.00     0.213 HD
ENDBRANCH   5  29
BRANCH   5  31
HETATM   31  C11 UNL     1     -28.821 -12.279  -3.266  1.00  0.00     0.241 C 
BRANCH  31  32
HETATM   32  O4  UNL     1     -27.744 -11.464  -3.180  1.00  0.00    -0.395 OA
ATOM     33  H4  UNL     1     -27.201 -11.490  -2.401  1.00  0.00     0.209 HD
ENDBRANCH  31  32
ENDBRANCH   5  31
BRANCH   1  34
HETATM   34  C2  UNL     1     -31.926  -9.399  -5.084  1.00  0.00     0.149 A 
HETATM   35  N2  UNL     1     -32.046  -8.070  -4.800  1.00  0.00    -0.185 N 
HETATM   36  C1  UNL     1     -33.039  -7.277  -5.190  1.00  0.00     0.679 A 
ATOM     37  H2  UNL     1     -31.308  -7.647  -4.238  1.00  0.00     0.184 HD
HETATM   38  N11 UNL     1     -34.028  -7.798  -5.931  1.00  0.00    -0.154 N 
HETATM   39  C13 UNL     1     -33.991  -9.098  -6.257  1.00  0.00     0.295 A 
ATOM     40  H11 UNL     1     -34.801  -7.211  -6.244  1.00  0.00     0.187 HD
HETATM   41  C12 UNL     1     -32.938  -9.916  -5.836  1.00  0.00     0.166 A 
HETATM   42  O7  UNL     1     -34.911  -9.602  -6.952  1.00  0.00    -0.265 OA
BRANCH  36  43
HETATM   43  N1  UNL     1     -33.073  -6.003  -4.869  1.00  0.00    -0.234 N 
ATOM     44  H12 UNL     1     -33.973  -5.532  -4.773  1.00  0.00     0.174 HD
ATOM     45  H11 UNL     1     -32.220  -5.466  -4.711  1.00  0.00     0.174 HD
ENDBRANCH  36  43
BRANCH  41  46
HETATM   46  O6  UNL     1     -32.983 -11.210  -6.205  1.00  0.00    -0.354 OA
ATOM     47  H6  UNL     1     -32.679 -11.916  -5.646  1.00  0.00     0.218 HD
ENDBRANCH  41  46
ENDBRANCH   1  34
BRANCH   1  48
HETATM   48  O1  UNL     1     -30.114  -9.293  -3.656  1.00  0.00    -0.343 OA
ATOM     49  H1  UNL     1     -30.378  -9.601  -2.797  1.00  0.00     0.215 HD
ENDBRANCH   1  48
TORSDOF 14
ENDMDL
MODEL 3
REMARK VINA RESULT: -8.145826549      1.602      2.062
REMARK  14 active torsions:
REMARK  status: ('A' for Active; 'I' for Inactive)
REMARK    1  A    between atoms: N1_1  and  C1_4 
REMARK    2  A    between atoms: C2_7  and  C3_8 
REMARK    3  A    between atoms: C3_8  and  O1_9 
REMARK    4  A    between atoms: C4_13  and  N4_14 
REMARK    5  A    between atoms: N4_14  and  N5_16 
REMARK    6  A    between atoms: C5_18  and  C6_19 
REMARK    7  A    between atoms: C6_19  and  S1_20 
REMARK    8  A    between atoms: S1_20  and  S2_21 
REMARK    9  A    between atoms: S2_21  and  C7_22 
REMARK   10  A    between atoms: C9_32  and  N10_33 
REMARK   11  A    between atoms: C10_36  and  O3_37 
REMARK   12  A    between atoms: C10_36  and  C11_39 
REMARK   13  A    between atoms: C11_39  and  O4_40 
REMARK   14  A    between atoms: C12_43  and  O6_44 
ROOT
HETATM    1  C3  UNL     1     -30.844 -10.098  -4.614  1.00  0.00     0.300 C 
HETATM    2  N3  UNL     1     -29.906 -10.274  -5.733  1.00  0.00    -0.314 N 
ATOM      3  H3  UNL     1     -29.753  -9.601  -6.484  1.00  0.00     0.166 HD
HETATM    4  C4  UNL     1     -29.307 -11.409  -5.618  1.00  0.00     0.162 C 
HETATM    5  C10 UNL     1     -29.848 -12.079  -4.422  1.00  0.00     0.250 C 
HETATM    6  O5  UNL     1     -31.007 -11.360  -4.141  1.00  0.00    -0.286 OA
ENDROOT
BRANCH   4   7
HETATM    7  N4  UNL     1     -28.312 -11.945  -6.517  1.00  0.00    -0.285 N 
ATOM      8  H4  UNL     1     -27.959 -11.355  -7.270  1.00  0.00     0.188 HD
BRANCH   7   9
HETATM    9  N5  UNL     1     -27.817 -13.237  -6.391  1.00  0.00    -0.314 N 
HETATM   10  C5  UNL     1     -26.586 -13.423  -6.125  1.00  0.00     0.091 C 
ATOM     11  H5  UNL     1     -28.440 -14.036  -6.510  1.00  0.00     0.185 HD
BRANCH  10  12
HETATM   12  C6  UNL     1     -25.672 -12.282  -5.948  1.00  0.00     0.132 C 
BRANCH  12  13
HETATM   13  S1  UNL     1     -24.461 -12.589  -4.629  1.00  0.00    -0.086 SA
BRANCH  13  14
HETATM   14  S2  UNL     1     -22.474 -12.373  -5.419  1.00  0.00    -0.034 SA
BRANCH  14  15
HETATM   15  C7  UNL     1     -22.145 -10.618  -5.486  1.00  0.00     0.142 A 
HETATM   16  N6  UNL     1     -23.091  -9.775  -5.915  1.00  0.00    -0.246 N 
HETATM   17  N7  UNL     1     -22.824  -8.485  -5.955  1.00  0.00     0.046 N 
ATOM     18  H6  UNL     1     -24.004 -10.125  -6.207  1.00  0.00     0.191 HD
HETATM   19  O2  UNL     1     -23.240  -7.286  -6.231  1.00  0.00    -0.104 OA
HETATM   20  C8  UNL     1     -21.643  -7.974  -5.586  1.00  0.00     0.749 A 
HETATM   21  N8  UNL     1     -22.098  -6.734  -5.880  1.00  0.00    -0.066 N 
ATOM     22  H8  UNL     1     -21.722  -5.787  -5.844  1.00  0.00     0.216 HD
HETATM   23  N9  UNL     1     -20.668  -8.799  -5.149  1.00  0.00    -0.169 N 
HETATM   24  C9  UNL     1     -20.902 -10.121  -5.094  1.00  0.00     0.151 A 
ATOM     25  H9  UNL     1     -19.763  -8.423  -4.864  1.00  0.00     0.186 HD
BRANCH  24  26
HETATM   26  N10 UNL     1     -19.968 -10.900  -4.676  1.00  0.00    -0.383 N 
ATOM     27 2H10 UNL     1     -20.136 -11.906  -4.663  1.00  0.00     0.157 HD
ATOM     28 1H10 UNL     1     -19.069 -10.535  -4.362  1.00  0.00     0.157 HD
ENDBRANCH  24  26
ENDBRANCH  14  15
ENDBRANCH  13  14
ENDBRANCH  12  13
ENDBRANCH  10  12
ENDBRANCH   7   9
ENDBRANCH   4   7
BRANCH   5  29
HETATM   29  O3  UNL     1     -30.218 -13.416  -4.792  1.00  0.00    -0.358 OA
ATOM     30  H3  UNL     1     -29.478 -13.813  -5.236  1.00  0.00     0.213 HD
ENDBRANCH   5  29
BRANCH   5  31
HETATM   31  C11 UNL     1     -28.905 -12.268  -3.301  1.00  0.00     0.241 C 
BRANCH  31  32
HETATM   32  O4  UNL     1     -27.862 -11.417  -3.160  1.00  0.00    -0.395 OA
ATOM     33  H4  UNL     1     -26.977 -11.744  -3.268  1.00  0.00     0.209 HD
ENDBRANCH  31  32
ENDBRANCH   5  31
BRANCH   1  34
HETATM   34  C2  UNL     1     -32.001  -9.355  -5.081  1.00  0.00     0.149 A 
HETATM   35  N2  UNL     1     -32.121  -8.030  -4.775  1.00  0.00    -0.185 N 
HETATM   36  C1  UNL     1     -33.112  -7.230  -5.155  1.00  0.00     0.679 A 
ATOM     37  H2  UNL     1     -31.384  -7.617  -4.203  1.00  0.00     0.184 HD
HETATM   38  N11 UNL     1     -34.098  -7.738  -5.908  1.00  0.00    -0.154 N 
HETATM   39  C13 UNL     1     -34.062  -9.032  -6.256  1.00  0.00     0.295 A 
ATOM     40  H11 UNL     1     -34.870  -7.145  -6.214  1.00  0.00     0.187 HD
HETATM   41  C12 UNL     1     -33.010  -9.858  -5.845  1.00  0.00     0.166 A 
HETATM   42  O7  UNL     1     -34.979  -9.523  -6.963  1.00  0.00    -0.265 OA
BRANCH  36  43
HETATM   43  N1  UNL     1     -33.146  -5.961  -4.813  1.00  0.00    -0.234 N 
ATOM     44  H12 UNL     1     -32.779  -5.257  -5.454  1.00  0.00     0.174 HD
ATOM     45  H11 UNL     1     -33.529  -5.657  -3.918  1.00  0.00     0.174 HD
ENDBRANCH  36  43
BRANCH  41  46
HETATM   46  O6  UNL     1     -33.056 -11.146  -6.236  1.00  0.00    -0.354 OA
ATOM     47  H6  UNL     1     -33.863 -11.579  -6.486  1.00  0.00     0.218 HD
ENDBRANCH  41  46
ENDBRANCH   1  34
BRANCH   1  48
HETATM   48  O1  UNL     1     -30.196  -9.276  -3.641  1.00  0.00    -0.343 OA
ATOM     49  H1  UNL     1     -30.788  -8.556  -3.456  1.00  0.00     0.215 HD
ENDBRANCH   1  48
TORSDOF 14
ENDMDL
MODEL 4
REMARK VINA RESULT: -8.139879851      2.196      3.017
REMARK  14 active torsions:
REMARK  status: ('A' for Active; 'I' for Inactive)
REMARK    1  A    between atoms: N1_1  and  C1_4 
REMARK    2  A    between atoms: C2_7  and  C3_8 
REMARK    3  A    between atoms: C3_8  and  O1_9 
REMARK    4  A    between atoms: C4_13  and  N4_14 
REMARK    5  A    between atoms: N4_14  and  N5_16 
REMARK    6  A    between atoms: C5_18  and  C6_19 
REMARK    7  A    between atoms: C6_19  and  S1_20 
REMARK    8  A    between atoms: S1_20  and  S2_21 
REMARK    9  A    between atoms: S2_21  and  C7_22 
REMARK   10  A    between atoms: C9_32  and  N10_33 
REMARK   11  A    between atoms: C10_36  and  O3_37 
REMARK   12  A    between atoms: C10_36  and  C11_39 
REMARK   13  A    between atoms: C11_39  and  O4_40 
REMARK   14  A    between atoms: C12_43  and  O6_44 
ROOT
HETATM    1  C3  UNL     1     -30.784  -9.180  -6.279  1.00  0.00     0.300 C 
HETATM    2  N3  UNL     1     -30.361 -10.123  -5.233  1.00  0.00    -0.314 N 
ATOM      3  H3  UNL     1     -30.989 -10.631  -4.610  1.00  0.00     0.166 HD
HETATM    4  C4  UNL     1     -29.075 -10.208  -5.225  1.00  0.00     0.162 C 
HETATM    5  C10 UNL     1     -28.561  -9.285  -6.253  1.00  0.00     0.250 C 
HETATM    6  O5  UNL     1     -29.655  -8.471  -6.538  1.00  0.00    -0.286 OA
ENDROOT
BRANCH   4   7
HETATM    7  N4  UNL     1     -28.279 -11.031  -4.346  1.00  0.00    -0.285 N 
ATOM      8  H4  UNL     1     -28.605 -11.971  -4.121  1.00  0.00     0.188 HD
BRANCH   7   9
HETATM    9  N5  UNL     1     -27.083 -10.588  -3.795  1.00  0.00    -0.314 N 
HETATM   10  C5  UNL     1     -26.022 -11.276  -3.943  1.00  0.00     0.091 C 
ATOM     11  H5  UNL     1     -27.055  -9.711  -3.274  1.00  0.00     0.185 HD
BRANCH  10  12
HETATM   12  C6  UNL     1     -26.043 -12.543  -4.693  1.00  0.00     0.132 C 
BRANCH  12  13
HETATM   13  S1  UNL     1     -24.900 -12.508  -6.105  1.00  0.00    -0.086 SA
BRANCH  13  14
HETATM   14  S2  UNL     1     -22.891 -12.232  -5.391  1.00  0.00    -0.034 SA
BRANCH  14  15
HETATM   15  C7  UNL     1     -22.545 -10.483  -5.519  1.00  0.00     0.142 A 
HETATM   16  N6  UNL     1     -23.481  -9.647  -5.983  1.00  0.00    -0.246 N 
HETATM   17  N7  UNL     1     -23.202  -8.363  -6.067  1.00  0.00     0.046 N 
ATOM     18  H6  UNL     1     -24.396  -9.999  -6.267  1.00  0.00     0.191 HD
HETATM   19  O2  UNL     1     -23.605  -7.171  -6.388  1.00  0.00    -0.104 OA
HETATM   20  C8  UNL     1     -22.019  -7.849  -5.710  1.00  0.00     0.749 A 
HETATM   21  N8  UNL     1     -22.461  -6.617  -6.050  1.00  0.00    -0.066 N 
ATOM     22  H8  UNL     1     -22.075  -5.673  -6.047  1.00  0.00     0.216 HD
HETATM   23  N9  UNL     1     -21.053  -8.667  -5.239  1.00  0.00    -0.169 N 
HETATM   24  C9  UNL     1     -21.300  -9.985  -5.138  1.00  0.00     0.151 A 
ATOM     25  H9  UNL     1     -20.146  -8.290  -4.962  1.00  0.00     0.186 HD
BRANCH  24  26
HETATM   26  N10 UNL     1     -20.375 -10.757  -4.687  1.00  0.00    -0.383 N 
ATOM     27 2H10 UNL     1     -19.669 -11.107  -5.334  1.00  0.00     0.157 HD
ATOM     28 1H10 UNL     1     -20.335 -11.024  -3.703  1.00  0.00     0.157 HD
ENDBRANCH  24  26
ENDBRANCH  14  15
ENDBRANCH  13  14
ENDBRANCH  12  13
ENDBRANCH  10  12
ENDBRANCH   7   9
ENDBRANCH   4   7
BRANCH   5  29
HETATM   29  O3  UNL     1     -27.537  -8.478  -5.651  1.00  0.00    -0.358 OA
ATOM     30  H3  UNL     1     -27.222  -7.867  -6.307  1.00  0.00     0.213 HD
ENDBRANCH   5  29
BRANCH   5  31
HETATM   31  C11 UNL     1     -27.888  -9.910  -7.409  1.00  0.00     0.241 C 
BRANCH  31  32
HETATM   32  O4  UNL     1     -27.885 -11.258  -7.526  1.00  0.00    -0.395 OA
ATOM     33  H4  UNL     1     -27.113 -11.694  -7.867  1.00  0.00     0.209 HD
ENDBRANCH  31  32
ENDBRANCH   5  31
BRANCH   1  34
HETATM   34  C2  UNL     1     -31.978  -8.483  -5.833  1.00  0.00     0.149 A 
HETATM   35  N2  UNL     1     -31.967  -7.122  -5.731  1.00  0.00    -0.185 N 
HETATM   36  C1  UNL     1     -32.992  -6.361  -5.359  1.00  0.00     0.679 A 
ATOM     37  H2  UNL     1     -31.094  -6.647  -5.959  1.00  0.00     0.184 HD
HETATM   38  N11 UNL     1     -34.155  -6.952  -5.051  1.00  0.00    -0.154 N 
HETATM   39  C13 UNL     1     -34.256  -8.287  -5.124  1.00  0.00     0.295 A 
ATOM     40  H11 UNL     1     -34.957  -6.391  -4.764  1.00  0.00     0.187 HD
HETATM   41  C12 UNL     1     -33.166  -9.071  -5.515  1.00  0.00     0.166 A 
HETATM   42  O7  UNL     1     -35.341  -8.856  -4.838  1.00  0.00    -0.265 OA
BRANCH  36  43
HETATM   43  N1  UNL     1     -32.890  -5.053  -5.289  1.00  0.00    -0.234 N 
ATOM     44  H12 UNL     1     -32.112  -4.635  -4.779  1.00  0.00     0.174 HD
ATOM     45  H11 UNL     1     -33.573  -4.438  -5.732  1.00  0.00     0.174 HD
ENDBRANCH  36  43
BRANCH  41  46
HETATM   46  O6  UNL     1     -33.353 -10.403  -5.556  1.00  0.00    -0.354 OA
ATOM     47  H6  UNL     1     -34.195 -10.799  -5.747  1.00  0.00     0.218 HD
ENDBRANCH  41  46
ENDBRANCH   1  34
BRANCH   1  48
HETATM   48  O1  UNL     1     -31.165  -9.952  -7.419  1.00  0.00    -0.343 OA
ATOM     49  H1  UNL     1     -31.259 -10.849  -7.120  1.00  0.00     0.215 HD
ENDBRANCH   1  48
TORSDOF 14
ENDMDL
MODEL 5
REMARK VINA RESULT: -7.985989236      2.597      3.828
REMARK  14 active torsions:
REMARK  status: ('A' for Active; 'I' for Inactive)
REMARK    1  A    between atoms: N1_1  and  C1_4 
REMARK    2  A    between atoms: C2_7  and  C3_8 
REMARK    3  A    between atoms: C3_8  and  O1_9 
REMARK    4  A    between atoms: C4_13  and  N4_14 
REMARK    5  A    between atoms: N4_14  and  N5_16 
REMARK    6  A    between atoms: C5_18  and  C6_19 
REMARK    7  A    between atoms: C6_19  and  S1_20 
REMARK    8  A    between atoms: S1_20  and  S2_21 
REMARK    9  A    between atoms: S2_21  and  C7_22 
REMARK   10  A    between atoms: C9_32  and  N10_33 
REMARK   11  A    between atoms: C10_36  and  O3_37 
REMARK   12  A    between atoms: C10_36  and  C11_39 
REMARK   13  A    between atoms: C11_39  and  O4_40 
REMARK   14  A    between atoms: C12_43  and  O6_44 
ROOT
HETATM    1  C3  UNL     1     -30.870  -9.049  -6.376  1.00  0.00     0.300 C 
HETATM    2  N3  UNL     1     -30.465 -10.089  -5.418  1.00  0.00    -0.314 N 
ATOM      3  H3  UNL     1     -31.103 -10.646  -4.850  1.00  0.00     0.166 HD
HETATM    4  C4  UNL     1     -29.180 -10.187  -5.407  1.00  0.00     0.162 C 
HETATM    5  C10 UNL     1     -28.648  -9.178  -6.340  1.00  0.00     0.250 C 
HETATM    6  O5  UNL     1     -29.732  -8.331  -6.559  1.00  0.00    -0.286 OA
ENDROOT
BRANCH   4   7
HETATM    7  N4  UNL     1     -28.399 -11.095  -4.600  1.00  0.00    -0.285 N 
ATOM      8  H4  UNL     1     -28.666 -12.079  -4.568  1.00  0.00     0.188 HD
BRANCH   7   9
HETATM    9  N5  UNL     1     -27.296 -10.676  -3.867  1.00  0.00    -0.314 N 
HETATM   10  C5  UNL     1     -26.184 -11.283  -3.990  1.00  0.00     0.091 C 
ATOM     11  H5  UNL     1     -27.378  -9.882  -3.232  1.00  0.00     0.185 HD
BRANCH  10  12
HETATM   12  C6  UNL     1     -26.047 -12.430  -4.903  1.00  0.00     0.132 C 
BRANCH  12  13
HETATM   13  S1  UNL     1     -25.198 -11.968  -6.441  1.00  0.00    -0.086 SA
BRANCH  13  14
HETATM   14  S2  UNL     1     -24.352 -10.003  -6.227  1.00  0.00    -0.034 SA
BRANCH  14  15
HETATM   15  C7  UNL     1     -22.647 -10.237  -5.746  1.00  0.00     0.142 A 
HETATM   16  N6  UNL     1     -22.190 -11.465  -5.474  1.00  0.00    -0.246 N 
HETATM   17  N7  UNL     1     -20.929 -11.612  -5.122  1.00  0.00     0.046 N 
ATOM     18  H6  UNL     1     -22.808 -12.275  -5.539  1.00  0.00     0.191 HD
HETATM   19  O2  UNL     1     -19.974 -12.418  -4.771  1.00  0.00    -0.104 OA
HETATM   20  C8  UNL     1     -20.077 -10.585  -5.020  1.00  0.00     0.749 A 
HETATM   21  N8  UNL     1     -19.098 -11.444  -4.656  1.00  0.00    -0.066 N 
ATOM     22  H8  UNL     1     -18.112 -11.370  -4.404  1.00  0.00     0.216 HD
HETATM   23  N9  UNL     1     -20.508  -9.333  -5.287  1.00  0.00    -0.169 N 
HETATM   24  C9  UNL     1     -21.788  -9.143  -5.650  1.00  0.00     0.151 A 
ATOM     25  H9  UNL     1     -19.869  -8.541  -5.214  1.00  0.00     0.186 HD
BRANCH  24  26
HETATM   26  N10 UNL     1     -22.191  -7.948  -5.902  1.00  0.00    -0.383 N 
ATOM     27 2H10 UNL     1     -22.991  -7.819  -6.521  1.00  0.00     0.157 HD
ATOM     28 1H10 UNL     1     -21.730  -7.132  -5.498  1.00  0.00     0.157 HD
ENDBRANCH  24  26
ENDBRANCH  14  15
ENDBRANCH  13  14
ENDBRANCH  12  13
ENDBRANCH  10  12
ENDBRANCH   7   9
ENDBRANCH   4   7
BRANCH   5  29
HETATM   29  O3  UNL     1     -27.623  -8.440  -5.658  1.00  0.00    -0.358 OA
ATOM     30  H3  UNL     1     -27.143  -7.937  -6.305  1.00  0.00     0.213 HD
ENDBRANCH   5  29
BRANCH   5  31
HETATM   31  C11 UNL     1     -27.970  -9.700  -7.544  1.00  0.00     0.241 C 
BRANCH  31  32
HETATM   32  O4  UNL     1     -28.278 -10.939  -7.994  1.00  0.00    -0.395 OA
ATOM     33  H4  UNL     1     -29.150 -11.107  -8.333  1.00  0.00     0.209 HD
ENDBRANCH  31  32
ENDBRANCH   5  31
BRANCH   1  34
HETATM   34  C2  UNL     1     -32.062  -8.386  -5.878  1.00  0.00     0.149 A 
HETATM   35  N2  UNL     1     -32.066  -7.030  -5.725  1.00  0.00    -0.185 N 
HETATM   36  C1  UNL     1     -33.091  -6.296  -5.303  1.00  0.00     0.679 A 
ATOM     37  H2  UNL     1     -31.204  -6.534  -5.955  1.00  0.00     0.184 HD
HETATM   38  N11 UNL     1     -34.239  -6.914  -4.991  1.00  0.00    -0.154 N 
HETATM   39  C13 UNL     1     -34.326  -8.246  -5.111  1.00  0.00     0.295 A 
ATOM     40  H11 UNL     1     -35.041  -6.374  -4.666  1.00  0.00     0.187 HD
HETATM   41  C12 UNL     1     -33.235  -9.000  -5.556  1.00  0.00     0.166 A 
HETATM   42  O7  UNL     1     -35.396  -8.839  -4.823  1.00  0.00    -0.265 OA
BRANCH  36  43
HETATM   43  N1  UNL     1     -33.004  -4.990  -5.186  1.00  0.00    -0.234 N 
ATOM     44  H12 UNL     1     -33.764  -4.403  -5.530  1.00  0.00     0.174 HD
ATOM     45  H11 UNL     1     -32.193  -4.542  -4.759  1.00  0.00     0.174 HD
ENDBRANCH  36  43
BRANCH  41  46
HETATM   46  O6  UNL     1     -33.407 -10.333  -5.643  1.00  0.00    -0.354 OA
ATOM     47  H6  UNL     1     -34.259 -10.735  -5.764  1.00  0.00     0.218 HD
ENDBRANCH  41  46
ENDBRANCH   1  34
BRANCH   1  48
HETATM   48  O1  UNL     1     -31.247  -9.710  -7.586  1.00  0.00    -0.343 OA
ATOM     49  H1  UNL     1     -31.356 -10.629  -7.371  1.00  0.00     0.215 HD
ENDBRANCH   1  48
TORSDOF 14
ENDMDL
