MODEL 1
REMARK VINA RESULT: -8.040313681      0.000      0.000
REMARK  14 active torsions:
REMARK  status: ('A' for Active; 'I' for Inactive)
REMARK    1  A    between atoms: C2_2  and  C3_4 
REMARK    2  A    between atoms: C6_11  and  N3_12 
REMARK    3  A    between atoms: N3_12  and  S1_14 
REMARK    4  A    between atoms: S1_14  and  C7_17 
REMARK    5  A    between atoms: C9_21  and  N5_22 
REMARK    6  A    between atoms: C10_27  and  N7_28 
REMARK    7  A    between atoms: N9_34  and  C12_35 
REMARK    8  A    between atoms: C12_35  and  C13_36 
REMARK    9  A    between atoms: C13_36  and  C14_38 
REMARK   10  A    between atoms: C14_38  and  C15_39 
REMARK   11  A    between atoms: C15_39  and  C16_40 
REMARK   12  A    between atoms: C16_40  and  O5_41 
REMARK   13  A    between atoms: N10_43  and  O6_45 
REMARK   14  A    between atoms: C17_47  and  O7_48 
ROOT
HETATM    1  C7  UNL     1       6.317 -12.237  -6.167  1.00  0.00     0.229 A 
HETATM    2  N4  UNL     1       6.770 -13.360  -5.583  1.00  0.00    -0.325 N 
ATOM      3  H4  UNL     1       6.238 -14.222  -5.456  1.00  0.00     0.168 HD
HETATM    4  C8  UNL     1       8.041 -13.157  -5.193  1.00  0.00     0.124 A 
HETATM    5  C9  UNL     1       8.964 -13.956  -4.556  1.00  0.00     0.145 A 
HETATM    6  N6  UNL     1      10.180 -13.456  -4.296  1.00  0.00    -0.175 N 
ATOM      7  H6  UNL     1      10.873 -14.037  -3.824  1.00  0.00     0.186 HD
HETATM    8  C10 UNL     1      10.501 -12.178  -4.655  1.00  0.00     0.679 A 
HETATM    9  N8  UNL     1       9.586 -11.418  -5.276  1.00  0.00    -0.174 N 
ATOM     10  H8  UNL     1       9.843 -10.467  -5.539  1.00  0.00     0.186 HD
HETATM   11  C11 UNL     1       8.339 -11.852  -5.572  1.00  0.00     0.156 A 
HETATM   12  N9  UNL     1       7.269 -11.293  -6.172  1.00  0.00    -0.299 N 
ENDROOT
BRANCH   1  13
HETATM   13  S1  UNL     1       4.699 -12.072  -6.816  1.00  0.00     0.296 S 
HETATM   14  O2  UNL     1       4.103 -13.446  -6.912  1.00  0.00    -0.197 OA
HETATM   15  O3  UNL     1       4.736 -11.513  -8.211  1.00  0.00    -0.197 OA
BRANCH  13  16
HETATM   16  N3  UNL     1       3.724 -11.093  -5.818  1.00  0.00    -0.260 N 
ATOM     17  H3  UNL     1       4.197 -10.505  -5.130  1.00  0.00     0.180 HD
BRANCH  16  18
HETATM   18  C6  UNL     1       2.435 -11.036  -5.863  1.00  0.00     0.164 A 
HETATM   19  N2  UNL     1       1.663 -12.025  -5.389  1.00  0.00    -0.282 N 
HETATM   20  N1  UNL     1       0.354 -11.929  -5.458  1.00  0.00    -0.303 N 
ATOM     21  H2  UNL     1       2.091 -12.853  -4.975  1.00  0.00     0.188 HD
HETATM   22  C4  UNL     1      -0.275 -10.856  -5.996  1.00  0.00     0.038 A 
ATOM     23  H1  UNL     1      -0.212 -12.693  -5.091  1.00  0.00     0.186 HD
HETATM   24  C3  UNL     1       0.462  -9.810  -6.498  1.00  0.00     0.070 A 
HETATM   25  C5  UNL     1      -1.747 -10.839  -6.029  1.00  0.00     0.071 C 
HETATM   26  C17 UNL     1       1.843  -9.906  -6.429  1.00  0.00     0.128 A 
BRANCH  24  27
HETATM   27  C2  UNL     1      -0.203  -8.669  -7.070  1.00  0.00     0.160 C 
HETATM   28  C1  UNL     1      -0.853  -7.585  -6.251  1.00  0.00     0.097 C 
HETATM   29  O1  UNL     1      -0.296  -8.483  -8.319  1.00  0.00    -0.293 OA
ENDBRANCH  24  27
BRANCH  26  30
HETATM   30  O7  UNL     1       2.618  -8.871  -6.925  1.00  0.00    -0.356 OA
ATOM     31  H7  UNL     1       3.542  -8.837  -6.706  1.00  0.00     0.218 HD
ENDBRANCH  26  30
ENDBRANCH  16  18
ENDBRANCH  13  16
ENDBRANCH   1  13
BRANCH  12  32
HETATM   32  C12 UNL     1       7.199  -9.959  -6.697  1.00  0.00     0.211 C 
BRANCH  32  33
HETATM   33  C13 UNL     1       6.805  -8.942  -5.703  1.00  0.00     0.145 C 
HETATM   34  O4  UNL     1       5.859  -9.059  -4.928  1.00  0.00    -0.296 OA
BRANCH  33  35
HETATM   35  C14 UNL     1       7.615  -7.693  -5.640  1.00  0.00     0.088 C 
BRANCH  35  36
HETATM   36  C15 UNL     1       9.011  -7.905  -6.180  1.00  0.00     0.093 C 
BRANCH  36  37
HETATM   37  C16 UNL     1      10.016  -7.587  -5.155  1.00  0.00     0.135 C 
HETATM   38  N10 UNL     1      10.381  -6.407  -4.811  1.00  0.00    -0.251 N 
ATOM     39  H10 UNL     1      11.090  -6.304  -4.084  1.00  0.00     0.196 HD
BRANCH  37  40
HETATM   40  O5  UNL     1      10.627  -8.666  -4.495  1.00  0.00    -0.348 OA
ATOM     41  H5  UNL     1      11.464  -8.503  -4.075  1.00  0.00     0.219 HD
ENDBRANCH  37  40
BRANCH  38  42
HETATM   42  O6  UNL     1       9.854  -5.278  -5.386  1.00  0.00    -0.288 OA
ATOM     43  H6  UNL     1      10.114  -4.977  -6.248  1.00  0.00     0.244 HD
ENDBRANCH  38  42
ENDBRANCH  36  37
ENDBRANCH  35  36
ENDBRANCH  33  35
ENDBRANCH  32  33
ENDBRANCH  12  32
BRANCH   5  44
HETATM   44  N5  UNL     1       8.705 -15.159  -4.203  1.00  0.00    -0.383 N 
ATOM     45  H52 UNL     1       7.835 -15.587  -4.522  1.00  0.00     0.157 HD
ATOM     46  H51 UNL     1       9.334 -15.704  -3.615  1.00  0.00     0.157 HD
ENDBRANCH   5  44
BRANCH   8  47
HETATM   47  N7  UNL     1      11.678 -11.721  -4.393  1.00  0.00    -0.234 N 
ATOM     48  H72 UNL     1      12.485 -12.343  -4.343  1.00  0.00     0.174 HD
ATOM     49  H71 UNL     1      11.804 -10.721  -4.232  1.00  0.00     0.174 HD
ENDBRANCH   8  47
TORSDOF 14
ENDMDL
MODEL 2
REMARK VINA RESULT: -7.928748282      2.047      4.096
REMARK  14 active torsions:
REMARK  status: ('A' for Active; 'I' for Inactive)
REMARK    1  A    between atoms: C2_2  and  C3_4 
REMARK    2  A    between atoms: C6_11  and  N3_12 
REMARK    3  A    between atoms: N3_12  and  S1_14 
REMARK    4  A    between atoms: S1_14  and  C7_17 
REMARK    5  A    between atoms: C9_21  and  N5_22 
REMARK    6  A    between atoms: C10_27  and  N7_28 
REMARK    7  A    between atoms: N9_34  and  C12_35 
REMARK    8  A    between atoms: C12_35  and  C13_36 
REMARK    9  A    between atoms: C13_36  and  C14_38 
REMARK   10  A    between atoms: C14_38  and  C15_39 
REMARK   11  A    between atoms: C15_39  and  C16_40 
REMARK   12  A    between atoms: C16_40  and  O5_41 
REMARK   13  A    between atoms: N10_43  and  O6_45 
REMARK   14  A    between atoms: C17_47  and  O7_48 
ROOT
HETATM    1  C7  UNL     1       5.047 -10.119  -6.370  1.00  0.00     0.229 A 
HETATM    2  N4  UNL     1       4.839  -8.801  -6.207  1.00  0.00    -0.325 N 
ATOM      3  H4  UNL     1       3.928  -8.342  -6.164  1.00  0.00     0.168 HD
HETATM    4  C8  UNL     1       6.032  -8.189  -6.111  1.00  0.00     0.124 A 
HETATM    5  C9  UNL     1       6.398  -6.872  -5.939  1.00  0.00     0.145 A 
HETATM    6  N6  UNL     1       7.701  -6.566  -5.881  1.00  0.00    -0.175 N 
ATOM      7  H6  UNL     1       7.986  -5.595  -5.755  1.00  0.00     0.186 HD
HETATM    8  C10 UNL     1       8.652  -7.541  -5.990  1.00  0.00     0.679 A 
HETATM    9  N8  UNL     1       8.272  -8.817  -6.155  1.00  0.00    -0.174 N 
ATOM     10  H8  UNL     1       8.996  -9.532  -6.232  1.00  0.00     0.186 HD
HETATM   11  C11 UNL     1       6.977  -9.203  -6.223  1.00  0.00     0.156 A 
HETATM   12  N9  UNL     1       6.359 -10.390  -6.383  1.00  0.00    -0.299 N 
ENDROOT
BRANCH   1  13
HETATM   13  S1  UNL     1       3.752 -11.286  -6.543  1.00  0.00     0.296 S 
HETATM   14  O2  UNL     1       3.510 -11.903  -5.197  1.00  0.00    -0.197 OA
HETATM   15  O3  UNL     1       4.155 -12.400  -7.469  1.00  0.00    -0.197 OA
BRANCH  13  16
HETATM   16  N3  UNL     1       2.320 -10.549  -7.102  1.00  0.00    -0.260 N 
ATOM     17  H3  UNL     1       2.405  -9.869  -7.858  1.00  0.00     0.180 HD
BRANCH  16  18
HETATM   18  C6  UNL     1       1.136 -10.784  -6.644  1.00  0.00     0.164 A 
HETATM   19  N2  UNL     1       0.697 -12.030  -6.411  1.00  0.00    -0.282 N 
HETATM   20  N1  UNL     1      -0.516 -12.225  -5.947  1.00  0.00    -0.303 N 
ATOM     21  H2  UNL     1       1.307 -12.828  -6.594  1.00  0.00     0.188 HD
HETATM   22  C4  UNL     1      -1.372 -11.209  -5.684  1.00  0.00     0.038 A 
ATOM     23  H1  UNL     1      -0.827 -13.182  -5.777  1.00  0.00     0.186 HD
HETATM   24  C3  UNL     1      -0.982  -9.910  -5.902  1.00  0.00     0.070 A 
HETATM   25  C5  UNL     1      -2.714 -11.527  -5.166  1.00  0.00     0.071 C 
HETATM   26  C17 UNL     1       0.297  -9.697  -6.391  1.00  0.00     0.128 A 
BRANCH  24  27
HETATM   27  C2  UNL     1      -1.889  -8.827  -5.623  1.00  0.00     0.160 C 
HETATM   28  C1  UNL     1      -3.073  -8.488  -6.491  1.00  0.00     0.097 C 
HETATM   29  O1  UNL     1      -1.764  -8.067  -4.619  1.00  0.00    -0.293 OA
ENDBRANCH  24  27
BRANCH  26  30
HETATM   30  O7  UNL     1       0.726  -8.400  -6.622  1.00  0.00    -0.356 OA
ATOM     31  H7  UNL     1       1.150  -7.920  -5.921  1.00  0.00     0.218 HD
ENDBRANCH  26  30
ENDBRANCH  16  18
ENDBRANCH  13  16
ENDBRANCH   1  13
BRANCH  12  32
HETATM   32  C12 UNL     1       7.006 -11.663  -6.532  1.00  0.00     0.211 C 
BRANCH  32  33
HETATM   33  C13 UNL     1       7.188 -12.396  -5.265  1.00  0.00     0.145 C 
HETATM   34  O4  UNL     1       6.408 -13.241  -4.833  1.00  0.00    -0.296 OA
BRANCH  33  35
HETATM   35  C14 UNL     1       8.404 -12.087  -4.461  1.00  0.00     0.088 C 
BRANCH  35  36
HETATM   36  C15 UNL     1       9.647 -12.045  -5.321  1.00  0.00     0.093 C 
BRANCH  36  37
HETATM   37  C16 UNL     1      10.699 -11.250  -4.673  1.00  0.00     0.135 C 
HETATM   38  N10 UNL     1      11.874 -11.669  -4.379  1.00  0.00    -0.251 N 
ATOM     39  H10 UNL     1      12.527 -11.027  -3.928  1.00  0.00     0.196 HD
BRANCH  37  40
HETATM   40  O5  UNL     1      10.392  -9.918  -4.349  1.00  0.00    -0.348 OA
ATOM     41  H5  UNL     1      11.042  -9.257  -4.560  1.00  0.00     0.219 HD
ENDBRANCH  37  40
BRANCH  38  42
HETATM   42  O6  UNL     1      12.286 -12.951  -4.647  1.00  0.00    -0.288 OA
ATOM     43  H6  UNL     1      12.048 -13.687  -4.097  1.00  0.00     0.244 HD
ENDBRANCH  38  42
ENDBRANCH  36  37
ENDBRANCH  35  36
ENDBRANCH  33  35
ENDBRANCH  32  33
ENDBRANCH  12  32
BRANCH   5  44
HETATM   44  N5  UNL     1       5.539  -5.929  -5.833  1.00  0.00    -0.383 N 
ATOM     45  H52 UNL     1       5.033  -5.629  -6.667  1.00  0.00     0.157 HD
ATOM     46  H51 UNL     1       5.342  -5.466  -4.946  1.00  0.00     0.157 HD
ENDBRANCH   5  44
BRANCH   8  47
HETATM   47  N7  UNL     1       9.900  -7.220  -5.931  1.00  0.00    -0.234 N 
ATOM     48  H72 UNL     1      10.358  -7.049  -5.036  1.00  0.00     0.174 HD
ATOM     49  H71 UNL     1      10.438  -7.136  -6.794  1.00  0.00     0.174 HD
ENDBRANCH   8  47
TORSDOF 14
ENDMDL
MODEL 3
REMARK VINA RESULT: -7.915654012      2.054      4.074
REMARK  14 active torsions:
REMARK  status: ('A' for Active; 'I' for Inactive)
REMARK    1  A    between atoms: C2_2  and  C3_4 
REMARK    2  A    between atoms: C6_11  and  N3_12 
REMARK    3  A    between atoms: N3_12  and  S1_14 
REMARK    4  A    between atoms: S1_14  and  C7_17 
REMARK    5  A    between atoms: C9_21  and  N5_22 
REMARK    6  A    between atoms: C10_27  and  N7_28 
REMARK    7  A    between atoms: N9_34  and  C12_35 
REMARK    8  A    between atoms: C12_35  and  C13_36 
REMARK    9  A    between atoms: C13_36  and  C14_38 
REMARK   10  A    between atoms: C14_38  and  C15_39 
REMARK   11  A    between atoms: C15_39  and  C16_40 
REMARK   12  A    between atoms: C16_40  and  O5_41 
REMARK   13  A    between atoms: N10_43  and  O6_45 
REMARK   14  A    between atoms: C17_47  and  O7_48 
ROOT
HETATM    1  C7  UNL     1       4.664 -10.574  -5.251  1.00  0.00     0.229 A 
HETATM    2  N4  UNL     1       4.409  -9.333  -5.701  1.00  0.00    -0.325 N 
ATOM      3  H4  UNL     1       3.485  -8.951  -5.903  1.00  0.00     0.168 HD
HETATM    4  C8  UNL     1       5.576  -8.680  -5.837  1.00  0.00     0.124 A 
HETATM    5  C9  UNL     1       5.894  -7.406  -6.255  1.00  0.00     0.145 A 
HETATM    6  N6  UNL     1       7.182  -7.039  -6.285  1.00  0.00    -0.175 N 
ATOM      7  H6  UNL     1       7.431  -6.098  -6.592  1.00  0.00     0.186 HD
HETATM    8  C10 UNL     1       8.165  -7.909  -5.908  1.00  0.00     0.679 A 
HETATM    9  N8  UNL     1       7.833  -9.145  -5.504  1.00  0.00    -0.174 N 
ATOM     10  H8  UNL     1       8.579  -9.781  -5.225  1.00  0.00     0.186 HD
HETATM   11  C11 UNL     1       6.556  -9.588  -5.447  1.00  0.00     0.156 A 
HETATM   12  N9  UNL     1       5.982 -10.754  -5.088  1.00  0.00    -0.299 N 
ENDROOT
BRANCH   1  13
HETATM   13  S1  UNL     1       3.416 -11.763  -4.940  1.00  0.00     0.296 S 
HETATM   14  O2  UNL     1       2.742 -11.392  -3.652  1.00  0.00    -0.197 OA
HETATM   15  O3  UNL     1       4.014 -13.129  -4.744  1.00  0.00    -0.197 OA
BRANCH  13  16
HETATM   16  N3  UNL     1       2.266 -11.802  -6.198  1.00  0.00    -0.260 N 
ATOM     17  H3  UNL     1       2.528 -12.282  -7.059  1.00  0.00     0.180 HD
BRANCH  16  18
HETATM   18  C6  UNL     1       1.089 -11.273  -6.146  1.00  0.00     0.164 A 
HETATM   19  N2  UNL     1       0.058 -11.889  -5.549  1.00  0.00    -0.282 N 
HETATM   20  N1  UNL     1      -1.124 -11.316  -5.521  1.00  0.00    -0.303 N 
ATOM     21  H2  UNL     1       0.191 -12.803  -5.116  1.00  0.00     0.188 HD
HETATM   22  C4  UNL     1      -1.365 -10.104  -6.078  1.00  0.00     0.038 A 
ATOM     23  H1  UNL     1      -1.893 -11.803  -5.061  1.00  0.00     0.186 HD
HETATM   24  C3  UNL     1      -0.349  -9.423  -6.704  1.00  0.00     0.070 A 
HETATM   25  C5  UNL     1      -2.724  -9.543  -5.997  1.00  0.00     0.071 C 
HETATM   26  C17 UNL     1       0.900 -10.022  -6.737  1.00  0.00     0.128 A 
BRANCH  24  27
HETATM   27  C2  UNL     1      -0.601  -8.136  -7.297  1.00  0.00     0.160 C 
HETATM   28  C1  UNL     1      -0.739  -6.865  -6.500  1.00  0.00     0.097 C 
HETATM   29  O1  UNL     1      -0.729  -7.967  -8.545  1.00  0.00    -0.293 OA
ENDBRANCH  24  27
BRANCH  26  30
HETATM   30  O7  UNL     1       1.949  -9.365  -7.359  1.00  0.00    -0.356 OA
ATOM     31  H7  UNL     1       2.288  -9.704  -8.180  1.00  0.00     0.218 HD
ENDBRANCH  26  30
ENDBRANCH  16  18
ENDBRANCH  13  16
ENDBRANCH   1  13
BRANCH  12  32
HETATM   32  C12 UNL     1       6.673 -11.925  -4.627  1.00  0.00     0.211 C 
BRANCH  32  33
HETATM   33  C13 UNL     1       7.766 -12.366  -5.516  1.00  0.00     0.145 C 
HETATM   34  O4  UNL     1       7.874 -12.044  -6.696  1.00  0.00    -0.296 OA
BRANCH  33  35
HETATM   35  C14 UNL     1       8.805 -13.261  -4.933  1.00  0.00     0.088 C 
BRANCH  35  36
HETATM   36  C15 UNL     1      10.176 -12.967  -5.501  1.00  0.00     0.093 C 
BRANCH  36  37
HETATM   37  C16 UNL     1      11.074 -12.467  -4.450  1.00  0.00     0.135 C 
HETATM   38  N10 UNL     1      11.318 -11.233  -4.203  1.00  0.00    -0.251 N 
ATOM     39  H10 UNL     1      11.961 -11.000  -3.446  1.00  0.00     0.196 HD
BRANCH  37  40
HETATM   40  O5  UNL     1      11.721 -13.422  -3.648  1.00  0.00    -0.348 OA
ATOM     41  H5  UNL     1      12.493 -13.842  -4.007  1.00  0.00     0.219 HD
ENDBRANCH  37  40
BRANCH  38  42
HETATM   42  O6  UNL     1      10.744 -10.213  -4.922  1.00  0.00    -0.288 OA
ATOM     43  H6  UNL     1       9.874  -9.884  -4.732  1.00  0.00     0.244 HD
ENDBRANCH  38  42
ENDBRANCH  36  37
ENDBRANCH  35  36
ENDBRANCH  33  35
ENDBRANCH  32  33
ENDBRANCH  12  32
BRANCH   5  44
HETATM   44  N5  UNL     1       5.003  -6.560  -6.615  1.00  0.00    -0.383 N 
ATOM     45  H52 UNL     1       4.193  -6.414  -6.014  1.00  0.00     0.157 HD
ATOM     46  H51 UNL     1       5.075  -6.027  -7.482  1.00  0.00     0.157 HD
ENDBRANCH   5  44
BRANCH   8  47
HETATM   47  N7  UNL     1       9.397  -7.531  -5.947  1.00  0.00    -0.234 N 
ATOM     48  H72 UNL     1       9.708  -6.817  -6.606  1.00  0.00     0.174 HD
ATOM     49  H71 UNL     1      10.072  -7.952  -5.309  1.00  0.00     0.174 HD
ENDBRANCH   8  47
TORSDOF 14
ENDMDL
MODEL 4
REMARK VINA RESULT: -7.846061984      1.546      1.831
REMARK  14 active torsions:
REMARK  status: ('A' for Active; 'I' for Inactive)
REMARK    1  A    between atoms: C2_2  and  C3_4 
REMARK    2  A    between atoms: C6_11  and  N3_12 
REMARK    3  A    between atoms: N3_12  and  S1_14 
REMARK    4  A    between atoms: S1_14  and  C7_17 
REMARK    5  A    between atoms: C9_21  and  N5_22 
REMARK    6  A    between atoms: C10_27  and  N7_28 
REMARK    7  A    between atoms: N9_34  and  C12_35 
REMARK    8  A    between atoms: C12_35  and  C13_36 
REMARK    9  A    between atoms: C13_36  and  C14_38 
REMARK   10  A    between atoms: C14_38  and  C15_39 
REMARK   11  A    between atoms: C15_39  and  C16_40 
REMARK   12  A    between atoms: C16_40  and  O5_41 
REMARK   13  A    between atoms: N10_43  and  O6_45 
REMARK   14  A    between atoms: C17_47  and  O7_48 
ROOT
HETATM    1  C7  UNL     1       5.277 -12.438  -5.244  1.00  0.00     0.229 A 
HETATM    2  N4  UNL     1       6.309 -13.286  -5.403  1.00  0.00    -0.325 N 
ATOM      3  H4  UNL     1       6.240 -14.258  -5.703  1.00  0.00     0.168 HD
HETATM    4  C8  UNL     1       7.447 -12.636  -5.100  1.00  0.00     0.124 A 
HETATM    5  C9  UNL     1       8.769 -13.019  -5.090  1.00  0.00     0.145 A 
HETATM    6  N6  UNL     1       9.698 -12.123  -4.731  1.00  0.00    -0.175 N 
ATOM      7  H6  UNL     1      10.682 -12.394  -4.719  1.00  0.00     0.186 HD
HETATM    8  C10 UNL     1       9.343 -10.852  -4.381  1.00  0.00     0.679 A 
HETATM    9  N8  UNL     1       8.048 -10.500  -4.399  1.00  0.00    -0.174 N 
ATOM     10  H8  UNL     1       7.801  -9.546  -4.136  1.00  0.00     0.186 HD
HETATM   11  C11 UNL     1       7.054 -11.348  -4.749  1.00  0.00     0.156 A 
HETATM   12  N9  UNL     1       5.714 -11.237  -4.841  1.00  0.00    -0.299 N 
ENDROOT
BRANCH   1  13
HETATM   13  S1  UNL     1       3.609 -12.885  -5.531  1.00  0.00     0.296 S 
HETATM   14  O2  UNL     1       2.921 -12.962  -4.200  1.00  0.00    -0.197 OA
HETATM   15  O3  UNL     1       3.519 -14.253  -6.150  1.00  0.00    -0.197 OA
BRANCH  13  16
HETATM   16  N3  UNL     1       2.819 -11.742  -6.520  1.00  0.00    -0.260 N 
ATOM     17  H3  UNL     1       3.357 -11.328  -7.281  1.00  0.00     0.180 HD
BRANCH  16  18
HETATM   18  C6  UNL     1       1.593 -11.360  -6.380  1.00  0.00     0.164 A 
HETATM   19  N2  UNL     1       0.672 -12.130  -5.783  1.00  0.00    -0.282 N 
HETATM   20  N1  UNL     1      -0.565 -11.704  -5.664  1.00  0.00    -0.303 N 
ATOM     21  H2  UNL     1       0.931 -13.048  -5.421  1.00  0.00     0.188 HD
HETATM   22  C4  UNL     1      -0.972 -10.496  -6.125  1.00  0.00     0.038 A 
ATOM     23  H1  UNL     1      -1.248 -12.307  -5.206  1.00  0.00     0.186 HD
HETATM   24  C3  UNL     1      -0.074  -9.662  -6.746  1.00  0.00     0.070 A 
HETATM   25  C5  UNL     1      -2.381 -10.106  -5.947  1.00  0.00     0.071 C 
HETATM   26  C17 UNL     1       1.232 -10.105  -6.875  1.00  0.00     0.128 A 
BRANCH  24  27
HETATM   27  C2  UNL     1      -0.503  -8.378  -7.237  1.00  0.00     0.160 C 
HETATM   28  C1  UNL     1      -0.732  -7.181  -6.351  1.00  0.00     0.097 C 
HETATM   29  O1  UNL     1      -0.724  -8.150  -8.462  1.00  0.00    -0.293 OA
ENDBRANCH  24  27
BRANCH  26  30
HETATM   30  O7  UNL     1       2.165  -9.291  -7.495  1.00  0.00    -0.356 OA
ATOM     31  H7  UNL     1       3.081  -9.544  -7.485  1.00  0.00     0.218 HD
ENDBRANCH  26  30
ENDBRANCH  16  18
ENDBRANCH  13  16
ENDBRANCH   1  13
BRANCH  12  32
HETATM   32  C12 UNL     1       4.946 -10.057  -4.559  1.00  0.00     0.211 C 
BRANCH  32  33
HETATM   33  C13 UNL     1       5.044  -9.014  -5.599  1.00  0.00     0.145 C 
HETATM   34  O4  UNL     1       4.773  -9.188  -6.784  1.00  0.00    -0.296 OA
BRANCH  33  35
HETATM   35  C14 UNL     1       5.500  -7.661  -5.174  1.00  0.00     0.088 C 
BRANCH  35  36
HETATM   36  C15 UNL     1       6.311  -6.980  -6.253  1.00  0.00     0.093 C 
BRANCH  36  37
HETATM   37  C16 UNL     1       7.690  -7.490  -6.263  1.00  0.00     0.135 C 
HETATM   38  N10 UNL     1       8.732  -6.826  -5.922  1.00  0.00    -0.251 N 
ATOM     39  H10 UNL     1       9.643  -7.283  -5.968  1.00  0.00     0.196 HD
BRANCH  37  40
HETATM   40  O5  UNL     1       7.882  -8.818  -6.680  1.00  0.00    -0.348 OA
ATOM     41  H5  UNL     1       8.776  -9.103  -6.827  1.00  0.00     0.219 HD
ENDBRANCH  37  40
BRANCH  38  42
HETATM   42  O6  UNL     1       8.666  -5.522  -5.499  1.00  0.00    -0.288 OA
ATOM     43  H6  UNL     1       8.592  -5.289  -4.581  1.00  0.00     0.244 HD
ENDBRANCH  38  42
ENDBRANCH  36  37
ENDBRANCH  35  36
ENDBRANCH  33  35
ENDBRANCH  32  33
ENDBRANCH  12  32
BRANCH   5  44
HETATM   44  N5  UNL     1       9.145 -14.200  -5.412  1.00  0.00    -0.383 N 
ATOM     45  H52 UNL     1       8.604 -14.996  -5.073  1.00  0.00     0.157 HD
ATOM     46  H51 UNL     1       9.965 -14.374  -5.993  1.00  0.00     0.157 HD
ENDBRANCH   5  44
BRANCH   8  47
HETATM   47  N7  UNL     1      10.256 -10.008  -4.038  1.00  0.00    -0.234 N 
ATOM     48  H72 UNL     1      11.225 -10.303  -3.917  1.00  0.00     0.174 HD
ATOM     49  H71 UNL     1      10.006  -9.031  -3.886  1.00  0.00     0.174 HD
ENDBRANCH   8  47
TORSDOF 14
ENDMDL
MODEL 5
REMARK VINA RESULT: -7.837497829      1.555      2.140
REMARK  14 active torsions:
REMARK  status: ('A' for Active; 'I' for Inactive)
REMARK    1  A    between atoms: C2_2  and  C3_4 
REMARK    2  A    between atoms: C6_11  and  N3_12 
REMARK    3  A    between atoms: N3_12  and  S1_14 
REMARK    4  A    between atoms: S1_14  and  C7_17 
REMARK    5  A    between atoms: C9_21  and  N5_22 
REMARK    6  A    between atoms: C10_27  and  N7_28 
REMARK    7  A    between atoms: N9_34  and  C12_35 
REMARK    8  A    between atoms: C12_35  and  C13_36 
REMARK    9  A    between atoms: C13_36  and  C14_38 
REMARK   10  A    between atoms: C14_38  and  C15_39 
REMARK   11  A    between atoms: C15_39  and  C16_40 
REMARK   12  A    between atoms: C16_40  and  O5_41 
REMARK   13  A    between atoms: N10_43  and  O6_45 
REMARK   14  A    between atoms: C17_47  and  O7_48 
ROOT
HETATM    1  C7  UNL     1       6.162 -12.704  -6.080  1.00  0.00     0.229 A 
HETATM    2  N4  UNL     1       6.365 -13.873  -5.448  1.00  0.00    -0.325 N 
ATOM      3  H4  UNL     1       5.672 -14.612  -5.323  1.00  0.00     0.168 HD
HETATM    4  C8  UNL     1       7.635 -13.907  -5.008  1.00  0.00     0.124 A 
HETATM    5  C9  UNL     1       8.361 -14.848  -4.311  1.00  0.00     0.145 A 
HETATM    6  N6  UNL     1       9.640 -14.584  -4.011  1.00  0.00    -0.175 N 
ATOM      7  H6  UNL     1      10.188 -15.272  -3.495  1.00  0.00     0.186 HD
HETATM    8  C10 UNL     1      10.216 -13.405  -4.388  1.00  0.00     0.679 A 
HETATM    9  N8  UNL     1       9.491 -12.503  -5.067  1.00  0.00    -0.174 N 
ATOM     10  H8  UNL     1       9.938 -11.629  -5.342  1.00  0.00     0.186 HD
HETATM   11  C11 UNL     1       8.196 -12.697  -5.406  1.00  0.00     0.156 A 
HETATM   12  N9  UNL     1       7.279 -11.963  -6.066  1.00  0.00    -0.299 N 
ENDROOT
BRANCH   1  13
HETATM   13  S1  UNL     1       4.633 -12.252  -6.802  1.00  0.00     0.296 S 
HETATM   14  O2  UNL     1       3.889 -13.513  -7.127  1.00  0.00    -0.197 OA
HETATM   15  O3  UNL     1       4.849 -11.525  -8.101  1.00  0.00    -0.197 OA
BRANCH  13  16
HETATM   16  N3  UNL     1       3.702 -11.293  -5.743  1.00  0.00    -0.260 N 
ATOM     17  H3  UNL     1       4.200 -10.774  -5.020  1.00  0.00     0.180 HD
BRANCH  16  18
HETATM   18  C6  UNL     1       2.417 -11.174  -5.784  1.00  0.00     0.164 A 
HETATM   19  N2  UNL     1       1.598 -12.138  -5.339  1.00  0.00    -0.282 N 
HETATM   20  N1  UNL     1       0.296 -11.976  -5.402  1.00  0.00    -0.303 N 
ATOM     21  H2  UNL     1       1.987 -12.998  -4.951  1.00  0.00     0.188 HD
HETATM   22  C4  UNL     1      -0.281 -10.859  -5.907  1.00  0.00     0.038 A 
ATOM     23  H1  UNL     1      -0.307 -12.724  -5.057  1.00  0.00     0.186 HD
HETATM   24  C3  UNL     1       0.505  -9.836  -6.379  1.00  0.00     0.070 A 
HETATM   25  C5  UNL     1      -1.751 -10.770  -5.938  1.00  0.00     0.071 C 
HETATM   26  C17 UNL     1       1.880 -10.000  -6.315  1.00  0.00     0.128 A 
BRANCH  24  27
HETATM   27  C2  UNL     1      -0.104  -8.647  -6.916  1.00  0.00     0.160 C 
HETATM   28  C1  UNL     1      -0.756  -7.588  -6.066  1.00  0.00     0.097 C 
HETATM   29  O1  UNL     1      -0.142  -8.394  -8.156  1.00  0.00    -0.293 OA
ENDBRANCH  24  27
BRANCH  26  30
HETATM   30  O7  UNL     1       2.704  -8.988  -6.781  1.00  0.00    -0.356 OA
ATOM     31  H7  UNL     1       3.646  -9.101  -6.737  1.00  0.00     0.218 HD
ENDBRANCH  26  30
ENDBRANCH  16  18
ENDBRANCH  13  16
ENDBRANCH   1  13
BRANCH  12  32
HETATM   32  C12 UNL     1       7.490 -10.658  -6.627  1.00  0.00     0.211 C 
BRANCH  32  33
HETATM   33  C13 UNL     1       7.747  -9.607  -5.624  1.00  0.00     0.145 C 
HETATM   34  O4  UNL     1       8.077  -9.824  -4.461  1.00  0.00    -0.296 OA
BRANCH  33  35
HETATM   35  C14 UNL     1       7.597  -8.190  -6.060  1.00  0.00     0.088 C 
BRANCH  35  36
HETATM   36  C15 UNL     1       6.193  -7.900  -6.539  1.00  0.00     0.093 C 
BRANCH  36  37
HETATM   37  C16 UNL     1       5.474  -7.068  -5.563  1.00  0.00     0.135 C 
HETATM   38  N10 UNL     1       4.748  -7.507  -4.602  1.00  0.00    -0.251 N 
ATOM     39  H10 UNL     1       4.295  -6.836  -3.982  1.00  0.00     0.196 HD
BRANCH  37  40
HETATM   40  O5  UNL     1       5.594  -5.674  -5.692  1.00  0.00    -0.348 OA
ATOM     41  H5  UNL     1       5.721  -5.172  -4.896  1.00  0.00     0.219 HD
ENDBRANCH  37  40
BRANCH  38  42
HETATM   42  O6  UNL     1       4.558  -8.848  -4.378  1.00  0.00    -0.288 OA
ATOM     43  H6  UNL     1       3.960  -9.174  -3.715  1.00  0.00     0.244 HD
ENDBRANCH  38  42
ENDBRANCH  36  37
ENDBRANCH  35  36
ENDBRANCH  33  35
ENDBRANCH  32  33
ENDBRANCH  12  32
BRANCH   5  44
HETATM   44  N5  UNL     1       7.859 -15.966  -3.940  1.00  0.00    -0.383 N 
ATOM     45  H52 UNL     1       6.844 -16.062  -3.912  1.00  0.00     0.157 HD
ATOM     46  H51 UNL     1       8.437 -16.762  -3.671  1.00  0.00     0.157 HD
ENDBRANCH   5  44
BRANCH   8  47
HETATM   47  N7  UNL     1      11.449 -13.175  -4.085  1.00  0.00    -0.234 N 
ATOM     48  H72 UNL     1      11.793 -13.316  -3.135  1.00  0.00     0.174 HD
ATOM     49  H71 UNL     1      12.091 -12.847  -4.807  1.00  0.00     0.174 HD
ENDBRANCH   8  47
TORSDOF 14
ENDMDL
