MODEL 1
REMARK VINA RESULT: -7.606381690      0.000      0.000
REMARK  13 active torsions:
REMARK  status: ('A' for Active; 'I' for Inactive)
REMARK    1  A    between atoms: N1_2  and  C3_4 
REMARK    2  A    between atoms: C4_7  and  N3_8 
REMARK    3  A    between atoms: N5_17  and  N6_18 
REMARK    4  A    between atoms: N7_21  and  C8_22 
REMARK    5  A    between atoms: N8_25  and  C11_26 
REMARK    6  A    between atoms: C11_26  and  C12_27 
REMARK    7  A    between atoms: C12_27  and  C13_28 
REMARK    8  A    between atoms: C13_28  and  N9_29 
REMARK    9  A    between atoms: N9_29  and  C14_31 
REMARK   10  A    between atoms: C14_31  and  C15_35 
REMARK   11  A    between atoms: C15_35  and  C16_36 
REMARK   12  A    between atoms: C18_39  and  N11_40 
REMARK   13  A    between atoms: C20_46  and  O2_47 
ROOT
HETATM    1  C8  UNL     1       1.978 -10.920  -5.773  1.00  0.00     0.144 C 
HETATM    2  C9  UNL     1       2.566 -10.058  -6.853  1.00  0.00     0.049 C 
HETATM    3  C10 UNL     1       4.069 -10.395  -6.821  1.00  0.00     0.119 C 
HETATM    4  N8  UNL     1       4.598  -9.776  -5.635  1.00  0.00    -0.410 N 
HETATM    5  C19 UNL     1       3.664  -9.457  -4.620  1.00  0.00     0.150 C 
HETATM    6  C20 UNL     1       2.523 -10.437  -4.460  1.00  0.00     0.160 C 
ENDROOT
BRANCH   1   7
HETATM    7  N7  UNL     1       0.559 -11.070  -5.826  1.00  0.00    -0.243 N 
HETATM    8  C5  UNL     1      -0.073 -12.156  -5.324  1.00  0.00     0.159 A 
HETATM    9  N4  UNL     1       0.354 -13.295  -4.698  1.00  0.00    -0.174 N 
HETATM   10  C6  UNL     1      -1.420 -12.029  -5.515  1.00  0.00     0.126 A 
HETATM   11  C4  UNL     1      -0.490 -14.246  -4.287  1.00  0.00     0.679 A 
ATOM     12  H4  UNL     1       1.354 -13.422  -4.539  1.00  0.00     0.186 HD
HETATM   13  N2  UNL     1      -1.809 -14.129  -4.468  1.00  0.00    -0.176 N 
HETATM   14  C3  UNL     1      -2.268 -13.009  -5.088  1.00  0.00     0.138 A 
ATOM     15  H2  UNL     1      -2.451 -14.856  -4.152  1.00  0.00     0.186 HD
HETATM   16  C7  UNL     1      -1.615 -10.837  -6.147  1.00  0.00     0.299 A 
HETATM   17  O1  UNL     1      -2.726 -10.351  -6.499  1.00  0.00    -0.264 OA
HETATM   18  N5  UNL     1      -0.373 -10.292  -6.313  1.00  0.00    -0.159 N 
BRANCH  11  19
HETATM   19  N3  UNL     1      -0.019 -15.291  -3.705  1.00  0.00    -0.234 N 
ATOM     20  H32 UNL     1      -0.358 -16.211  -3.986  1.00  0.00     0.174 HD
ATOM     21  H31 UNL     1       0.685 -15.187  -2.975  1.00  0.00     0.174 HD
ENDBRANCH  11  19
BRANCH  14  22
HETATM   22  N1  UNL     1      -3.669 -12.895  -5.275  1.00  0.00    -0.375 N 
HETATM   23  C1  UNL     1      -4.242 -13.525  -6.447  1.00  0.00     0.150 C 
HETATM   24  C2  UNL     1      -4.539 -12.186  -4.359  1.00  0.00     0.150 C 
ENDBRANCH  14  22
BRANCH  18  25
HETATM   25  N6  UNL     1      -0.179  -9.076  -6.922  1.00  0.00    -0.321 N 
ATOM     26  H62 UNL     1      -0.289  -8.875  -7.916  1.00  0.00     0.179 HD
ATOM     27  H61 UNL     1       0.103  -8.244  -6.403  1.00  0.00     0.179 HD
ENDBRANCH  18  25
ENDBRANCH   1   7
BRANCH   6  28
HETATM   28  O2  UNL     1       1.542  -9.831  -3.675  1.00  0.00    -0.392 OA
ATOM     29  H2  UNL     1       1.875  -9.076  -3.205  1.00  0.00     0.210 HD
ENDBRANCH   6  28
BRANCH   4  30
HETATM   30  C11 UNL     1       5.878 -10.233  -5.216  1.00  0.00     0.118 C 
BRANCH  30  31
HETATM   31  C12 UNL     1       6.913  -9.999  -6.297  1.00  0.00     0.039 C 
BRANCH  31  32
HETATM   32  C13 UNL     1       7.557  -8.633  -6.095  1.00  0.00     0.122 C 
BRANCH  32  33
HETATM   33  N9  UNL     1       8.993  -8.746  -6.109  1.00  0.00    -0.380 N 
ATOM     34  H9  UNL     1       9.478  -8.674  -7.004  1.00  0.00     0.160 HD
BRANCH  33  35
HETATM   35  C14 UNL     1       9.765  -8.954  -4.935  1.00  0.00     0.076 C 
HETATM   36  N10 UNL     1      10.722  -8.157  -4.702  1.00  0.00    -0.389 N 
ATOM     37 2H10 UNL     1      10.914  -7.397  -5.356  1.00  0.00     0.157 HD
ATOM     38 1H10 UNL     1      11.276  -8.306  -3.859  1.00  0.00     0.157 HD
BRANCH  35  39
HETATM   39  C15 UNL     1       9.487 -10.057  -3.985  1.00  0.00     0.133 C 
BRANCH  39  40
HETATM   40  C16 UNL     1      10.200 -11.308  -4.472  1.00  0.00     0.025 A 
HETATM   41  C17 UNL     1       9.462 -12.388  -4.875  1.00  0.00     0.078 A 
HETATM   42  S1  UNL     1      10.678 -13.500  -5.322  1.00  0.00    -0.064 SA
HETATM   43  C18 UNL     1      12.037 -12.536  -4.975  1.00  0.00     0.142 A 
HETATM   44  N12 UNL     1      11.499 -11.400  -4.530  1.00  0.00    -0.340 N 
ATOM     45  H12 UNL     1      12.090 -10.621  -4.241  1.00  0.00     0.168 HD
BRANCH  43  46
HETATM   46  N11 UNL     1      13.321 -12.812  -5.102  1.00  0.00    -0.380 N 
ATOM     47 2H11 UNL     1      13.732 -13.651  -5.511  1.00  0.00     0.158 HD
ATOM     48 1H11 UNL     1      14.136 -12.262  -4.828  1.00  0.00     0.158 HD
ENDBRANCH  43  46
ENDBRANCH  39  40
ENDBRANCH  35  39
ENDBRANCH  33  35
ENDBRANCH  32  33
ENDBRANCH  31  32
ENDBRANCH  30  31
ENDBRANCH   4  30
TORSDOF 13
ENDMDL
MODEL 2
REMARK VINA RESULT: -7.567659263      1.690      2.806
REMARK  13 active torsions:
REMARK  status: ('A' for Active; 'I' for Inactive)
REMARK    1  A    between atoms: N1_2  and  C3_4 
REMARK    2  A    between atoms: C4_7  and  N3_8 
REMARK    3  A    between atoms: N5_17  and  N6_18 
REMARK    4  A    between atoms: N7_21  and  C8_22 
REMARK    5  A    between atoms: N8_25  and  C11_26 
REMARK    6  A    between atoms: C11_26  and  C12_27 
REMARK    7  A    between atoms: C12_27  and  C13_28 
REMARK    8  A    between atoms: C13_28  and  N9_29 
REMARK    9  A    between atoms: N9_29  and  C14_31 
REMARK   10  A    between atoms: C14_31  and  C15_35 
REMARK   11  A    between atoms: C15_35  and  C16_36 
REMARK   12  A    between atoms: C18_39  and  N11_40 
REMARK   13  A    between atoms: C20_46  and  O2_47 
ROOT
HETATM    1  C8  UNL     1       2.574  -9.999  -5.483  1.00  0.00     0.144 C 
HETATM    2  C9  UNL     1       3.548 -10.351  -4.396  1.00  0.00     0.049 C 
HETATM    3  C10 UNL     1       4.334  -9.047  -4.162  1.00  0.00     0.119 C 
HETATM    4  N8  UNL     1       5.207  -8.890  -5.295  1.00  0.00    -0.410 N 
HETATM    5  C19 UNL     1       4.851  -9.600  -6.468  1.00  0.00     0.150 C 
HETATM    6  C20 UNL     1       3.365  -9.717  -6.728  1.00  0.00     0.160 C 
ENDROOT
BRANCH   1   7
HETATM    7  N7  UNL     1       1.492 -10.916  -5.644  1.00  0.00    -0.243 N 
HETATM    8  C5  UNL     1       0.202 -10.510  -5.701  1.00  0.00     0.159 A 
HETATM    9  N4  UNL     1      -0.409  -9.288  -5.636  1.00  0.00    -0.174 N 
HETATM   10  C6  UNL     1      -0.612 -11.597  -5.855  1.00  0.00     0.126 A 
HETATM   11  C4  UNL     1      -1.737  -9.146  -5.718  1.00  0.00     0.679 A 
ATOM     12  H4  UNL     1       0.168  -8.455  -5.520  1.00  0.00     0.186 HD
HETATM   13  N2  UNL     1      -2.539 -10.203  -5.870  1.00  0.00    -0.176 N 
HETATM   14  C3  UNL     1      -1.964 -11.433  -5.939  1.00  0.00     0.138 A 
ATOM     15  H2  UNL     1      -3.551 -10.091  -5.934  1.00  0.00     0.186 HD
HETATM   16  C7  UNL     1       0.200 -12.691  -5.895  1.00  0.00     0.299 A 
HETATM   17  O1  UNL     1      -0.171 -13.891  -6.030  1.00  0.00    -0.264 OA
HETATM   18  N5  UNL     1       1.475 -12.219  -5.761  1.00  0.00    -0.159 N 
BRANCH  11  19
HETATM   19  N3  UNL     1      -2.243  -7.967  -5.649  1.00  0.00    -0.234 N 
ATOM     20  H32 UNL     1      -3.245  -7.866  -5.481  1.00  0.00     0.174 HD
ATOM     21  H31 UNL     1      -1.642  -7.151  -5.761  1.00  0.00     0.174 HD
ENDBRANCH  11  19
BRANCH  14  22
HETATM   22  N1  UNL     1      -2.826 -12.548  -6.101  1.00  0.00    -0.375 N 
HETATM   23  C1  UNL     1      -3.395 -13.134  -4.905  1.00  0.00     0.150 C 
HETATM   24  C2  UNL     1      -3.156 -13.116  -7.392  1.00  0.00     0.150 C 
ENDBRANCH  14  22
BRANCH  18  25
HETATM   25  N6  UNL     1       2.570 -13.048  -5.757  1.00  0.00    -0.321 N 
ATOM     26  H62 UNL     1       3.468 -12.864  -6.205  1.00  0.00     0.179 HD
ATOM     27  H61 UNL     1       2.568 -13.952  -5.285  1.00  0.00     0.179 HD
ENDBRANCH  18  25
ENDBRANCH   1   7
BRANCH   6  28
HETATM   28  O2  UNL     1       3.175 -10.695  -7.704  1.00  0.00    -0.392 OA
ATOM     29  H2  UNL     1       2.542 -11.350  -7.436  1.00  0.00     0.210 HD
ENDBRANCH   6  28
BRANCH   4  30
HETATM   30  C11 UNL     1       5.771  -7.596  -5.468  1.00  0.00     0.118 C 
BRANCH  30  31
HETATM   31  C12 UNL     1       6.717  -7.575  -6.651  1.00  0.00     0.039 C 
BRANCH  31  32
HETATM   32  C13 UNL     1       8.132  -7.286  -6.164  1.00  0.00     0.122 C 
BRANCH  32  33
HETATM   33  N9  UNL     1       8.903  -8.502  -6.110  1.00  0.00    -0.380 N 
ATOM     34  H9  UNL     1       8.910  -9.110  -6.930  1.00  0.00     0.160 HD
BRANCH  33  35
HETATM   35  C14 UNL     1       9.654  -8.893  -4.970  1.00  0.00     0.076 C 
HETATM   36  N10 UNL     1      10.696  -8.231  -4.686  1.00  0.00    -0.389 N 
ATOM     37 2H10 UNL     1      10.968  -7.445  -5.277  1.00  0.00     0.157 HD
ATOM     38 1H10 UNL     1      11.236  -8.512  -3.868  1.00  0.00     0.157 HD
BRANCH  35  39
HETATM   39  C15 UNL     1       9.260 -10.035  -4.111  1.00  0.00     0.133 C 
BRANCH  39  40
HETATM   40  C16 UNL     1      10.045 -11.262  -4.544  1.00  0.00     0.025 A 
HETATM   41  C17 UNL     1       9.373 -12.400  -4.896  1.00  0.00     0.078 A 
HETATM   42  S1  UNL     1      10.652 -13.458  -5.297  1.00  0.00    -0.064 SA
HETATM   43  C18 UNL     1      11.951 -12.400  -4.998  1.00  0.00     0.142 A 
HETATM   44  N12 UNL     1      11.347 -11.280  -4.602  1.00  0.00    -0.340 N 
ATOM     45  H12 UNL     1      11.892 -10.454  -4.351  1.00  0.00     0.168 HD
BRANCH  43  46
HETATM   46  N11 UNL     1      13.250 -12.604  -5.118  1.00  0.00    -0.380 N 
ATOM     47 2H11 UNL     1      13.779 -12.705  -5.984  1.00  0.00     0.158 HD
ATOM     48 1H11 UNL     1      13.964 -12.701  -4.395  1.00  0.00     0.158 HD
ENDBRANCH  43  46
ENDBRANCH  39  40
ENDBRANCH  35  39
ENDBRANCH  33  35
ENDBRANCH  32  33
ENDBRANCH  31  32
ENDBRANCH  30  31
ENDBRANCH   4  30
TORSDOF 13
ENDMDL
MODEL 3
REMARK VINA RESULT: -7.527690095      2.141      3.415
REMARK  13 active torsions:
REMARK  status: ('A' for Active; 'I' for Inactive)
REMARK    1  A    between atoms: N1_2  and  C3_4 
REMARK    2  A    between atoms: C4_7  and  N3_8 
REMARK    3  A    between atoms: N5_17  and  N6_18 
REMARK    4  A    between atoms: N7_21  and  C8_22 
REMARK    5  A    between atoms: N8_25  and  C11_26 
REMARK    6  A    between atoms: C11_26  and  C12_27 
REMARK    7  A    between atoms: C12_27  and  C13_28 
REMARK    8  A    between atoms: C13_28  and  N9_29 
REMARK    9  A    between atoms: N9_29  and  C14_31 
REMARK   10  A    between atoms: C14_31  and  C15_35 
REMARK   11  A    between atoms: C15_35  and  C16_36 
REMARK   12  A    between atoms: C18_39  and  N11_40 
REMARK   13  A    between atoms: C20_46  and  O2_47 
ROOT
HETATM    1  C8  UNL     1       2.975 -10.672  -5.654  1.00  0.00     0.144 C 
HETATM    2  C9  UNL     1       3.753 -10.828  -4.379  1.00  0.00     0.049 C 
HETATM    3  C10 UNL     1       4.780  -9.681  -4.427  1.00  0.00     0.119 C 
HETATM    4  N8  UNL     1       5.760 -10.054  -5.412  1.00  0.00    -0.410 N 
HETATM    5  C19 UNL     1       5.360 -11.025  -6.362  1.00  0.00     0.150 C 
HETATM    6  C20 UNL     1       3.912 -10.950  -6.794  1.00  0.00     0.160 C 
ENDROOT
BRANCH   1   7
HETATM    7  N7  UNL     1       1.737 -11.381  -5.697  1.00  0.00    -0.243 N 
HETATM    8  C5  UNL     1       0.556 -10.763  -5.934  1.00  0.00     0.159 A 
HETATM    9  N4  UNL     1       0.200  -9.465  -6.176  1.00  0.00    -0.174 N 
HETATM   10  C6  UNL     1      -0.453 -11.684  -5.914  1.00  0.00     0.126 A 
HETATM   11  C4  UNL     1      -1.069  -9.098  -6.385  1.00  0.00     0.679 A 
ATOM     12  H4  UNL     1       0.929  -8.751  -6.198  1.00  0.00     0.186 HD
HETATM   13  N2  UNL     1      -2.061  -9.992  -6.369  1.00  0.00    -0.176 N 
HETATM   14  C3  UNL     1      -1.741 -11.292  -6.131  1.00  0.00     0.138 A 
ATOM     15  H2  UNL     1      -3.028  -9.709  -6.530  1.00  0.00     0.186 HD
HETATM   16  C7  UNL     1       0.125 -12.893  -5.660  1.00  0.00     0.299 A 
HETATM   17  O1  UNL     1      -0.473 -14.000  -5.564  1.00  0.00    -0.264 OA
HETATM   18  N5  UNL     1       1.464 -12.650  -5.535  1.00  0.00    -0.159 N 
BRANCH  11  19
HETATM   19  N3  UNL     1      -1.332  -7.859  -6.607  1.00  0.00    -0.234 N 
ATOM     20  H32 UNL     1      -2.077  -7.408  -6.077  1.00  0.00     0.174 HD
ATOM     21  H31 UNL     1      -0.794  -7.346  -7.304  1.00  0.00     0.174 HD
ENDBRANCH  11  19
BRANCH  14  22
HETATM   22  N1  UNL     1      -2.803 -12.233  -6.117  1.00  0.00    -0.375 N 
HETATM   23  C1  UNL     1      -3.525 -12.408  -4.873  1.00  0.00     0.150 C 
HETATM   24  C2  UNL     1      -3.190 -13.013  -7.273  1.00  0.00     0.150 C 
ENDBRANCH  14  22
BRANCH  18  25
HETATM   25  N6  UNL     1       2.370 -13.649  -5.272  1.00  0.00    -0.321 N 
ATOM     26  H62 UNL     1       2.327 -14.608  -5.618  1.00  0.00     0.179 HD
ATOM     27  H61 UNL     1       3.191 -13.500  -4.686  1.00  0.00     0.179 HD
ENDBRANCH  18  25
ENDBRANCH   1   7
BRANCH   6  28
HETATM   28  O2  UNL     1       3.598 -12.138  -7.455  1.00  0.00    -0.392 OA
ATOM     29  H2  UNL     1       3.070 -11.987  -8.230  1.00  0.00     0.210 HD
ENDBRANCH   6  28
BRANCH   4  30
HETATM   30  C11 UNL     1       6.605  -9.007  -5.873  1.00  0.00     0.118 C 
BRANCH  30  31
HETATM   31  C12 UNL     1       8.037  -9.486  -5.996  1.00  0.00     0.039 C 
BRANCH  31  32
HETATM   32  C13 UNL     1       8.512 -10.017  -4.649  1.00  0.00     0.122 C 
BRANCH  32  33
HETATM   33  N9  UNL     1       8.853 -11.413  -4.751  1.00  0.00    -0.380 N 
ATOM     34  H9  UNL     1       8.098 -12.098  -4.781  1.00  0.00     0.160 HD
BRANCH  33  35
HETATM   35  C14 UNL     1      10.194 -11.880  -4.811  1.00  0.00     0.076 C 
HETATM   36  N10 UNL     1      11.111 -11.116  -4.386  1.00  0.00    -0.389 N 
ATOM     37 2H10 UNL     1      10.868 -10.195  -4.019  1.00  0.00     0.157 HD
ATOM     38 1H10 UNL     1      12.073 -11.451  -4.430  1.00  0.00     0.157 HD
BRANCH  35  39
HETATM   39  C15 UNL     1      10.547 -13.217  -5.345  1.00  0.00     0.133 C 
BRANCH  39  40
HETATM   40  C16 UNL     1      10.580 -14.206  -4.193  1.00  0.00     0.025 A 
HETATM   41  C17 UNL     1       9.434 -14.863  -3.838  1.00  0.00     0.078 A 
HETATM   42  S1  UNL     1       9.968 -15.836  -2.541  1.00  0.00    -0.064 SA
HETATM   43  C18 UNL     1      11.601 -15.354  -2.527  1.00  0.00     0.142 A 
HETATM   44  N12 UNL     1      11.665 -14.467  -3.520  1.00  0.00    -0.340 N 
ATOM     45  H12 UNL     1      12.545 -14.002  -3.748  1.00  0.00     0.168 HD
BRANCH  43  46
HETATM   46  N11 UNL     1      12.588 -15.742  -1.741  1.00  0.00    -0.380 N 
ATOM     47 2H11 UNL     1      12.519 -16.341  -0.918  1.00  0.00     0.158 HD
ATOM     48 1H11 UNL     1      13.585 -15.531  -1.793  1.00  0.00     0.158 HD
ENDBRANCH  43  46
ENDBRANCH  39  40
ENDBRANCH  35  39
ENDBRANCH  33  35
ENDBRANCH  32  33
ENDBRANCH  31  32
ENDBRANCH  30  31
ENDBRANCH   4  30
TORSDOF 13
ENDMDL
MODEL 4
REMARK VINA RESULT: -7.472039892      2.493      4.171
REMARK  13 active torsions:
REMARK  status: ('A' for Active; 'I' for Inactive)
REMARK    1  A    between atoms: N1_2  and  C3_4 
REMARK    2  A    between atoms: C4_7  and  N3_8 
REMARK    3  A    between atoms: N5_17  and  N6_18 
REMARK    4  A    between atoms: N7_21  and  C8_22 
REMARK    5  A    between atoms: N8_25  and  C11_26 
REMARK    6  A    between atoms: C11_26  and  C12_27 
REMARK    7  A    between atoms: C12_27  and  C13_28 
REMARK    8  A    between atoms: C13_28  and  N9_29 
REMARK    9  A    between atoms: N9_29  and  C14_31 
REMARK   10  A    between atoms: C14_31  and  C15_35 
REMARK   11  A    between atoms: C15_35  and  C16_36 
REMARK   12  A    between atoms: C18_39  and  N11_40 
REMARK   13  A    between atoms: C20_46  and  O2_47 
ROOT
HETATM    1  C8  UNL     1       4.512 -11.549  -5.874  1.00  0.00     0.144 C 
HETATM    2  C9  UNL     1       4.897 -11.755  -4.437  1.00  0.00     0.049 C 
HETATM    3  C10 UNL     1       6.437 -11.781  -4.464  1.00  0.00     0.119 C 
HETATM    4  N8  UNL     1       6.811 -13.042  -5.049  1.00  0.00    -0.410 N 
HETATM    5  C19 UNL     1       5.826 -13.690  -5.832  1.00  0.00     0.150 C 
HETATM    6  C20 UNL     1       4.931 -12.773  -6.636  1.00  0.00     0.160 C 
ENDROOT
BRANCH   1   7
HETATM    7  N7  UNL     1       3.162 -11.133  -6.083  1.00  0.00    -0.243 N 
HETATM    8  C5  UNL     1       2.119 -11.712  -5.443  1.00  0.00     0.159 A 
HETATM    9  N4  UNL     1       2.014 -12.723  -4.528  1.00  0.00    -0.174 N 
HETATM   10  C6  UNL     1       0.955 -11.116  -5.837  1.00  0.00     0.126 A 
HETATM   11  C4  UNL     1       0.838 -13.121  -4.033  1.00  0.00     0.679 A 
ATOM     12  H4  UNL     1       2.864 -13.189  -4.211  1.00  0.00     0.186 HD
HETATM   13  N2  UNL     1      -0.305 -12.543  -4.412  1.00  0.00    -0.176 N 
HETATM   14  C3  UNL     1      -0.237 -11.534  -5.321  1.00  0.00     0.138 A 
ATOM     15  H2  UNL     1      -1.201 -12.849  -4.032  1.00  0.00     0.186 HD
HETATM   16  C7  UNL     1       1.294 -10.151  -6.738  1.00  0.00     0.299 A 
HETATM   17  O1  UNL     1       0.498  -9.375  -7.336  1.00  0.00    -0.264 OA
HETATM   18  N5  UNL     1       2.655 -10.205  -6.852  1.00  0.00    -0.159 N 
BRANCH  11  19
HETATM   19  N3  UNL     1       0.813 -14.078  -3.175  1.00  0.00    -0.234 N 
ATOM     20  H32 UNL     1      -0.013 -14.196  -2.588  1.00  0.00     0.174 HD
ATOM     21  H31 UNL     1       1.613 -14.704  -3.094  1.00  0.00     0.174 HD
ENDBRANCH  11  19
BRANCH  14  22
HETATM   22  N1  UNL     1      -1.457 -10.928  -5.716  1.00  0.00    -0.375 N 
HETATM   23  C1  UNL     1      -2.394 -11.738  -6.468  1.00  0.00     0.150 C 
HETATM   24  C2  UNL     1      -1.800  -9.556  -5.405  1.00  0.00     0.150 C 
ENDBRANCH  14  22
BRANCH  18  25
HETATM   25  N6  UNL     1       3.356  -9.367  -7.684  1.00  0.00    -0.321 N 
ATOM     26  H62 UNL     1       3.091  -8.417  -7.947  1.00  0.00     0.179 HD
ATOM     27  H61 UNL     1       4.235  -9.643  -8.123  1.00  0.00     0.179 HD
ENDBRANCH  18  25
ENDBRANCH   1   7
BRANCH   6  28
HETATM   28  O2  UNL     1       3.837 -13.517  -7.078  1.00  0.00    -0.392 OA
ATOM     29  H2  UNL     1       3.990 -14.452  -7.012  1.00  0.00     0.210 HD
ENDBRANCH   6  28
BRANCH   4  30
HETATM   30  C11 UNL     1       8.159 -13.144  -5.490  1.00  0.00     0.118 C 
BRANCH  30  31
HETATM   31  C12 UNL     1       9.120 -12.810  -4.368  1.00  0.00     0.039 C 
BRANCH  31  32
HETATM   32  C13 UNL     1      10.133 -11.781  -4.856  1.00  0.00     0.122 C 
BRANCH  32  33
HETATM   33  N9  UNL     1       9.878 -10.499  -4.252  1.00  0.00    -0.380 N 
ATOM     34  H9  UNL     1       9.782 -10.449  -3.237  1.00  0.00     0.160 HD
BRANCH  33  35
HETATM   35  C14 UNL     1       9.754  -9.299  -5.004  1.00  0.00     0.076 C 
HETATM   36  N10 UNL     1      10.345  -8.264  -4.576  1.00  0.00    -0.389 N 
ATOM     37 2H10 UNL     1      10.886  -8.315  -3.713  1.00  0.00     0.157 HD
ATOM     38 1H10 UNL     1      10.256  -7.403  -5.115  1.00  0.00     0.157 HD
BRANCH  35  39
HETATM   39  C15 UNL     1       8.967  -9.225  -6.258  1.00  0.00     0.133 C 
BRANCH  39  40
HETATM   40  C16 UNL     1       7.759  -8.335  -6.021  1.00  0.00     0.025 A 
HETATM   41  C17 UNL     1       7.775  -7.045  -6.478  1.00  0.00     0.078 A 
HETATM   42  S1  UNL     1       6.242  -6.476  -5.989  1.00  0.00    -0.064 SA
HETATM   43  C18 UNL     1       5.677  -7.897  -5.241  1.00  0.00     0.142 A 
HETATM   44  N12 UNL     1       6.691  -8.748  -5.399  1.00  0.00    -0.340 N 
ATOM     45  H12 UNL     1       6.633  -9.702  -5.041  1.00  0.00     0.168 HD
BRANCH  43  46
HETATM   46  N11 UNL     1       4.525  -8.135  -4.642  1.00  0.00    -0.380 N 
ATOM     47 2H11 UNL     1       4.104  -7.597  -3.884  1.00  0.00     0.158 HD
ATOM     48 1H11 UNL     1       3.845  -8.877  -4.809  1.00  0.00     0.158 HD
ENDBRANCH  43  46
ENDBRANCH  39  40
ENDBRANCH  35  39
ENDBRANCH  33  35
ENDBRANCH  32  33
ENDBRANCH  31  32
ENDBRANCH  30  31
ENDBRANCH   4  30
TORSDOF 13
ENDMDL
MODEL 5
REMARK VINA RESULT: -7.450049463      1.856      3.087
REMARK  13 active torsions:
REMARK  status: ('A' for Active; 'I' for Inactive)
REMARK    1  A    between atoms: N1_2  and  C3_4 
REMARK    2  A    between atoms: C4_7  and  N3_8 
REMARK    3  A    between atoms: N5_17  and  N6_18 
REMARK    4  A    between atoms: N7_21  and  C8_22 
REMARK    5  A    between atoms: N8_25  and  C11_26 
REMARK    6  A    between atoms: C11_26  and  C12_27 
REMARK    7  A    between atoms: C12_27  and  C13_28 
REMARK    8  A    between atoms: C13_28  and  N9_29 
REMARK    9  A    between atoms: N9_29  and  C14_31 
REMARK   10  A    between atoms: C14_31  and  C15_35 
REMARK   11  A    between atoms: C15_35  and  C16_36 
REMARK   12  A    between atoms: C18_39  and  N11_40 
REMARK   13  A    between atoms: C20_46  and  O2_47 
ROOT
HETATM    1  C8  UNL     1       3.549 -10.137  -5.530  1.00  0.00     0.144 C 
HETATM    2  C9  UNL     1       4.401  -9.714  -4.367  1.00  0.00     0.049 C 
HETATM    3  C10 UNL     1       4.962  -8.345  -4.796  1.00  0.00     0.119 C 
HETATM    4  N8  UNL     1       5.956  -8.611  -5.803  1.00  0.00    -0.410 N 
HETATM    5  C19 UNL     1       5.866  -9.861  -6.461  1.00  0.00     0.150 C 
HETATM    6  C20 UNL     1       4.461 -10.368  -6.700  1.00  0.00     0.160 C 
ENDROOT
BRANCH   1   7
HETATM    7  N7  UNL     1       2.634 -11.197  -5.252  1.00  0.00    -0.243 N 
HETATM    8  C5  UNL     1       1.307 -11.091  -5.502  1.00  0.00     0.159 A 
HETATM    9  N4  UNL     1       0.518 -10.102  -6.021  1.00  0.00    -0.174 N 
HETATM   10  C6  UNL     1       0.681 -12.250  -5.138  1.00  0.00     0.126 A 
HETATM   11  C4  UNL     1      -0.803 -10.244  -6.170  1.00  0.00     0.679 A 
ATOM     12  H4  UNL     1       0.953  -9.224  -6.303  1.00  0.00     0.186 HD
HETATM   13  N2  UNL     1      -1.423 -11.374  -5.818  1.00  0.00    -0.176 N 
HETATM   14  C3  UNL     1      -0.667 -12.379  -5.300  1.00  0.00     0.138 A 
ATOM     15  H2  UNL     1      -2.431 -11.480  -5.935  1.00  0.00     0.186 HD
HETATM   16  C7  UNL     1       1.647 -13.082  -4.656  1.00  0.00     0.299 A 
HETATM   17  O1  UNL     1       1.472 -14.253  -4.217  1.00  0.00    -0.264 OA
HETATM   18  N5  UNL     1       2.821 -12.389  -4.747  1.00  0.00    -0.159 N 
BRANCH  11  19
HETATM   19  N3  UNL     1      -1.484  -9.273  -6.665  1.00  0.00    -0.234 N 
ATOM     20  H32 UNL     1      -1.389  -9.055  -7.657  1.00  0.00     0.174 HD
ATOM     21  H31 UNL     1      -2.107  -8.736  -6.063  1.00  0.00     0.174 HD
ENDBRANCH  11  19
BRANCH  14  22
HETATM   22  N1  UNL     1      -1.336 -13.574  -4.930  1.00  0.00    -0.375 N 
HETATM   23  C1  UNL     1      -1.528 -14.579  -5.955  1.00  0.00     0.150 C 
HETATM   24  C2  UNL     1      -1.829 -13.827  -3.592  1.00  0.00     0.150 C 
ENDBRANCH  14  22
BRANCH  18  25
HETATM   25  N6  UNL     1       4.022 -12.921  -4.347  1.00  0.00    -0.321 N 
ATOM     26  H62 UNL     1       4.162 -13.596  -3.594  1.00  0.00     0.179 HD
ATOM     27  H61 UNL     1       4.906 -12.670  -4.790  1.00  0.00     0.179 HD
ENDBRANCH  18  25
ENDBRANCH   1   7
BRANCH   6  28
HETATM   28  O2  UNL     1       4.542 -11.718  -7.044  1.00  0.00    -0.392 OA
ATOM     29  H2  UNL     1       5.435 -11.988  -7.221  1.00  0.00     0.210 HD
ENDBRANCH   6  28
BRANCH   4  30
HETATM   30  C11 UNL     1       6.359  -7.495  -6.586  1.00  0.00     0.118 C 
BRANCH  30  31
HETATM   31  C12 UNL     1       7.368  -6.649  -5.838  1.00  0.00     0.039 C 
BRANCH  31  32
HETATM   32  C13 UNL     1       8.773  -6.992  -6.317  1.00  0.00     0.122 C 
BRANCH  32  33
HETATM   33  N9  UNL     1       9.069  -8.378  -6.057  1.00  0.00    -0.380 N 
ATOM     34  H9  UNL     1       8.809  -9.071  -6.759  1.00  0.00     0.160 HD
BRANCH  33  35
HETATM   35  C14 UNL     1       9.705  -8.824  -4.867  1.00  0.00     0.076 C 
HETATM   36  N10 UNL     1      10.708  -8.174  -4.447  1.00  0.00    -0.389 N 
ATOM     37 2H10 UNL     1      11.032  -7.359  -4.968  1.00  0.00     0.157 HD
ATOM     38 1H10 UNL     1      11.164  -8.495  -3.594  1.00  0.00     0.157 HD
BRANCH  35  39
HETATM   39  C15 UNL     1       9.235 -10.009  -4.111  1.00  0.00     0.133 C 
BRANCH  39  40
HETATM   40  C16 UNL     1      10.046 -11.217  -4.547  1.00  0.00     0.025 A 
HETATM   41  C17 UNL     1       9.400 -12.380  -4.869  1.00  0.00     0.078 A 
HETATM   42  S1  UNL     1      10.700 -13.404  -5.289  1.00  0.00    -0.064 SA
HETATM   43  C18 UNL     1      11.974 -12.304  -5.034  1.00  0.00     0.142 A 
HETATM   44  N12 UNL     1      11.346 -11.197  -4.637  1.00  0.00    -0.340 N 
ATOM     45  H12 UNL     1      11.871 -10.352  -4.409  1.00  0.00     0.168 HD
BRANCH  43  46
HETATM   46  N11 UNL     1      13.275 -12.471  -5.183  1.00  0.00    -0.380 N 
ATOM     47 2H11 UNL     1      13.892 -11.962  -5.816  1.00  0.00     0.158 HD
ATOM     48 1H11 UNL     1      13.907 -13.119  -4.712  1.00  0.00     0.158 HD
ENDBRANCH  43  46
ENDBRANCH  39  40
ENDBRANCH  35  39
ENDBRANCH  33  35
ENDBRANCH  32  33
ENDBRANCH  31  32
ENDBRANCH  30  31
ENDBRANCH   4  30
TORSDOF 13
ENDMDL
