MODEL 1
REMARK VINA RESULT: -10.557574987      0.000      0.000
REMARK  1 active torsions:
REMARK  status: ('A' for Active; 'I' for Inactive)
REMARK    1  A    between atoms: O1_2  and  C2_3 
ROOT
HETATM    1  C2  UNL     1       7.154  -2.766 -29.273  1.00  0.00     0.107 A 
HETATM    2  C3  UNL     1       7.825  -3.951 -29.351  1.00  0.00     0.078 A 
HETATM    3  C4  UNL     1       9.020  -4.086 -28.679  1.00  0.00     0.096 A 
HETATM    4  O2  UNL     1       9.651  -5.264 -28.784  1.00  0.00    -0.309 OA
HETATM    5  C5  UNL     1      10.795  -5.527 -28.201  1.00  0.00     0.093 A 
HETATM    6  C6  UNL     1      11.436  -6.815 -28.345  1.00  0.00     0.036 A 
HETATM    7  C7  UNL     1      12.624  -7.092 -27.742  1.00  0.00     0.017 A 
HETATM    8  C8  UNL     1      13.199  -8.353 -27.916  1.00  0.00     0.001 A 
HETATM    9  C9  UNL     1      12.624  -9.340 -28.669  1.00  0.00     0.003 A 
HETATM   10  C10 UNL     1      11.424  -9.069 -29.281  1.00  0.00     0.043 A 
HETATM   11  C11 UNL     1      10.852  -7.827 -29.115  1.00  0.00     0.129 A 
HETATM   12  F1  UNL     1       9.677  -7.531 -29.703  1.00  0.00    -0.205 F 
HETATM   13  C12 UNL     1      11.337  -4.513 -27.457  1.00  0.00     0.094 A 
HETATM   14  C13 UNL     1      10.722  -3.309 -27.332  1.00  0.00     0.190 A 
HETATM   15  O3  UNL     1      11.216  -2.359 -26.644  1.00  0.00    -0.287 OA
HETATM   16  C14 UNL     1       9.514  -3.036 -27.946  1.00  0.00     0.084 A 
HETATM   17  C15 UNL     1       8.843  -1.804 -27.847  1.00  0.00     0.122 A 
HETATM   18  C16 UNL     1       7.626  -1.670 -28.536  1.00  0.00     0.139 A 
HETATM   19  O4  UNL     1       6.873  -0.545 -28.544  1.00  0.00    -0.320 OA
HETATM   20  C17 UNL     1       7.107   0.785 -28.951  1.00  0.00     0.355 C 
HETATM   21  O5  UNL     1       8.308   0.975 -29.621  1.00  0.00    -0.295 OA
HETATM   22  C18 UNL     1       8.929   2.167 -29.850  1.00  0.00     0.260 C 
HETATM   23  O6  UNL     1       9.601   2.290 -30.916  1.00  0.00    -0.265 OA
HETATM   24  C19 UNL     1       8.878   3.336 -28.945  1.00  0.00     0.111 C 
HETATM   25  C20 UNL     1      10.007   3.377 -27.962  1.00  0.00     0.010 C 
HETATM   26  C21 UNL     1      10.806   2.123 -27.873  1.00  0.00     0.001 C 
HETATM   27  C22 UNL     1      10.797   1.498 -26.494  1.00  0.00     0.002 C 
HETATM   28  C23 UNL     1       9.423   1.339 -25.918  1.00  0.00     0.032 C 
HETATM   29  C24 UNL     1       9.016  -0.112 -25.949  1.00  0.00     0.125 C 
HETATM   30  C25 UNL     1       7.673  -0.416 -25.386  1.00  0.00     0.040 C 
HETATM   31  O7  UNL     1       9.398  -0.820 -27.094  1.00  0.00    -0.342 OA
ENDROOT
BRANCH   1  32
HETATM   32  O1  UNL     1       5.949  -2.735 -29.989  1.00  0.00    -0.353 OA
HETATM   33  C1  UNL     1       5.252  -3.887 -30.276  1.00  0.00     0.210 C 
ENDBRANCH   1  32
TORSDOF 1
ENDMDL
MODEL 2
REMARK VINA RESULT: -9.257079173      3.596      7.521
REMARK  1 active torsions:
REMARK  status: ('A' for Active; 'I' for Inactive)
REMARK    1  A    between atoms: O1_2  and  C2_3 
ROOT
HETATM    1  C2  UNL     1       4.951  -1.879 -30.042  1.00  0.00     0.107 A 
HETATM    2  C3  UNL     1       6.090  -2.259 -29.395  1.00  0.00     0.078 A 
HETATM    3  C4  UNL     1       6.825  -3.309 -29.901  1.00  0.00     0.096 A 
HETATM    4  O2  UNL     1       7.936  -3.654 -29.234  1.00  0.00    -0.309 OA
HETATM    5  C5  UNL     1       8.724  -4.635 -29.601  1.00  0.00     0.093 A 
HETATM    6  C6  UNL     1       9.913  -4.969 -28.847  1.00  0.00     0.036 A 
HETATM    7  C7  UNL     1      10.734  -5.986 -29.224  1.00  0.00     0.017 A 
HETATM    8  C8  UNL     1      11.868  -6.266 -28.459  1.00  0.00     0.001 A 
HETATM    9  C9  UNL     1      12.204  -5.562 -27.336  1.00  0.00     0.003 A 
HETATM   10  C10 UNL     1      11.381  -4.533 -26.948  1.00  0.00     0.043 A 
HETATM   11  C11 UNL     1      10.260  -4.252 -27.697  1.00  0.00     0.129 A 
HETATM   12  F1  UNL     1       9.433  -3.250 -27.343  1.00  0.00    -0.205 F 
HETATM   13  C12 UNL     1       8.352  -5.315 -30.730  1.00  0.00     0.094 A 
HETATM   14  C13 UNL     1       7.233  -4.988 -31.427  1.00  0.00     0.190 A 
HETATM   15  O3  UNL     1       6.877  -5.612 -32.476  1.00  0.00    -0.287 OA
HETATM   16  C14 UNL     1       6.405  -3.952 -31.039  1.00  0.00     0.084 A 
HETATM   17  C15 UNL     1       5.236  -3.580 -31.726  1.00  0.00     0.122 A 
HETATM   18  C16 UNL     1       4.488  -2.512 -31.205  1.00  0.00     0.139 A 
HETATM   19  O4  UNL     1       3.338  -2.047 -31.749  1.00  0.00    -0.320 OA
HETATM   20  C17 UNL     1       2.084  -2.629 -32.025  1.00  0.00     0.355 C 
HETATM   21  O5  UNL     1       1.919  -3.906 -31.507  1.00  0.00    -0.295 OA
HETATM   22  C18 UNL     1       0.963  -4.810 -31.866  1.00  0.00     0.260 C 
HETATM   23  O6  UNL     1       0.535  -5.604 -30.978  1.00  0.00    -0.265 OA
HETATM   24  C19 UNL     1       0.383  -4.935 -33.221  1.00  0.00     0.111 C 
HETATM   25  C20 UNL     1       1.097  -5.928 -34.085  1.00  0.00     0.010 C 
HETATM   26  C21 UNL     1       2.405  -6.397 -33.549  1.00  0.00     0.001 C 
HETATM   27  C22 UNL     1       3.575  -6.093 -34.461  1.00  0.00     0.002 C 
HETATM   28  C23 UNL     1       3.625  -4.665 -34.914  1.00  0.00     0.032 C 
HETATM   29  C24 UNL     1       4.734  -3.936 -34.199  1.00  0.00     0.125 C 
HETATM   30  C25 UNL     1       4.907  -2.507 -34.570  1.00  0.00     0.040 C 
HETATM   31  O7  UNL     1       4.897  -4.264 -32.848  1.00  0.00    -0.342 OA
ENDROOT
BRANCH   1  32
HETATM   32  O1  UNL     1       4.280  -0.800 -29.448  1.00  0.00    -0.353 OA
HETATM   33  C1  UNL     1       4.874  -0.034 -28.470  1.00  0.00     0.210 C 
ENDBRANCH   1  32
TORSDOF 1
ENDMDL
MODEL 3
REMARK VINA RESULT: -8.761950493      3.704      8.135
REMARK  1 active torsions:
REMARK  status: ('A' for Active; 'I' for Inactive)
REMARK    1  A    between atoms: O1_2  and  C2_3 
ROOT
HETATM    1  C2  UNL     1       3.936  -1.478 -30.336  1.00  0.00     0.107 A 
HETATM    2  C3  UNL     1       5.145  -1.562 -29.712  1.00  0.00     0.078 A 
HETATM    3  C4  UNL     1       5.973  -2.625 -30.003  1.00  0.00     0.096 A 
HETATM    4  O2  UNL     1       7.152  -2.674 -29.365  1.00  0.00    -0.309 OA
HETATM    5  C5  UNL     1       8.031  -3.629 -29.543  1.00  0.00     0.093 A 
HETATM    6  C6  UNL     1       9.290  -3.638 -28.830  1.00  0.00     0.036 A 
HETATM    7  C7  UNL     1      10.206  -4.627 -29.012  1.00  0.00     0.017 A 
HETATM    8  C8  UNL     1      11.405  -4.586 -28.297  1.00  0.00     0.001 A 
HETATM    9  C9  UNL     1      11.714  -3.589 -27.412  1.00  0.00     0.003 A 
HETATM   10  C10 UNL     1      10.795  -2.586 -27.223  1.00  0.00     0.043 A 
HETATM   11  C11 UNL     1       9.610  -2.621 -27.924  1.00  0.00     0.129 A 
HETATM   12  F1  UNL     1       8.688  -1.652 -27.760  1.00  0.00    -0.205 F 
HETATM   13  C12 UNL     1       7.684  -4.607 -30.437  1.00  0.00     0.094 A 
HETATM   14  C13 UNL     1       6.498  -4.584 -31.098  1.00  0.00     0.190 A 
HETATM   15  O3  UNL     1       6.164  -5.487 -31.929  1.00  0.00    -0.287 OA
HETATM   16  C14 UNL     1       5.573  -3.575 -30.910  1.00  0.00     0.084 A 
HETATM   17  C15 UNL     1       4.333  -3.512 -31.569  1.00  0.00     0.122 A 
HETATM   18  C16 UNL     1       3.491  -2.428 -31.267  1.00  0.00     0.139 A 
HETATM   19  O4  UNL     1       2.266  -2.238 -31.812  1.00  0.00    -0.320 OA
HETATM   20  C17 UNL     1       1.078  -2.996 -31.833  1.00  0.00     0.355 C 
HETATM   21  O5  UNL     1       1.095  -4.110 -31.006  1.00  0.00    -0.295 OA
HETATM   22  C18 UNL     1       0.237  -5.169 -31.053  1.00  0.00     0.260 C 
HETATM   23  O6  UNL     1      -0.044  -5.752 -29.965  1.00  0.00    -0.265 OA
HETATM   24  C19 UNL     1      -0.395  -5.692 -32.283  1.00  0.00     0.111 C 
HETATM   25  C20 UNL     1       0.386  -6.793 -32.932  1.00  0.00     0.010 C 
HETATM   26  C21 UNL     1       1.768  -6.974 -32.406  1.00  0.00     0.001 C 
HETATM   27  C22 UNL     1       2.841  -6.792 -33.458  1.00  0.00     0.002 C 
HETATM   28  C23 UNL     1       2.695  -5.528 -34.250  1.00  0.00     0.032 C 
HETATM   29  C24 UNL     1       3.746  -4.532 -33.829  1.00  0.00     0.125 C 
HETATM   30  C25 UNL     1       3.726  -3.233 -34.553  1.00  0.00     0.040 C 
HETATM   31  O7  UNL     1       4.019  -4.489 -32.458  1.00  0.00    -0.342 OA
ENDROOT
BRANCH   1  32
HETATM   32  O1  UNL     1       3.174  -0.359 -29.973  1.00  0.00    -0.353 OA
HETATM   33  C1  UNL     1       3.476   0.386 -28.854  1.00  0.00     0.210 C 
ENDBRANCH   1  32
TORSDOF 1
ENDMDL
MODEL 4
REMARK VINA RESULT: -8.706929751      2.296      4.510
REMARK  1 active torsions:
REMARK  status: ('A' for Active; 'I' for Inactive)
REMARK    1  A    between atoms: O1_2  and  C2_3 
ROOT
HETATM    1  C2  UNL     1      11.119   0.262 -27.280  1.00  0.00     0.107 A 
HETATM    2  C3  UNL     1      11.603  -1.003 -27.424  1.00  0.00     0.078 A 
HETATM    3  C4  UNL     1      10.720  -2.030 -27.680  1.00  0.00     0.096 A 
HETATM    4  O2  UNL     1      11.236  -3.261 -27.811  1.00  0.00    -0.309 OA
HETATM    5  C5  UNL     1      10.512  -4.327 -28.050  1.00  0.00     0.093 A 
HETATM    6  C6  UNL     1      11.115  -5.635 -28.183  1.00  0.00     0.036 A 
HETATM    7  C7  UNL     1      10.367  -6.743 -28.431  1.00  0.00     0.017 A 
HETATM    8  C8  UNL     1      11.002  -7.982 -28.549  1.00  0.00     0.001 A 
HETATM    9  C9  UNL     1      12.355  -8.143 -28.429  1.00  0.00     0.003 A 
HETATM   10  C10 UNL     1      13.118  -7.028 -28.178  1.00  0.00     0.043 A 
HETATM   11  C11 UNL     1      12.498  -5.804 -28.059  1.00  0.00     0.129 A 
HETATM   12  F1  UNL     1      13.219  -4.693 -27.813  1.00  0.00    -0.205 F 
HETATM   13  C12 UNL     1       9.162  -4.123 -28.163  1.00  0.00     0.094 A 
HETATM   14  C13 UNL     1       8.611  -2.889 -28.037  1.00  0.00     0.190 A 
HETATM   15  O3  UNL     1       7.359  -2.687 -28.139  1.00  0.00    -0.287 OA
HETATM   16  C14 UNL     1       9.378  -1.766 -27.786  1.00  0.00     0.084 A 
HETATM   17  C15 UNL     1       8.851  -0.470 -27.644  1.00  0.00     0.122 A 
HETATM   18  C16 UNL     1       9.754   0.573 -27.380  1.00  0.00     0.139 A 
HETATM   19  O4  UNL     1       9.398   1.868 -27.209  1.00  0.00    -0.320 OA
HETATM   20  C17 UNL     1       8.553   2.535 -26.299  1.00  0.00     0.355 C 
HETATM   21  O5  UNL     1       8.090   1.741 -25.259  1.00  0.00    -0.295 OA
HETATM   22  C18 UNL     1       7.043   2.019 -24.431  1.00  0.00     0.260 C 
HETATM   23  O6  UNL     1       7.104   1.600 -23.237  1.00  0.00    -0.265 OA
HETATM   24  C19 UNL     1       5.833   2.776 -24.819  1.00  0.00     0.111 C 
HETATM   25  C20 UNL     1       4.716   1.905 -25.305  1.00  0.00     0.010 C 
HETATM   26  C21 UNL     1       5.098   0.491 -25.579  1.00  0.00     0.001 C 
HETATM   27  C22 UNL     1       4.868   0.071 -27.015  1.00  0.00     0.002 C 
HETATM   28  C23 UNL     1       5.450   1.022 -28.017  1.00  0.00     0.032 C 
HETATM   29  C24 UNL     1       6.682   0.421 -28.643  1.00  0.00     0.125 C 
HETATM   30  C25 UNL     1       7.353   1.257 -29.675  1.00  0.00     0.040 C 
HETATM   31  O7  UNL     1       7.511  -0.296 -27.772  1.00  0.00    -0.342 OA
ENDROOT
BRANCH   1  32
HETATM   32  O1  UNL     1      12.099   1.232 -27.027  1.00  0.00    -0.353 OA
HETATM   33  C1  UNL     1      12.752   1.882 -28.051  1.00  0.00     0.210 C 
ENDBRANCH   1  32
TORSDOF 1
ENDMDL
MODEL 5
REMARK VINA RESULT: -8.666240402      2.433      4.739
REMARK  1 active torsions:
REMARK  status: ('A' for Active; 'I' for Inactive)
REMARK    1  A    between atoms: O1_2  and  C2_3 
ROOT
HETATM    1  C2  UNL     1      10.364   0.323 -26.424  1.00  0.00     0.107 A 
HETATM    2  C3  UNL     1      10.839  -0.945 -26.585  1.00  0.00     0.078 A 
HETATM    3  C4  UNL     1      10.077  -1.860 -27.279  1.00  0.00     0.096 A 
HETATM    4  O2  UNL     1      10.578  -3.096 -27.412  1.00  0.00    -0.309 OA
HETATM    5  C5  UNL     1       9.958  -4.064 -28.043  1.00  0.00     0.093 A 
HETATM    6  C6  UNL     1      10.540  -5.383 -28.158  1.00  0.00     0.036 A 
HETATM    7  C7  UNL     1       9.900  -6.389 -28.813  1.00  0.00     0.017 A 
HETATM    8  C8  UNL     1      10.508  -7.645 -28.894  1.00  0.00     0.001 A 
HETATM    9  C9  UNL     1      11.730  -7.920 -28.344  1.00  0.00     0.003 A 
HETATM   10  C10 UNL     1      12.383  -6.909 -27.682  1.00  0.00     0.043 A 
HETATM   11  C11 UNL     1      11.789  -5.670 -27.597  1.00  0.00     0.129 A 
HETATM   12  F1  UNL     1      12.404  -4.658 -26.954  1.00  0.00    -0.205 F 
HETATM   13  C12 UNL     1       8.738  -3.747 -28.578  1.00  0.00     0.094 A 
HETATM   14  C13 UNL     1       8.206  -2.503 -28.461  1.00  0.00     0.190 A 
HETATM   15  O3  UNL     1       7.073  -2.197 -28.953  1.00  0.00    -0.287 OA
HETATM   16  C14 UNL     1       8.862  -1.485 -27.796  1.00  0.00     0.084 A 
HETATM   17  C15 UNL     1       8.349  -0.184 -27.647  1.00  0.00     0.122 A 
HETATM   18  C16 UNL     1       9.127   0.744 -26.936  1.00  0.00     0.139 A 
HETATM   19  O4  UNL     1       8.763   2.027 -26.702  1.00  0.00    -0.320 OA
HETATM   20  C17 UNL     1       7.670   2.627 -26.045  1.00  0.00     0.355 C 
HETATM   21  O5  UNL     1       6.855   1.737 -25.359  1.00  0.00    -0.295 OA
HETATM   22  C18 UNL     1       5.591   1.977 -24.907  1.00  0.00     0.260 C 
HETATM   23  O6  UNL     1       5.223   1.399 -23.842  1.00  0.00    -0.265 OA
HETATM   24  C19 UNL     1       4.611   2.867 -25.565  1.00  0.00     0.111 C 
HETATM   25  C20 UNL     1       3.714   2.155 -26.530  1.00  0.00     0.010 C 
HETATM   26  C21 UNL     1       4.135   0.767 -26.868  1.00  0.00     0.001 C 
HETATM   27  C22 UNL     1       4.410   0.562 -28.342  1.00  0.00     0.002 C 
HETATM   28  C23 UNL     1       5.327   1.593 -28.928  1.00  0.00     0.032 C 
HETATM   29  C24 UNL     1       6.686   0.992 -29.179  1.00  0.00     0.125 C 
HETATM   30  C25 UNL     1       7.693   1.907 -29.780  1.00  0.00     0.040 C 
HETATM   31  O7  UNL     1       7.142   0.105 -28.197  1.00  0.00    -0.342 OA
ENDROOT
BRANCH   1  32
HETATM   32  O1  UNL     1      11.216   1.174 -25.707  1.00  0.00    -0.353 OA
HETATM   33  C1  UNL     1      11.063   1.372 -24.352  1.00  0.00     0.210 C 
ENDBRANCH   1  32
TORSDOF 1
ENDMDL
