MODEL 1
REMARK VINA RESULT: -9.125728775      0.000      0.000
REMARK  3 active torsions:
REMARK  status: ('A' for Active; 'I' for Inactive)
REMARK    1  A    between atoms: C2_2  and  O1_3 
REMARK    2  A    between atoms: O1_3  and  C3_4 
REMARK    3  A    between atoms: C7_10  and  C8_11 
ROOT
HETATM    1  C8  UNL     1       9.587  -0.111 -26.981  1.00  0.00     0.180 C 
HETATM    2  N2  UNL     1       9.401   0.134 -28.250  1.00  0.00    -0.240 N 
ATOM      3  H2  UNL     1       9.767   0.948 -28.745  1.00  0.00     0.196 HD
HETATM    4  O2  UNL     1       8.636  -0.864 -28.829  1.00  0.00    -0.231 OA
HETATM    5  C9  UNL     1       8.674  -1.924 -27.930  1.00  0.00     0.269 C 
HETATM    6  O3  UNL     1       8.936  -1.303 -26.691  1.00  0.00    -0.287 OA
HETATM    7  C10 UNL     1       9.738  -2.936 -28.181  1.00  0.00     0.158 C 
HETATM    8  C11 UNL     1      10.281  -2.788 -29.584  1.00  0.00     0.047 C 
HETATM    9  C12 UNL     1      11.785  -2.596 -29.603  1.00  0.00     0.003 C 
HETATM   10  C13 UNL     1      12.515  -3.657 -28.824  1.00  0.00     0.000 C 
HETATM   11  C14 UNL     1      11.828  -4.006 -27.546  1.00  0.00     0.003 C 
HETATM   12  C15 UNL     1      10.903  -2.829 -27.203  1.00  0.00     0.047 C 
HETATM   13  O4  UNL     1       9.137  -4.148 -27.962  1.00  0.00    -0.222 OA
HETATM   14  O5  UNL     1       7.971  -3.964 -27.406  1.00  0.00    -0.218 OA
HETATM   15  C16 UNL     1       7.440  -2.758 -27.852  1.00  0.00     0.185 C 
HETATM   16  C17 UNL     1       6.474  -2.268 -26.790  1.00  0.00     0.053 C 
HETATM   17  C18 UNL     1       5.841  -0.964 -27.115  1.00  0.00     0.008 C 
HETATM   18  C19 UNL     1       5.482  -0.740 -28.542  1.00  0.00     0.039 C 
HETATM   19  C20 UNL     1       5.769  -1.903 -29.421  1.00  0.00    -0.046 A 
HETATM   20  C21 UNL     1       5.078  -2.027 -30.608  1.00  0.00     0.050 A 
HETATM   21  C22 UNL     1       5.284  -3.076 -31.475  1.00  0.00     0.117 A 
HETATM   22  F1  UNL     1       4.583  -3.161 -32.632  1.00  0.00    -0.206 F 
HETATM   23  C23 UNL     1       6.209  -4.046 -31.167  1.00  0.00     0.043 A 
HETATM   24  C24 UNL     1       6.900  -3.907 -29.964  1.00  0.00     0.014 A 
HETATM   25  C25 UNL     1       6.695  -2.867 -29.102  1.00  0.00    -0.009 A 
ENDROOT
BRANCH   1  26
HETATM   26  C7  UNL     1      10.319   0.665 -26.011  1.00  0.00     0.068 A 
HETATM   27  C3  UNL     1      11.515   1.251 -26.340  1.00  0.00     0.156 A 
HETATM   28  N1  UNL     1      12.225   1.987 -25.447  1.00  0.00    -0.346 N 
HETATM   29  C4  UNL     1      11.721   2.132 -24.210  1.00  0.00     0.090 A 
ATOM     30  H1  UNL     1      13.113   2.417 -25.707  1.00  0.00     0.167 HD
HETATM   31  C5  UNL     1      10.535   1.583 -23.792  1.00  0.00     0.018 A 
HETATM   32  C6  UNL     1       9.836   0.834 -24.739  1.00  0.00     0.022 A 
BRANCH  27  33
HETATM   33  O1  UNL     1      12.006   1.073 -27.647  1.00  0.00    -0.335 OA
BRANCH  33  34
HETATM   34  C2  UNL     1      12.500   2.191 -28.330  1.00  0.00     0.173 C 
HETATM   35  C1  UNL     1      11.372   3.141 -28.641  1.00  0.00     0.034 C 
ENDBRANCH  33  34
ENDBRANCH  27  33
ENDBRANCH   1  26
TORSDOF 3
ENDMDL
MODEL 2
REMARK VINA RESULT: -8.711416827      2.587      5.240
REMARK  3 active torsions:
REMARK  status: ('A' for Active; 'I' for Inactive)
REMARK    1  A    between atoms: C2_2  and  O1_3 
REMARK    2  A    between atoms: O1_3  and  C3_4 
REMARK    3  A    between atoms: C7_10  and  C8_11 
ROOT
HETATM    1  C8  UNL     1      10.629  -0.240 -27.674  1.00  0.00     0.180 C 
HETATM    2  N2  UNL     1      10.749  -1.072 -26.675  1.00  0.00    -0.240 N 
ATOM      3  H2  UNL     1      10.877  -0.796 -25.701  1.00  0.00     0.196 HD
HETATM    4  O2  UNL     1      10.680  -2.380 -27.124  1.00  0.00    -0.231 OA
HETATM    5  C9  UNL     1      10.141  -2.301 -28.403  1.00  0.00     0.269 C 
HETATM    6  O3  UNL     1      10.474  -0.998 -28.827  1.00  0.00    -0.287 OA
HETATM    7  C10 UNL     1       8.662  -2.456 -28.483  1.00  0.00     0.158 C 
HETATM    8  C11 UNL     1       8.128  -3.058 -27.204  1.00  0.00     0.047 C 
HETATM    9  C12 UNL     1       7.050  -2.200 -26.569  1.00  0.00     0.003 C 
HETATM   10  C13 UNL     1       5.947  -1.850 -27.532  1.00  0.00     0.000 C 
HETATM   11  C14 UNL     1       6.458  -1.513 -28.893  1.00  0.00     0.003 C 
HETATM   12  C15 UNL     1       7.938  -1.138 -28.731  1.00  0.00     0.047 C 
HETATM   13  O4  UNL     1       8.445  -3.248 -29.581  1.00  0.00    -0.222 OA
HETATM   14  O5  UNL     1       9.553  -3.369 -30.259  1.00  0.00    -0.218 OA
HETATM   15  C16 UNL     1      10.631  -3.316 -29.381  1.00  0.00     0.185 C 
HETATM   16  C17 UNL     1      11.833  -2.829 -30.168  1.00  0.00     0.053 C 
HETATM   17  C18 UNL     1      13.067  -2.694 -29.352  1.00  0.00     0.008 C 
HETATM   18  C19 UNL     1      13.288  -3.733 -28.310  1.00  0.00     0.039 C 
HETATM   19  C20 UNL     1      12.248  -4.794 -28.291  1.00  0.00    -0.046 A 
HETATM   20  C21 UNL     1      12.557  -6.022 -27.745  1.00  0.00     0.050 A 
HETATM   21  C22 UNL     1      11.650  -7.055 -27.693  1.00  0.00     0.117 A 
HETATM   22  F1  UNL     1      11.996  -8.248 -27.147  1.00  0.00    -0.206 F 
HETATM   23  C23 UNL     1      10.383  -6.879 -28.196  1.00  0.00     0.043 A 
HETATM   24  C24 UNL     1      10.084  -5.633 -28.744  1.00  0.00     0.014 A 
HETATM   25  C25 UNL     1      10.984  -4.606 -28.798  1.00  0.00    -0.009 A 
ENDROOT
BRANCH   1  26
HETATM   26  C7  UNL     1      10.646   1.202 -27.653  1.00  0.00     0.068 A 
HETATM   27  C3  UNL     1       9.762   1.903 -26.871  1.00  0.00     0.156 A 
HETATM   28  N1  UNL     1       9.756   3.259 -26.831  1.00  0.00    -0.346 N 
HETATM   29  C4  UNL     1      10.650   3.915 -27.590  1.00  0.00     0.090 A 
ATOM     30  H1  UNL     1       9.093   3.766 -26.245  1.00  0.00     0.167 HD
HETATM   31  C5  UNL     1      11.570   3.299 -28.402  1.00  0.00     0.018 A 
HETATM   32  C6  UNL     1      11.544   1.905 -28.414  1.00  0.00     0.022 A 
BRANCH  27  33
HETATM   33  O1  UNL     1       8.843   1.176 -26.092  1.00  0.00    -0.335 OA
BRANCH  33  34
HETATM   34  C2  UNL     1       8.867   1.344 -24.703  1.00  0.00     0.173 C 
HETATM   35  C1  UNL     1       7.902   0.384 -24.053  1.00  0.00     0.034 C 
ENDBRANCH  33  34
ENDBRANCH  27  33
ENDBRANCH   1  26
TORSDOF 3
ENDMDL
MODEL 3
REMARK VINA RESULT: -8.605583855      2.992      6.611
REMARK  3 active torsions:
REMARK  status: ('A' for Active; 'I' for Inactive)
REMARK    1  A    between atoms: C2_2  and  O1_3 
REMARK    2  A    between atoms: O1_3  and  C3_4 
REMARK    3  A    between atoms: C7_10  and  C8_11 
ROOT
HETATM    1  C8  UNL     1       7.726  -2.604 -28.571  1.00  0.00     0.180 C 
HETATM    2  N2  UNL     1       7.924  -2.899 -27.314  1.00  0.00    -0.240 N 
ATOM      3  H2  UNL     1       7.646  -3.775 -26.872  1.00  0.00     0.196 HD
HETATM    4  O2  UNL     1       8.563  -1.855 -26.668  1.00  0.00    -0.231 OA
HETATM    5  C9  UNL     1       9.076  -1.054 -27.681  1.00  0.00     0.269 C 
HETATM    6  O3  UNL     1       8.242  -1.333 -28.784  1.00  0.00    -0.287 OA
HETATM    7  C10 UNL     1      10.483  -1.345 -28.072  1.00  0.00     0.158 C 
HETATM    8  C11 UNL     1      11.162  -2.179 -27.010  1.00  0.00     0.047 C 
HETATM    9  C12 UNL     1      11.743  -3.464 -27.568  1.00  0.00     0.003 C 
HETATM   10  C13 UNL     1      12.637  -3.227 -28.756  1.00  0.00     0.000 C 
HETATM   11  C14 UNL     1      12.096  -2.191 -29.685  1.00  0.00     0.003 C 
HETATM   12  C15 UNL     1      10.590  -2.084 -29.401  1.00  0.00     0.047 C 
HETATM   13  O4  UNL     1      11.068  -0.117 -28.245  1.00  0.00    -0.222 OA
HETATM   14  O5  UNL     1      10.148   0.809 -28.237  1.00  0.00    -0.218 OA
HETATM   15  C16 UNL     1       9.109   0.411 -27.402  1.00  0.00     0.185 C 
HETATM   16  C17 UNL     1       7.853   1.120 -27.872  1.00  0.00     0.053 C 
HETATM   17  C18 UNL     1       6.641   0.771 -27.086  1.00  0.00     0.008 C 
HETATM   18  C19 UNL     1       6.833   0.587 -25.622  1.00  0.00     0.039 C 
HETATM   19  C20 UNL     1       8.223   0.842 -25.162  1.00  0.00    -0.046 A 
HETATM   20  C21 UNL     1       8.438   1.174 -23.841  1.00  0.00     0.050 A 
HETATM   21  C22 UNL     1       9.695   1.428 -23.340  1.00  0.00     0.117 A 
HETATM   22  F1  UNL     1       9.862   1.752 -22.034  1.00  0.00    -0.206 F 
HETATM   23  C23 UNL     1      10.790   1.350 -24.168  1.00  0.00     0.043 A 
HETATM   24  C24 UNL     1      10.557   1.013 -25.500  1.00  0.00     0.014 A 
HETATM   25  C25 UNL     1       9.310   0.762 -26.000  1.00  0.00    -0.009 A 
ENDROOT
BRANCH   1  26
HETATM   26  C7  UNL     1       7.099  -3.402 -29.595  1.00  0.00     0.068 A 
HETATM   27  C3  UNL     1       7.768  -4.449 -30.178  1.00  0.00     0.156 A 
HETATM   28  N1  UNL     1       7.202  -5.216 -31.144  1.00  0.00    -0.346 N 
HETATM   29  C4  UNL     1       5.947  -4.922 -31.526  1.00  0.00     0.090 A 
ATOM     30  H1  UNL     1       7.712  -5.992 -31.567  1.00  0.00     0.167 HD
HETATM   31  C5  UNL     1       5.203  -3.895 -31.001  1.00  0.00     0.018 A 
HETATM   32  C6  UNL     1       5.820  -3.132 -30.011  1.00  0.00     0.022 A 
BRANCH  27  33
HETATM   33  O1  UNL     1       9.080  -4.721 -29.748  1.00  0.00    -0.335 OA
BRANCH  33  34
HETATM   34  C2  UNL     1       9.382  -6.017 -29.314  1.00  0.00     0.173 C 
HETATM   35  C1  UNL     1       9.599  -6.021 -27.822  1.00  0.00     0.034 C 
ENDBRANCH  33  34
ENDBRANCH  27  33
ENDBRANCH   1  26
TORSDOF 3
ENDMDL
MODEL 4
REMARK VINA RESULT: -8.577602230      2.979      6.624
REMARK  3 active torsions:
REMARK  status: ('A' for Active; 'I' for Inactive)
REMARK    1  A    between atoms: C2_2  and  O1_3 
REMARK    2  A    between atoms: O1_3  and  C3_4 
REMARK    3  A    between atoms: C7_10  and  C8_11 
ROOT
HETATM    1  C8  UNL     1       7.754  -3.103 -29.084  1.00  0.00     0.180 C 
HETATM    2  N2  UNL     1       7.786  -3.373 -27.807  1.00  0.00    -0.240 N 
ATOM      3  H2  UNL     1       7.432  -4.232 -27.385  1.00  0.00     0.196 HD
HETATM    4  O2  UNL     1       8.366  -2.330 -27.107  1.00  0.00    -0.231 OA
HETATM    5  C9  UNL     1       9.022  -1.565 -28.064  1.00  0.00     0.269 C 
HETATM    6  O3  UNL     1       8.325  -1.850 -29.257  1.00  0.00    -0.287 OA
HETATM    7  C10 UNL     1      10.459  -1.897 -28.271  1.00  0.00     0.158 C 
HETATM    8  C11 UNL     1      10.979  -2.722 -27.115  1.00  0.00     0.047 C 
HETATM    9  C12 UNL     1      11.591  -4.032 -27.570  1.00  0.00     0.003 C 
HETATM   10  C13 UNL     1      12.632  -3.844 -28.641  1.00  0.00     0.000 C 
HETATM   11  C14 UNL     1      12.237  -2.818 -29.651  1.00  0.00     0.003 C 
HETATM   12  C15 UNL     1      10.712  -2.669 -29.561  1.00  0.00     0.047 C 
HETATM   13  O4  UNL     1      11.092  -0.688 -28.394  1.00  0.00    -0.222 OA
HETATM   14  O5  UNL     1      10.204   0.260 -28.519  1.00  0.00    -0.218 OA
HETATM   15  C16 UNL     1       9.059  -0.094 -27.812  1.00  0.00     0.185 C 
HETATM   16  C17 UNL     1       7.890   0.632 -28.450  1.00  0.00     0.053 C 
HETATM   17  C18 UNL     1       6.581   0.330 -27.815  1.00  0.00     0.008 C 
HETATM   18  C19 UNL     1       6.584   0.175 -26.335  1.00  0.00     0.039 C 
HETATM   19  C20 UNL     1       7.912   0.408 -25.710  1.00  0.00    -0.046 A 
HETATM   20  C21 UNL     1       7.970   0.766 -24.380  1.00  0.00     0.050 A 
HETATM   21  C22 UNL     1       9.160   1.002 -23.730  1.00  0.00     0.117 A 
HETATM   22  F1  UNL     1       9.172   1.353 -22.421  1.00  0.00    -0.206 F 
HETATM   23  C23 UNL     1      10.347   0.880 -24.413  1.00  0.00     0.043 A 
HETATM   24  C24 UNL     1      10.274   0.517 -25.757  1.00  0.00     0.014 A 
HETATM   25  C25 UNL     1       9.093   0.284 -26.403  1.00  0.00    -0.009 A 
ENDROOT
BRANCH   1  26
HETATM   26  C7  UNL     1       7.238  -3.909 -30.163  1.00  0.00     0.068 A 
HETATM   27  C3  UNL     1       5.925  -3.805 -30.551  1.00  0.00     0.156 A 
HETATM   28  N1  UNL     1       5.413  -4.551 -31.563  1.00  0.00    -0.346 N 
HETATM   29  C4  UNL     1       6.235  -5.411 -32.188  1.00  0.00     0.090 A 
ATOM     30  H1  UNL     1       4.436  -4.462 -31.840  1.00  0.00     0.167 HD
HETATM   31  C5  UNL     1       7.559  -5.583 -31.869  1.00  0.00     0.018 A 
HETATM   32  C6  UNL     1       8.046  -4.797 -30.824  1.00  0.00     0.022 A 
BRANCH  27  33
HETATM   33  O1  UNL     1       5.101  -2.892 -29.868  1.00  0.00    -0.335 OA
BRANCH  33  34
HETATM   34  C2  UNL     1       4.156  -2.168 -30.605  1.00  0.00     0.173 C 
HETATM   35  C1  UNL     1       4.029  -0.774 -30.046  1.00  0.00     0.034 C 
ENDBRANCH  33  34
ENDBRANCH  27  33
ENDBRANCH   1  26
TORSDOF 3
ENDMDL
MODEL 5
REMARK VINA RESULT: -8.465026018      1.027      2.092
REMARK  3 active torsions:
REMARK  status: ('A' for Active; 'I' for Inactive)
REMARK    1  A    between atoms: C2_2  and  O1_3 
REMARK    2  A    between atoms: O1_3  and  C3_4 
REMARK    3  A    between atoms: C7_10  and  C8_11 
ROOT
HETATM    1  C8  UNL     1       9.759  -0.162 -27.377  1.00  0.00     0.180 C 
HETATM    2  N2  UNL     1       9.571  -0.021 -28.661  1.00  0.00    -0.240 N 
ATOM      3  H2  UNL     1       9.937   0.748 -29.222  1.00  0.00     0.196 HD
HETATM    4  O2  UNL     1       8.805  -1.064 -29.154  1.00  0.00    -0.231 OA
HETATM    5  C9  UNL     1       8.843  -2.045 -28.171  1.00  0.00     0.269 C 
HETATM    6  O3  UNL     1       9.107  -1.324 -26.988  1.00  0.00    -0.287 OA
HETATM    7  C10 UNL     1       9.905  -3.075 -28.339  1.00  0.00     0.158 C 
HETATM    8  C11 UNL     1      10.447  -3.045 -29.751  1.00  0.00     0.047 C 
HETATM    9  C12 UNL     1      11.951  -2.856 -29.788  1.00  0.00     0.003 C 
HETATM   10  C13 UNL     1      12.681  -3.851 -28.924  1.00  0.00     0.000 C 
HETATM   11  C14 UNL     1      11.995  -4.092 -27.621  1.00  0.00     0.003 C 
HETATM   12  C15 UNL     1      11.072  -2.890 -27.375  1.00  0.00     0.047 C 
HETATM   13  O4  UNL     1       9.304  -4.265 -28.020  1.00  0.00    -0.222 OA
HETATM   14  O5  UNL     1       8.139  -4.034 -27.479  1.00  0.00    -0.218 OA
HETATM   15  C16 UNL     1       7.608  -2.869 -28.023  1.00  0.00     0.185 C 
HETATM   16  C17 UNL     1       6.645  -2.292 -27.003  1.00  0.00     0.053 C 
HETATM   17  C18 UNL     1       6.012  -1.018 -27.434  1.00  0.00     0.008 C 
HETATM   18  C19 UNL     1       5.651  -0.913 -28.874  1.00  0.00     0.039 C 
HETATM   19  C20 UNL     1       5.935  -2.144 -29.655  1.00  0.00    -0.046 A 
HETATM   20  C21 UNL     1       5.243  -2.365 -30.827  1.00  0.00     0.050 A 
HETATM   21  C22 UNL     1       5.447  -3.482 -31.604  1.00  0.00     0.117 A 
HETATM   22  F1  UNL     1       4.744  -3.662 -32.749  1.00  0.00    -0.206 F 
HETATM   23  C23 UNL     1       6.371  -4.425 -31.219  1.00  0.00     0.043 A 
HETATM   24  C24 UNL     1       7.064  -4.188 -30.032  1.00  0.00     0.014 A 
HETATM   25  C25 UNL     1       6.861  -3.080 -29.259  1.00  0.00    -0.009 A 
ENDROOT
BRANCH   1  26
HETATM   26  C7  UNL     1      10.493   0.691 -26.475  1.00  0.00     0.068 A 
HETATM   27  C3  UNL     1      10.087   0.851 -25.174  1.00  0.00     0.156 A 
HETATM   28  N1  UNL     1      10.758   1.647 -24.303  1.00  0.00    -0.346 N 
HETATM   29  C4  UNL     1      11.851   2.288 -24.752  1.00  0.00     0.090 A 
ATOM     30  H1  UNL     1      10.444   1.756 -23.339  1.00  0.00     0.167 HD
HETATM   31  C5  UNL     1      12.330   2.189 -26.034  1.00  0.00     0.018 A 
HETATM   32  C6  UNL     1      11.612   1.361 -26.897  1.00  0.00     0.022 A 
BRANCH  27  33
HETATM   33  O1  UNL     1       8.937   0.161 -24.747  1.00  0.00    -0.335 OA
BRANCH  33  34
HETATM   34  C2  UNL     1       8.203   0.689 -23.678  1.00  0.00     0.173 C 
HETATM   35  C1  UNL     1       6.875  -0.018 -23.570  1.00  0.00     0.034 C 
ENDBRANCH  33  34
ENDBRANCH  27  33
ENDBRANCH   1  26
TORSDOF 3
ENDMDL
