MODEL 1
REMARK VINA RESULT: -9.619281523      0.000      0.000
REMARK  2 active torsions:
REMARK  status: ('A' for Active; 'I' for Inactive)
REMARK    1  A    between atoms: N1_7  and  C6_8 
REMARK    2  A    between atoms: C12_14  and  C13_15 
ROOT
HETATM    1  C6  UNL     1       3.833  -2.128 -31.023  1.00  0.00     0.054 A 
HETATM    2  C7  UNL     1       3.296  -0.974 -30.420  1.00  0.00     0.070 A 
HETATM    3  C8  UNL     1       3.982  -0.364 -29.413  1.00  0.00     0.108 A 
HETATM    4  C9  UNL     1       5.188  -0.855 -28.976  1.00  0.00     0.116 A 
HETATM    5  C10 UNL     1       5.739  -1.997 -29.560  1.00  0.00     0.017 A 
HETATM    6  C11 UNL     1       6.945  -2.483 -29.121  1.00  0.00     0.032 A 
HETATM    7  C12 UNL     1       7.479  -3.594 -29.694  1.00  0.00     0.035 A 
HETATM    8  C21 UNL     1       6.826  -4.240 -30.706  1.00  0.00     0.116 A 
HETATM    9  C22 UNL     1       5.621  -3.752 -31.141  1.00  0.00     0.116 A 
HETATM   10  C23 UNL     1       5.038  -2.630 -30.596  1.00  0.00     0.040 A 
HETATM   11  O3  UNL     1       5.001  -4.431 -32.159  1.00  0.00    -0.345 OA
HETATM   12  C24 UNL     1       5.275  -5.775 -32.429  1.00  0.00     0.202 C 
HETATM   13  C25 UNL     1       6.743  -6.102 -32.323  1.00  0.00     0.202 C 
HETATM   14  O4  UNL     1       7.372  -5.376 -31.291  1.00  0.00    -0.345 OA
HETATM   15  O5  UNL     1       5.699  -0.075 -27.950  1.00  0.00    -0.322 OA
HETATM   16  C26 UNL     1       4.942   1.143 -28.004  1.00  0.00     0.352 C 
HETATM   17  O6  UNL     1       3.717   0.771 -28.633  1.00  0.00    -0.323 OA
ENDROOT
BRANCH   7  18
HETATM   18  C13 UNL     1       8.772  -4.123 -29.231  1.00  0.00     0.090 A 
HETATM   19  C14 UNL     1      10.000  -3.477 -29.340  1.00  0.00     0.052 A 
HETATM   20  C15 UNL     1      10.959  -4.300 -28.791  1.00  0.00     0.003 A 
HETATM   21  C16 UNL     1      12.326  -4.229 -28.603  1.00  0.00     0.056 A 
HETATM   22  C20 UNL     1      10.273  -5.421 -28.367  1.00  0.00     0.086 A 
HETATM   23  C17 UNL     1      13.050  -5.248 -27.998  1.00  0.00     0.117 A 
HETATM   24  F1  UNL     1      14.384  -5.101 -27.853  1.00  0.00    -0.206 F 
HETATM   25  C18 UNL     1      12.345  -6.348 -27.588  1.00  0.00     0.045 A 
HETATM   26  C19 UNL     1      10.981  -6.431 -27.769  1.00  0.00     0.041 A 
HETATM   27  O2  UNL     1       9.007  -5.253 -28.653  1.00  0.00    -0.309 OA
ENDBRANCH   7  18
BRANCH   1  28
HETATM   28  N1  UNL     1       3.106  -2.740 -32.063  1.00  0.00    -0.317 N 
HETATM   29  C1  UNL     1       3.290  -2.357 -33.443  1.00  0.00     0.224 C 
HETATM   30  O1  UNL     1       4.176  -1.540 -33.796  1.00  0.00    -0.273 OA
HETATM   31  C2  UNL     1       2.338  -3.017 -34.390  1.00  0.00     0.103 C 
HETATM   32  C3  UNL     1       0.912  -2.802 -33.869  1.00  0.00     0.011 C 
HETATM   33  C4  UNL     1       0.777  -3.123 -32.410  1.00  0.00     0.021 C 
HETATM   34  C5  UNL     1       2.075  -3.747 -31.849  1.00  0.00     0.132 C 
ENDBRANCH   1  28
TORSDOF 2
ENDMDL
MODEL 2
REMARK VINA RESULT: -9.505575775      3.714      7.962
REMARK  2 active torsions:
REMARK  status: ('A' for Active; 'I' for Inactive)
REMARK    1  A    between atoms: N1_7  and  C6_8 
REMARK    2  A    between atoms: C12_14  and  C13_15 
ROOT
HETATM    1  C6  UNL     1       9.296  -1.539 -27.354  1.00  0.00     0.054 A 
HETATM    2  C7  UNL     1      10.536  -2.101 -26.996  1.00  0.00     0.070 A 
HETATM    3  C8  UNL     1      10.908  -3.299 -27.529  1.00  0.00     0.108 A 
HETATM    4  C9  UNL     1      10.093  -3.967 -28.410  1.00  0.00     0.116 A 
HETATM    5  C10 UNL     1       8.860  -3.429 -28.780  1.00  0.00     0.017 A 
HETATM    6  C11 UNL     1       8.051  -4.099 -29.662  1.00  0.00     0.032 A 
HETATM    7  C12 UNL     1       6.851  -3.570 -30.021  1.00  0.00     0.035 A 
HETATM    8  C21 UNL     1       6.436  -2.371 -29.511  1.00  0.00     0.116 A 
HETATM    9  C22 UNL     1       7.247  -1.705 -28.630  1.00  0.00     0.116 A 
HETATM   10  C23 UNL     1       8.471  -2.196 -28.235  1.00  0.00     0.040 A 
HETATM   11  O3  UNL     1       6.792  -0.506 -28.143  1.00  0.00    -0.345 OA
HETATM   12  C24 UNL     1       5.432  -0.183 -28.121  1.00  0.00     0.202 C 
HETATM   13  C25 UNL     1       4.712  -0.611 -29.375  1.00  0.00     0.202 C 
HETATM   14  O4  UNL     1       5.210  -1.831 -29.878  1.00  0.00    -0.345 OA
HETATM   15  O5  UNL     1      10.676  -5.157 -28.819  1.00  0.00    -0.322 OA
HETATM   16  C26 UNL     1      12.055  -5.038 -28.443  1.00  0.00     0.352 C 
HETATM   17  O6  UNL     1      12.051  -4.096 -27.372  1.00  0.00    -0.323 OA
ENDROOT
BRANCH   7  18
HETATM   18  C13 UNL     1       5.975  -4.281 -30.966  1.00  0.00     0.090 A 
HETATM   19  C14 UNL     1       6.137  -4.325 -32.348  1.00  0.00     0.052 A 
HETATM   20  C15 UNL     1       5.116  -5.088 -32.867  1.00  0.00     0.003 A 
HETATM   21  C16 UNL     1       4.735  -5.494 -34.132  1.00  0.00     0.056 A 
HETATM   22  C20 UNL     1       4.368  -5.483 -31.775  1.00  0.00     0.086 A 
HETATM   23  C17 UNL     1       3.620  -6.289 -34.358  1.00  0.00     0.117 A 
HETATM   24  F1  UNL     1       3.315  -6.641 -35.625  1.00  0.00    -0.206 F 
HETATM   25  C18 UNL     1       2.896  -6.665 -33.258  1.00  0.00     0.045 A 
HETATM   26  C19 UNL     1       3.265  -6.268 -31.990  1.00  0.00     0.041 A 
HETATM   27  O2  UNL     1       4.922  -4.979 -30.702  1.00  0.00    -0.309 OA
ENDBRANCH   7  18
BRANCH   1  28
HETATM   28  N1  UNL     1       8.935  -0.299 -26.792  1.00  0.00    -0.317 N 
HETATM   29  C1  UNL     1       9.326   0.951 -27.399  1.00  0.00     0.224 C 
HETATM   30  O1  UNL     1       9.912   0.999 -28.508  1.00  0.00    -0.273 OA
HETATM   31  C2  UNL     1       8.970   2.158 -26.590  1.00  0.00     0.103 C 
HETATM   32  C3  UNL     1       9.508   1.962 -25.168  1.00  0.00     0.011 C 
HETATM   33  C4  UNL     1       9.161   0.618 -24.601  1.00  0.00     0.021 C 
HETATM   34  C5  UNL     1       8.207  -0.158 -25.538  1.00  0.00     0.132 C 
ENDBRANCH   1  28
TORSDOF 2
ENDMDL
MODEL 3
REMARK VINA RESULT: -9.352851958      2.478      5.343
REMARK  2 active torsions:
REMARK  status: ('A' for Active; 'I' for Inactive)
REMARK    1  A    between atoms: N1_7  and  C6_8 
REMARK    2  A    between atoms: C12_14  and  C13_15 
ROOT
HETATM    1  C6  UNL     1       6.272  -0.938 -28.986  1.00  0.00     0.054 A 
HETATM    2  C7  UNL     1       5.064  -1.162 -29.675  1.00  0.00     0.070 A 
HETATM    3  C8  UNL     1       4.824  -2.385 -30.225  1.00  0.00     0.108 A 
HETATM    4  C9  UNL     1       5.738  -3.404 -30.118  1.00  0.00     0.116 A 
HETATM    5  C10 UNL     1       6.941  -3.205 -29.439  1.00  0.00     0.017 A 
HETATM    6  C11 UNL     1       7.852  -4.227 -29.334  1.00  0.00     0.032 A 
HETATM    7  C12 UNL     1       9.021  -4.029 -28.670  1.00  0.00     0.035 A 
HETATM    8  C21 UNL     1       9.306  -2.818 -28.103  1.00  0.00     0.116 A 
HETATM    9  C22 UNL     1       8.395  -1.800 -28.211  1.00  0.00     0.116 A 
HETATM   10  C23 UNL     1       7.196  -1.948 -28.871  1.00  0.00     0.040 A 
HETATM   11  O3  UNL     1       8.721  -0.602 -27.628  1.00  0.00    -0.345 OA
HETATM   12  C24 UNL     1      10.047  -0.242 -27.366  1.00  0.00     0.202 C 
HETATM   13  C25 UNL     1      10.868  -1.389 -26.835  1.00  0.00     0.202 C 
HETATM   14  O4  UNL     1      10.502  -2.617 -27.424  1.00  0.00    -0.345 OA
HETATM   15  O5  UNL     1       5.280  -4.550 -30.750  1.00  0.00    -0.322 OA
HETATM   16  C26 UNL     1       3.877  -4.325 -30.945  1.00  0.00     0.352 C 
HETATM   17  O6  UNL     1       3.743  -2.905 -30.954  1.00  0.00    -0.323 OA
ENDROOT
BRANCH   7  18
HETATM   18  C13 UNL     1      10.004  -5.118 -28.552  1.00  0.00     0.090 A 
HETATM   19  C14 UNL     1       9.784  -6.451 -28.887  1.00  0.00     0.052 A 
HETATM   20  C15 UNL     1      10.945  -7.146 -28.631  1.00  0.00     0.003 A 
HETATM   21  C16 UNL     1      11.352  -8.461 -28.751  1.00  0.00     0.056 A 
HETATM   22  C20 UNL     1      11.832  -6.204 -28.147  1.00  0.00     0.086 A 
HETATM   23  C17 UNL     1      12.628  -8.884 -28.403  1.00  0.00     0.117 A 
HETATM   24  F1  UNL     1      12.945 -10.187 -28.550  1.00  0.00    -0.206 F 
HETATM   25  C18 UNL     1      13.486  -7.929 -27.925  1.00  0.00     0.045 A 
HETATM   26  C19 UNL     1      13.093  -6.614 -27.800  1.00  0.00     0.041 A 
HETATM   27  O2  UNL     1      11.221  -5.047 -28.126  1.00  0.00    -0.309 OA
ENDBRANCH   7  18
BRANCH   1  28
HETATM   28  N1  UNL     1       6.496   0.333 -28.424  1.00  0.00    -0.317 N 
HETATM   29  C1  UNL     1       6.085   0.651 -27.078  1.00  0.00     0.224 C 
HETATM   30  O1  UNL     1       5.604  -0.215 -26.306  1.00  0.00    -0.273 OA
HETATM   31  C2  UNL     1       6.283   2.085 -26.702  1.00  0.00     0.103 C 
HETATM   32  C3  UNL     1       5.627   2.961 -27.776  1.00  0.00     0.011 C 
HETATM   33  C4  UNL     1       6.005   2.547 -29.167  1.00  0.00     0.021 C 
HETATM   34  C5  UNL     1       7.092   1.447 -29.150  1.00  0.00     0.132 C 
ENDBRANCH   1  28
TORSDOF 2
ENDMDL
MODEL 4
REMARK VINA RESULT: -9.350730900      3.759      8.034
REMARK  2 active torsions:
REMARK  status: ('A' for Active; 'I' for Inactive)
REMARK    1  A    between atoms: N1_7  and  C6_8 
REMARK    2  A    between atoms: C12_14  and  C13_15 
ROOT
HETATM    1  C6  UNL     1       9.271  -1.535 -27.364  1.00  0.00     0.054 A 
HETATM    2  C7  UNL     1      10.504  -2.110 -27.003  1.00  0.00     0.070 A 
HETATM    3  C8  UNL     1      10.863  -3.314 -27.530  1.00  0.00     0.108 A 
HETATM    4  C9  UNL     1      10.041  -3.977 -28.409  1.00  0.00     0.116 A 
HETATM    5  C10 UNL     1       8.814  -3.426 -28.781  1.00  0.00     0.017 A 
HETATM    6  C11 UNL     1       7.997  -4.091 -29.661  1.00  0.00     0.032 A 
HETATM    7  C12 UNL     1       6.804  -3.549 -30.022  1.00  0.00     0.035 A 
HETATM    8  C21 UNL     1       6.402  -2.343 -29.517  1.00  0.00     0.116 A 
HETATM    9  C22 UNL     1       7.221  -1.683 -28.639  1.00  0.00     0.116 A 
HETATM   10  C23 UNL     1       8.439  -2.187 -28.242  1.00  0.00     0.040 A 
HETATM   11  O3  UNL     1       6.779  -0.477 -28.157  1.00  0.00    -0.345 OA
HETATM   12  C24 UNL     1       5.422  -0.138 -28.138  1.00  0.00     0.202 C 
HETATM   13  C25 UNL     1       4.698  -0.564 -29.390  1.00  0.00     0.202 C 
HETATM   14  O4  UNL     1       5.182  -1.791 -29.888  1.00  0.00    -0.345 OA
HETATM   15  O5  UNL     1      10.610  -5.175 -28.813  1.00  0.00    -0.322 OA
HETATM   16  C26 UNL     1      11.990  -5.070 -28.437  1.00  0.00     0.352 C 
HETATM   17  O6  UNL     1      11.997  -4.124 -27.370  1.00  0.00    -0.323 OA
ENDROOT
BRANCH   7  18
HETATM   18  C13 UNL     1       5.920  -4.255 -30.965  1.00  0.00     0.090 A 
HETATM   19  C14 UNL     1       4.797  -5.003 -30.621  1.00  0.00     0.052 A 
HETATM   20  C15 UNL     1       4.249  -5.496 -31.784  1.00  0.00     0.003 A 
HETATM   21  C16 UNL     1       3.159  -6.284 -32.102  1.00  0.00     0.056 A 
HETATM   22  C20 UNL     1       5.064  -5.026 -32.796  1.00  0.00     0.086 A 
HETATM   23  C17 UNL     1       2.843  -6.631 -33.408  1.00  0.00     0.117 A 
HETATM   24  F1  UNL     1       1.761  -7.406 -33.633  1.00  0.00    -0.206 F 
HETATM   25  C18 UNL     1       3.667  -6.152 -34.391  1.00  0.00     0.045 A 
HETATM   26  C19 UNL     1       4.757  -5.364 -34.089  1.00  0.00     0.041 A 
HETATM   27  O2  UNL     1       6.015  -4.313 -32.251  1.00  0.00    -0.309 OA
ENDBRANCH   7  18
BRANCH   1  28
HETATM   28  N1  UNL     1       8.924  -0.289 -26.807  1.00  0.00    -0.317 N 
HETATM   29  C1  UNL     1       9.310   0.954 -27.431  1.00  0.00     0.224 C 
HETATM   30  O1  UNL     1       9.880   0.990 -28.549  1.00  0.00    -0.273 OA
HETATM   31  C2  UNL     1       8.973   2.170 -26.627  1.00  0.00     0.103 C 
HETATM   32  C3  UNL     1       9.531   1.984 -25.211  1.00  0.00     0.011 C 
HETATM   33  C4  UNL     1       9.187   0.646 -24.628  1.00  0.00     0.021 C 
HETATM   34  C5  UNL     1       8.216  -0.134 -25.543  1.00  0.00     0.132 C 
ENDBRANCH   1  28
TORSDOF 2
ENDMDL
MODEL 5
REMARK VINA RESULT: -9.057425721      1.696      4.035
REMARK  2 active torsions:
REMARK  status: ('A' for Active; 'I' for Inactive)
REMARK    1  A    between atoms: N1_7  and  C6_8 
REMARK    2  A    between atoms: C12_14  and  C13_15 
ROOT
HETATM    1  C6  UNL     1       3.900  -2.491 -32.069  1.00  0.00     0.054 A 
HETATM    2  C7  UNL     1       3.538  -2.974 -33.341  1.00  0.00     0.070 A 
HETATM    3  C8  UNL     1       4.344  -3.876 -33.970  1.00  0.00     0.108 A 
HETATM    4  C9  UNL     1       5.503  -4.323 -33.383  1.00  0.00     0.116 A 
HETATM    5  C10 UNL     1       5.881  -3.858 -32.122  1.00  0.00     0.017 A 
HETATM    6  C11 UNL     1       7.039  -4.308 -31.539  1.00  0.00     0.032 A 
HETATM    7  C12 UNL     1       7.401  -3.854 -30.310  1.00  0.00     0.035 A 
HETATM    8  C21 UNL     1       6.625  -2.948 -29.643  1.00  0.00     0.116 A 
HETATM    9  C22 UNL     1       5.470  -2.501 -30.229  1.00  0.00     0.116 A 
HETATM   10  C23 UNL     1       5.056  -2.929 -31.470  1.00  0.00     0.040 A 
HETATM   11  O3  UNL     1       4.721  -1.592 -29.524  1.00  0.00    -0.345 OA
HETATM   12  C24 UNL     1       5.278  -0.789 -28.525  1.00  0.00     0.202 C 
HETATM   13  C25 UNL     1       6.255  -1.537 -27.653  1.00  0.00     0.202 C 
HETATM   14  O4  UNL     1       6.997  -2.485 -28.386  1.00  0.00    -0.345 OA
HETATM   15  O5  UNL     1       6.155  -5.231 -34.202  1.00  0.00    -0.322 OA
HETATM   16  C26 UNL     1       5.173  -5.620 -35.173  1.00  0.00     0.352 C 
HETATM   17  O6  UNL     1       4.258  -4.527 -35.209  1.00  0.00    -0.323 OA
ENDROOT
BRANCH   7  18
HETATM   18  C13 UNL     1       8.642  -4.331 -29.676  1.00  0.00     0.090 A 
HETATM   19  C14 UNL     1       9.878  -3.693 -29.730  1.00  0.00     0.052 A 
HETATM   20  C15 UNL     1      10.775  -4.455 -29.014  1.00  0.00     0.003 A 
HETATM   21  C16 UNL     1      12.118  -4.361 -28.703  1.00  0.00     0.056 A 
HETATM   22  C20 UNL     1      10.045  -5.532 -28.550  1.00  0.00     0.086 A 
HETATM   23  C17 UNL     1      12.776  -5.313 -27.936  1.00  0.00     0.117 A 
HETATM   24  F1  UNL     1      14.090  -5.148 -27.678  1.00  0.00    -0.206 F 
HETATM   25  C18 UNL     1      12.029  -6.371 -27.490  1.00  0.00     0.045 A 
HETATM   26  C19 UNL     1      10.688  -6.477 -27.792  1.00  0.00     0.041 A 
HETATM   27  O2  UNL     1       8.814  -5.398 -28.971  1.00  0.00    -0.309 OA
ENDBRANCH   7  18
BRANCH   1  28
HETATM   28  N1  UNL     1       3.050  -1.562 -31.439  1.00  0.00    -0.317 N 
HETATM   29  C1  UNL     1       1.852  -1.976 -30.749  1.00  0.00     0.224 C 
HETATM   30  O1  UNL     1       1.563  -3.187 -30.584  1.00  0.00    -0.273 OA
HETATM   31  C2  UNL     1       1.006  -0.843 -30.261  1.00  0.00     0.103 C 
HETATM   32  C3  UNL     1       0.751   0.109 -31.435  1.00  0.00     0.011 C 
HETATM   33  C4  UNL     1       2.004   0.448 -32.186  1.00  0.00     0.021 C 
HETATM   34  C5  UNL     1       3.255  -0.120 -31.477  1.00  0.00     0.132 C 
ENDBRANCH   1  28
TORSDOF 2
ENDMDL
