MODEL 1
REMARK VINA RESULT: -9.036134700      0.000      0.000
REMARK  3 active torsions:
REMARK  status: ('A' for Active; 'I' for Inactive)
REMARK    1  A    between atoms: C5_5  and  C6_6 
REMARK    2  A    between atoms: C12_16  and  S1_17 
REMARK    3  A    between atoms: S1_17  and  C13_18 
ROOT
HETATM    1  C6  UNL     1      10.162  -3.175 -29.041  1.00  0.00     0.337 C 
HETATM    2  O1  UNL     1       9.141  -2.906 -28.236  1.00  0.00    -0.199 OA
HETATM    3  O2  UNL     1       8.219  -2.020 -28.409  1.00  0.00    -0.197 OA
HETATM    4  C7  UNL     1       8.678  -0.813 -27.924  1.00  0.00     0.205 C 
HETATM    5  C8  UNL     1       9.405  -1.188 -26.682  1.00  0.00     0.083 C 
HETATM    6  O3  UNL     1       8.006   0.280 -27.632  1.00  0.00    -0.323 OA
HETATM    7  C9  UNL     1       8.616   1.437 -28.009  1.00  0.00     0.173 C 
HETATM    8  C10 UNL     1       7.562   2.441 -28.278  1.00  0.00     0.102 C 
HETATM    9  N1  UNL     1       6.741   3.224 -28.507  1.00  0.00    -0.194 NA
HETATM   10  C11 UNL     1       9.697   2.033 -27.232  1.00  0.00     0.049 C 
HETATM   11  C12 UNL     1      11.041   1.981 -27.096  1.00  0.00     0.056 C 
HETATM   12  C19 UNL     1      12.029   1.052 -27.723  1.00  0.00     0.191 C 
HETATM   13  O4  UNL     1      13.155   1.522 -27.770  1.00  0.00    -0.287 OA
HETATM   14  C20 UNL     1      11.862  -0.304 -28.275  1.00  0.00     0.089 C 
HETATM   15  C21 UNL     1      10.823  -0.829 -28.830  1.00  0.00     0.063 C 
HETATM   16  O5  UNL     1      11.199  -2.117 -29.152  1.00  0.00    -0.317 OA
HETATM   17  C22 UNL     1       9.449  -0.336 -29.139  1.00  0.00     0.112 C 
HETATM   18  C23 UNL     1       9.260   1.089 -29.362  1.00  0.00     0.075 C 
ENDROOT
BRANCH  11  19
HETATM   19  S1  UNL     1      11.687   3.047 -25.907  1.00  0.00    -0.087 SA
BRANCH  19  20
HETATM   20  C13 UNL     1      10.939   2.872 -24.311  1.00  0.00     0.005 A 
HETATM   21  C14 UNL     1      10.357   1.731 -23.807  1.00  0.00     0.019 A 
HETATM   22  C15 UNL     1       9.807   1.629 -22.539  1.00  0.00     0.001 A 
HETATM   23  C16 UNL     1       9.834   2.727 -21.724  1.00  0.00     0.000 A 
HETATM   24  C17 UNL     1      10.399   3.903 -22.164  1.00  0.00     0.001 A 
HETATM   25  C18 UNL     1      10.930   3.960 -23.418  1.00  0.00     0.019 A 
ENDBRANCH  19  20
ENDBRANCH  11  19
BRANCH   1  26
HETATM   26  C5  UNL     1      10.840  -4.412 -28.660  1.00  0.00    -0.001 A 
HETATM   27  C4  UNL     1      10.114  -5.599 -28.602  1.00  0.00     0.013 A 
HETATM   28  C3  UNL     1      10.686  -6.796 -28.250  1.00  0.00     0.007 A 
HETATM   29  C2  UNL     1      12.025  -6.853 -27.938  1.00  0.00    -0.062 A 
HETATM   30  C1  UNL     1      12.648  -8.144 -27.556  1.00  0.00     0.048 C 
HETATM   31  C25 UNL     1      12.750  -5.687 -27.991  1.00  0.00     0.007 A 
HETATM   32  C24 UNL     1      12.166  -4.487 -28.346  1.00  0.00     0.013 A 
ENDBRANCH   1  26
TORSDOF 3
ENDMDL
MODEL 2
REMARK VINA RESULT: -9.011495410      0.163      1.186
REMARK  3 active torsions:
REMARK  status: ('A' for Active; 'I' for Inactive)
REMARK    1  A    between atoms: C5_5  and  C6_6 
REMARK    2  A    between atoms: C12_16  and  S1_17 
REMARK    3  A    between atoms: S1_17  and  C13_18 
ROOT
HETATM    1  C6  UNL     1       9.966  -3.128 -29.063  1.00  0.00     0.337 C 
HETATM    2  O1  UNL     1       8.956  -2.825 -28.255  1.00  0.00    -0.199 OA
HETATM    3  O2  UNL     1       8.070  -1.901 -28.421  1.00  0.00    -0.197 OA
HETATM    4  C7  UNL     1       8.578  -0.718 -27.926  1.00  0.00     0.205 C 
HETATM    5  C8  UNL     1       9.288  -1.132 -26.687  1.00  0.00     0.083 C 
HETATM    6  O3  UNL     1       7.949   0.399 -27.625  1.00  0.00    -0.323 OA
HETATM    7  C9  UNL     1       8.606   1.533 -27.992  1.00  0.00     0.173 C 
HETATM    8  C10 UNL     1       7.593   2.581 -28.253  1.00  0.00     0.102 C 
HETATM    9  N1  UNL     1       6.804   3.399 -28.475  1.00  0.00    -0.194 NA
HETATM   10  C11 UNL     1       9.709   2.079 -27.211  1.00  0.00     0.049 C 
HETATM   11  C12 UNL     1      11.050   1.972 -27.075  1.00  0.00     0.056 C 
HETATM   12  C19 UNL     1      12.000   1.010 -27.710  1.00  0.00     0.191 C 
HETATM   13  O4  UNL     1      13.145   1.435 -27.754  1.00  0.00    -0.287 OA
HETATM   14  C20 UNL     1      11.779  -0.334 -28.273  1.00  0.00     0.089 C 
HETATM   15  C21 UNL     1      10.721  -0.812 -28.833  1.00  0.00     0.063 C 
HETATM   16  O5  UNL     1      11.045  -2.112 -29.165  1.00  0.00    -0.317 OA
HETATM   17  C22 UNL     1       9.367  -0.262 -29.137  1.00  0.00     0.112 C 
HETATM   18  C23 UNL     1       9.235   1.171 -29.348  1.00  0.00     0.075 C 
ENDROOT
BRANCH  11  19
HETATM   19  S1  UNL     1      11.739   3.002 -25.878  1.00  0.00    -0.087 SA
BRANCH  19  20
HETATM   20  C13 UNL     1      10.974   2.855 -24.287  1.00  0.00     0.005 A 
HETATM   21  C14 UNL     1      10.869   3.849 -23.340  1.00  0.00     0.019 A 
HETATM   22  C15 UNL     1      10.235   3.699 -22.117  1.00  0.00     0.001 A 
HETATM   23  C16 UNL     1       9.674   2.490 -21.814  1.00  0.00     0.000 A 
HETATM   24  C17 UNL     1       9.742   1.450 -22.714  1.00  0.00     0.001 A 
HETATM   25  C18 UNL     1      10.373   1.640 -23.906  1.00  0.00     0.019 A 
ENDBRANCH  19  20
ENDBRANCH  11  19
BRANCH   1  26
HETATM   26  C5  UNL     1      10.594  -4.394 -28.692  1.00  0.00    -0.001 A 
HETATM   27  C4  UNL     1      11.968  -4.435 -28.464  1.00  0.00     0.013 A 
HETATM   28  C3  UNL     1      12.622  -5.589 -28.114  1.00  0.00     0.007 A 
HETATM   29  C2  UNL     1      11.919  -6.764 -27.975  1.00  0.00    -0.062 A 
HETATM   30  C1  UNL     1      12.622  -8.013 -27.597  1.00  0.00     0.048 C 
HETATM   31  C25 UNL     1      10.563  -6.734 -28.198  1.00  0.00     0.007 A 
HETATM   32  C24 UNL     1       9.913  -5.568 -28.551  1.00  0.00     0.013 A 
ENDBRANCH   1  26
TORSDOF 3
ENDMDL
MODEL 3
REMARK VINA RESULT: -8.722585319      2.418      2.885
REMARK  3 active torsions:
REMARK  status: ('A' for Active; 'I' for Inactive)
REMARK    1  A    between atoms: C5_5  and  C6_6 
REMARK    2  A    between atoms: C12_16  and  S1_17 
REMARK    3  A    between atoms: S1_17  and  C13_18 
ROOT
HETATM    1  C6  UNL     1      10.391  -3.349 -29.049  1.00  0.00     0.337 C 
HETATM    2  O1  UNL     1       9.068  -3.424 -28.971  1.00  0.00    -0.199 OA
HETATM    3  O2  UNL     1       8.207  -2.584 -29.439  1.00  0.00    -0.197 OA
HETATM    4  C7  UNL     1       8.020  -1.586 -28.505  1.00  0.00     0.205 C 
HETATM    5  C8  UNL     1       8.019  -2.315 -27.209  1.00  0.00     0.083 C 
HETATM    6  O3  UNL     1       7.056  -0.694 -28.417  1.00  0.00    -0.323 OA
HETATM    7  C9  UNL     1       7.472   0.554 -28.068  1.00  0.00     0.173 C 
HETATM    8  C10 UNL     1       6.529   1.530 -28.659  1.00  0.00     0.102 C 
HETATM    9  N1  UNL     1       5.804   2.298 -29.134  1.00  0.00    -0.194 NA
HETATM   10  C11 UNL     1       7.774   0.914 -26.688  1.00  0.00     0.049 C 
HETATM   11  C12 UNL     1       8.792   0.895 -25.798  1.00  0.00     0.056 C 
HETATM   12  C19 UNL     1      10.152   0.287 -25.918  1.00  0.00     0.191 C 
HETATM   13  O4  UNL     1      10.969   0.807 -25.174  1.00  0.00    -0.287 OA
HETATM   14  C20 UNL     1      10.645  -0.813 -26.766  1.00  0.00     0.089 C 
HETATM   15  C21 UNL     1      10.240  -1.177 -27.934  1.00  0.00     0.063 C 
HETATM   16  O5  UNL     1      11.029  -2.260 -28.267  1.00  0.00    -0.317 OA
HETATM   17  C22 UNL     1       9.185  -0.687 -28.867  1.00  0.00     0.112 C 
HETATM   18  C23 UNL     1       8.809   0.717 -28.810  1.00  0.00     0.075 C 
ENDROOT
BRANCH  11  19
HETATM   19  S1  UNL     1       8.407   1.534 -24.246  1.00  0.00    -0.087 SA
BRANCH  19  20
HETATM   20  C13 UNL     1       6.843   0.988 -23.619  1.00  0.00     0.005 A 
HETATM   21  C14 UNL     1       5.811   1.795 -23.196  1.00  0.00     0.019 A 
HETATM   22  C15 UNL     1       4.590   1.326 -22.738  1.00  0.00     0.001 A 
HETATM   23  C16 UNL     1       4.383  -0.025 -22.695  1.00  0.00     0.000 A 
HETATM   24  C17 UNL     1       5.373  -0.891 -23.101  1.00  0.00     0.001 A 
HETATM   25  C18 UNL     1       6.558  -0.388 -23.546  1.00  0.00     0.019 A 
ENDBRANCH  19  20
ENDBRANCH  11  19
BRANCH   1  26
HETATM   26  C5  UNL     1      11.027  -4.603 -28.650  1.00  0.00    -0.001 A 
HETATM   27  C4  UNL     1      10.287  -5.783 -28.676  1.00  0.00     0.013 A 
HETATM   28  C3  UNL     1      10.821  -6.994 -28.313  1.00  0.00     0.007 A 
HETATM   29  C2  UNL     1      12.133  -7.074 -27.905  1.00  0.00    -0.062 A 
HETATM   30  C1  UNL     1      12.713  -8.381 -27.511  1.00  0.00     0.048 C 
HETATM   31  C25 UNL     1      12.870  -5.915 -27.875  1.00  0.00     0.007 A 
HETATM   32  C24 UNL     1      12.326  -4.701 -28.242  1.00  0.00     0.013 A 
ENDBRANCH   1  26
TORSDOF 3
ENDMDL
MODEL 4
REMARK VINA RESULT: -8.575771823      3.165      5.972
REMARK  3 active torsions:
REMARK  status: ('A' for Active; 'I' for Inactive)
REMARK    1  A    between atoms: C5_5  and  C6_6 
REMARK    2  A    between atoms: C12_16  and  S1_17 
REMARK    3  A    between atoms: S1_17  and  C13_18 
ROOT
HETATM    1  C6  UNL     1      11.542  -3.796 -27.648  1.00  0.00     0.337 C 
HETATM    2  O1  UNL     1      11.763  -3.079 -28.744  1.00  0.00    -0.199 OA
HETATM    3  O2  UNL     1      11.889  -1.797 -28.829  1.00  0.00    -0.197 OA
HETATM    4  C7  UNL     1      10.632  -1.242 -28.942  1.00  0.00     0.205 C 
HETATM    5  C8  UNL     1       9.915  -2.180 -29.846  1.00  0.00     0.083 C 
HETATM    6  O3  UNL     1      10.285  -0.033 -29.330  1.00  0.00    -0.323 OA
HETATM    7  C9  UNL     1       9.278   0.526 -28.605  1.00  0.00     0.173 C 
HETATM    8  C10 UNL     1       9.456   1.996 -28.637  1.00  0.00     0.102 C 
HETATM    9  N1  UNL     1       9.600   3.145 -28.645  1.00  0.00    -0.194 NA
HETATM   10  C11 UNL     1       7.879   0.180 -28.823  1.00  0.00     0.049 C 
HETATM   11  C12 UNL     1       6.951  -0.724 -28.437  1.00  0.00     0.056 C 
HETATM   12  C19 UNL     1       7.105  -1.952 -27.600  1.00  0.00     0.191 C 
HETATM   13  O4  UNL     1       6.062  -2.293 -27.064  1.00  0.00    -0.287 OA
HETATM   14  C20 UNL     1       8.284  -2.794 -27.332  1.00  0.00     0.089 C 
HETATM   15  C21 UNL     1       9.527  -2.455 -27.290  1.00  0.00     0.063 C 
HETATM   16  O5  UNL     1      10.210  -3.622 -27.014  1.00  0.00    -0.317 OA
HETATM   17  C22 UNL     1      10.260  -1.169 -27.475  1.00  0.00     0.112 C 
HETATM   18  C23 UNL     1       9.568   0.072 -27.164  1.00  0.00     0.075 C 
ENDROOT
BRANCH  11  19
HETATM   19  S1  UNL     1       5.394  -0.505 -29.140  1.00  0.00    -0.087 SA
BRANCH  19  20
HETATM   20  C13 UNL     1       4.939  -1.785 -30.277  1.00  0.00     0.005 A 
HETATM   21  C14 UNL     1       5.684  -2.900 -30.585  1.00  0.00     0.019 A 
HETATM   22  C15 UNL     1       5.277  -3.894 -31.461  1.00  0.00     0.001 A 
HETATM   23  C16 UNL     1       4.058  -3.772 -32.068  1.00  0.00     0.000 A 
HETATM   24  C17 UNL     1       3.260  -2.680 -31.808  1.00  0.00     0.001 A 
HETATM   25  C18 UNL     1       3.698  -1.727 -30.938  1.00  0.00     0.019 A 
ENDBRANCH  19  20
ENDBRANCH  11  19
BRANCH   1  26
HETATM   26  C5  UNL     1      11.725  -5.225 -27.893  1.00  0.00    -0.001 A 
HETATM   27  C4  UNL     1      10.641  -5.990 -28.317  1.00  0.00     0.013 A 
HETATM   28  C3  UNL     1      10.742  -7.337 -28.564  1.00  0.00     0.007 A 
HETATM   29  C2  UNL     1      11.947  -7.980 -28.394  1.00  0.00    -0.062 A 
HETATM   30  C1  UNL     1      12.060  -9.434 -28.659  1.00  0.00     0.048 C 
HETATM   31  C25 UNL     1      13.021  -7.233 -27.975  1.00  0.00     0.007 A 
HETATM   32  C24 UNL     1      12.911  -5.879 -27.729  1.00  0.00     0.013 A 
ENDBRANCH   1  26
TORSDOF 3
ENDMDL
MODEL 5
REMARK VINA RESULT: -8.554284372      2.836      4.632
REMARK  3 active torsions:
REMARK  status: ('A' for Active; 'I' for Inactive)
REMARK    1  A    between atoms: C5_5  and  C6_6 
REMARK    2  A    between atoms: C12_16  and  S1_17 
REMARK    3  A    between atoms: S1_17  and  C13_18 
ROOT
HETATM    1  C6  UNL     1      11.555  -4.630 -27.500  1.00  0.00     0.337 C 
HETATM    2  O1  UNL     1      12.231  -3.885 -28.367  1.00  0.00    -0.199 OA
HETATM    3  O2  UNL     1      12.748  -2.720 -28.162  1.00  0.00    -0.197 OA
HETATM    4  C7  UNL     1      11.776  -1.768 -28.386  1.00  0.00     0.205 C 
HETATM    5  C8  UNL     1      11.050  -2.281 -29.577  1.00  0.00     0.083 C 
HETATM    6  O3  UNL     1      11.905  -0.471 -28.574  1.00  0.00    -0.323 OA
HETATM    7  C9  UNL     1      10.966   0.287 -27.945  1.00  0.00     0.173 C 
HETATM    8  C10 UNL     1      11.573   1.604 -27.642  1.00  0.00     0.102 C 
HETATM    9  N1  UNL     1      12.048   2.629 -27.388  1.00  0.00    -0.194 NA
HETATM   10  C11 UNL     1       9.622   0.460 -28.480  1.00  0.00     0.049 C 
HETATM   11  C12 UNL     1       8.403  -0.126 -28.462  1.00  0.00     0.056 C 
HETATM   12  C19 UNL     1       7.984  -1.438 -27.882  1.00  0.00     0.191 C 
HETATM   13  O4  UNL     1       6.790  -1.481 -27.625  1.00  0.00    -0.287 OA
HETATM   14  C20 UNL     1       8.762  -2.652 -27.582  1.00  0.00     0.089 C 
HETATM   15  C21 UNL     1      10.002  -2.756 -27.246  1.00  0.00     0.063 C 
HETATM   16  O5  UNL     1      10.223  -4.110 -27.097  1.00  0.00    -0.317 OA
HETATM   17  C22 UNL     1      11.105  -1.775 -27.027  1.00  0.00     0.112 C 
HETATM   18  C23 UNL     1      10.757  -0.429 -26.600  1.00  0.00     0.075 C 
ENDROOT
BRANCH  11  19
HETATM   19  S1  UNL     1       7.194   0.693 -29.376  1.00  0.00    -0.087 SA
BRANCH  19  20
HETATM   20  C13 UNL     1       7.498   2.427 -29.566  1.00  0.00     0.005 A 
HETATM   21  C14 UNL     1       8.000   3.046 -30.688  1.00  0.00     0.019 A 
HETATM   22  C15 UNL     1       8.195   4.414 -30.804  1.00  0.00     0.001 A 
HETATM   23  C16 UNL     1       7.875   5.213 -29.742  1.00  0.00     0.000 A 
HETATM   24  C17 UNL     1       7.370   4.661 -28.587  1.00  0.00     0.001 A 
HETATM   25  C18 UNL     1       7.192   3.312 -28.515  1.00  0.00     0.019 A 
ENDBRANCH  19  20
ENDBRANCH  11  19
BRANCH   1  26
HETATM   26  C5  UNL     1      11.359  -5.991 -27.995  1.00  0.00    -0.001 A 
HETATM   27  C4  UNL     1      10.183  -6.311 -28.670  1.00  0.00     0.013 A 
HETATM   28  C3  UNL     1       9.935  -7.568 -29.160  1.00  0.00     0.007 A 
HETATM   29  C2  UNL     1      10.864  -8.569 -28.992  1.00  0.00    -0.062 A 
HETATM   30  C1  UNL     1      10.599  -9.929 -29.519  1.00  0.00     0.048 C 
HETATM   31  C25 UNL     1      12.026  -8.263 -28.326  1.00  0.00     0.007 A 
HETATM   32  C24 UNL     1      12.269  -6.995 -27.837  1.00  0.00     0.013 A 
ENDBRANCH   1  26
TORSDOF 3
ENDMDL
