MODEL 1
REMARK VINA RESULT: -7.413790015      0.000      0.000
REMARK  5 active torsions:
REMARK  status: ('A' for Active; 'I' for Inactive)
REMARK    1  A    between atoms: C7_8  and  C8_9 
REMARK    2  A    between atoms: C8_9  and  S1_10 
REMARK    3  A    between atoms: S1_10  and  C9_12 
REMARK    4  A    between atoms: C9_12  and  C10_13 
REMARK       I    between atoms: C10_13  and  N2_15 
REMARK    5  A    between atoms: N2_15  and  C11_17 
ROOT
HETATM    1  C9  UNL     1      23.437  31.406  43.924  1.00  0.00     0.211 C 
ENDROOT
BRANCH   1   2
HETATM    2  S1  UNL     1      24.716  32.416  43.216  1.00  0.00     0.029 S 
HETATM    3  O1  UNL     1      24.153  33.350  41.963  1.00  0.00    -0.257 OA
BRANCH   2   4
HETATM    4  C8  UNL     1      25.439  33.356  44.518  1.00  0.00     0.174 C 
BRANCH   4   5
HETATM    5  C7  UNL     1      24.890  34.738  44.641  1.00  0.00     0.123 C 
HETATM    6  N1  UNL     1      25.571  35.931  44.299  1.00  0.00    -0.030 N 
HETATM    7  C1  UNL     1      27.016  35.744  44.468  1.00  0.00     0.280 C 
HETATM    8  C2  UNL     1      25.369  36.329  42.926  1.00  0.00     0.245 C 
HETATM    9  C21 UNL     1      25.046  36.908  45.228  1.00  0.00     0.274 C 
HETATM   10  C3  UNL     1      23.950  36.652  42.596  1.00  0.00     0.029 C 
HETATM   11  C4  UNL     1      23.133  37.123  43.759  1.00  0.00     0.013 C 
HETATM   12  C5  UNL     1      23.551  36.572  45.071  1.00  0.00     0.052 C 
HETATM   13  C6  UNL     1      23.692  35.080  45.099  1.00  0.00     0.015 C 
HETATM   14 BR1  UNL     1      25.448  38.672  44.624  1.00  0.00    -0.059 Br
ENDBRANCH   4   5
ENDBRANCH   2   4
ENDBRANCH   1   2
BRANCH   1  15
HETATM   15  C10 UNL     1      22.205  32.191  44.197  1.00  0.00     0.229 C 
HETATM   16  O2  UNL     1      21.651  32.181  45.323  1.00  0.00    -0.273 OA
HETATM   17  N2  UNL     1      21.656  32.963  43.148  1.00  0.00    -0.351 N 
ATOM     18  H2  UNL     1      22.139  32.941  42.250  1.00  0.00     0.163 HD
BRANCH  17  19
HETATM   19  C11 UNL     1      20.468  33.782  43.239  1.00  0.00     0.034 C 
HETATM   20  C12 UNL     1      19.236  32.951  42.929  1.00  0.00     0.035 C 
HETATM   21  C13 UNL     1      18.014  33.807  42.948  1.00  0.00    -0.012 C 
HETATM   22  C14 UNL     1      17.859  34.429  44.305  1.00  0.00     0.009 C 
HETATM   23  C18 UNL     1      18.123  34.830  41.846  1.00  0.00     0.009 C 
HETATM   24  C15 UNL     1      19.056  35.280  44.585  1.00  0.00    -0.012 C 
HETATM   25  C16 UNL     1      19.125  36.360  43.542  1.00  0.00     0.009 C 
HETATM   26  C20 UNL     1      20.288  34.397  44.587  1.00  0.00     0.035 C 
HETATM   27  C17 UNL     1      19.291  35.717  42.179  1.00  0.00    -0.012 C 
HETATM   28  C19 UNL     1      20.541  34.859  42.195  1.00  0.00     0.035 C 
ENDBRANCH  17  19
ENDBRANCH   1  15
TORSDOF 5
ENDMDL
MODEL 2
REMARK VINA RESULT: -7.383934237      2.299      3.380
REMARK  5 active torsions:
REMARK  status: ('A' for Active; 'I' for Inactive)
REMARK    1  A    between atoms: C7_8  and  C8_9 
REMARK    2  A    between atoms: C8_9  and  S1_10 
REMARK    3  A    between atoms: S1_10  and  C9_12 
REMARK    4  A    between atoms: C9_12  and  C10_13 
REMARK       I    between atoms: C10_13  and  N2_15 
REMARK    5  A    between atoms: N2_15  and  C11_17 
ROOT
HETATM    1  C9  UNL     1      22.181  35.526  40.658  1.00  0.00     0.211 C 
ENDROOT
BRANCH   1   2
HETATM    2  S1  UNL     1      21.944  37.286  40.621  1.00  0.00     0.029 S 
HETATM    3  O1  UNL     1      20.582  37.751  41.451  1.00  0.00    -0.257 OA
BRANCH   2   4
HETATM    4  C8  UNL     1      23.419  38.038  41.221  1.00  0.00     0.174 C 
BRANCH   4   5
HETATM    5  C7  UNL     1      23.904  37.468  42.512  1.00  0.00     0.123 C 
HETATM    6  N1  UNL     1      25.171  36.873  42.729  1.00  0.00    -0.030 N 
HETATM    7  C1  UNL     1      25.657  36.273  41.483  1.00  0.00     0.280 C 
HETATM    8  C2  UNL     1      26.179  37.817  43.149  1.00  0.00     0.245 C 
HETATM    9  C21 UNL     1      24.913  35.872  43.741  1.00  0.00     0.274 C 
HETATM   10  C3  UNL     1      25.888  38.465  44.461  1.00  0.00     0.029 C 
HETATM   11  C4  UNL     1      25.037  37.649  45.382  1.00  0.00     0.013 C 
HETATM   12  C5  UNL     1      24.080  36.744  44.699  1.00  0.00     0.052 C 
HETATM   13  C6  UNL     1      23.234  37.410  43.657  1.00  0.00     0.015 C 
HETATM   14 BR1  UNL     1      26.552  35.304  44.536  1.00  0.00    -0.059 Br
ENDBRANCH   4   5
ENDBRANCH   2   4
ENDBRANCH   1   2
BRANCH   1  15
HETATM   15  C10 UNL     1      21.424  34.893  41.769  1.00  0.00     0.229 C 
HETATM   16  O2  UNL     1      22.002  34.273  42.694  1.00  0.00    -0.273 OA
HETATM   17  N2  UNL     1      20.014  35.001  41.766  1.00  0.00    -0.351 N 
ATOM     18  H2  UNL     1      19.587  35.514  40.994  1.00  0.00     0.163 HD
BRANCH  17  19
HETATM   19  C11 UNL     1      19.126  34.448  42.764  1.00  0.00     0.034 C 
HETATM   20  C12 UNL     1      17.680  34.661  42.352  1.00  0.00     0.035 C 
HETATM   21  C13 UNL     1      16.759  34.161  43.413  1.00  0.00    -0.012 C 
HETATM   22  C14 UNL     1      16.996  32.695  43.631  1.00  0.00     0.009 C 
HETATM   23  C18 UNL     1      16.969  34.979  44.661  1.00  0.00     0.009 C 
HETATM   24  C15 UNL     1      18.410  32.497  44.079  1.00  0.00    -0.012 C 
HETATM   25  C16 UNL     1      18.606  33.237  45.372  1.00  0.00     0.009 C 
HETATM   26  C20 UNL     1      19.337  32.987  42.984  1.00  0.00     0.035 C 
HETATM   27  C17 UNL     1      18.372  34.715  45.133  1.00  0.00    -0.012 C 
HETATM   28  C19 UNL     1      19.325  35.190  44.053  1.00  0.00     0.035 C 
ENDBRANCH  17  19
ENDBRANCH   1  15
TORSDOF 5
ENDMDL
MODEL 3
REMARK VINA RESULT: -7.376508216      0.079      1.414
REMARK  5 active torsions:
REMARK  status: ('A' for Active; 'I' for Inactive)
REMARK    1  A    between atoms: C7_8  and  C8_9 
REMARK    2  A    between atoms: C8_9  and  S1_10 
REMARK    3  A    between atoms: S1_10  and  C9_12 
REMARK    4  A    between atoms: C9_12  and  C10_13 
REMARK       I    between atoms: C10_13  and  N2_15 
REMARK    5  A    between atoms: N2_15  and  C11_17 
ROOT
HETATM    1  C9  UNL     1      23.396  31.396  43.988  1.00  0.00     0.211 C 
ENDROOT
BRANCH   1   2
HETATM    2  S1  UNL     1      24.682  32.394  43.278  1.00  0.00     0.029 S 
HETATM    3  O1  UNL     1      24.133  33.309  42.005  1.00  0.00    -0.257 OA
BRANCH   2   4
HETATM    4  C8  UNL     1      25.391  33.355  44.573  1.00  0.00     0.174 C 
BRANCH   4   5
HETATM    5  C7  UNL     1      24.848  34.742  44.662  1.00  0.00     0.123 C 
HETATM    6  N1  UNL     1      25.548  35.927  44.328  1.00  0.00    -0.030 N 
HETATM    7  C1  UNL     1      26.985  35.732  44.547  1.00  0.00     0.280 C 
HETATM    8  C2  UNL     1      25.393  36.309  42.945  1.00  0.00     0.245 C 
HETATM    9  C21 UNL     1      25.000  36.918  45.228  1.00  0.00     0.274 C 
HETATM   10  C3  UNL     1      23.989  36.637  42.565  1.00  0.00     0.029 C 
HETATM   11  C4  UNL     1      23.137  37.127  43.694  1.00  0.00     0.013 C 
HETATM   12  C5  UNL     1      23.508  36.589  45.025  1.00  0.00     0.052 C 
HETATM   13  C6  UNL     1      23.638  35.098  45.076  1.00  0.00     0.015 C 
HETATM   14 BR1  UNL     1      25.433  38.672  44.616  1.00  0.00    -0.059 Br
ENDBRANCH   4   5
ENDBRANCH   2   4
ENDBRANCH   1   2
BRANCH   1  15
HETATM   15  C10 UNL     1      22.152  32.178  44.209  1.00  0.00     0.229 C 
HETATM   16  O2  UNL     1      21.582  32.213  45.327  1.00  0.00    -0.273 OA
HETATM   17  N2  UNL     1      21.609  32.896  43.119  1.00  0.00    -0.351 N 
ATOM     18  H2  UNL     1      22.105  32.839  42.229  1.00  0.00     0.163 HD
BRANCH  17  19
HETATM   19  C11 UNL     1      20.411  33.705  43.157  1.00  0.00     0.034 C 
HETATM   20  C12 UNL     1      20.507  34.828  42.140  1.00  0.00     0.035 C 
HETATM   21  C13 UNL     1      19.307  35.711  42.228  1.00  0.00    -0.012 C 
HETATM   22  C14 UNL     1      18.071  34.905  41.954  1.00  0.00     0.009 C 
HETATM   23  C18 UNL     1      19.288  36.368  43.584  1.00  0.00     0.009 C 
HETATM   24  C15 UNL     1      17.961  33.827  42.986  1.00  0.00    -0.012 C 
HETATM   25  C16 UNL     1      17.851  34.475  44.338  1.00  0.00     0.009 C 
HETATM   26  C20 UNL     1      19.172  32.923  42.873  1.00  0.00     0.035 C 
HETATM   27  C17 UNL     1      19.110  35.277  44.603  1.00  0.00    -0.012 C 
HETATM   28  C19 UNL     1      20.306  34.350  44.509  1.00  0.00     0.035 C 
ENDBRANCH  17  19
ENDBRANCH   1  15
TORSDOF 5
ENDMDL
MODEL 4
REMARK VINA RESULT: -7.300462736      2.616      5.723
REMARK  5 active torsions:
REMARK  status: ('A' for Active; 'I' for Inactive)
REMARK    1  A    between atoms: C7_8  and  C8_9 
REMARK    2  A    between atoms: C8_9  and  S1_10 
REMARK    3  A    between atoms: S1_10  and  C9_12 
REMARK    4  A    between atoms: C9_12  and  C10_13 
REMARK       I    between atoms: C10_13  and  N2_15 
REMARK    5  A    between atoms: N2_15  and  C11_17 
ROOT
HETATM    1  C9  UNL     1      24.038  32.111  43.343  1.00  0.00     0.211 C 
ENDROOT
BRANCH   1   2
HETATM    2  S1  UNL     1      22.703  31.599  44.397  1.00  0.00     0.029 S 
HETATM    3  O1  UNL     1      23.240  30.734  45.709  1.00  0.00    -0.257 OA
BRANCH   2   4
HETATM    4  C8  UNL     1      21.786  33.038  44.836  1.00  0.00     0.174 C 
BRANCH   4   5
HETATM    5  C7  UNL     1      20.446  33.121  44.186  1.00  0.00     0.123 C 
HETATM    6  N1  UNL     1      19.304  33.762  44.723  1.00  0.00    -0.030 N 
HETATM    7  C1  UNL     1      19.360  33.728  46.188  1.00  0.00     0.280 C 
HETATM    8  C2  UNL     1      19.203  35.153  44.350  1.00  0.00     0.245 C 
HETATM    9  C21 UNL     1      18.197  32.984  44.212  1.00  0.00     0.274 C 
HETATM   10  C3  UNL     1      19.046  35.373  42.883  1.00  0.00     0.029 C 
HETATM   11  C4  UNL     1      18.406  34.236  42.149  1.00  0.00     0.013 C 
HETATM   12  C5  UNL     1      18.654  32.900  42.744  1.00  0.00     0.052 C 
HETATM   13  C6  UNL     1      20.097  32.601  43.014  1.00  0.00     0.015 C 
HETATM   14 BR1  UNL     1      16.567  33.958  44.397  1.00  0.00    -0.059 Br
ENDBRANCH   4   5
ENDBRANCH   2   4
ENDBRANCH   1   2
BRANCH   1  15
HETATM   15  C10 UNL     1      24.212  33.586  43.353  1.00  0.00     0.229 C 
HETATM   16  O2  UNL     1      24.760  34.181  44.313  1.00  0.00    -0.273 OA
HETATM   17  N2  UNL     1      23.741  34.324  42.243  1.00  0.00    -0.351 N 
ATOM     18  H2  UNL     1      23.302  33.800  41.486  1.00  0.00     0.163 HD
BRANCH  17  19
HETATM   19  C11 UNL     1      23.829  35.759  42.088  1.00  0.00     0.034 C 
HETATM   20  C12 UNL     1      23.492  36.153  40.661  1.00  0.00     0.035 C 
HETATM   21  C13 UNL     1      23.655  37.624  40.476  1.00  0.00    -0.012 C 
HETATM   22  C14 UNL     1      22.737  38.351  41.415  1.00  0.00     0.009 C 
HETATM   23  C18 UNL     1      25.104  37.981  40.683  1.00  0.00     0.009 C 
HETATM   24  C15 UNL     1      23.102  37.992  42.821  1.00  0.00    -0.012 C 
HETATM   25  C16 UNL     1      24.521  38.425  43.067  1.00  0.00     0.009 C 
HETATM   26  C20 UNL     1      22.912  36.500  43.004  1.00  0.00     0.035 C 
HETATM   27  C17 UNL     1      25.435  37.675  42.118  1.00  0.00    -0.012 C 
HETATM   28  C19 UNL     1      25.247  36.187  42.335  1.00  0.00     0.035 C 
ENDBRANCH  17  19
ENDBRANCH   1  15
TORSDOF 5
ENDMDL
MODEL 5
REMARK VINA RESULT: -7.282147374      2.104      5.864
REMARK  5 active torsions:
REMARK  status: ('A' for Active; 'I' for Inactive)
REMARK    1  A    between atoms: C7_8  and  C8_9 
REMARK    2  A    between atoms: C8_9  and  S1_10 
REMARK    3  A    between atoms: S1_10  and  C9_12 
REMARK    4  A    between atoms: C9_12  and  C10_13 
REMARK       I    between atoms: C10_13  and  N2_15 
REMARK    5  A    between atoms: N2_15  and  C11_17 
ROOT
HETATM    1  C9  UNL     1      24.581  32.145  44.620  1.00  0.00     0.211 C 
ENDROOT
BRANCH   1   2
HETATM    2  S1  UNL     1      22.953  32.315  45.310  1.00  0.00     0.029 S 
HETATM    3  O1  UNL     1      22.793  33.709  46.198  1.00  0.00    -0.257 OA
BRANCH   2   4
HETATM    4  C8  UNL     1      21.795  32.192  43.988  1.00  0.00     0.174 C 
BRANCH   4   5
HETATM    5  C7  UNL     1      21.343  33.512  43.458  1.00  0.00     0.123 C 
HETATM    6  N1  UNL     1      20.096  34.127  43.725  1.00  0.00    -0.030 N 
HETATM    7  C1  UNL     1      19.081  33.100  43.978  1.00  0.00     0.280 C 
HETATM    8  C2  UNL     1      20.118  34.977  44.891  1.00  0.00     0.245 C 
HETATM    9  C21 UNL     1      19.813  34.873  42.518  1.00  0.00     0.274 C 
HETATM   10  C3  UNL     1      21.042  36.141  44.771  1.00  0.00     0.029 C 
HETATM   11  C4  UNL     1      21.283  36.601  43.367  1.00  0.00     0.013 C 
HETATM   12  C5  UNL     1      21.195  35.531  42.343  1.00  0.00     0.052 C 
HETATM   13  C6  UNL     1      22.019  34.317  42.645  1.00  0.00     0.015 C 
HETATM   14 BR1  UNL     1      18.447  36.163  42.848  1.00  0.00    -0.059 Br
ENDBRANCH   4   5
ENDBRANCH   2   4
ENDBRANCH   1   2
BRANCH   1  15
HETATM   15  C10 UNL     1      25.058  33.416  44.015  1.00  0.00     0.229 C 
HETATM   16  O2  UNL     1      25.526  33.460  42.852  1.00  0.00    -0.273 OA
HETATM   17  N2  UNL     1      24.975  34.597  44.788  1.00  0.00    -0.351 N 
ATOM     18  H2  UNL     1      24.588  34.513  45.728  1.00  0.00     0.163 HD
BRANCH  17  19
HETATM   19  C11 UNL     1      25.391  35.914  44.359  1.00  0.00     0.034 C 
HETATM   20  C12 UNL     1      24.680  36.978  45.175  1.00  0.00     0.035 C 
HETATM   21  C13 UNL     1      25.047  38.339  44.686  1.00  0.00    -0.012 C 
HETATM   22  C14 UNL     1      26.531  38.532  44.812  1.00  0.00     0.009 C 
HETATM   23  C18 UNL     1      24.557  38.493  43.269  1.00  0.00     0.009 C 
HETATM   24  C15 UNL     1      27.224  37.507  43.971  1.00  0.00    -0.012 C 
HETATM   25  C16 UNL     1      26.809  37.709  42.540  1.00  0.00     0.009 C 
HETATM   26  C20 UNL     1      26.862  36.130  44.491  1.00  0.00     0.035 C 
HETATM   27  C17 UNL     1      25.312  37.501  42.429  1.00  0.00    -0.012 C 
HETATM   28  C19 UNL     1      24.975  36.110  42.930  1.00  0.00     0.035 C 
ENDBRANCH  17  19
ENDBRANCH   1  15
TORSDOF 5
ENDMDL
