MODEL 1
REMARK VINA RESULT: -8.064601170      0.000      0.000
REMARK  5 active torsions:
REMARK  status: ('A' for Active; 'I' for Inactive)
REMARK    1  A    between atoms: C1_2  and  C2_3 
REMARK    2  A    between atoms: C1_2  and  C3_5 
REMARK    3  A    between atoms: C6_10  and  C7_11 
REMARK       I    between atoms: C7_11  and  N2_13 
REMARK    4  A    between atoms: C11_17  and  C12_18 
REMARK       I    between atoms: C12_18  and  N3_20 
REMARK    5  A    between atoms: N3_20  and  C13_22 
ROOT
HETATM    1  C7  UNL     1      23.034  36.755  44.389  1.00  0.00     0.243 C 
HETATM    2  O3  UNL     1      21.988  36.423  44.999  1.00  0.00    -0.271 OA
HETATM    3  N2  UNL     1      22.956  37.277  43.067  1.00  0.00    -0.337 N 
HETATM    4  C8  UNL     1      24.060  37.718  42.219  1.00  0.00     0.127 C 
HETATM    5  C9  UNL     1      23.413  38.847  41.447  1.00  0.00     0.022 C 
HETATM    6  C10 UNL     1      22.058  38.259  41.118  1.00  0.00     0.037 C 
HETATM    7  C11 UNL     1      21.719  37.457  42.336  1.00  0.00     0.179 C 
ENDROOT
BRANCH   1   8
HETATM    8  C6  UNL     1      24.314  36.571  45.115  1.00  0.00     0.180 C 
HETATM    9  N1  UNL     1      25.182  35.711  44.392  1.00  0.00    -0.333 N 
HETATM   10  C5  UNL     1      24.928  34.466  43.717  1.00  0.00     0.221 C 
HETATM   11  C21 UNL     1      26.609  35.909  44.168  1.00  0.00     0.100 C 
HETATM   12  C4  UNL     1      25.993  34.212  42.693  1.00  0.00     0.117 C 
HETATM   13  O2  UNL     1      23.979  33.663  43.906  1.00  0.00    -0.273 OA
HETATM   14  C3  UNL     1      26.689  35.577  42.689  1.00  0.00     0.087 C 
HETATM   15  C20 UNL     1      27.119  37.251  44.520  1.00  0.00     0.026 C 
HETATM   16  C19 UNL     1      26.059  38.299  44.505  1.00  0.00     0.004 C 
HETATM   17  C18 UNL     1      24.867  37.952  45.349  1.00  0.00     0.035 C 
BRANCH  14  18
HETATM   18  C1  UNL     1      28.086  35.468  42.216  1.00  0.00     0.143 C 
HETATM   19  O1  UNL     1      28.843  34.749  42.839  1.00  0.00    -0.297 OA
BRANCH  18  20
HETATM   20  C2  UNL     1      28.550  36.200  41.038  1.00  0.00     0.164 C 
HETATM   21 BR1  UNL     1      27.445  37.764  40.788  1.00  0.00    -0.089 Br
ENDBRANCH  18  20
ENDBRANCH  14  18
ENDBRANCH   1   8
BRANCH   7  22
HETATM   22  C12 UNL     1      21.069  36.169  42.014  1.00  0.00     0.241 C 
HETATM   23  O4  UNL     1      21.452  35.534  41.007  1.00  0.00    -0.271 OA
HETATM   24  N3  UNL     1      20.033  35.642  42.812  1.00  0.00    -0.355 N 
ATOM     25  H3  UNL     1      19.723  36.163  43.633  1.00  0.00     0.162 HD
BRANCH  24  26
HETATM   26  C13 UNL     1      19.400  34.387  42.498  1.00  0.00     0.084 C 
HETATM   27  C14 UNL     1      20.003  33.230  43.240  1.00  0.00     0.025 C 
HETATM   28  C15 UNL     1      18.845  32.645  44.052  1.00  0.00     0.002 C 
HETATM   29  C16 UNL     1      17.645  32.962  43.160  1.00  0.00     0.002 C 
HETATM   30  C17 UNL     1      17.927  34.408  42.808  1.00  0.00     0.025 C 
ENDBRANCH  24  26
ENDBRANCH   7  22
TORSDOF 5
ENDMDL
MODEL 2
REMARK VINA RESULT: -7.826907520      3.303      7.121
REMARK  5 active torsions:
REMARK  status: ('A' for Active; 'I' for Inactive)
REMARK    1  A    between atoms: C1_2  and  C2_3 
REMARK    2  A    between atoms: C1_2  and  C3_5 
REMARK    3  A    between atoms: C6_10  and  C7_11 
REMARK       I    between atoms: C7_11  and  N2_13 
REMARK    4  A    between atoms: C11_17  and  C12_18 
REMARK       I    between atoms: C12_18  and  N3_20 
REMARK    5  A    between atoms: N3_20  and  C13_22 
ROOT
HETATM    1  C7  UNL     1      22.883  35.678  43.138  1.00  0.00     0.243 C 
HETATM    2  O3  UNL     1      23.050  34.500  42.738  1.00  0.00    -0.271 OA
HETATM    3  N2  UNL     1      23.457  36.766  42.421  1.00  0.00    -0.337 N 
HETATM    4  C8  UNL     1      23.359  38.189  42.734  1.00  0.00     0.127 C 
HETATM    5  C9  UNL     1      23.360  38.802  41.351  1.00  0.00     0.022 C 
HETATM    6  C10 UNL     1      24.432  37.991  40.655  1.00  0.00     0.037 C 
HETATM    7  C11 UNL     1      24.255  36.616  41.222  1.00  0.00     0.179 C 
ENDROOT
BRANCH   1   8
HETATM    8  C6  UNL     1      22.075  35.855  44.370  1.00  0.00     0.180 C 
HETATM    9  N1  UNL     1      20.704  35.592  44.113  1.00  0.00    -0.333 N 
HETATM   10  C5  UNL     1      19.855  35.992  43.022  1.00  0.00     0.221 C 
HETATM   11  C21 UNL     1      19.799  34.817  44.952  1.00  0.00     0.100 C 
HETATM   12  C4  UNL     1      18.678  35.069  42.924  1.00  0.00     0.117 C 
HETATM   13  O2  UNL     1      20.015  36.956  42.231  1.00  0.00    -0.273 OA
HETATM   14  C3  UNL     1      19.122  33.968  43.892  1.00  0.00     0.087 C 
HETATM   15  C20 UNL     1      20.451  34.042  46.029  1.00  0.00     0.026 C 
HETATM   16  C19 UNL     1      21.882  33.740  45.745  1.00  0.00     0.004 C 
HETATM   17  C18 UNL     1      22.692  34.960  45.410  1.00  0.00     0.035 C 
BRANCH  14  18
HETATM   18  C1  UNL     1      17.963  33.223  44.429  1.00  0.00     0.143 C 
HETATM   19  O1  UNL     1      18.166  32.124  44.910  1.00  0.00    -0.297 OA
BRANCH  18  20
HETATM   20  C2  UNL     1      16.612  33.782  44.386  1.00  0.00     0.164 C 
HETATM   21 BR1  UNL     1      16.308  34.826  45.982  1.00  0.00    -0.089 Br
ENDBRANCH  18  20
ENDBRANCH  14  18
ENDBRANCH   1   8
BRANCH   7  22
HETATM   22  C12 UNL     1      25.539  35.935  41.488  1.00  0.00     0.241 C 
HETATM   23  O4  UNL     1      26.428  36.546  42.119  1.00  0.00    -0.271 OA
HETATM   24  N3  UNL     1      25.783  34.617  41.049  1.00  0.00    -0.355 N 
ATOM     25  H3  UNL     1      25.054  34.121  40.534  1.00  0.00     0.162 HD
BRANCH  24  26
HETATM   26  C13 UNL     1      27.034  33.952  41.309  1.00  0.00     0.084 C 
HETATM   27  C14 UNL     1      26.865  32.493  41.619  1.00  0.00     0.025 C 
HETATM   28  C15 UNL     1      27.673  31.771  40.539  1.00  0.00     0.002 C 
HETATM   29  C16 UNL     1      28.784  32.783  40.250  1.00  0.00     0.002 C 
HETATM   30  C17 UNL     1      27.981  34.063  40.143  1.00  0.00     0.025 C 
ENDBRANCH  24  26
ENDBRANCH   7  22
TORSDOF 5
ENDMDL
MODEL 3
REMARK VINA RESULT: -7.826400230      3.366      7.901
REMARK  5 active torsions:
REMARK  status: ('A' for Active; 'I' for Inactive)
REMARK    1  A    between atoms: C1_2  and  C2_3 
REMARK    2  A    between atoms: C1_2  and  C3_5 
REMARK    3  A    between atoms: C6_10  and  C7_11 
REMARK       I    between atoms: C7_11  and  N2_13 
REMARK    4  A    between atoms: C11_17  and  C12_18 
REMARK       I    between atoms: C12_18  and  N3_20 
REMARK    5  A    between atoms: N3_20  and  C13_22 
ROOT
HETATM    1  C7  UNL     1      21.726  35.380  44.004  1.00  0.00     0.243 C 
HETATM    2  O3  UNL     1      21.598  36.520  44.514  1.00  0.00    -0.271 OA
HETATM    3  N2  UNL     1      22.979  34.707  44.063  1.00  0.00    -0.337 N 
HETATM    4  C8  UNL     1      23.305  33.385  43.535  1.00  0.00     0.127 C 
HETATM    5  C9  UNL     1      24.322  32.900  44.545  1.00  0.00     0.022 C 
HETATM    6  C10 UNL     1      25.163  34.140  44.755  1.00  0.00     0.037 C 
HETATM    7  C11 UNL     1      24.167  35.256  44.682  1.00  0.00     0.179 C 
ENDROOT
BRANCH   1   8
HETATM    8  C6  UNL     1      20.524  34.801  43.357  1.00  0.00     0.180 C 
HETATM    9  N1  UNL     1      19.583  34.378  44.332  1.00  0.00    -0.333 N 
HETATM   10  C5  UNL     1      19.761  33.649  45.559  1.00  0.00     0.221 C 
HETATM   11  C21 UNL     1      18.142  34.596  44.297  1.00  0.00     0.100 C 
HETATM   12  C4  UNL     1      18.597  33.892  46.473  1.00  0.00     0.117 C 
HETATM   13  O2  UNL     1      20.720  32.904  45.885  1.00  0.00    -0.273 OA
HETATM   14  C3  UNL     1      17.912  35.043  45.729  1.00  0.00     0.087 C 
HETATM   15  C20 UNL     1      17.678  35.558  43.276  1.00  0.00     0.026 C 
HETATM   16  C19 UNL     1      18.736  36.521  42.859  1.00  0.00     0.004 C 
HETATM   17  C18 UNL     1      20.006  35.853  42.413  1.00  0.00     0.035 C 
BRANCH  14  18
HETATM   18  C1  UNL     1      16.474  35.121  46.065  1.00  0.00     0.143 C 
HETATM   19  O1  UNL     1      15.790  34.134  45.872  1.00  0.00    -0.297 OA
BRANCH  18  20
HETATM   20  C2  UNL     1      15.885  36.344  46.611  1.00  0.00     0.164 C 
HETATM   21 BR1  UNL     1      17.106  37.814  46.333  1.00  0.00    -0.089 Br
ENDBRANCH  18  20
ENDBRANCH  14  18
ENDBRANCH   1   8
BRANCH   7  22
HETATM   22  C12 UNL     1      24.680  36.437  43.957  1.00  0.00     0.241 C 
HETATM   23  O4  UNL     1      24.672  37.549  44.529  1.00  0.00    -0.271 OA
HETATM   24  N3  UNL     1      25.175  36.340  42.640  1.00  0.00    -0.355 N 
ATOM     25  H3  UNL     1      25.180  35.431  42.176  1.00  0.00     0.162 HD
BRANCH  24  26
HETATM   26  C13 UNL     1      25.675  37.491  41.933  1.00  0.00     0.084 C 
HETATM   27  C14 UNL     1      27.132  37.746  42.193  1.00  0.00     0.025 C 
HETATM   28  C15 UNL     1      27.791  37.665  40.815  1.00  0.00     0.002 C 
HETATM   29  C16 UNL     1      26.666  38.151  39.900  1.00  0.00     0.002 C 
HETATM   30  C17 UNL     1      25.496  37.357  40.444  1.00  0.00     0.025 C 
ENDBRANCH  24  26
ENDBRANCH   7  22
TORSDOF 5
ENDMDL
MODEL 4
REMARK VINA RESULT: -7.748064057      3.341      6.846
REMARK  5 active torsions:
REMARK  status: ('A' for Active; 'I' for Inactive)
REMARK    1  A    between atoms: C1_2  and  C2_3 
REMARK    2  A    between atoms: C1_2  and  C3_5 
REMARK    3  A    between atoms: C6_10  and  C7_11 
REMARK       I    between atoms: C7_11  and  N2_13 
REMARK    4  A    between atoms: C11_17  and  C12_18 
REMARK       I    between atoms: C12_18  and  N3_20 
REMARK    5  A    between atoms: N3_20  and  C13_22 
ROOT
HETATM    1  C7  UNL     1      23.334  35.911  42.276  1.00  0.00     0.243 C 
HETATM    2  O3  UNL     1      22.997  34.711  42.126  1.00  0.00    -0.271 OA
HETATM    3  N2  UNL     1      24.537  36.396  41.689  1.00  0.00    -0.337 N 
HETATM    4  C8  UNL     1      25.074  37.753  41.753  1.00  0.00     0.127 C 
HETATM    5  C9  UNL     1      25.747  37.873  40.402  1.00  0.00     0.022 C 
HETATM    6  C10 UNL     1      26.419  36.524  40.271  1.00  0.00     0.037 C 
HETATM    7  C11 UNL     1      25.443  35.582  40.907  1.00  0.00     0.179 C 
ENDROOT
BRANCH   1   8
HETATM    8  C6  UNL     1      22.424  36.763  43.082  1.00  0.00     0.180 C 
HETATM    9  N1  UNL     1      21.068  36.445  42.810  1.00  0.00    -0.333 N 
HETATM   10  C5  UNL     1      20.387  36.206  41.565  1.00  0.00     0.221 C 
HETATM   11  C21 UNL     1      20.001  36.290  43.791  1.00  0.00     0.100 C 
HETATM   12  C4  UNL     1      19.134  35.419  41.809  1.00  0.00     0.117 C 
HETATM   13  O2  UNL     1      20.731  36.570  40.412  1.00  0.00    -0.273 OA
HETATM   14  C3  UNL     1      19.353  35.019  43.273  1.00  0.00     0.087 C 
HETATM   15  C20 UNL     1      20.449  36.215  45.198  1.00  0.00     0.026 C 
HETATM   16  C19 UNL     1      21.862  35.761  45.336  1.00  0.00     0.004 C 
HETATM   17  C18 UNL     1      22.829  36.569  44.518  1.00  0.00     0.035 C 
BRANCH  14  18
HETATM   18  C1  UNL     1      18.071  34.730  43.949  1.00  0.00     0.143 C 
HETATM   19  O1  UNL     1      17.177  35.550  43.851  1.00  0.00    -0.297 OA
BRANCH  18  20
HETATM   20  C2  UNL     1      17.874  33.500  44.716  1.00  0.00     0.164 C 
HETATM   21 BR1  UNL     1      16.450  32.473  43.911  1.00  0.00    -0.089 Br
ENDBRANCH  18  20
ENDBRANCH  14  18
ENDBRANCH   1   8
BRANCH   7  22
HETATM   22  C12 UNL     1      26.099  34.538  41.721  1.00  0.00     0.241 C 
HETATM   23  O4  UNL     1      27.017  34.868  42.502  1.00  0.00    -0.271 OA
HETATM   24  N3  UNL     1      25.715  33.183  41.637  1.00  0.00    -0.355 N 
ATOM     25  H3  UNL     1      24.965  32.917  40.998  1.00  0.00     0.162 HD
BRANCH  24  26
HETATM   26  C13 UNL     1      26.354  32.165  42.431  1.00  0.00     0.084 C 
HETATM   27  C14 UNL     1      25.375  31.338  43.213  1.00  0.00     0.025 C 
HETATM   28  C15 UNL     1      25.599  29.906  42.723  1.00  0.00     0.002 C 
HETATM   29  C16 UNL     1      27.085  29.927  42.363  1.00  0.00     0.002 C 
HETATM   30  C17 UNL     1      27.171  31.225  41.586  1.00  0.00     0.025 C 
ENDBRANCH  24  26
ENDBRANCH   7  22
TORSDOF 5
ENDMDL
MODEL 5
REMARK VINA RESULT: -7.693031977      3.536      8.019
REMARK  5 active torsions:
REMARK  status: ('A' for Active; 'I' for Inactive)
REMARK    1  A    between atoms: C1_2  and  C2_3 
REMARK    2  A    between atoms: C1_2  and  C3_5 
REMARK    3  A    between atoms: C6_10  and  C7_11 
REMARK       I    between atoms: C7_11  and  N2_13 
REMARK    4  A    between atoms: C11_17  and  C12_18 
REMARK       I    between atoms: C12_18  and  N3_20 
REMARK    5  A    between atoms: N3_20  and  C13_22 
ROOT
HETATM    1  C7  UNL     1      20.802  33.964  44.191  1.00  0.00     0.243 C 
HETATM    2  O3  UNL     1      20.848  35.206  44.368  1.00  0.00    -0.271 OA
HETATM    3  N2  UNL     1      22.004  33.204  44.132  1.00  0.00    -0.337 N 
HETATM    4  C8  UNL     1      22.137  31.762  43.943  1.00  0.00     0.127 C 
HETATM    5  C9  UNL     1      23.369  31.463  44.770  1.00  0.00     0.022 C 
HETATM    6  C10 UNL     1      24.274  32.619  44.402  1.00  0.00     0.037 C 
HETATM    7  C11 UNL     1      23.330  33.772  44.258  1.00  0.00     0.179 C 
ENDROOT
BRANCH   1   8
HETATM    8  C6  UNL     1      19.454  33.361  44.051  1.00  0.00     0.180 C 
HETATM    9  N1  UNL     1      18.646  33.670  45.177  1.00  0.00    -0.333 N 
HETATM   10  C5  UNL     1      18.944  33.650  46.584  1.00  0.00     0.221 C 
HETATM   11  C21 UNL     1      17.252  34.093  45.153  1.00  0.00     0.100 C 
HETATM   12  C4  UNL     1      17.980  34.528  47.325  1.00  0.00     0.117 C 
HETATM   13  O2  UNL     1      19.857  33.018  47.174  1.00  0.00    -0.273 OA
HETATM   14  C3  UNL     1      17.310  35.240  46.145  1.00  0.00     0.087 C 
HETATM   15  C20 UNL     1      16.732  34.466  43.820  1.00  0.00     0.026 C 
HETATM   16  C19 UNL     1      17.805  34.875  42.870  1.00  0.00     0.004 C 
HETATM   17  C18 UNL     1      18.904  33.859  42.741  1.00  0.00     0.035 C 
BRANCH  14  18
HETATM   18  C1  UNL     1      15.965  35.734  46.508  1.00  0.00     0.143 C 
HETATM   19  O1  UNL     1      15.087  34.913  46.690  1.00  0.00    -0.297 OA
BRANCH  18  20
HETATM   20  C2  UNL     1      15.689  37.165  46.643  1.00  0.00     0.164 C 
HETATM   21 BR1  UNL     1      17.133  38.166  45.842  1.00  0.00    -0.089 Br
ENDBRANCH  18  20
ENDBRANCH  14  18
ENDBRANCH   1   8
BRANCH   7  22
HETATM   22  C12 UNL     1      23.669  34.654  43.122  1.00  0.00     0.241 C 
HETATM   23  O4  UNL     1      24.277  34.171  42.142  1.00  0.00    -0.271 OA
HETATM   24  N3  UNL     1      23.324  36.022  43.117  1.00  0.00    -0.355 N 
ATOM     25  H3  UNL     1      22.828  36.412  43.918  1.00  0.00     0.162 HD
BRANCH  24  26
HETATM   26  C13 UNL     1      23.655  36.881  42.010  1.00  0.00     0.084 C 
HETATM   27  C14 UNL     1      22.549  36.978  40.999  1.00  0.00     0.025 C 
HETATM   28  C15 UNL     1      22.195  38.466  40.954  1.00  0.00     0.002 C 
HETATM   29  C16 UNL     1      23.539  39.118  41.281  1.00  0.00     0.002 C 
HETATM   30  C17 UNL     1      23.982  38.279  42.462  1.00  0.00     0.025 C 
ENDBRANCH  24  26
ENDBRANCH   7  22
TORSDOF 5
ENDMDL
