MODEL 1
REMARK VINA RESULT: -7.744004031      0.000      0.000
REMARK  5 active torsions:
REMARK  status: ('A' for Active; 'I' for Inactive)
REMARK       I    between atoms: C1_2  and  N1_3 
REMARK    1  A    between atoms: C1_2  and  C4_8 
REMARK    2  A    between atoms: N1_3  and  C2_5 
REMARK    3  A    between atoms: C2_5  and  C3_6 
REMARK       I    between atoms: N2_11  and  C7_12 
REMARK    4  A    between atoms: C7_12  and  C8_14 
REMARK       I    between atoms: N3_18  and  C12_19 
REMARK    5  A    between atoms: C12_19  and  C13_21 
ROOT
HETATM    1  C8  UNL     1      21.805  36.777  43.037  1.00  0.00     0.179 C 
HETATM    2  C9  UNL     1      21.153  37.273  41.730  1.00  0.00     0.037 C 
HETATM    3  C10 UNL     1      22.167  38.324  41.226  1.00  0.00     0.022 C 
HETATM    4  C11 UNL     1      23.240  38.326  42.331  1.00  0.00     0.127 C 
HETATM    5  N3  UNL     1      23.176  36.882  42.661  1.00  0.00    -0.338 N 
HETATM    6  C12 UNL     1      24.216  35.976  42.546  1.00  0.00     0.229 C 
HETATM    7  O3  UNL     1      24.019  34.730  42.774  1.00  0.00    -0.272 OA
ENDROOT
BRANCH   1   8
HETATM    8  C7  UNL     1      21.247  35.600  43.614  1.00  0.00     0.243 C 
HETATM    9  N2  UNL     1      21.545  35.268  44.991  1.00  0.00    -0.337 N 
HETATM   10  C4  UNL     1      21.132  34.141  45.803  1.00  0.00     0.180 C 
HETATM   11  C6  UNL     1      22.279  35.781  46.106  1.00  0.00     0.129 C 
HETATM   12  C5  UNL     1      21.550  34.847  47.042  1.00  0.00     0.055 C 
HETATM   13  O2  UNL     1      20.489  34.820  42.956  1.00  0.00    -0.271 OA
BRANCH  10  14
HETATM   14  C1  UNL     1      21.998  32.959  45.562  1.00  0.00     0.240 C 
HETATM   15  O1  UNL     1      22.398  32.245  46.515  1.00  0.00    -0.271 OA
HETATM   16  N1  UNL     1      22.391  32.612  44.246  1.00  0.00    -0.359 N 
ATOM     17  H1  UNL     1      22.063  33.196  43.477  1.00  0.00     0.162 HD
BRANCH  16  18
HETATM   18  C2  UNL     1      23.225  31.486  43.933  1.00  0.00     0.133 C 
BRANCH  18  19
HETATM   19  C3  UNL     1      24.704  31.791  43.981  1.00  0.00     0.104 C 
HETATM   20 BR1  UNL     1      25.579  31.239  42.364  1.00  0.00    -0.095 Br
ENDBRANCH  18  19
ENDBRANCH  16  18
ENDBRANCH  10  14
ENDBRANCH   1   8
BRANCH   6  21
HETATM   21  C13 UNL     1      25.626  36.267  42.166  1.00  0.00     0.042 C 
HETATM   22  C14 UNL     1      25.701  36.509  40.702  1.00  0.00     0.024 C 
HETATM   23  C15 UNL     1      27.140  36.802  40.250  1.00  0.00    -0.013 C 
HETATM   24  C16 UNL     1      27.902  35.513  40.457  1.00  0.00     0.009 C 
HETATM   25  C20 UNL     1      27.647  37.935  41.075  1.00  0.00     0.009 C 
HETATM   26  C17 UNL     1      27.836  35.180  41.948  1.00  0.00    -0.013 C 
HETATM   27  C18 UNL     1      28.529  36.300  42.660  1.00  0.00     0.009 C 
HETATM   28  C22 UNL     1      26.426  34.958  42.392  1.00  0.00     0.024 C 
HETATM   29  C19 UNL     1      27.685  37.549  42.520  1.00  0.00    -0.013 C 
HETATM   30  C21 UNL     1      26.296  37.264  43.047  1.00  0.00     0.024 C 
ENDBRANCH   6  21
TORSDOF 5
ENDMDL
MODEL 2
REMARK VINA RESULT: -7.716614427      1.143      1.175
REMARK  5 active torsions:
REMARK  status: ('A' for Active; 'I' for Inactive)
REMARK       I    between atoms: C1_2  and  N1_3 
REMARK    1  A    between atoms: C1_2  and  C4_8 
REMARK    2  A    between atoms: N1_3  and  C2_5 
REMARK    3  A    between atoms: C2_5  and  C3_6 
REMARK       I    between atoms: N2_11  and  C7_12 
REMARK    4  A    between atoms: C7_12  and  C8_14 
REMARK       I    between atoms: N3_18  and  C12_19 
REMARK    5  A    between atoms: C12_19  and  C13_21 
ROOT
HETATM    1  C8  UNL     1      21.761  36.816  42.425  1.00  0.00     0.179 C 
HETATM    2  C9  UNL     1      21.251  37.619  41.211  1.00  0.00     0.037 C 
HETATM    3  C10 UNL     1      22.356  38.681  41.022  1.00  0.00     0.022 C 
HETATM    4  C11 UNL     1      23.328  38.379  42.178  1.00  0.00     0.127 C 
HETATM    5  N3  UNL     1      23.163  36.905  42.184  1.00  0.00    -0.338 N 
HETATM    6  C12 UNL     1      24.162  35.975  41.954  1.00  0.00     0.229 C 
HETATM    7  O3  UNL     1      23.884  34.725  41.894  1.00  0.00    -0.272 OA
ENDROOT
BRANCH   1   8
HETATM    8  C7  UNL     1      21.097  35.585  42.692  1.00  0.00     0.243 C 
HETATM    9  N2  UNL     1      21.288  34.930  43.970  1.00  0.00    -0.337 N 
HETATM   10  C4  UNL     1      20.757  33.684  44.484  1.00  0.00     0.180 C 
HETATM   11  C6  UNL     1      21.982  35.125  45.205  1.00  0.00     0.129 C 
HETATM   12  C5  UNL     1      21.140  34.062  45.869  1.00  0.00     0.055 C 
HETATM   13  O2  UNL     1      20.333  35.030  41.840  1.00  0.00    -0.271 OA
BRANCH  10  14
HETATM   14  C1  UNL     1      21.561  32.525  44.019  1.00  0.00     0.240 C 
HETATM   15  O1  UNL     1      21.006  31.494  43.567  1.00  0.00    -0.271 OA
HETATM   16  N1  UNL     1      22.976  32.563  44.077  1.00  0.00    -0.359 N 
ATOM     17  H1  UNL     1      23.419  33.404  44.445  1.00  0.00     0.162 HD
BRANCH  16  18
HETATM   18  C2  UNL     1      23.820  31.484  43.646  1.00  0.00     0.133 C 
BRANCH  18  19
HETATM   19  C3  UNL     1      25.296  31.798  43.725  1.00  0.00     0.104 C 
HETATM   20 BR1  UNL     1      25.627  33.300  44.872  1.00  0.00    -0.095 Br
ENDBRANCH  18  19
ENDBRANCH  16  18
ENDBRANCH  10  14
ENDBRANCH   1   8
BRANCH   6  21
HETATM   21  C13 UNL     1      25.613  36.244  41.752  1.00  0.00     0.042 C 
HETATM   22  C14 UNL     1      25.807  36.941  40.455  1.00  0.00     0.024 C 
HETATM   23  C15 UNL     1      27.292  37.232  40.186  1.00  0.00    -0.013 C 
HETATM   24  C16 UNL     1      27.942  35.882  39.988  1.00  0.00     0.009 C 
HETATM   25  C20 UNL     1      27.821  37.983  41.360  1.00  0.00     0.009 C 
HETATM   26  C17 UNL     1      27.748  35.089  41.281  1.00  0.00    -0.013 C 
HETATM   27  C18 UNL     1      28.469  35.848  42.352  1.00  0.00     0.009 C 
HETATM   28  C22 UNL     1      26.298  34.864  41.567  1.00  0.00     0.024 C 
HETATM   29  C19 UNL     1      27.730  37.146  42.596  1.00  0.00    -0.013 C 
HETATM   30  C21 UNL     1      26.290  36.834  42.941  1.00  0.00     0.024 C 
ENDBRANCH   6  21
TORSDOF 5
ENDMDL
MODEL 3
REMARK VINA RESULT: -7.476253627      2.928      6.317
REMARK  5 active torsions:
REMARK  status: ('A' for Active; 'I' for Inactive)
REMARK       I    between atoms: C1_2  and  N1_3 
REMARK    1  A    between atoms: C1_2  and  C4_8 
REMARK    2  A    between atoms: N1_3  and  C2_5 
REMARK    3  A    between atoms: C2_5  and  C3_6 
REMARK       I    between atoms: N2_11  and  C7_12 
REMARK    4  A    between atoms: C7_12  and  C8_14 
REMARK       I    between atoms: N3_18  and  C12_19 
REMARK    5  A    between atoms: C12_19  and  C13_21 
ROOT
HETATM    1  C8  UNL     1      27.997  36.126  42.114  1.00  0.00     0.179 C 
HETATM    2  C9  UNL     1      28.344  36.688  43.507  1.00  0.00     0.037 C 
HETATM    3  C10 UNL     1      27.341  37.853  43.659  1.00  0.00     0.022 C 
HETATM    4  C11 UNL     1      26.585  37.836  42.318  1.00  0.00     0.127 C 
HETATM    5  N3  UNL     1      26.591  36.367  42.114  1.00  0.00    -0.338 N 
HETATM    6  C12 UNL     1      25.474  35.556  42.019  1.00  0.00     0.229 C 
HETATM    7  O3  UNL     1      25.602  34.283  41.936  1.00  0.00    -0.272 OA
ENDROOT
BRANCH   1   8
HETATM    8  C7  UNL     1      28.566  34.863  41.782  1.00  0.00     0.243 C 
HETATM    9  N2  UNL     1      28.405  34.334  40.444  1.00  0.00    -0.337 N 
HETATM   10  C4  UNL     1      28.857  33.088  39.858  1.00  0.00     0.180 C 
HETATM   11  C6  UNL     1      27.815  34.690  39.191  1.00  0.00     0.129 C 
HETATM   12  C5  UNL     1      28.603  33.610  38.490  1.00  0.00     0.055 C 
HETATM   13  O2  UNL     1      29.219  34.174  42.628  1.00  0.00    -0.271 OA
BRANCH  10  14
HETATM   14  C1  UNL     1      27.925  31.977  40.172  1.00  0.00     0.240 C 
HETATM   15  O1  UNL     1      27.492  31.221  39.268  1.00  0.00    -0.271 OA
HETATM   16  N1  UNL     1      27.505  31.745  41.505  1.00  0.00    -0.359 N 
ATOM     17  H1  UNL     1      27.861  32.363  42.235  1.00  0.00     0.162 HD
BRANCH  16  18
HETATM   18  C2  UNL     1      26.607  30.692  41.887  1.00  0.00     0.133 C 
BRANCH  18  19
HETATM   19  C3  UNL     1      27.292  29.516  42.545  1.00  0.00     0.104 C 
HETATM   20 BR1  UNL     1      26.011  28.261  43.229  1.00  0.00    -0.095 Br
ENDBRANCH  18  19
ENDBRANCH  16  18
ENDBRANCH  10  14
ENDBRANCH   1   8
BRANCH   6  21
HETATM   21  C13 UNL     1      24.048  35.985  42.002  1.00  0.00     0.042 C 
HETATM   22  C14 UNL     1      23.736  36.704  43.263  1.00  0.00     0.024 C 
HETATM   23  C15 UNL     1      22.269  37.160  43.307  1.00  0.00    -0.013 C 
HETATM   24  C16 UNL     1      21.451  35.891  43.385  1.00  0.00     0.009 C 
HETATM   25  C20 UNL     1      22.013  37.961  42.076  1.00  0.00     0.009 C 
HETATM   26  C17 UNL     1      21.752  35.077  42.125  1.00  0.00    -0.013 C 
HETATM   27  C18 UNL     1      21.292  35.908  40.968  1.00  0.00     0.009 C 
HETATM   28  C22 UNL     1      23.195  34.691  42.061  1.00  0.00     0.024 C 
HETATM   29  C19 UNL     1      22.199  37.115  40.857  1.00  0.00    -0.013 C 
HETATM   30  C21 UNL     1      23.632  36.643  40.732  1.00  0.00     0.024 C 
ENDBRANCH   6  21
TORSDOF 5
ENDMDL
MODEL 4
REMARK VINA RESULT: -7.462307016      2.446      3.320
REMARK  5 active torsions:
REMARK  status: ('A' for Active; 'I' for Inactive)
REMARK       I    between atoms: C1_2  and  N1_3 
REMARK    1  A    between atoms: C1_2  and  C4_8 
REMARK    2  A    between atoms: N1_3  and  C2_5 
REMARK    3  A    between atoms: C2_5  and  C3_6 
REMARK       I    between atoms: N2_11  and  C7_12 
REMARK    4  A    between atoms: C7_12  and  C8_14 
REMARK       I    between atoms: N3_18  and  C12_19 
REMARK    5  A    between atoms: C12_19  and  C13_21 
ROOT
HETATM    1  C8  UNL     1      22.553  36.560  44.778  1.00  0.00     0.179 C 
HETATM    2  C9  UNL     1      21.379  36.271  43.821  1.00  0.00     0.037 C 
HETATM    3  C10 UNL     1      21.750  37.102  42.573  1.00  0.00     0.022 C 
HETATM    4  C11 UNL     1      23.059  37.793  42.995  1.00  0.00     0.127 C 
HETATM    5  N3  UNL     1      23.602  36.687  43.821  1.00  0.00    -0.338 N 
HETATM    6  C12 UNL     1      24.786  36.009  43.593  1.00  0.00     0.229 C 
HETATM    7  O3  UNL     1      25.110  35.005  44.322  1.00  0.00    -0.272 OA
ENDROOT
BRANCH   1   8
HETATM    8  C7  UNL     1      22.651  35.725  45.928  1.00  0.00     0.243 C 
HETATM    9  N2  UNL     1      22.482  34.293  45.790  1.00  0.00    -0.337 N 
HETATM   10  C4  UNL     1      22.513  33.237  46.782  1.00  0.00     0.180 C 
HETATM   11  C6  UNL     1      22.236  33.314  44.778  1.00  0.00     0.129 C 
HETATM   12  C5  UNL     1      22.651  32.208  45.718  1.00  0.00     0.055 C 
HETATM   13  O2  UNL     1      22.884  36.195  47.086  1.00  0.00    -0.271 OA
BRANCH  10  14
HETATM   14  C1  UNL     1      21.201  33.104  47.465  1.00  0.00     0.240 C 
HETATM   15  O1  UNL     1      20.853  32.016  47.987  1.00  0.00    -0.271 OA
HETATM   16  N1  UNL     1      20.316  34.206  47.544  1.00  0.00    -0.359 N 
ATOM     17  H1  UNL     1      20.606  35.086  47.118  1.00  0.00     0.162 HD
BRANCH  16  18
HETATM   18  C2  UNL     1      19.033  34.155  48.188  1.00  0.00     0.133 C 
BRANCH  18  19
HETATM   19  C3  UNL     1      18.144  35.335  47.870  1.00  0.00     0.104 C 
HETATM   20 BR1  UNL     1      19.178  36.855  47.320  1.00  0.00    -0.095 Br
ENDBRANCH  18  19
ENDBRANCH  16  18
ENDBRANCH  10  14
ENDBRANCH   1   8
BRANCH   6  21
HETATM   21  C13 UNL     1      25.804  36.302  42.546  1.00  0.00     0.042 C 
HETATM   22  C14 UNL     1      25.174  36.198  41.205  1.00  0.00     0.024 C 
HETATM   23  C15 UNL     1      26.185  36.477  40.082  1.00  0.00    -0.013 C 
HETATM   24  C16 UNL     1      27.169  35.330  40.125  1.00  0.00     0.009 C 
HETATM   25  C20 UNL     1      26.804  37.806  40.357  1.00  0.00     0.009 C 
HETATM   26  C17 UNL     1      27.834  35.353  41.502  1.00  0.00    -0.013 C 
HETATM   27  C18 UNL     1      28.568  36.655  41.592  1.00  0.00     0.009 C 
HETATM   28  C22 UNL     1      26.833  35.142  42.592  1.00  0.00     0.024 C 
HETATM   29  C19 UNL     1      27.549  37.773  41.653  1.00  0.00    -0.013 C 
HETATM   30  C21 UNL     1      26.614  37.523  42.816  1.00  0.00     0.024 C 
ENDBRANCH   6  21
TORSDOF 5
ENDMDL
MODEL 5
REMARK VINA RESULT: -7.427240826      3.651      5.851
REMARK  5 active torsions:
REMARK  status: ('A' for Active; 'I' for Inactive)
REMARK       I    between atoms: C1_2  and  N1_3 
REMARK    1  A    between atoms: C1_2  and  C4_8 
REMARK    2  A    between atoms: N1_3  and  C2_5 
REMARK    3  A    between atoms: C2_5  and  C3_6 
REMARK       I    between atoms: N2_11  and  C7_12 
REMARK    4  A    between atoms: C7_12  and  C8_14 
REMARK       I    between atoms: N3_18  and  C12_19 
REMARK    5  A    between atoms: C12_19  and  C13_21 
ROOT
HETATM    1  C8  UNL     1      20.980  33.681  45.047  1.00  0.00     0.179 C 
HETATM    2  C9  UNL     1      21.378  33.107  46.422  1.00  0.00     0.037 C 
HETATM    3  C10 UNL     1      22.904  32.913  46.276  1.00  0.00     0.022 C 
HETATM    4  C11 UNL     1      23.172  33.355  44.826  1.00  0.00     0.127 C 
HETATM    5  N3  UNL     1      22.157  34.435  44.765  1.00  0.00    -0.338 N 
HETATM    6  C12 UNL     1      22.412  35.777  44.542  1.00  0.00     0.229 C 
HETATM    7  O3  UNL     1      21.463  36.637  44.603  1.00  0.00    -0.272 OA
ENDROOT
BRANCH   1   8
HETATM    8  C7  UNL     1      19.668  34.227  44.946  1.00  0.00     0.243 C 
HETATM    9  N2  UNL     1      19.154  34.621  43.651  1.00  0.00    -0.337 N 
HETATM   10  C4  UNL     1      17.884  35.210  43.276  1.00  0.00     0.180 C 
HETATM   11  C6  UNL     1      19.550  34.640  42.277  1.00  0.00     0.129 C 
HETATM   12  C5  UNL     1      18.122  34.875  41.848  1.00  0.00     0.055 C 
HETATM   13  O2  UNL     1      18.922  34.383  45.964  1.00  0.00    -0.271 OA
BRANCH  10  14
HETATM   14  C1  UNL     1      17.895  36.681  43.474  1.00  0.00     0.240 C 
HETATM   15  O1  UNL     1      18.098  37.179  44.609  1.00  0.00    -0.271 OA
HETATM   16  N1  UNL     1      17.677  37.555  42.381  1.00  0.00    -0.359 N 
ATOM     17  H1  UNL     1      17.513  37.144  41.462  1.00  0.00     0.162 HD
BRANCH  16  18
HETATM   18  C2  UNL     1      17.673  38.987  42.493  1.00  0.00     0.133 C 
BRANCH  18  19
HETATM   19  C3  UNL     1      16.586  39.659  41.688  1.00  0.00     0.104 C 
HETATM   20 BR1  UNL     1      15.540  40.839  42.782  1.00  0.00    -0.095 Br
ENDBRANCH  18  19
ENDBRANCH  16  18
ENDBRANCH  10  14
ENDBRANCH   1   8
BRANCH   6  21
HETATM   21  C13 UNL     1      23.725  36.403  44.221  1.00  0.00     0.042 C 
HETATM   22  C14 UNL     1      24.395  36.813  45.481  1.00  0.00     0.024 C 
HETATM   23  C15 UNL     1      25.752  37.481  45.209  1.00  0.00    -0.013 C 
HETATM   24  C16 UNL     1      25.433  38.783  44.511  1.00  0.00     0.009 C 
HETATM   25  C20 UNL     1      26.556  36.539  44.378  1.00  0.00     0.009 C 
HETATM   26  C17 UNL     1      24.704  38.436  43.212  1.00  0.00    -0.013 C 
HETATM   27  C18 UNL     1      25.669  37.641  42.388  1.00  0.00     0.009 C 
HETATM   28  C22 UNL     1      23.414  37.732  43.485  1.00  0.00     0.024 C 
HETATM   29  C19 UNL     1      25.883  36.303  43.063  1.00  0.00    -0.013 C 
HETATM   30  C21 UNL     1      24.542  35.626  43.247  1.00  0.00     0.024 C 
ENDBRANCH   6  21
TORSDOF 5
ENDMDL
