MODEL 1
REMARK VINA RESULT: -7.625979664      0.000      0.000
REMARK  5 active torsions:
REMARK  status: ('A' for Active; 'I' for Inactive)
REMARK    1  A    between atoms: C2_2  and  C3_4 
REMARK    2  A    between atoms: N1_7  and  S1_8 
REMARK    3  A    between atoms: S1_8  and  N2_11 
REMARK    4  A    between atoms: C9_15  and  C10_16 
REMARK       I    between atoms: C10_16  and  N3_18 
REMARK    5  A    between atoms: N3_18  and  C11_20 
ROOT
HETATM    1  N2  UNL     1      23.719  32.609  44.323  1.00  0.00    -0.184 NA
HETATM    2  C6  UNL     1      24.347  32.072  45.487  1.00  0.00     0.109 C 
HETATM    3  C7  UNL     1      25.095  30.822  45.068  1.00  0.00     0.018 C 
HETATM    4  C8  UNL     1      24.387  30.449  43.792  1.00  0.00     0.032 C 
HETATM    5  C9  UNL     1      24.052  31.798  43.201  1.00  0.00     0.167 C 
ENDROOT
BRANCH   1   6
HETATM    6  S1  UNL     1      22.056  32.924  44.508  1.00  0.00     0.283 S 
HETATM    7  O1  UNL     1      21.324  32.221  43.377  1.00  0.00    -0.194 OA
HETATM    8  O2  UNL     1      21.478  32.461  45.790  1.00  0.00    -0.194 OA
BRANCH   6   9
HETATM    9  N1  UNL     1      21.800  34.627  44.261  1.00  0.00    -0.197 NA
HETATM   10  C5  UNL     1      22.401  35.408  45.295  1.00  0.00     0.109 C 
HETATM   11  C4  UNL     1      23.455  36.321  44.673  1.00  0.00     0.025 C 
HETATM   12  C3  UNL     1      22.736  37.256  43.754  1.00  0.00     0.027 C 
HETATM   13  C19 UNL     1      21.884  36.503  42.780  1.00  0.00     0.025 C 
HETATM   14  C18 UNL     1      22.141  35.019  42.925  1.00  0.00     0.109 C 
BRANCH  12  15
HETATM   15  C2  UNL     1      23.706  38.080  42.963  1.00  0.00    -0.017 C 
HETATM   16  C1  UNL     1      24.892  38.420  43.421  1.00  0.00     0.027 C 
HETATM   17 BR1  UNL     1      23.158  38.639  41.216  1.00  0.00    -0.056 Br
ENDBRANCH  12  15
ENDBRANCH   6   9
ENDBRANCH   1   6
BRANCH   5  18
HETATM   18  C10 UNL     1      25.204  32.400  42.483  1.00  0.00     0.236 C 
HETATM   19  O3  UNL     1      25.929  31.682  41.746  1.00  0.00    -0.272 OA
HETATM   20  N3  UNL     1      25.504  33.803  42.619  1.00  0.00    -0.355 N 
ATOM     21  H3  UNL     1      24.929  34.401  43.211  1.00  0.00     0.162 HD
BRANCH  20  22
HETATM   22  C11 UNL     1      26.636  34.351  41.902  1.00  0.00     0.084 C 
HETATM   23  C12 UNL     1      27.746  34.740  42.861  1.00  0.00     0.025 C 
HETATM   24  C13 UNL     1      28.902  35.226  42.029  1.00  0.00     0.002 C 
HETATM   25  C14 UNL     1      28.541  36.436  41.241  1.00  0.00     0.004 C 
HETATM   26  C15 UNL     1      27.251  36.351  40.508  1.00  0.00    -0.017 C 
HETATM   27  C16 UNL     1      26.757  37.792  40.312  1.00  0.00     0.010 C 
HETATM   28  C17 UNL     1      26.167  35.614  41.222  1.00  0.00     0.029 C 
ENDBRANCH  20  22
ENDBRANCH   5  18
TORSDOF 5
ENDMDL
MODEL 2
REMARK VINA RESULT: -7.228403823      1.956      2.552
REMARK  5 active torsions:
REMARK  status: ('A' for Active; 'I' for Inactive)
REMARK    1  A    between atoms: C2_2  and  C3_4 
REMARK    2  A    between atoms: N1_7  and  S1_8 
REMARK    3  A    between atoms: S1_8  and  N2_11 
REMARK    4  A    between atoms: C9_15  and  C10_16 
REMARK       I    between atoms: C10_16  and  N3_18 
REMARK    5  A    between atoms: N3_18  and  C11_20 
ROOT
HETATM    1  N2  UNL     1      22.096  33.383  45.106  1.00  0.00    -0.184 NA
HETATM    2  C6  UNL     1      21.835  33.117  46.484  1.00  0.00     0.109 C 
HETATM    3  C7  UNL     1      22.883  32.135  46.967  1.00  0.00     0.018 C 
HETATM    4  C8  UNL     1      23.337  31.505  45.676  1.00  0.00     0.032 C 
HETATM    5  C9  UNL     1      23.255  32.660  44.706  1.00  0.00     0.167 C 
ENDROOT
BRANCH   1   6
HETATM    6  S1  UNL     1      20.744  33.187  44.088  1.00  0.00     0.283 S 
HETATM    7  O1  UNL     1      20.974  31.939  43.252  1.00  0.00    -0.194 OA
HETATM    8  O2  UNL     1      19.454  33.036  44.796  1.00  0.00    -0.194 OA
BRANCH   6   9
HETATM    9  N1  UNL     1      20.718  34.518  42.968  1.00  0.00    -0.197 NA
HETATM   10  C5  UNL     1      20.588  35.772  43.639  1.00  0.00     0.109 C 
HETATM   11  C4  UNL     1      21.820  36.622  43.335  1.00  0.00     0.025 C 
HETATM   12  C3  UNL     1      21.813  36.890  41.864  1.00  0.00     0.027 C 
HETATM   13  C19 UNL     1      21.706  35.614  41.087  1.00  0.00     0.025 C 
HETATM   14  C18 UNL     1      21.800  34.436  42.032  1.00  0.00     0.109 C 
BRANCH  12  15
HETATM   15  C2  UNL     1      23.078  37.573  41.440  1.00  0.00    -0.017 C 
HETATM   16  C1  UNL     1      23.544  38.647  42.040  1.00  0.00     0.027 C 
HETATM   17 BR1  UNL     1      24.025  36.816  39.958  1.00  0.00    -0.056 Br
ENDBRANCH  12  15
ENDBRANCH   6   9
ENDBRANCH   1   6
BRANCH   5  18
HETATM   18  C10 UNL     1      24.442  33.549  44.786  1.00  0.00     0.236 C 
HETATM   19  O3  UNL     1      25.544  33.090  45.184  1.00  0.00    -0.272 OA
HETATM   20  N3  UNL     1      24.348  34.938  44.413  1.00  0.00    -0.355 N 
ATOM     21  H3  UNL     1      23.463  35.328  44.089  1.00  0.00     0.162 HD
BRANCH  20  22
HETATM   22  C11 UNL     1      25.528  35.771  44.506  1.00  0.00     0.084 C 
HETATM   23  C12 UNL     1      25.171  37.159  45.006  1.00  0.00     0.025 C 
HETATM   24  C13 UNL     1      26.459  37.927  45.142  1.00  0.00     0.002 C 
HETATM   25  C14 UNL     1      27.146  38.081  43.831  1.00  0.00     0.004 C 
HETATM   26  C15 UNL     1      27.256  36.838  43.025  1.00  0.00    -0.017 C 
HETATM   27  C16 UNL     1      27.379  37.272  41.557  1.00  0.00     0.010 C 
HETATM   28  C17 UNL     1      26.079  35.925  43.110  1.00  0.00     0.029 C 
ENDBRANCH  20  22
ENDBRANCH   5  18
TORSDOF 5
ENDMDL
MODEL 3
REMARK VINA RESULT: -7.128688632      3.625      5.297
REMARK  5 active torsions:
REMARK  status: ('A' for Active; 'I' for Inactive)
REMARK    1  A    between atoms: C2_2  and  C3_4 
REMARK    2  A    between atoms: N1_7  and  S1_8 
REMARK    3  A    between atoms: S1_8  and  N2_11 
REMARK    4  A    between atoms: C9_15  and  C10_16 
REMARK       I    between atoms: C10_16  and  N3_18 
REMARK    5  A    between atoms: N3_18  and  C11_20 
ROOT
HETATM    1  N2  UNL     1      19.006  33.863  44.888  1.00  0.00    -0.184 NA
HETATM    2  C6  UNL     1      18.282  32.749  44.366  1.00  0.00     0.109 C 
HETATM    3  C7  UNL     1      17.090  33.295  43.605  1.00  0.00     0.018 C 
HETATM    4  C8  UNL     1      16.934  34.665  44.210  1.00  0.00     0.032 C 
HETATM    5  C9  UNL     1      18.366  35.066  44.475  1.00  0.00     0.167 C 
ENDROOT
BRANCH   1   6
HETATM    6  S1  UNL     1      19.335  33.765  46.556  1.00  0.00     0.283 S 
HETATM    7  O1  UNL     1      18.522  34.845  47.251  1.00  0.00    -0.194 OA
HETATM    8  O2  UNL     1      18.998  32.464  47.177  1.00  0.00    -0.194 OA
BRANCH   6   9
HETATM    9  N1  UNL     1      21.004  34.187  46.801  1.00  0.00    -0.197 NA
HETATM   10  C5  UNL     1      21.884  33.197  46.267  1.00  0.00     0.109 C 
HETATM   11  C4  UNL     1      22.744  33.838  45.180  1.00  0.00     0.025 C 
HETATM   12  C3  UNL     1      23.582  34.882  45.845  1.00  0.00     0.027 C 
HETATM   13  C19 UNL     1      22.733  35.830  46.634  1.00  0.00     0.025 C 
HETATM   14  C18 UNL     1      21.272  35.531  46.381  1.00  0.00     0.109 C 
BRANCH  12  15
HETATM   15  C2  UNL     1      24.336  35.687  44.830  1.00  0.00    -0.017 C 
HETATM   16  C1  UNL     1      24.719  35.196  43.671  1.00  0.00     0.027 C 
HETATM   17 BR1  UNL     1      24.738  37.504  45.281  1.00  0.00    -0.056 Br
ENDBRANCH  12  15
ENDBRANCH   6   9
ENDBRANCH   1   6
BRANCH   5  18
HETATM   18  C10 UNL     1      19.039  35.589  43.259  1.00  0.00     0.236 C 
HETATM   19  O3  UNL     1      18.374  36.215  42.394  1.00  0.00    -0.272 OA
HETATM   20  N3  UNL     1      20.452  35.388  43.055  1.00  0.00    -0.355 N 
ATOM     21  H3  UNL     1      21.008  34.883  43.745  1.00  0.00     0.162 HD
BRANCH  20  22
HETATM   22  C11 UNL     1      21.070  35.914  41.856  1.00  0.00     0.084 C 
HETATM   23  C12 UNL     1      22.086  34.934  41.299  1.00  0.00     0.025 C 
HETATM   24  C13 UNL     1      22.620  35.526  40.021  1.00  0.00     0.002 C 
HETATM   25  C14 UNL     1      23.320  36.816  40.265  1.00  0.00     0.004 C 
HETATM   26  C15 UNL     1      22.590  37.779  41.129  1.00  0.00    -0.017 C 
HETATM   27  C16 UNL     1      23.646  38.694  41.765  1.00  0.00     0.010 C 
HETATM   28  C17 UNL     1      21.818  37.163  42.248  1.00  0.00     0.029 C 
ENDBRANCH  20  22
ENDBRANCH   5  18
TORSDOF 5
ENDMDL
MODEL 4
REMARK VINA RESULT: -7.124094881      2.922      4.508
REMARK  5 active torsions:
REMARK  status: ('A' for Active; 'I' for Inactive)
REMARK    1  A    between atoms: C2_2  and  C3_4 
REMARK    2  A    between atoms: N1_7  and  S1_8 
REMARK    3  A    between atoms: S1_8  and  N2_11 
REMARK    4  A    between atoms: C9_15  and  C10_16 
REMARK       I    between atoms: C10_16  and  N3_18 
REMARK    5  A    between atoms: N3_18  and  C11_20 
ROOT
HETATM    1  N2  UNL     1      20.459  35.264  44.970  1.00  0.00    -0.184 NA
HETATM    2  C6  UNL     1      19.436  36.091  45.526  1.00  0.00     0.109 C 
HETATM    3  C7  UNL     1      19.592  36.060  47.034  1.00  0.00     0.018 C 
HETATM    4  C8  UNL     1      20.364  34.783  47.241  1.00  0.00     0.032 C 
HETATM    5  C9  UNL     1      21.262  34.748  46.027  1.00  0.00     0.167 C 
ENDROOT
BRANCH   1   6
HETATM    6  S1  UNL     1      19.893  34.098  43.866  1.00  0.00     0.283 S 
HETATM    7  O1  UNL     1      20.474  32.755  44.277  1.00  0.00    -0.194 OA
HETATM    8  O2  UNL     1      18.420  33.965  43.809  1.00  0.00    -0.194 OA
BRANCH   6   9
HETATM    9  N1  UNL     1      20.573  34.459  42.307  1.00  0.00    -0.197 NA
HETATM   10  C5  UNL     1      20.014  35.649  41.749  1.00  0.00     0.109 C 
HETATM   11  C4  UNL     1      21.131  36.671  41.550  1.00  0.00     0.025 C 
HETATM   12  C3  UNL     1      22.075  36.095  40.543  1.00  0.00     0.027 C 
HETATM   13  C19 UNL     1      22.524  34.726  40.950  1.00  0.00     0.025 C 
HETATM   14  C18 UNL     1      22.006  34.414  42.336  1.00  0.00     0.109 C 
BRANCH  12  15
HETATM   15  C2  UNL     1      23.298  36.950  40.409  1.00  0.00    -0.017 C 
HETATM   16  C1  UNL     1      24.429  36.504  39.905  1.00  0.00     0.027 C 
HETATM   17 BR1  UNL     1      23.167  38.764  41.008  1.00  0.00    -0.056 Br
ENDBRANCH  12  15
ENDBRANCH   6   9
ENDBRANCH   1   6
BRANCH   5  18
HETATM   18  C10 UNL     1      22.466  35.601  46.192  1.00  0.00     0.236 C 
HETATM   19  O3  UNL     1      22.757  36.063  47.326  1.00  0.00    -0.272 OA
HETATM   20  N3  UNL     1      23.311  35.909  45.065  1.00  0.00    -0.355 N 
ATOM     21  H3  UNL     1      23.091  35.545  44.138  1.00  0.00     0.162 HD
BRANCH  20  22
HETATM   22  C11 UNL     1      24.475  36.745  45.268  1.00  0.00     0.084 C 
HETATM   23  C12 UNL     1      24.412  37.981  44.391  1.00  0.00     0.025 C 
HETATM   24  C13 UNL     1      25.617  38.822  44.721  1.00  0.00     0.002 C 
HETATM   25  C14 UNL     1      26.885  38.109  44.408  1.00  0.00     0.004 C 
HETATM   26  C15 UNL     1      26.962  36.709  44.900  1.00  0.00    -0.017 C 
HETATM   27  C16 UNL     1      27.964  35.976  43.996  1.00  0.00     0.010 C 
HETATM   28  C17 UNL     1      25.680  35.947  44.835  1.00  0.00     0.029 C 
ENDBRANCH  20  22
ENDBRANCH   5  18
TORSDOF 5
ENDMDL
MODEL 5
REMARK VINA RESULT: -6.967721552      1.230      1.351
REMARK  5 active torsions:
REMARK  status: ('A' for Active; 'I' for Inactive)
REMARK    1  A    between atoms: C2_2  and  C3_4 
REMARK    2  A    between atoms: N1_7  and  S1_8 
REMARK    3  A    between atoms: S1_8  and  N2_11 
REMARK    4  A    between atoms: C9_15  and  C10_16 
REMARK       I    between atoms: C10_16  and  N3_18 
REMARK    5  A    between atoms: N3_18  and  C11_20 
ROOT
HETATM    1  N2  UNL     1      24.914  31.825  44.071  1.00  0.00    -0.184 NA
HETATM    2  C6  UNL     1      25.825  31.119  44.912  1.00  0.00     0.109 C 
HETATM    3  C7  UNL     1      26.576  30.129  44.043  1.00  0.00     0.018 C 
HETATM    4  C8  UNL     1      25.645  29.978  42.868  1.00  0.00     0.032 C 
HETATM    5  C9  UNL     1      25.069  31.367  42.732  1.00  0.00     0.167 C 
ENDROOT
BRANCH   1   6
HETATM    6  S1  UNL     1      23.309  31.844  44.639  1.00  0.00     0.283 S 
HETATM    7  O1  UNL     1      22.414  31.367  43.507  1.00  0.00    -0.194 OA
HETATM    8  O2  UNL     1      23.060  30.983  45.817  1.00  0.00    -0.194 OA
BRANCH   6   9
HETATM    9  N1  UNL     1      22.864  33.498  44.940  1.00  0.00    -0.197 NA
HETATM   10  C5  UNL     1      23.987  34.284  45.340  1.00  0.00     0.109 C 
HETATM   11  C4  UNL     1      24.198  35.397  44.316  1.00  0.00     0.025 C 
HETATM   12  C3  UNL     1      22.988  36.273  44.367  1.00  0.00     0.027 C 
HETATM   13  C19 UNL     1      21.736  35.470  44.192  1.00  0.00     0.025 C 
HETATM   14  C18 UNL     1      22.096  34.039  43.857  1.00  0.00     0.109 C 
BRANCH  12  15
HETATM   15  C2  UNL     1      23.024  37.298  43.274  1.00  0.00    -0.017 C 
HETATM   16  C1  UNL     1      23.942  38.238  43.207  1.00  0.00     0.027 C 
HETATM   17 BR1  UNL     1      21.656  37.198  41.938  1.00  0.00    -0.056 Br
ENDBRANCH  12  15
ENDBRANCH   6   9
ENDBRANCH   1   6
BRANCH   5  18
HETATM   18  C10 UNL     1      25.979  32.286  42.000  1.00  0.00     0.236 C 
HETATM   19  O3  UNL     1      26.709  31.841  41.076  1.00  0.00    -0.272 OA
HETATM   20  N3  UNL     1      26.037  33.686  42.335  1.00  0.00    -0.355 N 
ATOM     21  H3  UNL     1      25.453  34.065  43.080  1.00  0.00     0.162 HD
BRANCH  20  22
HETATM   22  C11 UNL     1      26.937  34.548  41.598  1.00  0.00     0.084 C 
HETATM   23  C12 UNL     1      27.972  35.164  42.521  1.00  0.00     0.025 C 
HETATM   24  C13 UNL     1      28.904  35.978  41.663  1.00  0.00     0.002 C 
HETATM   25  C14 UNL     1      28.189  37.089  40.978  1.00  0.00     0.004 C 
HETATM   26  C15 UNL     1      26.918  36.707  40.310  1.00  0.00    -0.017 C 
HETATM   27  C16 UNL     1      26.056  37.976  40.238  1.00  0.00     0.010 C 
HETATM   28  C17 UNL     1      26.113  35.676  41.029  1.00  0.00     0.029 C 
ENDBRANCH  20  22
ENDBRANCH   5  18
TORSDOF 5
ENDMDL
