MODEL 1
REMARK VINA RESULT: -8.238519605      0.000      0.000
REMARK  13 active torsions:
REMARK  status: ('A' for Active; 'I' for Inactive)
REMARK    1  A    between atoms: N1_8  and  C6_10 
REMARK    2  A    between atoms: C6_10  and  C7_11 
REMARK    3  A    between atoms: C7_11  and  N2_12 
REMARK    4  A    between atoms: N2_12  and  C8_14 
REMARK    5  A    between atoms: C8_14  and  C9_15 
REMARK    6  A    between atoms: C9_15  and  O2_16 
REMARK    7  A    between atoms: O2_16  and  C10_17 
REMARK    8  A    between atoms: C10_17  and  C11_18 
REMARK    9  A    between atoms: C11_18  and  O3_19 
REMARK   10  A    between atoms: O3_19  and  N3_20 
REMARK   11  A    between atoms: N3_20  and  N4_22 
REMARK   12  A    between atoms: N4_22  and  C12_24 
REMARK   13  A    between atoms: C14_35  and  N9_36 
ROOT
HETATM    1  C11 UNL     1      -3.536  29.139  14.453  1.00  0.00     0.229 C 
ENDROOT
BRANCH   1   2
HETATM    2  C10 UNL     1      -2.198  29.395  15.362  1.00  0.00     0.196 C 
BRANCH   2   3
HETATM    3  O2  UNL     1      -1.768  28.182  15.734  1.00  0.00    -0.387 OA
BRANCH   3   4
HETATM    4  C9  UNL     1      -1.126  28.442  17.046  1.00  0.00     0.187 C 
BRANCH   4   5
HETATM    5  C8  UNL     1      -0.487  29.802  16.862  1.00  0.00     0.145 C 
BRANCH   5   6
HETATM    6  N2  UNL     1      -0.022  30.310  18.164  1.00  0.00    -0.396 N 
ATOM      7  H2  UNL     1      -0.113  29.749  19.011  1.00  0.00     0.159 HD
BRANCH   6   8
HETATM    8  C7  UNL     1       0.543  31.571  18.199  1.00  0.00     0.100 C 
BRANCH   8   9
HETATM    9  C6  UNL     1      -0.325  32.732  18.568  1.00  0.00     0.107 C 
BRANCH   9  10
HETATM   10  N1  UNL     1      -1.667  32.371  18.597  1.00  0.00    -0.342 N 
HETATM   11  C5  UNL     1      -2.785  32.793  18.304  1.00  0.00     0.194 C 
HETATM   12  S1  UNL     1      -4.173  31.708  18.672  1.00  0.00     0.088 S 
HETATM   13  N10 UNL     1      -3.199  34.033  17.766  1.00  0.00    -0.242 N 
HETATM   14  C4  UNL     1      -5.301  32.818  19.591  1.00  0.00     0.157 C 
HETATM   15  O1  UNL     1      -4.864  31.466  17.311  1.00  0.00    -0.250 OA
HETATM   16  C2  UNL     1      -5.139  34.203  19.023  1.00  0.00     0.093 C 
HETATM   17  C1  UNL     1      -4.370  35.110  19.935  1.00  0.00     0.049 C 
HETATM   18  C3  UNL     1      -6.567  34.756  18.922  1.00  0.00     0.049 C 
HETATM   19  O4  UNL     1      -4.568  34.244  17.771  1.00  0.00    -0.267 OA
ATOM     20  H10 UNL     1      -2.540  34.721  17.403  1.00  0.00     0.196 HD
ATOM     21  H1  UNL     1      -1.756  31.437  18.999  1.00  0.00     0.167 HD
ENDBRANCH   9  10
ENDBRANCH   8   9
ENDBRANCH   6   8
ENDBRANCH   5   6
ENDBRANCH   4   5
ENDBRANCH   3   4
ENDBRANCH   2   3
ENDBRANCH   1   2
BRANCH   1  22
HETATM   22  O3  UNL     1      -4.396  28.695  15.472  1.00  0.00    -0.263 OA
BRANCH  22  23
HETATM   23  N3  UNL     1      -4.497  27.671  16.120  1.00  0.00    -0.206 N 
ATOM     24  H3  UNL     1      -4.657  27.906  17.100  1.00  0.00     0.216 HD
BRANCH  23  25
HETATM   25  N4  UNL     1      -4.470  26.366  15.987  1.00  0.00    -0.262 N 
ATOM     26  H4  UNL     1      -4.587  25.798  15.148  1.00  0.00     0.190 HD
BRANCH  25  27
HETATM   27  C12 UNL     1      -4.225  25.941  17.383  1.00  0.00     0.182 A 
HETATM   28  N5  UNL     1      -4.805  26.264  18.465  1.00  0.00    -0.171 N 
HETATM   29  C13 UNL     1      -4.226  25.942  19.674  1.00  0.00     0.692 A 
ATOM     30  H5  UNL     1      -5.696  26.759  18.441  1.00  0.00     0.186 HD
HETATM   31  N6  UNL     1      -4.750  26.348  20.751  1.00  0.00    -0.233 N 
HETATM   32  N7  UNL     1      -3.025  25.275  19.667  1.00  0.00    -0.131 N 
ATOM     33  H62 UNL     1      -5.642  26.843  20.756  1.00  0.00     0.174 HD
ATOM     34  H61 UNL     1      -4.322  26.110  21.646  1.00  0.00     0.174 HD
HETATM   35  N8  UNL     1      -2.428  24.921  18.547  1.00  0.00    -0.268 N 
ATOM     36  H7  UNL     1      -2.582  25.046  20.557  1.00  0.00     0.205 HD
HETATM   37  C14 UNL     1      -3.007  25.237  17.370  1.00  0.00     0.161 A 
ATOM     38  H8  UNL     1      -1.542  24.415  18.569  1.00  0.00     0.189 HD
BRANCH  37  39
HETATM   39  N9  UNL     1      -2.390  24.878  16.339  1.00  0.00    -0.381 N 
ATOM     40  H92 UNL     1      -1.411  25.159  16.282  1.00  0.00     0.157 HD
ATOM     41  H91 UNL     1      -2.792  24.343  15.569  1.00  0.00     0.157 HD
ENDBRANCH  37  39
ENDBRANCH  25  27
ENDBRANCH  23  25
ENDBRANCH  22  23
ENDBRANCH   1  22
TORSDOF 13
ENDMDL
MODEL 2
REMARK VINA RESULT: -8.150118471      1.545      1.721
REMARK  13 active torsions:
REMARK  status: ('A' for Active; 'I' for Inactive)
REMARK    1  A    between atoms: N1_8  and  C6_10 
REMARK    2  A    between atoms: C6_10  and  C7_11 
REMARK    3  A    between atoms: C7_11  and  N2_12 
REMARK    4  A    between atoms: N2_12  and  C8_14 
REMARK    5  A    between atoms: C8_14  and  C9_15 
REMARK    6  A    between atoms: C9_15  and  O2_16 
REMARK    7  A    between atoms: O2_16  and  C10_17 
REMARK    8  A    between atoms: C10_17  and  C11_18 
REMARK    9  A    between atoms: C11_18  and  O3_19 
REMARK   10  A    between atoms: O3_19  and  N3_20 
REMARK   11  A    between atoms: N3_20  and  N4_22 
REMARK   12  A    between atoms: N4_22  and  C12_24 
REMARK   13  A    between atoms: C14_35  and  N9_36 
ROOT
HETATM    1  C11 UNL     1      -3.737  30.582  16.669  1.00  0.00     0.229 C 
ENDROOT
BRANCH   1   2
HETATM    2  C10 UNL     1      -2.915  30.275  18.052  1.00  0.00     0.196 C 
BRANCH   2   3
HETATM    3  O2  UNL     1      -2.133  29.219  17.788  1.00  0.00    -0.387 OA
BRANCH   3   4
HETATM    4  C9  UNL     1      -0.967  29.828  17.102  1.00  0.00     0.187 C 
BRANCH   4   5
HETATM    5  C8  UNL     1      -0.074  30.262  18.245  1.00  0.00     0.145 C 
BRANCH   5   6
HETATM    6  N2  UNL     1       0.386  31.643  18.015  1.00  0.00    -0.396 N 
ATOM      7  H2  UNL     1       1.039  31.862  17.263  1.00  0.00     0.159 HD
BRANCH   6   8
HETATM    8  C7  UNL     1      -0.098  32.631  18.852  1.00  0.00     0.100 C 
BRANCH   8   9
HETATM    9  C6  UNL     1      -0.813  33.795  18.243  1.00  0.00     0.107 C 
BRANCH   9  10
HETATM   10  N1  UNL     1      -2.149  33.825  18.625  1.00  0.00    -0.342 N 
HETATM   11  C5  UNL     1      -3.251  34.219  18.246  1.00  0.00     0.194 C 
HETATM   12  S1  UNL     1      -4.638  33.899  19.348  1.00  0.00     0.088 S 
HETATM   13  N10 UNL     1      -3.633  34.948  17.097  1.00  0.00    -0.242 N 
HETATM   14  C4  UNL     1      -5.418  35.550  19.480  1.00  0.00     0.157 C 
HETATM   15  O1  UNL     1      -5.625  33.052  18.513  1.00  0.00    -0.250 OA
HETATM   16  C2  UNL     1      -5.231  36.249  18.159  1.00  0.00     0.093 C 
HETATM   17  C1  UNL     1      -4.192  37.326  18.222  1.00  0.00     0.049 C 
HETATM   18  C3  UNL     1      -6.579  36.926  17.878  1.00  0.00     0.049 C 
HETATM   19  O4  UNL     1      -4.938  35.411  17.106  1.00  0.00    -0.267 OA
ATOM     20  H10 UNL     1      -2.995  35.121  16.320  1.00  0.00     0.196 HD
ATOM     21  H1  UNL     1      -2.251  33.361  19.528  1.00  0.00     0.167 HD
ENDBRANCH   9  10
ENDBRANCH   8   9
ENDBRANCH   6   8
ENDBRANCH   5   6
ENDBRANCH   4   5
ENDBRANCH   3   4
ENDBRANCH   2   3
ENDBRANCH   1   2
BRANCH   1  22
HETATM   22  O3  UNL     1      -4.465  29.383  16.591  1.00  0.00    -0.263 OA
BRANCH  22  23
HETATM   23  N3  UNL     1      -4.440  28.414  15.855  1.00  0.00    -0.206 N 
ATOM     24  H3  UNL     1      -5.294  28.392  15.299  1.00  0.00     0.216 HD
BRANCH  23  25
HETATM   25  N4  UNL     1      -3.686  27.389  15.535  1.00  0.00    -0.262 N 
ATOM     26  H4  UNL     1      -3.211  27.183  14.657  1.00  0.00     0.190 HD
BRANCH  25  27
HETATM   27  C12 UNL     1      -3.713  26.611  16.794  1.00  0.00     0.182 A 
HETATM   28  N5  UNL     1      -4.123  26.920  17.955  1.00  0.00    -0.171 N 
HETATM   29  C13 UNL     1      -3.798  26.122  19.030  1.00  0.00     0.692 A 
ATOM     30  H5  UNL     1      -4.692  27.756  18.091  1.00  0.00     0.186 HD
HETATM   31  N6  UNL     1      -4.122  26.479  20.200  1.00  0.00    -0.233 N 
HETATM   32  N7  UNL     1      -3.031  25.004  18.807  1.00  0.00    -0.131 N 
ATOM     33  H62 UNL     1      -4.692  27.308  20.366  1.00  0.00     0.174 HD
ATOM     34  H61 UNL     1      -3.881  25.888  20.996  1.00  0.00     0.174 HD
HETATM   35  N8  UNL     1      -2.617  24.669  17.602  1.00  0.00    -0.268 N 
ATOM     36  H7  UNL     1      -2.773  24.416  19.600  1.00  0.00     0.205 HD
HETATM   37  C14 UNL     1      -2.946  25.456  16.556  1.00  0.00     0.161 A 
ATOM     38  H8  UNL     1      -2.059  23.827  17.461  1.00  0.00     0.189 HD
BRANCH  37  39
HETATM   39  N9  UNL     1      -2.521  25.088  15.436  1.00  0.00    -0.381 N 
ATOM     40  H92 UNL     1      -1.681  25.558  15.098  1.00  0.00     0.157 HD
ATOM     41  H91 UNL     1      -2.951  24.373  14.848  1.00  0.00     0.157 HD
ENDBRANCH  37  39
ENDBRANCH  25  27
ENDBRANCH  23  25
ENDBRANCH  22  23
ENDBRANCH   1  22
TORSDOF 13
ENDMDL
MODEL 3
REMARK VINA RESULT: -7.791513992      1.750      2.249
REMARK  13 active torsions:
REMARK  status: ('A' for Active; 'I' for Inactive)
REMARK    1  A    between atoms: N1_8  and  C6_10 
REMARK    2  A    between atoms: C6_10  and  C7_11 
REMARK    3  A    between atoms: C7_11  and  N2_12 
REMARK    4  A    between atoms: N2_12  and  C8_14 
REMARK    5  A    between atoms: C8_14  and  C9_15 
REMARK    6  A    between atoms: C9_15  and  O2_16 
REMARK    7  A    between atoms: O2_16  and  C10_17 
REMARK    8  A    between atoms: C10_17  and  C11_18 
REMARK    9  A    between atoms: C11_18  and  O3_19 
REMARK   10  A    between atoms: O3_19  and  N3_20 
REMARK   11  A    between atoms: N3_20  and  N4_22 
REMARK   12  A    between atoms: N4_22  and  C12_24 
REMARK   13  A    between atoms: C14_35  and  N9_36 
ROOT
HETATM    1  C11 UNL     1      -2.339  29.058  15.120  1.00  0.00     0.229 C 
ENDROOT
BRANCH   1   2
HETATM    2  C10 UNL     1      -1.128  28.342  15.959  1.00  0.00     0.196 C 
BRANCH   2   3
HETATM    3  O2  UNL     1      -1.330  28.666  17.244  1.00  0.00    -0.387 OA
BRANCH   3   4
HETATM    4  C9  UNL     1      -0.409  29.811  17.449  1.00  0.00     0.187 C 
BRANCH   4   5
HETATM    5  C8  UNL     1      -1.020  30.548  18.621  1.00  0.00     0.145 C 
BRANCH   5   6
HETATM    6  N2  UNL     1      -2.476  30.327  18.639  1.00  0.00    -0.396 N 
ATOM      7  H2  UNL     1      -2.866  29.386  18.609  1.00  0.00     0.159 HD
BRANCH   6   8
HETATM    8  C7  UNL     1      -3.295  31.439  18.698  1.00  0.00     0.100 C 
BRANCH   8   9
HETATM    9  C6  UNL     1      -2.787  32.665  19.388  1.00  0.00     0.107 C 
BRANCH   9  10
HETATM   10  N1  UNL     1      -3.832  33.484  19.800  1.00  0.00    -0.342 N 
HETATM   11  C5  UNL     1      -4.764  34.153  19.357  1.00  0.00     0.194 C 
HETATM   12  S1  UNL     1      -5.768  35.029  20.567  1.00  0.00     0.088 S 
HETATM   13  N10 UNL     1      -5.170  34.416  18.029  1.00  0.00    -0.242 N 
HETATM   14  C4  UNL     1      -5.791  36.731  19.894  1.00  0.00     0.157 C 
HETATM   15  O1  UNL     1      -7.203  34.493  20.359  1.00  0.00    -0.250 OA
HETATM   16  C2  UNL     1      -5.762  36.628  18.392  1.00  0.00     0.093 C 
HETATM   17  C1  UNL     1      -4.427  36.993  17.818  1.00  0.00     0.049 C 
HETATM   18  C3  UNL     1      -6.773  37.674  17.907  1.00  0.00     0.049 C 
HETATM   19  O4  UNL     1      -6.138  35.398  17.897  1.00  0.00    -0.267 OA
ATOM     20  H10 UNL     1      -4.780  33.920  17.227  1.00  0.00     0.196 HD
ATOM     21  H1  UNL     1      -3.824  33.553  20.818  1.00  0.00     0.167 HD
ENDBRANCH   9  10
ENDBRANCH   8   9
ENDBRANCH   6   8
ENDBRANCH   5   6
ENDBRANCH   4   5
ENDBRANCH   3   4
ENDBRANCH   2   3
ENDBRANCH   1   2
BRANCH   1  22
HETATM   22  O3  UNL     1      -3.381  28.844  16.038  1.00  0.00    -0.263 OA
BRANCH  22  23
HETATM   23  N3  UNL     1      -4.202  27.962  16.209  1.00  0.00    -0.206 N 
ATOM     24  H3  UNL     1      -5.031  28.356  16.655  1.00  0.00     0.216 HD
BRANCH  23  25
HETATM   25  N4  UNL     1      -4.383  26.678  16.016  1.00  0.00    -0.262 N 
ATOM     26  H4  UNL     1      -4.607  26.177  15.156  1.00  0.00     0.190 HD
BRANCH  25  27
HETATM   27  C12 UNL     1      -4.175  26.151  17.383  1.00  0.00     0.182 A 
HETATM   28  N5  UNL     1      -4.691  26.488  18.493  1.00  0.00    -0.171 N 
HETATM   29  C13 UNL     1      -4.141  26.030  19.670  1.00  0.00     0.692 A 
ATOM     30  H5  UNL     1      -5.509  27.096  18.513  1.00  0.00     0.186 HD
HETATM   31  N6  UNL     1      -4.591  26.443  20.778  1.00  0.00    -0.233 N 
HETATM   32  N7  UNL     1      -3.038  25.213  19.604  1.00  0.00    -0.131 N 
ATOM     33  H62 UNL     1      -5.410  27.049  20.828  1.00  0.00     0.174 HD
ATOM     34  H61 UNL     1      -4.184  26.104  21.650  1.00  0.00     0.174 HD
HETATM   35  N8  UNL     1      -2.509  24.844  18.454  1.00  0.00    -0.268 N 
ATOM     36  H7  UNL     1      -2.615  24.882  20.471  1.00  0.00     0.205 HD
HETATM   37  C14 UNL     1      -3.060  25.296  17.307  1.00  0.00     0.161 A 
ATOM     38  H8  UNL     1      -1.698  24.227  18.431  1.00  0.00     0.189 HD
BRANCH  37  39
HETATM   39  N9  UNL     1      -2.511  24.914  16.247  1.00  0.00    -0.381 N 
ATOM     40  H92 UNL     1      -2.787  25.408  15.397  1.00  0.00     0.157 HD
ATOM     41  H91 UNL     1      -1.831  24.158  16.174  1.00  0.00     0.157 HD
ENDBRANCH  37  39
ENDBRANCH  25  27
ENDBRANCH  23  25
ENDBRANCH  22  23
ENDBRANCH   1  22
TORSDOF 13
ENDMDL
MODEL 4
REMARK VINA RESULT: -7.741338259      4.610      8.133
REMARK  13 active torsions:
REMARK  status: ('A' for Active; 'I' for Inactive)
REMARK    1  A    between atoms: N1_8  and  C6_10 
REMARK    2  A    between atoms: C6_10  and  C7_11 
REMARK    3  A    between atoms: C7_11  and  N2_12 
REMARK    4  A    between atoms: N2_12  and  C8_14 
REMARK    5  A    between atoms: C8_14  and  C9_15 
REMARK    6  A    between atoms: C9_15  and  O2_16 
REMARK    7  A    between atoms: O2_16  and  C10_17 
REMARK    8  A    between atoms: C10_17  and  C11_18 
REMARK    9  A    between atoms: C11_18  and  O3_19 
REMARK   10  A    between atoms: O3_19  and  N3_20 
REMARK   11  A    between atoms: N3_20  and  N4_22 
REMARK   12  A    between atoms: N4_22  and  C12_24 
REMARK   13  A    between atoms: C14_35  and  N9_36 
ROOT
HETATM    1  C11 UNL     1      -3.706  28.781  16.490  1.00  0.00     0.229 C 
ENDROOT
BRANCH   1   2
HETATM    2  C10 UNL     1      -4.089  27.189  16.443  1.00  0.00     0.196 C 
BRANCH   2   3
HETATM    3  O2  UNL     1      -4.342  26.834  17.711  1.00  0.00    -0.387 OA
BRANCH   3   4
HETATM    4  C9  UNL     1      -3.535  25.600  17.880  1.00  0.00     0.187 C 
BRANCH   4   5
HETATM    5  C8  UNL     1      -3.810  25.193  19.311  1.00  0.00     0.145 C 
BRANCH   5   6
HETATM    6  N2  UNL     1      -4.181  26.380  20.100  1.00  0.00    -0.396 N 
ATOM      7  H2  UNL     1      -3.719  27.277  19.950  1.00  0.00     0.159 HD
BRANCH   6   8
HETATM    8  C7  UNL     1      -5.175  26.238  21.049  1.00  0.00     0.100 C 
BRANCH   8   9
HETATM    9  C6  UNL     1      -6.075  25.046  20.968  1.00  0.00     0.107 C 
BRANCH   9  10
HETATM   10  N1  UNL     1      -7.258  25.257  21.669  1.00  0.00    -0.342 N 
HETATM   11  C5  UNL     1      -8.436  24.907  21.696  1.00  0.00     0.194 C 
HETATM   12  S1  UNL     1      -9.468  25.665  22.962  1.00  0.00     0.088 S 
HETATM   13  N10 UNL     1      -9.168  24.035  20.857  1.00  0.00    -0.242 N 
HETATM   14  C4  UNL     1     -10.903  26.255  21.991  1.00  0.00     0.157 C 
HETATM   15  O1  UNL     1     -10.005  24.484  23.801  1.00  0.00    -0.250 OA
HETATM   16  C2  UNL     1     -11.123  25.279  20.865  1.00  0.00     0.093 C 
HETATM   17  C1  UNL     1     -10.685  25.824  19.540  1.00  0.00     0.049 C 
HETATM   18  C3  UNL     1     -12.644  25.088  20.803  1.00  0.00     0.049 C 
HETATM   19  O4  UNL     1     -10.538  24.047  21.055  1.00  0.00    -0.267 OA
ATOM     20  H10 UNL     1      -8.720  23.442  20.158  1.00  0.00     0.196 HD
ATOM     21  H1  UNL     1      -7.090  25.931  22.416  1.00  0.00     0.167 HD
ENDBRANCH   9  10
ENDBRANCH   8   9
ENDBRANCH   6   8
ENDBRANCH   5   6
ENDBRANCH   4   5
ENDBRANCH   3   4
ENDBRANCH   2   3
ENDBRANCH   1   2
BRANCH   1  22
HETATM   22  O3  UNL     1      -3.410  28.881  17.860  1.00  0.00    -0.263 OA
BRANCH  22  23
HETATM   23  N3  UNL     1      -2.413  29.157  18.501  1.00  0.00    -0.206 N 
ATOM     24  H3  UNL     1      -2.618  29.068  19.496  1.00  0.00     0.216 HD
BRANCH  23  25
HETATM   25  N4  UNL     1      -1.165  29.529  18.347  1.00  0.00    -0.262 N 
ATOM     26  H4  UNL     1      -0.340  28.964  18.146  1.00  0.00     0.190 HD
BRANCH  25  27
HETATM   27  C12 UNL     1      -1.277  30.992  18.545  1.00  0.00     0.182 A 
HETATM   28  N5  UNL     1      -2.295  31.738  18.679  1.00  0.00    -0.171 N 
HETATM   29  C13 UNL     1      -2.157  33.106  18.583  1.00  0.00     0.692 A 
ATOM     30  H5  UNL     1      -3.211  31.327  18.859  1.00  0.00     0.186 HD
HETATM   31  N6  UNL     1      -3.183  33.846  18.618  1.00  0.00    -0.233 N 
HETATM   32  N7  UNL     1      -0.907  33.623  18.340  1.00  0.00    -0.131 N 
ATOM     33  H62 UNL     1      -4.111  33.463  18.798  1.00  0.00     0.174 HD
ATOM     34  H61 UNL     1      -3.081  34.859  18.547  1.00  0.00     0.174 HD
HETATM   35  N8  UNL     1       0.156  32.854  18.218  1.00  0.00    -0.268 N 
ATOM     36  H7  UNL     1      -0.800  34.634  18.252  1.00  0.00     0.205 HD
HETATM   37  C14 UNL     1       0.009  31.516  18.319  1.00  0.00     0.161 A 
ATOM     38  H8  UNL     1       1.075  33.263  18.050  1.00  0.00     0.189 HD
BRANCH  37  39
HETATM   39  N9  UNL     1       1.055  30.837  18.191  1.00  0.00    -0.381 N 
ATOM     40  H92 UNL     1       0.957  29.832  18.333  1.00  0.00     0.157 HD
ATOM     41  H91 UNL     1       1.977  31.212  17.966  1.00  0.00     0.157 HD
ENDBRANCH  37  39
ENDBRANCH  25  27
ENDBRANCH  23  25
ENDBRANCH  22  23
ENDBRANCH   1  22
TORSDOF 13
ENDMDL
MODEL 5
REMARK VINA RESULT: -7.679810936      1.101      1.949
REMARK  13 active torsions:
REMARK  status: ('A' for Active; 'I' for Inactive)
REMARK    1  A    between atoms: N1_8  and  C6_10 
REMARK    2  A    between atoms: C6_10  and  C7_11 
REMARK    3  A    between atoms: C7_11  and  N2_12 
REMARK    4  A    between atoms: N2_12  and  C8_14 
REMARK    5  A    between atoms: C8_14  and  C9_15 
REMARK    6  A    between atoms: C9_15  and  O2_16 
REMARK    7  A    between atoms: O2_16  and  C10_17 
REMARK    8  A    between atoms: C10_17  and  C11_18 
REMARK    9  A    between atoms: C11_18  and  O3_19 
REMARK   10  A    between atoms: O3_19  and  N3_20 
REMARK   11  A    between atoms: N3_20  and  N4_22 
REMARK   12  A    between atoms: N4_22  and  C12_24 
REMARK   13  A    between atoms: C14_35  and  N9_36 
ROOT
HETATM    1  C11 UNL     1      -2.505  29.780  14.100  1.00  0.00     0.229 C 
ENDROOT
BRANCH   1   2
HETATM    2  C10 UNL     1      -1.255  29.350  15.067  1.00  0.00     0.196 C 
BRANCH   2   3
HETATM    3  O2  UNL     1      -1.595  29.743  16.303  1.00  0.00    -0.387 OA
BRANCH   3   4
HETATM    4  C9  UNL     1      -0.587  29.067  17.157  1.00  0.00     0.187 C 
BRANCH   4   5
HETATM    5  C8  UNL     1      -0.310  30.083  18.245  1.00  0.00     0.145 C 
BRANCH   5   6
HETATM    6  N2  UNL     1       0.697  31.049  17.774  1.00  0.00    -0.396 N 
ATOM      7  H2  UNL     1       1.243  30.872  16.931  1.00  0.00     0.159 HD
BRANCH   6   8
HETATM    8  C7  UNL     1       0.878  32.202  18.514  1.00  0.00     0.100 C 
BRANCH   8   9
HETATM    9  C6  UNL     1      -0.176  33.263  18.452  1.00  0.00     0.107 C 
BRANCH   9  10
HETATM   10  N1  UNL     1      -1.451  32.714  18.535  1.00  0.00    -0.342 N 
HETATM   11  C5  UNL     1      -2.626  32.965  18.274  1.00  0.00     0.194 C 
HETATM   12  S1  UNL     1      -3.831  31.701  18.711  1.00  0.00     0.088 S 
HETATM   13  N10 UNL     1      -3.232  34.121  17.730  1.00  0.00    -0.242 N 
HETATM   14  C4  UNL     1      -5.076  32.659  19.650  1.00  0.00     0.157 C 
HETATM   15  O1  UNL     1      -4.524  31.333  17.380  1.00  0.00    -0.250 OA
HETATM   16  C2  UNL     1      -5.134  34.040  19.053  1.00  0.00     0.093 C 
HETATM   17  C1  UNL     1      -4.474  35.068  19.920  1.00  0.00     0.049 C 
HETATM   18  C3  UNL     1      -6.628  34.380  18.993  1.00  0.00     0.049 C 
HETATM   19  O4  UNL     1      -4.616  34.133  17.780  1.00  0.00    -0.267 OA
ATOM     20  H10 UNL     1      -2.690  34.888  17.331  1.00  0.00     0.196 HD
ATOM     21  H1  UNL     1      -1.391  31.786  18.956  1.00  0.00     0.167 HD
ENDBRANCH   9  10
ENDBRANCH   8   9
ENDBRANCH   6   8
ENDBRANCH   5   6
ENDBRANCH   4   5
ENDBRANCH   3   4
ENDBRANCH   2   3
ENDBRANCH   1   2
BRANCH   1  22
HETATM   22  O3  UNL     1      -3.422  28.792  14.496  1.00  0.00    -0.263 OA
BRANCH  22  23
HETATM   23  N3  UNL     1      -4.242  28.696  15.390  1.00  0.00    -0.206 N 
ATOM     24  H3  UNL     1      -5.160  28.964  15.036  1.00  0.00     0.216 HD
BRANCH  23  25
HETATM   25  N4  UNL     1      -4.345  28.363  16.655  1.00  0.00    -0.262 N 
ATOM     26  H4  UNL     1      -4.793  28.864  17.422  1.00  0.00     0.190 HD
BRANCH  25  27
HETATM   27  C12 UNL     1      -3.635  27.065  16.667  1.00  0.00     0.182 A 
HETATM   28  N5  UNL     1      -3.458  26.204  15.751  1.00  0.00    -0.171 N 
HETATM   29  C13 UNL     1      -2.992  24.948  16.074  1.00  0.00     0.692 A 
ATOM     30  H5  UNL     1      -3.659  26.441  14.780  1.00  0.00     0.186 HD
HETATM   31  N6  UNL     1      -2.908  24.058  15.179  1.00  0.00    -0.233 N 
HETATM   32  N7  UNL     1      -2.732  24.665  17.394  1.00  0.00    -0.131 N 
ATOM     33  H62 UNL     1      -3.101  24.267  14.199  1.00  0.00     0.174 HD
ATOM     34  H61 UNL     1      -2.563  23.128  15.418  1.00  0.00     0.174 HD
HETATM   35  N8  UNL     1      -2.896  25.561  18.346  1.00  0.00    -0.268 N 
ATOM     36  H7  UNL     1      -2.401  23.733  17.643  1.00  0.00     0.205 HD
HETATM   37  C14 UNL     1      -3.349  26.789  18.017  1.00  0.00     0.161 A 
ATOM     38  H8  UNL     1      -2.684  25.330  19.317  1.00  0.00     0.189 HD
BRANCH  37  39
HETATM   39  N9  UNL     1      -3.489  27.596  18.966  1.00  0.00    -0.381 N 
ATOM     40  H92 UNL     1      -4.085  28.403  18.783  1.00  0.00     0.157 HD
ATOM     41  H91 UNL     1      -3.051  27.508  19.884  1.00  0.00     0.157 HD
ENDBRANCH  37  39
ENDBRANCH  25  27
ENDBRANCH  23  25
ENDBRANCH  22  23
ENDBRANCH   1  22
TORSDOF 13
ENDMDL
