MODEL 1
REMARK VINA RESULT: -5.674704585      0.000      0.000
REMARK  13 active torsions:
REMARK  status: ('A' for Active; 'I' for Inactive)
REMARK    1  A    between atoms: O1_2  and  N1_3 
REMARK    2  A    between atoms: N1_3  and  N2_4 
REMARK       I    between atoms: N2_4  and  C3_6 
REMARK    3  A    between atoms: C3_6  and  C4_8 
REMARK    4  A    between atoms: C5_9  and  N3_10 
REMARK    5  A    between atoms: N3_10  and  C6_12 
REMARK    6  A    between atoms: C6_12  and  O3_14 
REMARK    7  A    between atoms: C9_17  and  N4_18 
REMARK       I    between atoms: N4_18  and  C10_20 
REMARK    8  A    between atoms: C12_23  and  N5_24 
REMARK       I    between atoms: N5_24  and  C13_26 
REMARK    9  A    between atoms: C13_26  and  O6_28 
REMARK   10  A    between atoms: C15_30  and  C16_31 
REMARK   11  A    between atoms: C16_31  and  O7_32 
REMARK   12  A    between atoms: C16_31  and  C17_34 
REMARK   13  A    between atoms: C17_34  and  N6_35 
ROOT
HETATM    1  C4  UNL     1      -9.716  33.407  10.344  1.00  0.00     0.075 A 
HETATM    2  C5  UNL     1      -8.546  33.101  11.085  1.00  0.00     0.049 A 
HETATM    3  C8  UNL     1      -8.202  33.889  12.166  1.00  0.00     0.062 A 
HETATM    4  C9  UNL     1      -8.970  34.964  12.547  1.00  0.00     0.065 A 
HETATM    5  C12 UNL     1     -10.123  35.270  11.813  1.00  0.00     0.077 A 
HETATM    6  C15 UNL     1     -10.488  34.488  10.691  1.00  0.00     0.042 A 
ENDROOT
BRANCH   6   7
HETATM    7  C16 UNL     1     -11.520  35.122   9.866  1.00  0.00     0.082 C 
BRANCH   7   8
HETATM    8  O7  UNL     1     -12.738  34.968  10.329  1.00  0.00    -0.362 OA
ATOM      9  H7  UNL     1     -12.781  34.868  11.273  1.00  0.00     0.217 HD
ENDBRANCH   7   8
BRANCH   7  10
HETATM   10  C17 UNL     1     -11.473  35.920   8.652  1.00  0.00     0.294 C 
BRANCH  10  11
HETATM   11  N6  UNL     1     -11.537  37.349   8.995  1.00  0.00    -0.074 N 
ATOM     12  H63 UNL     1     -11.836  37.499   9.958  1.00  0.00     0.274 HD
ATOM     13  H62 UNL     1     -10.610  37.770   9.061  1.00  0.00     0.274 HD
ATOM     14  H61 UNL     1     -12.134  37.836   8.327  1.00  0.00     0.274 HD
ENDBRANCH  10  11
ENDBRANCH   7  10
ENDBRANCH   6   7
BRANCH   1  15
HETATM   15  C3  UNL     1      -9.955  32.515   9.245  1.00  0.00     0.274 C 
HETATM   16  N2  UNL     1     -10.774  31.360   9.359  1.00  0.00    -0.239 N 
HETATM   17  C2  UNL     1     -11.004  30.581   8.113  1.00  0.00     0.179 C 
HETATM   18  O2  UNL     1      -9.376  32.736   8.125  1.00  0.00    -0.266 OA
BRANCH  16  19
HETATM   19  N1  UNL     1     -11.393  30.851  10.479  1.00  0.00     0.025 NA
BRANCH  19  20
HETATM   20  O1  UNL     1     -10.903  29.585  10.714  1.00  0.00    -0.272 OA
HETATM   21  C1  UNL     1     -10.162  29.574  11.876  1.00  0.00     0.234 C 
ENDBRANCH  19  20
ENDBRANCH  16  19
ENDBRANCH   1  15
BRANCH   5  22
HETATM   22  N5  UNL     1     -10.867  36.351  12.261  1.00  0.00    -0.300 N 
HETATM   23  C13 UNL     1     -11.804  36.298  13.351  1.00  0.00     0.364 C 
HETATM   24  O5  UNL     1     -11.951  35.199  13.927  1.00  0.00    -0.238 OA
ATOM     25  H5  UNL     1     -10.741  37.245  11.785  1.00  0.00     0.171 HD
BRANCH  23  26
HETATM   26  O6  UNL     1     -12.521  37.389  13.766  1.00  0.00    -0.309 OA
HETATM   27  C14 UNL     1     -12.453  37.958  15.045  1.00  0.00     0.215 C 
ENDBRANCH  23  26
ENDBRANCH   5  22
BRANCH   2  28
HETATM   28  N3  UNL     1      -7.810  31.939  10.766  1.00  0.00    -0.363 N 
ATOM     29  H3  UNL     1      -8.209  31.007  10.874  1.00  0.00     0.162 HD
BRANCH  28  30
HETATM   30  C6  UNL     1      -6.426  32.139  10.267  1.00  0.00     0.213 C 
HETATM   31  C7  UNL     1      -6.330  31.660   8.832  1.00  0.00     0.063 C 
BRANCH  30  32
HETATM   32  O3  UNL     1      -5.634  31.278  11.060  1.00  0.00    -0.377 OA
ATOM     33  H3  UNL     1      -4.839  31.151  10.555  1.00  0.00     0.212 HD
ENDBRANCH  30  32
ENDBRANCH  28  30
ENDBRANCH   2  28
BRANCH   4  34
HETATM   34  N4  UNL     1      -8.634  35.780  13.641  1.00  0.00    -0.325 N 
HETATM   35  C10 UNL     1      -8.550  35.462  15.002  1.00  0.00     0.218 C 
HETATM   36  C11 UNL     1      -8.156  36.555  15.978  1.00  0.00     0.117 C 
HETATM   37  O4  UNL     1      -8.768  34.353  15.522  1.00  0.00    -0.274 OA
ATOM     38  H4  UNL     1      -8.418  36.749  13.408  1.00  0.00     0.169 HD
ENDBRANCH   4  34
TORSDOF 13
ENDMDL
MODEL 2
REMARK VINA RESULT: -5.139085536      6.772     10.956
REMARK  13 active torsions:
REMARK  status: ('A' for Active; 'I' for Inactive)
REMARK    1  A    between atoms: O1_2  and  N1_3 
REMARK    2  A    between atoms: N1_3  and  N2_4 
REMARK       I    between atoms: N2_4  and  C3_6 
REMARK    3  A    between atoms: C3_6  and  C4_8 
REMARK    4  A    between atoms: C5_9  and  N3_10 
REMARK    5  A    between atoms: N3_10  and  C6_12 
REMARK    6  A    between atoms: C6_12  and  O3_14 
REMARK    7  A    between atoms: C9_17  and  N4_18 
REMARK       I    between atoms: N4_18  and  C10_20 
REMARK    8  A    between atoms: C12_23  and  N5_24 
REMARK       I    between atoms: N5_24  and  C13_26 
REMARK    9  A    between atoms: C13_26  and  O6_28 
REMARK   10  A    between atoms: C15_30  and  C16_31 
REMARK   11  A    between atoms: C16_31  and  O7_32 
REMARK   12  A    between atoms: C16_31  and  C17_34 
REMARK   13  A    between atoms: C17_34  and  N6_35 
ROOT
HETATM    1  C4  UNL     1      -5.761  34.779  19.625  1.00  0.00     0.075 A 
HETATM    2  C5  UNL     1      -6.147  33.544  20.205  1.00  0.00     0.049 A 
HETATM    3  C8  UNL     1      -5.343  32.433  20.036  1.00  0.00     0.062 A 
HETATM    4  C9  UNL     1      -4.169  32.496  19.322  1.00  0.00     0.065 A 
HETATM    5  C12 UNL     1      -3.788  33.714  18.745  1.00  0.00     0.077 A 
HETATM    6  C15 UNL     1      -4.604  34.862  18.889  1.00  0.00     0.042 A 
ENDROOT
BRANCH   6   7
HETATM    7  C16 UNL     1      -4.228  35.946  17.977  1.00  0.00     0.082 C 
BRANCH   7   8
HETATM    8  O7  UNL     1      -3.739  35.531  16.833  1.00  0.00    -0.362 OA
ATOM      9  H7  UNL     1      -4.058  36.015  16.080  1.00  0.00     0.217 HD
ENDBRANCH   7   8
BRANCH   7  10
HETATM   10  C17 UNL     1      -4.316  37.395  18.063  1.00  0.00     0.294 C 
BRANCH  10  11
HETATM   11  N6  UNL     1      -5.286  37.892  17.076  1.00  0.00    -0.074 N 
ATOM     12  H63 UNL     1      -4.906  37.892  16.130  1.00  0.00     0.274 HD
ATOM     13  H62 UNL     1      -6.053  37.235  16.926  1.00  0.00     0.274 HD
ATOM     14  H61 UNL     1      -5.620  38.814  17.356  1.00  0.00     0.274 HD
ENDBRANCH  10  11
ENDBRANCH   7  10
ENDBRANCH   6   7
BRANCH   1  15
HETATM   15  C3  UNL     1      -6.685  35.849  19.871  1.00  0.00     0.274 C 
HETATM   16  N2  UNL     1      -7.663  36.250  18.922  1.00  0.00    -0.239 N 
HETATM   17  C2  UNL     1      -8.611  37.312  19.351  1.00  0.00     0.179 C 
HETATM   18  O2  UNL     1      -6.605  36.502  20.968  1.00  0.00    -0.266 OA
BRANCH  16  19
HETATM   19  N1  UNL     1      -7.857  35.789  17.638  1.00  0.00     0.025 NA
BRANCH  19  20
HETATM   20  O1  UNL     1      -8.027  36.872  16.804  1.00  0.00    -0.272 OA
HETATM   21  C1  UNL     1      -8.273  36.443  15.518  1.00  0.00     0.234 C 
ENDBRANCH  19  20
ENDBRANCH  16  19
ENDBRANCH   1  15
BRANCH   5  22
HETATM   22  N5  UNL     1      -2.585  33.718  18.057  1.00  0.00    -0.300 N 
HETATM   23  C13 UNL     1      -1.297  33.532  18.672  1.00  0.00     0.364 C 
HETATM   24  O5  UNL     1      -1.272  33.357  19.908  1.00  0.00    -0.238 OA
ATOM     25  H5  UNL     1      -2.614  33.862  17.048  1.00  0.00     0.171 HD
BRANCH  23  26
HETATM   26  O6  UNL     1      -0.127  33.541  17.958  1.00  0.00    -0.309 OA
HETATM   27  C14 UNL     1       0.978  32.717  18.212  1.00  0.00     0.215 C 
ENDBRANCH  23  26
ENDBRANCH   5  22
BRANCH   2  28
HETATM   28  N3  UNL     1      -7.294  33.495  21.026  1.00  0.00    -0.363 N 
ATOM     29  H3  UNL     1      -8.221  33.719  20.664  1.00  0.00     0.162 HD
BRANCH  28  30
HETATM   30  C6  UNL     1      -7.088  33.101  22.442  1.00  0.00     0.213 C 
HETATM   31  C7  UNL     1      -8.432  32.937  23.124  1.00  0.00     0.063 C 
BRANCH  30  32
HETATM   32  O3  UNL     1      -6.443  34.213  23.030  1.00  0.00    -0.377 OA
ATOM     33  H3  UNL     1      -5.798  33.834  23.616  1.00  0.00     0.212 HD
ENDBRANCH  30  32
ENDBRANCH  28  30
ENDBRANCH   2  28
BRANCH   4  34
HETATM   34  N4  UNL     1      -3.341  31.376  19.136  1.00  0.00    -0.325 N 
HETATM   35  C10 UNL     1      -3.347  30.417  18.115  1.00  0.00     0.218 C 
HETATM   36  C11 UNL     1      -2.322  29.300  18.165  1.00  0.00     0.117 C 
HETATM   37  O4  UNL     1      -4.120  30.372  17.142  1.00  0.00    -0.274 OA
ATOM     38  H4  UNL     1      -2.627  31.242  19.852  1.00  0.00     0.169 HD
ENDBRANCH   4  34
TORSDOF 13
ENDMDL
MODEL 3
REMARK VINA RESULT: -5.058744786      8.994     11.583
REMARK  13 active torsions:
REMARK  status: ('A' for Active; 'I' for Inactive)
REMARK    1  A    between atoms: O1_2  and  N1_3 
REMARK    2  A    between atoms: N1_3  and  N2_4 
REMARK       I    between atoms: N2_4  and  C3_6 
REMARK    3  A    between atoms: C3_6  and  C4_8 
REMARK    4  A    between atoms: C5_9  and  N3_10 
REMARK    5  A    between atoms: N3_10  and  C6_12 
REMARK    6  A    between atoms: C6_12  and  O3_14 
REMARK    7  A    between atoms: C9_17  and  N4_18 
REMARK       I    between atoms: N4_18  and  C10_20 
REMARK    8  A    between atoms: C12_23  and  N5_24 
REMARK       I    between atoms: N5_24  and  C13_26 
REMARK    9  A    between atoms: C13_26  and  O6_28 
REMARK   10  A    between atoms: C15_30  and  C16_31 
REMARK   11  A    between atoms: C16_31  and  O7_32 
REMARK   12  A    between atoms: C16_31  and  C17_34 
REMARK   13  A    between atoms: C17_34  and  N6_35 
ROOT
HETATM    1  C4  UNL     1      -5.744  34.767  19.655  1.00  0.00     0.075 A 
HETATM    2  C5  UNL     1      -6.129  33.527  20.224  1.00  0.00     0.049 A 
HETATM    3  C8  UNL     1      -5.328  32.416  20.037  1.00  0.00     0.062 A 
HETATM    4  C9  UNL     1      -4.160  32.485  19.315  1.00  0.00     0.065 A 
HETATM    5  C12 UNL     1      -3.781  33.708  18.748  1.00  0.00     0.077 A 
HETATM    6  C15 UNL     1      -4.593  34.856  18.911  1.00  0.00     0.042 A 
ENDROOT
BRANCH   6   7
HETATM    7  C16 UNL     1      -4.222  35.948  18.008  1.00  0.00     0.082 C 
BRANCH   7   8
HETATM    8  O7  UNL     1      -3.751  35.545  16.852  1.00  0.00    -0.362 OA
ATOM      9  H7  UNL     1      -2.835  35.755  16.714  1.00  0.00     0.217 HD
ENDBRANCH   7   8
BRANCH   7  10
HETATM   10  C17 UNL     1      -4.297  37.397  18.113  1.00  0.00     0.294 C 
BRANCH  10  11
HETATM   11  N6  UNL     1      -5.503  37.882  17.425  1.00  0.00    -0.074 N 
ATOM     12  H63 UNL     1      -5.544  37.569  16.455  1.00  0.00     0.274 HD
ATOM     13  H62 UNL     1      -6.349  37.422  17.763  1.00  0.00     0.274 HD
ATOM     14  H61 UNL     1      -5.560  38.897  17.504  1.00  0.00     0.274 HD
ENDBRANCH  10  11
ENDBRANCH   7  10
ENDBRANCH   6   7
BRANCH   1  15
HETATM   15  C3  UNL     1      -6.665  35.836  19.918  1.00  0.00     0.274 C 
HETATM   16  N2  UNL     1      -6.549  36.686  21.051  1.00  0.00    -0.239 N 
HETATM   17  C2  UNL     1      -7.522  37.807  21.144  1.00  0.00     0.179 C 
HETATM   18  O2  UNL     1      -7.659  36.011  19.132  1.00  0.00    -0.266 OA
BRANCH  16  19
HETATM   19  N1  UNL     1      -5.650  36.615  22.092  1.00  0.00     0.025 NA
BRANCH  19  20
HETATM   20  O1  UNL     1      -6.141  35.741  23.036  1.00  0.00    -0.272 OA
HETATM   21  C1  UNL     1      -5.788  36.165  24.299  1.00  0.00     0.234 C 
ENDBRANCH  19  20
ENDBRANCH  16  19
ENDBRANCH   1  15
BRANCH   5  22
HETATM   22  N5  UNL     1      -2.582  33.717  18.052  1.00  0.00    -0.300 N 
HETATM   23  C13 UNL     1      -1.290  33.527  18.655  1.00  0.00     0.364 C 
HETATM   24  O5  UNL     1      -1.256  33.344  19.891  1.00  0.00    -0.238 OA
ATOM     25  H5  UNL     1      -2.619  33.867  17.043  1.00  0.00     0.171 HD
BRANCH  23  26
HETATM   26  O6  UNL     1      -0.125  33.541  17.933  1.00  0.00    -0.309 OA
HETATM   27  C14 UNL     1       0.995  32.740  18.195  1.00  0.00     0.215 C 
ENDBRANCH  23  26
ENDBRANCH   5  22
BRANCH   2  28
HETATM   28  N3  UNL     1      -7.270  33.471  21.053  1.00  0.00    -0.363 N 
ATOM     29  H3  UNL     1      -8.041  34.130  20.946  1.00  0.00     0.162 HD
BRANCH  28  30
HETATM   30  C6  UNL     1      -7.294  32.408  22.089  1.00  0.00     0.213 C 
HETATM   31  C7  UNL     1      -8.702  32.260  22.631  1.00  0.00     0.063 C 
BRANCH  30  32
HETATM   32  O3  UNL     1      -6.484  32.911  23.133  1.00  0.00    -0.377 OA
ATOM     33  H3  UNL     1      -6.070  32.141  23.506  1.00  0.00     0.212 HD
ENDBRANCH  30  32
ENDBRANCH  28  30
ENDBRANCH   2  28
BRANCH   4  34
HETATM   34  N4  UNL     1      -3.335  31.365  19.111  1.00  0.00    -0.325 N 
HETATM   35  C10 UNL     1      -3.358  30.411  18.086  1.00  0.00     0.218 C 
HETATM   36  C11 UNL     1      -2.333  29.293  18.114  1.00  0.00     0.117 C 
HETATM   37  O4  UNL     1      -4.146  30.372  17.124  1.00  0.00    -0.274 OA
ATOM     38  H4  UNL     1      -2.611  31.227  19.816  1.00  0.00     0.169 HD
ENDBRANCH   4  34
TORSDOF 13
ENDMDL
MODEL 4
REMARK VINA RESULT: -5.030784572      2.450      6.651
REMARK  13 active torsions:
REMARK  status: ('A' for Active; 'I' for Inactive)
REMARK    1  A    between atoms: O1_2  and  N1_3 
REMARK    2  A    between atoms: N1_3  and  N2_4 
REMARK       I    between atoms: N2_4  and  C3_6 
REMARK    3  A    between atoms: C3_6  and  C4_8 
REMARK    4  A    between atoms: C5_9  and  N3_10 
REMARK    5  A    between atoms: N3_10  and  C6_12 
REMARK    6  A    between atoms: C6_12  and  O3_14 
REMARK    7  A    between atoms: C9_17  and  N4_18 
REMARK       I    between atoms: N4_18  and  C10_20 
REMARK    8  A    between atoms: C12_23  and  N5_24 
REMARK       I    between atoms: N5_24  and  C13_26 
REMARK    9  A    between atoms: C13_26  and  O6_28 
REMARK   10  A    between atoms: C15_30  and  C16_31 
REMARK   11  A    between atoms: C16_31  and  O7_32 
REMARK   12  A    between atoms: C16_31  and  C17_34 
REMARK   13  A    between atoms: C17_34  and  N6_35 
ROOT
HETATM    1  C4  UNL     1      -9.728  36.748  13.630  1.00  0.00     0.075 A 
HETATM    2  C5  UNL     1      -9.536  35.833  14.696  1.00  0.00     0.049 A 
HETATM    3  C8  UNL     1      -9.492  34.478  14.428  1.00  0.00     0.062 A 
HETATM    4  C9  UNL     1      -9.625  33.993  13.148  1.00  0.00     0.065 A 
HETATM    5  C12 UNL     1      -9.819  34.895  12.095  1.00  0.00     0.077 A 
HETATM    6  C15 UNL     1      -9.885  36.287  12.346  1.00  0.00     0.042 A 
ENDROOT
BRANCH   6   7
HETATM    7  C16 UNL     1     -10.399  37.047  11.204  1.00  0.00     0.082 C 
BRANCH   7   8
HETATM    8  O7  UNL     1      -9.525  37.213  10.240  1.00  0.00    -0.362 OA
ATOM      9  H7  UNL     1      -9.022  38.015  10.310  1.00  0.00     0.217 HD
ENDBRANCH   7   8
BRANCH   7  10
HETATM   10  C17 UNL     1     -11.695  37.633  10.900  1.00  0.00     0.294 C 
BRANCH  10  11
HETATM   11  N6  UNL     1     -11.668  39.074  11.189  1.00  0.00    -0.074 N 
ATOM     12  H63 UNL     1     -11.660  39.265  12.191  1.00  0.00     0.274 HD
ATOM     13  H62 UNL     1     -10.771  39.497  10.951  1.00  0.00     0.274 HD
ATOM     14  H61 UNL     1     -12.447  39.534  10.718  1.00  0.00     0.274 HD
ENDBRANCH  10  11
ENDBRANCH   7  10
ENDBRANCH   6   7
BRANCH   1  15
HETATM   15  C3  UNL     1      -9.759  38.122  14.045  1.00  0.00     0.274 C 
HETATM   16  N2  UNL     1      -8.586  38.847  14.386  1.00  0.00    -0.239 N 
HETATM   17  C2  UNL     1      -8.765  40.287  14.709  1.00  0.00     0.179 C 
HETATM   18  O2  UNL     1     -10.888  38.713  14.157  1.00  0.00    -0.266 OA
BRANCH  16  19
HETATM   19  N1  UNL     1      -7.288  38.395  14.465  1.00  0.00     0.025 NA
BRANCH  19  20
HETATM   20  O1  UNL     1      -6.898  38.408  15.786  1.00  0.00    -0.272 OA
HETATM   21  C1  UNL     1      -5.683  39.047  15.913  1.00  0.00     0.234 C 
ENDBRANCH  19  20
ENDBRANCH  16  19
ENDBRANCH   1  15
BRANCH   5  22
HETATM   22  N5  UNL     1      -9.924  34.345  10.827  1.00  0.00    -0.300 N 
HETATM   23  C13 UNL     1     -11.131  33.784  10.281  1.00  0.00     0.364 C 
HETATM   24  O5  UNL     1     -12.148  33.797  11.007  1.00  0.00    -0.238 OA
ATOM     25  H5  UNL     1      -9.089  34.338  10.241  1.00  0.00     0.171 HD
BRANCH  23  26
HETATM   26  O6  UNL     1     -11.196  33.250   9.021  1.00  0.00    -0.309 OA
HETATM   27  C14 UNL     1     -10.740  31.974   8.662  1.00  0.00     0.215 C 
ENDBRANCH  23  26
ENDBRANCH   5  22
BRANCH   2  28
HETATM   28  N3  UNL     1      -9.294  36.327  15.996  1.00  0.00    -0.363 N 
ATOM     29  H3  UNL     1      -9.681  37.216  16.310  1.00  0.00     0.162 HD
BRANCH  28  30
HETATM   30  C6  UNL     1      -8.449  35.489  16.884  1.00  0.00     0.213 C 
HETATM   31  C7  UNL     1      -8.649  35.916  18.325  1.00  0.00     0.063 C 
BRANCH  30  32
HETATM   32  O3  UNL     1      -7.122  35.815  16.522  1.00  0.00    -0.377 OA
ATOM     33  H3  UNL     1      -6.607  35.068  16.806  1.00  0.00     0.212 HD
ENDBRANCH  30  32
ENDBRANCH  28  30
ENDBRANCH   2  28
BRANCH   4  34
HETATM   34  N4  UNL     1      -9.588  32.618  12.857  1.00  0.00    -0.325 N 
HETATM   35  C10 UNL     1      -8.652  31.885  12.117  1.00  0.00     0.218 C 
HETATM   36  C11 UNL     1      -8.862  30.390  11.962  1.00  0.00     0.117 C 
HETATM   37  O4  UNL     1      -7.637  32.329  11.552  1.00  0.00    -0.274 OA
ATOM     38  H4  UNL     1     -10.358  32.072  13.244  1.00  0.00     0.169 HD
ENDBRANCH   4  34
TORSDOF 13
ENDMDL
MODEL 5
REMARK VINA RESULT: -4.983845201      9.391     12.184
REMARK  13 active torsions:
REMARK  status: ('A' for Active; 'I' for Inactive)
REMARK    1  A    between atoms: O1_2  and  N1_3 
REMARK    2  A    between atoms: N1_3  and  N2_4 
REMARK       I    between atoms: N2_4  and  C3_6 
REMARK    3  A    between atoms: C3_6  and  C4_8 
REMARK    4  A    between atoms: C5_9  and  N3_10 
REMARK    5  A    between atoms: N3_10  and  C6_12 
REMARK    6  A    between atoms: C6_12  and  O3_14 
REMARK    7  A    between atoms: C9_17  and  N4_18 
REMARK       I    between atoms: N4_18  and  C10_20 
REMARK    8  A    between atoms: C12_23  and  N5_24 
REMARK       I    between atoms: N5_24  and  C13_26 
REMARK    9  A    between atoms: C13_26  and  O6_28 
REMARK   10  A    between atoms: C15_30  and  C16_31 
REMARK   11  A    between atoms: C16_31  and  O7_32 
REMARK   12  A    between atoms: C16_31  and  C17_34 
REMARK   13  A    between atoms: C17_34  and  N6_35 
ROOT
HETATM    1  C4  UNL     1      -6.479  36.582  20.746  1.00  0.00     0.075 A 
HETATM    2  C5  UNL     1      -5.959  36.499  19.429  1.00  0.00     0.049 A 
HETATM    3  C8  UNL     1      -5.456  35.296  18.972  1.00  0.00     0.062 A 
HETATM    4  C9  UNL     1      -5.451  34.171  19.762  1.00  0.00     0.065 A 
HETATM    5  C12 UNL     1      -5.959  34.252  21.065  1.00  0.00     0.077 A 
HETATM    6  C15 UNL     1      -6.465  35.478  21.563  1.00  0.00     0.042 A 
ENDROOT
BRANCH   6   7
HETATM    7  C16 UNL     1      -6.658  35.466  23.015  1.00  0.00     0.082 C 
BRANCH   7   8
HETATM    8  O7  UNL     1      -5.544  35.569  23.699  1.00  0.00    -0.362 OA
ATOM      9  H7  UNL     1      -5.527  36.308  24.297  1.00  0.00     0.217 HD
ENDBRANCH   7   8
BRANCH   7  10
HETATM   10  C17 UNL     1      -7.838  35.397  23.862  1.00  0.00     0.294 C 
BRANCH  10  11
HETATM   11  N6  UNL     1      -9.031  35.168  23.033  1.00  0.00    -0.074 N 
ATOM     12  H63 UNL     1      -8.900  35.492  22.074  1.00  0.00     0.274 HD
ATOM     13  H62 UNL     1      -9.178  34.178  22.835  1.00  0.00     0.274 HD
ATOM     14  H61 UNL     1      -9.844  35.596  23.475  1.00  0.00     0.274 HD
ENDBRANCH  10  11
ENDBRANCH   7  10
ENDBRANCH   6   7
BRANCH   1  15
HETATM   15  C3  UNL     1      -6.963  37.887  21.097  1.00  0.00     0.274 C 
HETATM   16  N2  UNL     1      -6.220  38.790  21.902  1.00  0.00    -0.239 N 
HETATM   17  C2  UNL     1      -6.810  40.140  22.107  1.00  0.00     0.179 C 
HETATM   18  O2  UNL     1      -8.130  38.243  20.710  1.00  0.00    -0.266 OA
BRANCH  16  19
HETATM   19  N1  UNL     1      -5.013  38.587  22.534  1.00  0.00     0.025 NA
BRANCH  19  20
HETATM   20  O1  UNL     1      -5.232  38.528  23.892  1.00  0.00    -0.272 OA
HETATM   21  C1  UNL     1      -4.037  38.641  24.568  1.00  0.00     0.234 C 
ENDBRANCH  19  20
ENDBRANCH  16  19
ENDBRANCH   1  15
BRANCH   5  22
HETATM   22  N5  UNL     1      -5.947  33.079  21.803  1.00  0.00    -0.300 N 
HETATM   23  C13 UNL     1      -7.101  32.252  22.035  1.00  0.00     0.364 C 
HETATM   24  O5  UNL     1      -8.183  32.625  21.533  1.00  0.00    -0.238 OA
ATOM     25  H5  UNL     1      -5.059  32.782  22.209  1.00  0.00     0.171 HD
BRANCH  23  26
HETATM   26  O6  UNL     1      -7.050  31.097  22.770  1.00  0.00    -0.309 OA
HETATM   27  C14 UNL     1      -8.079  30.619  23.592  1.00  0.00     0.215 C 
ENDBRANCH  23  26
ENDBRANCH   5  22
BRANCH   2  28
HETATM   28  N3  UNL     1      -6.057  37.620  18.576  1.00  0.00    -0.363 N 
ATOM     29  H3  UNL     1      -6.959  37.990  18.281  1.00  0.00     0.162 HD
BRANCH  28  30
HETATM   30  C6  UNL     1      -4.781  38.234  18.129  1.00  0.00     0.213 C 
HETATM   31  C7  UNL     1      -4.702  39.661  18.632  1.00  0.00     0.063 C 
BRANCH  30  32
HETATM   32  O3  UNL     1      -4.884  38.282  16.720  1.00  0.00    -0.377 OA
ATOM     33  H3  UNL     1      -5.526  38.962  16.550  1.00  0.00     0.212 HD
ENDBRANCH  30  32
ENDBRANCH  28  30
ENDBRANCH   2  28
BRANCH   4  34
HETATM   34  N4  UNL     1      -4.940  32.941  19.316  1.00  0.00    -0.325 N 
HETATM   35  C10 UNL     1      -3.611  32.515  19.193  1.00  0.00     0.218 C 
HETATM   36  C11 UNL     1      -3.344  31.113  18.679  1.00  0.00     0.117 C 
HETATM   37  O4  UNL     1      -2.591  33.173  19.465  1.00  0.00    -0.274 OA
ATOM     38  H4  UNL     1      -5.642  32.254  19.041  1.00  0.00     0.169 HD
ENDBRANCH   4  34
TORSDOF 13
ENDMDL
