MODEL 1
REMARK VINA RESULT: -8.434780713      0.000      0.000
REMARK  16 active torsions:
REMARK  status: ('A' for Active; 'I' for Inactive)
REMARK    1  A    between atoms: O1_2  and  C2_3 
REMARK    2  A    between atoms: C5_6  and  C6_7 
REMARK    3  A    between atoms: C7_8  and  C8_9 
REMARK    4  A    between atoms: C8_9  and  O2_10 
REMARK    5  A    between atoms: C8_9  and  C9_12 
REMARK    6  A    between atoms: C10_17  and  N3_18 
REMARK    7  A    between atoms: N3_18  and  C11_20 
REMARK    8  A    between atoms: C11_20  and  O3_21 
REMARK    9  A    between atoms: C11_20  and  C12_23 
REMARK   10  A    between atoms: C12_23  and  O4_24 
REMARK   11  A    between atoms: C12_23  and  C13_26 
REMARK   12  A    between atoms: C13_26  and  C14_27 
REMARK   13  A    between atoms: C13_26  and  C15_29 
REMARK   14  A    between atoms: C15_29  and  O6_30 
REMARK   15  A    between atoms: C16_32  and  O7_33 
REMARK   16  A    between atoms: C17_35  and  O8_36 
ROOT
HETATM    1  C9  UNL     1      -2.585  28.371  16.996  1.00  0.00     0.094 A 
HETATM    2  N1  UNL     1      -3.456  29.083  17.731  1.00  0.00    -0.297 N 
ATOM      3  H1  UNL     1      -4.415  28.747  17.819  1.00  0.00     0.187 HD
HETATM    4  N2  UNL     1      -3.119  30.185  18.336  1.00  0.00    -0.283 N 
ATOM      5  H2  UNL     1      -3.832  30.676  18.877  1.00  0.00     0.188 HD
HETATM    6  C10 UNL     1      -1.849  30.728  18.284  1.00  0.00     0.154 A 
HETATM    7  C16 UNL     1      -0.921  30.037  17.545  1.00  0.00     0.146 A 
HETATM    8  C17 UNL     1      -1.316  28.857  16.909  1.00  0.00     0.130 A 
ENDROOT
BRANCH   1   9
HETATM    9  C8  UNL     1      -3.031  27.110  16.286  1.00  0.00     0.195 C 
BRANCH   9  10
HETATM   10  C7  UNL     1      -2.465  25.916  16.831  1.00  0.00     0.013 C 
HETATM   11  C6  UNL     1      -2.766  25.225  17.864  1.00  0.00     0.028 C 
BRANCH  11  12
HETATM   12  C5  UNL     1      -3.764  25.312  18.906  1.00  0.00     0.031 A 
HETATM   13  C4  UNL     1      -4.762  24.413  19.160  1.00  0.00     0.032 A 
HETATM   14  C3  UNL     1      -5.687  24.611  20.178  1.00  0.00     0.040 A 
HETATM   15  C2  UNL     1      -5.637  25.713  20.968  1.00  0.00     0.083 A 
HETATM   16  C18 UNL     1      -4.627  26.613  20.704  1.00  0.00     0.125 A 
HETATM   17  N4  UNL     1      -3.751  26.415  19.731  1.00  0.00    -0.363 N 
ATOM     18  H4  UNL     1      -3.026  27.118  19.585  1.00  0.00     0.165 HD
BRANCH  15  19
HETATM   19  O1  UNL     1      -6.505  25.994  21.996  1.00  0.00    -0.355 OA
HETATM   20  C1  UNL     1      -7.701  25.336  22.267  1.00  0.00     0.210 C 
ENDBRANCH  15  19
ENDBRANCH  11  12
ENDBRANCH   9  10
BRANCH   9  21
HETATM   21  O2  UNL     1      -4.444  27.049  16.414  1.00  0.00    -0.385 OA
ATOM     22  H2  UNL     1      -4.839  27.299  15.586  1.00  0.00     0.210 HD
ENDBRANCH   9  21
ENDBRANCH   1   9
BRANCH   8  23
HETATM   23  O8  UNL     1      -0.383  28.180  16.182  1.00  0.00    -0.356 OA
ATOM     24  H8  UNL     1      -0.313  27.236  16.269  1.00  0.00     0.218 HD
ENDBRANCH   8  23
BRANCH   7  25
HETATM   25  O7  UNL     1       0.381  30.442  17.395  1.00  0.00    -0.355 OA
ATOM     26  H7  UNL     1       0.643  31.172  16.846  1.00  0.00     0.218 HD
ENDBRANCH   7  25
BRANCH   6  27
HETATM   27  N3  UNL     1      -1.709  31.779  18.919  1.00  0.00    -0.344 N 
ATOM     28  H3  UNL     1      -1.332  31.538  19.835  1.00  0.00     0.163 HD
BRANCH  27  29
HETATM   29  C11 UNL     1      -1.861  33.151  18.880  1.00  0.00     0.248 C 
BRANCH  29  30
HETATM   30  O3  UNL     1      -0.885  33.787  18.071  1.00  0.00    -0.374 OA
ATOM     31  H3  UNL     1      -0.026  33.797  18.476  1.00  0.00     0.212 HD
ENDBRANCH  29  30
BRANCH  29  32
HETATM   32  C12 UNL     1      -3.187  33.496  18.170  1.00  0.00     0.179 C 
BRANCH  32  33
HETATM   33  O4  UNL     1      -3.016  34.375  17.129  1.00  0.00    -0.390 OA
ATOM     34  H4  UNL     1      -3.827  34.559  16.669  1.00  0.00     0.210 HD
ENDBRANCH  32  33
BRANCH  32  35
HETATM   35  C13 UNL     1      -4.321  33.782  19.071  1.00  0.00     0.103 C 
BRANCH  35  36
HETATM   36  C14 UNL     1      -5.381  32.727  18.997  1.00  0.00     0.240 C 
HETATM   37  O5  UNL     1      -5.517  32.014  18.017  1.00  0.00    -0.306 OA
ENDBRANCH  35  36
BRANCH  35  38
HETATM   38  C15 UNL     1      -4.937  35.129  18.833  1.00  0.00     0.178 C 
BRANCH  38  39
HETATM   39  O6  UNL     1      -5.849  35.060  17.748  1.00  0.00    -0.400 OA
ATOM     40  H6  UNL     1      -6.645  35.530  17.963  1.00  0.00     0.209 HD
ENDBRANCH  38  39
ENDBRANCH  35  38
ENDBRANCH  32  35
ENDBRANCH  29  32
ENDBRANCH  27  29
ENDBRANCH   6  27
TORSDOF 16
ENDMDL
MODEL 2
REMARK VINA RESULT: -8.330330571      3.537      8.868
REMARK  16 active torsions:
REMARK  status: ('A' for Active; 'I' for Inactive)
REMARK    1  A    between atoms: O1_2  and  C2_3 
REMARK    2  A    between atoms: C5_6  and  C6_7 
REMARK    3  A    between atoms: C7_8  and  C8_9 
REMARK    4  A    between atoms: C8_9  and  O2_10 
REMARK    5  A    between atoms: C8_9  and  C9_12 
REMARK    6  A    between atoms: C10_17  and  N3_18 
REMARK    7  A    between atoms: N3_18  and  C11_20 
REMARK    8  A    between atoms: C11_20  and  O3_21 
REMARK    9  A    between atoms: C11_20  and  C12_23 
REMARK   10  A    between atoms: C12_23  and  O4_24 
REMARK   11  A    between atoms: C12_23  and  C13_26 
REMARK   12  A    between atoms: C13_26  and  C14_27 
REMARK   13  A    between atoms: C13_26  and  C15_29 
REMARK   14  A    between atoms: C15_29  and  O6_30 
REMARK   15  A    between atoms: C16_32  and  O7_33 
REMARK   16  A    between atoms: C17_35  and  O8_36 
ROOT
HETATM    1  C9  UNL     1      -3.345  29.649  17.513  1.00  0.00     0.094 A 
HETATM    2  N1  UNL     1      -2.657  28.606  18.006  1.00  0.00    -0.297 N 
ATOM      3  H1  UNL     1      -2.314  28.653  18.965  1.00  0.00     0.187 HD
HETATM    4  N2  UNL     1      -2.413  27.538  17.303  1.00  0.00    -0.283 N 
ATOM      5  H2  UNL     1      -1.884  26.783  17.741  1.00  0.00     0.188 HD
HETATM    6  C10 UNL     1      -2.832  27.371  15.996  1.00  0.00     0.154 A 
HETATM    7  C16 UNL     1      -3.541  28.409  15.446  1.00  0.00     0.146 A 
HETATM    8  C17 UNL     1      -3.785  29.541  16.228  1.00  0.00     0.130 A 
ENDROOT
BRANCH   1   9
HETATM    9  C8  UNL     1      -3.579  30.884  18.358  1.00  0.00     0.195 C 
BRANCH   9  10
HETATM   10  C7  UNL     1      -2.545  31.863  18.237  1.00  0.00     0.013 C 
HETATM   11  C6  UNL     1      -2.561  33.137  18.346  1.00  0.00     0.028 C 
BRANCH  11  12
HETATM   12  C5  UNL     1      -3.569  34.133  18.631  1.00  0.00     0.031 A 
HETATM   13  C4  UNL     1      -3.875  35.227  17.871  1.00  0.00     0.032 A 
HETATM   14  C3  UNL     1      -4.851  36.139  18.256  1.00  0.00     0.040 A 
HETATM   15  C2  UNL     1      -5.545  35.979  19.410  1.00  0.00     0.083 A 
HETATM   16  C18 UNL     1      -5.230  34.872  20.170  1.00  0.00     0.125 A 
HETATM   17  N4  UNL     1      -4.298  34.011  19.794  1.00  0.00    -0.363 N 
ATOM     18  H4  UNL     1      -4.109  33.211  20.399  1.00  0.00     0.165 HD
BRANCH  15  19
HETATM   19  O1  UNL     1      -6.525  36.824  19.872  1.00  0.00    -0.355 OA
HETATM   20  C1  UNL     1      -7.414  37.559  19.092  1.00  0.00     0.210 C 
ENDBRANCH  15  19
ENDBRANCH  11  12
ENDBRANCH   9  10
BRANCH   9  21
HETATM   21  O2  UNL     1      -4.804  31.451  17.920  1.00  0.00    -0.385 OA
ATOM     22  H2  UNL     1      -4.757  31.599  16.982  1.00  0.00     0.210 HD
ENDBRANCH   9  21
ENDBRANCH   1   9
BRANCH   8  23
HETATM   23  O8  UNL     1      -4.493  30.563  15.670  1.00  0.00    -0.356 OA
ATOM     24  H8  UNL     1      -4.075  31.133  15.035  1.00  0.00     0.218 HD
ENDBRANCH   8  23
BRANCH   7  25
HETATM   25  O7  UNL     1      -4.025  28.399  14.163  1.00  0.00    -0.355 OA
ATOM     26  H7  UNL     1      -4.940  28.261  13.949  1.00  0.00     0.218 HD
ENDBRANCH   7  25
BRANCH   6  27
HETATM   27  N3  UNL     1      -2.510  26.292  15.484  1.00  0.00    -0.344 N 
ATOM     28  H3  UNL     1      -2.754  26.337  14.495  1.00  0.00     0.163 HD
BRANCH  27  29
HETATM   29  C11 UNL     1      -1.952  25.051  15.720  1.00  0.00     0.248 C 
BRANCH  29  30
HETATM   30  O3  UNL     1      -2.542  24.389  16.827  1.00  0.00    -0.374 OA
ATOM     31  H3  UNL     1      -2.440  23.446  16.784  1.00  0.00     0.212 HD
ENDBRANCH  29  30
BRANCH  29  32
HETATM   32  C12 UNL     1      -2.273  24.116  14.535  1.00  0.00     0.179 C 
BRANCH  32  33
HETATM   33  O4  UNL     1      -3.347  23.298  14.784  1.00  0.00    -0.390 OA
ATOM     34  H4  UNL     1      -3.509  22.683  14.078  1.00  0.00     0.210 HD
ENDBRANCH  32  33
BRANCH  32  35
HETATM   35  C13 UNL     1      -1.099  23.465  13.920  1.00  0.00     0.103 C 
BRANCH  35  36
HETATM   36  C14 UNL     1      -1.467  22.671  12.704  1.00  0.00     0.240 C 
HETATM   37  O5  UNL     1      -2.587  22.706  12.224  1.00  0.00    -0.306 OA
ENDBRANCH  35  36
BRANCH  35  38
HETATM   38  C15 UNL     1      -0.340  22.595  14.877  1.00  0.00     0.178 C 
BRANCH  38  39
HETATM   39  O6  UNL     1      -1.240  21.944  15.759  1.00  0.00    -0.400 OA
ATOM     40  H6  UNL     1      -0.788  21.688  16.554  1.00  0.00     0.209 HD
ENDBRANCH  38  39
ENDBRANCH  35  38
ENDBRANCH  32  35
ENDBRANCH  29  32
ENDBRANCH  27  29
ENDBRANCH   6  27
TORSDOF 16
ENDMDL
MODEL 3
REMARK VINA RESULT: -8.174570832      3.452      8.963
REMARK  16 active torsions:
REMARK  status: ('A' for Active; 'I' for Inactive)
REMARK    1  A    between atoms: O1_2  and  C2_3 
REMARK    2  A    between atoms: C5_6  and  C6_7 
REMARK    3  A    between atoms: C7_8  and  C8_9 
REMARK    4  A    between atoms: C8_9  and  O2_10 
REMARK    5  A    between atoms: C8_9  and  C9_12 
REMARK    6  A    between atoms: C10_17  and  N3_18 
REMARK    7  A    between atoms: N3_18  and  C11_20 
REMARK    8  A    between atoms: C11_20  and  O3_21 
REMARK    9  A    between atoms: C11_20  and  C12_23 
REMARK   10  A    between atoms: C12_23  and  O4_24 
REMARK   11  A    between atoms: C12_23  and  C13_26 
REMARK   12  A    between atoms: C13_26  and  C14_27 
REMARK   13  A    between atoms: C13_26  and  C15_29 
REMARK   14  A    between atoms: C15_29  and  O6_30 
REMARK   15  A    between atoms: C16_32  and  O7_33 
REMARK   16  A    between atoms: C17_35  and  O8_36 
ROOT
HETATM    1  C9  UNL     1      -2.562  29.884  17.186  1.00  0.00     0.094 A 
HETATM    2  N1  UNL     1      -1.821  28.851  17.618  1.00  0.00    -0.297 N 
ATOM      3  H1  UNL     1      -1.233  28.978  18.442  1.00  0.00     0.187 HD
HETATM    4  N2  UNL     1      -1.825  27.693  17.023  1.00  0.00    -0.283 N 
ATOM      5  H2  UNL     1      -1.237  26.952  17.404  1.00  0.00     0.188 HD
HETATM    6  C10 UNL     1      -2.584  27.415  15.901  1.00  0.00     0.154 A 
HETATM    7  C16 UNL     1      -3.361  28.438  15.420  1.00  0.00     0.146 A 
HETATM    8  C17 UNL     1      -3.332  29.668  16.084  1.00  0.00     0.130 A 
ENDROOT
BRANCH   1   9
HETATM    9  C8  UNL     1      -2.501  31.222  17.894  1.00  0.00     0.195 C 
BRANCH   9  10
HETATM   10  C7  UNL     1      -3.404  31.327  18.997  1.00  0.00     0.013 C 
HETATM   11  C6  UNL     1      -4.217  32.250  19.347  1.00  0.00     0.028 C 
BRANCH  11  12
HETATM   12  C5  UNL     1      -4.592  33.545  18.825  1.00  0.00     0.031 A 
HETATM   13  C4  UNL     1      -3.778  34.432  18.178  1.00  0.00     0.032 A 
HETATM   14  C3  UNL     1      -4.241  35.667  17.739  1.00  0.00     0.040 A 
HETATM   15  C2  UNL     1      -5.529  36.045  17.936  1.00  0.00     0.083 A 
HETATM   16  C18 UNL     1      -6.342  35.143  18.589  1.00  0.00     0.125 A 
HETATM   17  N4  UNL     1      -5.890  33.969  19.004  1.00  0.00    -0.363 N 
ATOM     18  H4  UNL     1      -6.540  33.345  19.482  1.00  0.00     0.165 HD
BRANCH  15  19
HETATM   19  O1  UNL     1      -6.076  37.241  17.539  1.00  0.00    -0.355 OA
HETATM   20  C1  UNL     1      -6.207  37.692  16.228  1.00  0.00     0.210 C 
ENDBRANCH  15  19
ENDBRANCH  11  12
ENDBRANCH   9  10
BRANCH   9  21
HETATM   21  O2  UNL     1      -1.172  31.369  18.372  1.00  0.00    -0.385 OA
ATOM     22  H2  UNL     1      -0.620  31.672  17.660  1.00  0.00     0.210 HD
ENDBRANCH   9  21
ENDBRANCH   1   9
BRANCH   8  23
HETATM   23  O8  UNL     1      -4.111  30.675  15.597  1.00  0.00    -0.356 OA
ATOM     24  H8  UNL     1      -4.377  30.665  14.686  1.00  0.00     0.218 HD
ENDBRANCH   8  23
BRANCH   7  25
HETATM   25  O7  UNL     1      -4.168  28.323  14.318  1.00  0.00    -0.355 OA
ATOM     26  H7  UNL     1      -4.130  28.914  13.576  1.00  0.00     0.218 HD
ENDBRANCH   7  25
BRANCH   6  27
HETATM   27  N3  UNL     1      -2.464  26.262  15.470  1.00  0.00    -0.344 N 
ATOM     28  H3  UNL     1      -2.918  26.227  14.557  1.00  0.00     0.163 HD
BRANCH  27  29
HETATM   29  C11 UNL     1      -1.961  25.004  15.733  1.00  0.00     0.248 C 
BRANCH  29  30
HETATM   30  O3  UNL     1      -2.603  24.377  16.832  1.00  0.00    -0.374 OA
ATOM     31  H3  UNL     1      -3.479  24.079  16.621  1.00  0.00     0.212 HD
ENDBRANCH  29  30
BRANCH  29  32
HETATM   32  C12 UNL     1      -2.287  24.067  14.551  1.00  0.00     0.179 C 
BRANCH  32  33
HETATM   33  O4  UNL     1      -3.356  23.244  14.810  1.00  0.00    -0.390 OA
ATOM     34  H4  UNL     1      -4.007  23.263  14.117  1.00  0.00     0.210 HD
ENDBRANCH  32  33
BRANCH  32  35
HETATM   35  C13 UNL     1      -1.117  23.421  13.925  1.00  0.00     0.103 C 
BRANCH  35  36
HETATM   36  C14 UNL     1      -1.481  22.687  12.671  1.00  0.00     0.240 C 
HETATM   37  O5  UNL     1      -2.607  22.722  12.206  1.00  0.00    -0.306 OA
ENDBRANCH  35  36
BRANCH  35  38
HETATM   38  C15 UNL     1      -0.389  22.496  14.855  1.00  0.00     0.178 C 
BRANCH  38  39
HETATM   39  O6  UNL     1      -1.295  21.941  15.795  1.00  0.00    -0.400 OA
ATOM     40  H6  UNL     1      -1.110  21.018  15.918  1.00  0.00     0.209 HD
ENDBRANCH  38  39
ENDBRANCH  35  38
ENDBRANCH  32  35
ENDBRANCH  29  32
ENDBRANCH  27  29
ENDBRANCH   6  27
TORSDOF 16
ENDMDL
MODEL 4
REMARK VINA RESULT: -8.133856994      1.562      7.377
REMARK  16 active torsions:
REMARK  status: ('A' for Active; 'I' for Inactive)
REMARK    1  A    between atoms: O1_2  and  C2_3 
REMARK    2  A    between atoms: C5_6  and  C6_7 
REMARK    3  A    between atoms: C7_8  and  C8_9 
REMARK    4  A    between atoms: C8_9  and  O2_10 
REMARK    5  A    between atoms: C8_9  and  C9_12 
REMARK    6  A    between atoms: C10_17  and  N3_18 
REMARK    7  A    between atoms: N3_18  and  C11_20 
REMARK    8  A    between atoms: C11_20  and  O3_21 
REMARK    9  A    between atoms: C11_20  and  C12_23 
REMARK   10  A    between atoms: C12_23  and  O4_24 
REMARK   11  A    between atoms: C12_23  and  C13_26 
REMARK   12  A    between atoms: C13_26  and  C14_27 
REMARK   13  A    between atoms: C13_26  and  C15_29 
REMARK   14  A    between atoms: C15_29  and  O6_30 
REMARK   15  A    between atoms: C16_32  and  O7_33 
REMARK   16  A    between atoms: C17_35  and  O8_36 
ROOT
HETATM    1  C9  UNL     1      -2.389  28.044  17.235  1.00  0.00     0.094 A 
HETATM    2  N1  UNL     1      -2.977  28.172  18.437  1.00  0.00    -0.297 N 
ATOM      3  H1  UNL     1      -2.746  28.980  19.014  1.00  0.00     0.187 HD
HETATM    4  N2  UNL     1      -3.831  27.300  18.890  1.00  0.00    -0.283 N 
ATOM      5  H2  UNL     1      -4.239  27.458  19.812  1.00  0.00     0.188 HD
HETATM    6  C10 UNL     1      -4.214  26.171  18.191  1.00  0.00     0.154 A 
HETATM    7  C16 UNL     1      -3.642  25.995  16.956  1.00  0.00     0.146 A 
HETATM    8  C17 UNL     1      -2.729  26.950  16.499  1.00  0.00     0.130 A 
ENDROOT
BRANCH   1   9
HETATM    9  C8  UNL     1      -1.379  29.069  16.763  1.00  0.00     0.195 C 
BRANCH   9  10
HETATM   10  C7  UNL     1      -0.650  29.686  17.827  1.00  0.00     0.013 C 
HETATM   11  C6  UNL     1      -0.892  30.722  18.537  1.00  0.00     0.028 C 
BRANCH  11  12
HETATM   12  C5  UNL     1      -1.954  31.701  18.601  1.00  0.00     0.031 A 
HETATM   13  C4  UNL     1      -1.848  33.039  18.341  1.00  0.00     0.032 A 
HETATM   14  C3  UNL     1      -2.934  33.898  18.460  1.00  0.00     0.040 A 
HETATM   15  C2  UNL     1      -4.154  33.439  18.840  1.00  0.00     0.083 A 
HETATM   16  C18 UNL     1      -4.250  32.089  19.098  1.00  0.00     0.125 A 
HETATM   17  N4  UNL     1      -3.208  31.280  18.983  1.00  0.00    -0.363 N 
ATOM     18  H4  UNL     1      -3.342  30.290  19.188  1.00  0.00     0.165 HD
BRANCH  15  19
HETATM   19  O1  UNL     1      -5.283  34.209  18.984  1.00  0.00    -0.355 OA
HETATM   20  C1  UNL     1      -5.324  35.595  19.107  1.00  0.00     0.210 C 
ENDBRANCH  15  19
ENDBRANCH  11  12
ENDBRANCH   9  10
BRANCH   9  21
HETATM   21  O2  UNL     1      -0.467  28.382  15.919  1.00  0.00    -0.385 OA
ATOM     22  H2  UNL     1       0.040  29.019  15.430  1.00  0.00     0.210 HD
ENDBRANCH   9  21
ENDBRANCH   1   9
BRANCH   8  23
HETATM   23  O8  UNL     1      -2.171  26.765  15.270  1.00  0.00    -0.356 OA
ATOM     24  H8  UNL     1      -1.378  26.250  15.186  1.00  0.00     0.218 HD
ENDBRANCH   8  23
BRANCH   7  25
HETATM   25  O7  UNL     1      -3.916  24.928  16.139  1.00  0.00    -0.355 OA
ATOM     26  H7  UNL     1      -3.989  24.996  15.194  1.00  0.00     0.218 HD
ENDBRANCH   7  25
BRANCH   6  27
HETATM   27  N3  UNL     1      -5.035  25.454  18.775  1.00  0.00    -0.344 N 
ATOM     28  H3  UNL     1      -5.837  25.338  18.156  1.00  0.00     0.163 HD
BRANCH  27  29
HETATM   29  C11 UNL     1      -5.296  24.749  19.933  1.00  0.00     0.248 C 
BRANCH  29  30
HETATM   30  O3  UNL     1      -4.122  24.464  20.676  1.00  0.00    -0.374 OA
ATOM     31  H3  UNL     1      -4.270  24.482  21.614  1.00  0.00     0.212 HD
ENDBRANCH  29  30
BRANCH  29  32
HETATM   32  C12 UNL     1      -6.117  25.634  20.894  1.00  0.00     0.179 C 
BRANCH  32  33
HETATM   33  O4  UNL     1      -5.356  26.603  21.499  1.00  0.00    -0.390 OA
ATOM     34  H4  UNL     1      -5.413  27.442  21.056  1.00  0.00     0.210 HD
ENDBRANCH  32  33
BRANCH  32  35
HETATM   35  C13 UNL     1      -7.045  24.901  21.778  1.00  0.00     0.103 C 
BRANCH  35  36
HETATM   36  C14 UNL     1      -7.656  23.715  21.097  1.00  0.00     0.240 C 
HETATM   37  O5  UNL     1      -8.860  23.609  20.941  1.00  0.00    -0.306 OA
ENDBRANCH  35  36
BRANCH  35  38
HETATM   38  C15 UNL     1      -8.130  25.770  22.342  1.00  0.00     0.178 C 
BRANCH  38  39
HETATM   39  O6  UNL     1      -7.560  26.863  23.044  1.00  0.00    -0.400 OA
ATOM     40  H6  UNL     1      -7.659  26.734  23.980  1.00  0.00     0.209 HD
ENDBRANCH  38  39
ENDBRANCH  35  38
ENDBRANCH  32  35
ENDBRANCH  29  32
ENDBRANCH  27  29
ENDBRANCH   6  27
TORSDOF 16
ENDMDL
MODEL 5
REMARK VINA RESULT: -8.082574049      2.623      8.318
REMARK  16 active torsions:
REMARK  status: ('A' for Active; 'I' for Inactive)
REMARK    1  A    between atoms: O1_2  and  C2_3 
REMARK    2  A    between atoms: C5_6  and  C6_7 
REMARK    3  A    between atoms: C7_8  and  C8_9 
REMARK    4  A    between atoms: C8_9  and  O2_10 
REMARK    5  A    between atoms: C8_9  and  C9_12 
REMARK    6  A    between atoms: C10_17  and  N3_18 
REMARK    7  A    between atoms: N3_18  and  C11_20 
REMARK    8  A    between atoms: C11_20  and  O3_21 
REMARK    9  A    between atoms: C11_20  and  C12_23 
REMARK   10  A    between atoms: C12_23  and  O4_24 
REMARK   11  A    between atoms: C12_23  and  C13_26 
REMARK   12  A    between atoms: C13_26  and  C14_27 
REMARK   13  A    between atoms: C13_26  and  C15_29 
REMARK   14  A    between atoms: C15_29  and  O6_30 
REMARK   15  A    between atoms: C16_32  and  O7_33 
REMARK   16  A    between atoms: C17_35  and  O8_36 
ROOT
HETATM    1  C9  UNL     1      -4.164  25.398  18.483  1.00  0.00     0.094 A 
HETATM    2  N1  UNL     1      -4.886  24.274  18.625  1.00  0.00    -0.297 N 
ATOM      3  H1  UNL     1      -4.807  23.546  17.915  1.00  0.00     0.187 HD
HETATM    4  N2  UNL     1      -5.682  24.081  19.637  1.00  0.00    -0.283 N 
ATOM      5  H2  UNL     1      -6.201  23.203  19.682  1.00  0.00     0.188 HD
HETATM    6  C10 UNL     1      -5.862  25.000  20.654  1.00  0.00     0.154 A 
HETATM    7  C16 UNL     1      -5.145  26.166  20.555  1.00  0.00     0.146 A 
HETATM    8  C17 UNL     1      -4.300  26.342  19.456  1.00  0.00     0.130 A 
ENDROOT
BRANCH   1   9
HETATM    9  C8  UNL     1      -3.275  25.591  17.272  1.00  0.00     0.195 C 
BRANCH   9  10
HETATM   10  C7  UNL     1      -3.807  26.508  16.313  1.00  0.00     0.013 C 
HETATM   11  C6  UNL     1      -3.519  27.726  16.048  1.00  0.00     0.028 C 
BRANCH  11  12
HETATM   12  C5  UNL     1      -2.575  28.695  16.557  1.00  0.00     0.031 A 
HETATM   13  C4  UNL     1      -1.272  28.846  16.175  1.00  0.00     0.032 A 
HETATM   14  C3  UNL     1      -0.442  29.800  16.753  1.00  0.00     0.040 A 
HETATM   15  C2  UNL     1      -0.897  30.628  17.727  1.00  0.00     0.083 A 
HETATM   16  C18 UNL     1      -2.213  30.469  18.104  1.00  0.00     0.125 A 
HETATM   17  N4  UNL     1      -2.994  29.556  17.548  1.00  0.00    -0.363 N 
ATOM     18  H4  UNL     1      -3.959  29.487  17.870  1.00  0.00     0.165 HD
BRANCH  15  19
HETATM   19  O1  UNL     1      -0.155  31.599  18.355  1.00  0.00    -0.355 OA
HETATM   20  C1  UNL     1      -0.498  32.942  18.486  1.00  0.00     0.210 C 
ENDBRANCH  15  19
ENDBRANCH  11  12
ENDBRANCH   9  10
BRANCH   9  21
HETATM   21  O2  UNL     1      -2.037  26.095  17.753  1.00  0.00    -0.385 OA
ATOM     22  H2  UNL     1      -1.562  25.389  18.176  1.00  0.00     0.210 HD
ENDBRANCH   9  21
ENDBRANCH   1   9
BRANCH   8  23
HETATM   23  O8  UNL     1      -3.592  27.503  19.372  1.00  0.00    -0.356 OA
ATOM     24  H8  UNL     1      -3.832  28.240  19.921  1.00  0.00     0.218 HD
ENDBRANCH   8  23
BRANCH   7  25
HETATM   25  O7  UNL     1      -5.213  27.177  21.480  1.00  0.00    -0.355 OA
ATOM     26  H7  UNL     1      -4.456  27.515  21.943  1.00  0.00     0.218 HD
ENDBRANCH   7  25
BRANCH   6  27
HETATM   27  N3  UNL     1      -6.656  24.648  21.534  1.00  0.00    -0.344 N 
ATOM     28  H3  UNL     1      -6.517  23.650  21.691  1.00  0.00     0.163 HD
BRANCH  27  29
HETATM   29  C11 UNL     1      -7.655  25.071  22.388  1.00  0.00     0.248 C 
BRANCH  29  30
HETATM   30  O3  UNL     1      -7.518  26.433  22.759  1.00  0.00    -0.374 OA
ATOM     31  H3  UNL     1      -8.293  26.945  22.563  1.00  0.00     0.212 HD
ENDBRANCH  29  30
BRANCH  29  32
HETATM   32  C12 UNL     1      -9.007  25.041  21.644  1.00  0.00     0.179 C 
BRANCH  32  33
HETATM   33  O4  UNL     1      -9.990  25.733  22.308  1.00  0.00    -0.390 OA
ATOM     34  H4  UNL     1      -9.984  26.661  22.104  1.00  0.00     0.210 HD
ENDBRANCH  32  33
BRANCH  32  35
HETATM   35  C13 UNL     1      -9.398  23.720  21.114  1.00  0.00     0.103 C 
BRANCH  35  36
HETATM   36  C14 UNL     1     -10.574  23.809  20.190  1.00  0.00     0.240 C 
HETATM   37  O5  UNL     1     -10.727  23.033  19.262  1.00  0.00    -0.306 OA
ENDBRANCH  35  36
BRANCH  35  38
HETATM   38  C15 UNL     1      -9.679  22.714  22.190  1.00  0.00     0.178 C 
BRANCH  38  39
HETATM   39  O6  UNL     1      -9.996  21.459  21.609  1.00  0.00    -0.400 OA
ATOM     40  H6  UNL     1     -10.939  21.351  21.565  1.00  0.00     0.209 HD
ENDBRANCH  38  39
ENDBRANCH  35  38
ENDBRANCH  32  35
ENDBRANCH  29  32
ENDBRANCH  27  29
ENDBRANCH   6  27
TORSDOF 16
ENDMDL
