MODEL 1
REMARK VINA RESULT: -6.553486549      0.000      0.000
REMARK  15 active torsions:
REMARK  status: ('A' for Active; 'I' for Inactive)
REMARK    1  A    between atoms: O1_2  and  C2_3 
REMARK    2  A    between atoms: C3_4  and  O2_5 
REMARK    3  A    between atoms: C6_9  and  O3_10 
REMARK    4  A    between atoms: C8_12  and  O4_13 
REMARK    5  A    between atoms: C12_17  and  O5_18 
REMARK    6  A    between atoms: O5_18  and  C13_19 
REMARK    7  A    between atoms: C13_19  and  C14_20 
REMARK    8  A    between atoms: C14_20  and  O6_21 
REMARK    9  A    between atoms: C14_20  and  C15_23 
REMARK   10  A    between atoms: C15_23  and  O7_24 
REMARK   11  A    between atoms: C15_23  and  C16_26 
REMARK   12  A    between atoms: C16_26  and  O8_27 
REMARK   13  A    between atoms: C17_29  and  O9_30 
REMARK   14  A    between atoms: C17_29  and  C18_32 
REMARK   15  A    between atoms: C18_32  and  O10_33 
ROOT
HETATM    1  C2  UNL     1      -3.307  29.312  16.678  1.00  0.00     0.140 A 
HETATM    2  C3  UNL     1      -4.204  30.346  16.928  1.00  0.00     0.136 A 
HETATM    3  C4  UNL     1      -3.840  31.401  17.737  1.00  0.00     0.118 A 
HETATM    4  C5  UNL     1      -2.552  31.392  18.291  1.00  0.00     0.018 A 
HETATM    5  C6  UNL     1      -1.684  30.362  18.030  1.00  0.00     0.113 A 
HETATM    6  C8  UNL     1      -2.045  29.313  17.226  1.00  0.00     0.138 A 
HETATM    7  C10 UNL     1      -1.943  32.413  19.185  1.00  0.00     0.074 C 
HETATM    8  C11 UNL     1      -2.480  33.776  18.869  1.00  0.00     0.016 C 
HETATM    9  C12 UNL     1      -3.743  34.182  18.750  1.00  0.00     0.107 C 
HETATM   10  C17 UNL     1      -4.922  33.297  18.921  1.00  0.00     0.239 C 
HETATM   11  O11 UNL     1      -4.863  32.334  17.871  1.00  0.00    -0.302 OA
ENDROOT
BRANCH   9  12
HETATM   12  O5  UNL     1      -3.910  35.506  18.451  1.00  0.00    -0.347 OA
BRANCH  12  13
HETATM   13  C13 UNL     1      -4.155  35.992  17.144  1.00  0.00     0.209 C 
BRANCH  13  14
HETATM   14  C14 UNL     1      -5.024  37.219  17.162  1.00  0.00     0.173 C 
BRANCH  14  15
HETATM   15  O6  UNL     1      -6.363  36.880  17.216  1.00  0.00    -0.391 OA
ATOM     16  H6  UNL     1      -6.812  37.370  17.894  1.00  0.00     0.210 HD
ENDBRANCH  14  15
BRANCH  14  17
HETATM   17  C15 UNL     1      -4.681  38.166  18.263  1.00  0.00     0.172 C 
BRANCH  17  18
HETATM   18  O7  UNL     1      -5.446  37.948  19.408  1.00  0.00    -0.391 OA
ATOM     19  H7  UNL     1      -6.222  38.495  19.435  1.00  0.00     0.210 HD
ENDBRANCH  17  18
BRANCH  17  20
HETATM   20  C16 UNL     1      -4.971  39.577  17.795  1.00  0.00     0.198 C 
BRANCH  20  21
HETATM   21  O8  UNL     1      -4.871  39.564  16.390  1.00  0.00    -0.398 OA
ATOM     22  H8  UNL     1      -4.273  40.263  16.153  1.00  0.00     0.209 HD
ENDBRANCH  20  21
ENDBRANCH  17  20
ENDBRANCH  14  17
ENDBRANCH  13  14
ENDBRANCH  12  13
ENDBRANCH   9  12
BRANCH  10  23
HETATM   23  O9  UNL     1      -4.772  32.676  20.170  1.00  0.00    -0.358 OA
ATOM     24  H9  UNL     1      -4.305  31.864  20.012  1.00  0.00     0.213 HD
ENDBRANCH  10  23
BRANCH  10  25
HETATM   25  C18 UNL     1      -6.211  34.055  18.911  1.00  0.00     0.240 C 
BRANCH  25  26
HETATM   26  O10 UNL     1      -6.144  35.034  19.896  1.00  0.00    -0.395 OA
ATOM     27  H10 UNL     1      -7.009  35.415  19.993  1.00  0.00     0.209 HD
ENDBRANCH  25  26
ENDBRANCH  10  25
BRANCH   5  28
HETATM   28  O3  UNL     1      -0.421  30.374  18.585  1.00  0.00    -0.352 OA
HETATM   29  C7  UNL     1       0.636  30.983  17.832  1.00  0.00     0.210 C 
ENDBRANCH   5  28
BRANCH   2  30
HETATM   30  O2  UNL     1      -5.477  30.359  16.385  1.00  0.00    -0.356 OA
ATOM     31  H2  UNL     1      -6.145  29.739  16.654  1.00  0.00     0.218 HD
ENDBRANCH   2  30
BRANCH   6  32
HETATM   32  O4  UNL     1      -1.171  28.305  16.982  1.00  0.00    -0.351 OA
HETATM   33  C9  UNL     1      -0.594  27.953  15.767  1.00  0.00     0.210 C 
ENDBRANCH   6  32
BRANCH   1  34
HETATM   34  O1  UNL     1      -3.678  28.264  15.870  1.00  0.00    -0.350 OA
HETATM   35  C1  UNL     1      -4.298  27.082  16.353  1.00  0.00     0.210 C 
ENDBRANCH   1  34
TORSDOF 15
ENDMDL
MODEL 2
REMARK VINA RESULT: -6.530215001      1.886      8.012
REMARK  15 active torsions:
REMARK  status: ('A' for Active; 'I' for Inactive)
REMARK    1  A    between atoms: O1_2  and  C2_3 
REMARK    2  A    between atoms: C3_4  and  O2_5 
REMARK    3  A    between atoms: C6_9  and  O3_10 
REMARK    4  A    between atoms: C8_12  and  O4_13 
REMARK    5  A    between atoms: C12_17  and  O5_18 
REMARK    6  A    between atoms: O5_18  and  C13_19 
REMARK    7  A    between atoms: C13_19  and  C14_20 
REMARK    8  A    between atoms: C14_20  and  O6_21 
REMARK    9  A    between atoms: C14_20  and  C15_23 
REMARK   10  A    between atoms: C15_23  and  O7_24 
REMARK   11  A    between atoms: C15_23  and  C16_26 
REMARK   12  A    between atoms: C16_26  and  O8_27 
REMARK   13  A    between atoms: C17_29  and  O9_30 
REMARK   14  A    between atoms: C17_29  and  C18_32 
REMARK   15  A    between atoms: C18_32  and  O10_33 
ROOT
HETATM    1  C2  UNL     1      -5.837  36.392  18.582  1.00  0.00     0.140 A 
HETATM    2  C3  UNL     1      -4.619  35.847  18.189  1.00  0.00     0.136 A 
HETATM    3  C4  UNL     1      -4.247  34.594  18.623  1.00  0.00     0.118 A 
HETATM    4  C5  UNL     1      -5.128  33.900  19.465  1.00  0.00     0.018 A 
HETATM    5  C6  UNL     1      -6.324  34.457  19.840  1.00  0.00     0.113 A 
HETATM    6  C8  UNL     1      -6.696  35.703  19.408  1.00  0.00     0.138 A 
HETATM    7  C10 UNL     1      -4.942  32.546  20.053  1.00  0.00     0.074 C 
HETATM    8  C11 UNL     1      -4.141  31.677  19.132  1.00  0.00     0.016 C 
HETATM    9  C12 UNL     1      -2.973  31.922  18.540  1.00  0.00     0.107 C 
HETATM   10  C17 UNL     1      -2.205  33.181  18.700  1.00  0.00     0.239 C 
HETATM   11  O11 UNL     1      -3.002  34.217  18.129  1.00  0.00    -0.302 OA
ENDROOT
BRANCH   9  12
HETATM   12  O5  UNL     1      -2.494  30.916  17.746  1.00  0.00    -0.347 OA
BRANCH  12  13
HETATM   13  C13 UNL     1      -3.320  29.971  17.089  1.00  0.00     0.209 C 
BRANCH  13  14
HETATM   14  C14 UNL     1      -2.934  28.560  17.433  1.00  0.00     0.173 C 
BRANCH  14  15
HETATM   15  O6  UNL     1      -3.512  28.163  18.624  1.00  0.00    -0.391 OA
ATOM     16  H6  UNL     1      -2.920  27.614  19.125  1.00  0.00     0.210 HD
ENDBRANCH  14  15
BRANCH  14  17
HETATM   17  C15 UNL     1      -3.250  27.584  16.350  1.00  0.00     0.172 C 
BRANCH  17  18
HETATM   18  O7  UNL     1      -4.517  27.784  15.806  1.00  0.00    -0.391 OA
ATOM     19  H7  UNL     1      -4.610  27.387  14.947  1.00  0.00     0.210 HD
ENDBRANCH  17  18
BRANCH  17  20
HETATM   20  C16 UNL     1      -3.231  26.188  16.937  1.00  0.00     0.198 C 
BRANCH  20  21
HETATM   21  O8  UNL     1      -1.973  26.025  17.551  1.00  0.00    -0.398 OA
ATOM     22  H8  UNL     1      -2.076  25.342  18.203  1.00  0.00     0.209 HD
ENDBRANCH  20  21
ENDBRANCH  17  20
ENDBRANCH  14  17
ENDBRANCH  13  14
ENDBRANCH  12  13
ENDBRANCH   9  12
BRANCH  10  23
HETATM   23  O9  UNL     1      -2.052  33.379  20.080  1.00  0.00    -0.358 OA
ATOM     24  H9  UNL     1      -1.229  33.839  20.195  1.00  0.00     0.213 HD
ENDBRANCH  10  23
BRANCH  10  25
HETATM   25  C18 UNL     1      -0.851  33.108  18.070  1.00  0.00     0.240 C 
BRANCH  25  26
HETATM   26  O10 UNL     1       0.082  33.545  19.001  1.00  0.00    -0.395 OA
ATOM     27  H10 UNL     1       0.521  34.309  18.645  1.00  0.00     0.209 HD
ENDBRANCH  25  26
ENDBRANCH  10  25
BRANCH   5  28
HETATM   28  O3  UNL     1      -7.176  33.757  20.668  1.00  0.00    -0.352 OA
HETATM   29  C7  UNL     1      -7.175  34.084  22.064  1.00  0.00     0.210 C 
ENDBRANCH   5  28
BRANCH   2  30
HETATM   30  O2  UNL     1      -3.746  36.528  17.359  1.00  0.00    -0.356 OA
ATOM     31  H2  UNL     1      -3.251  36.087  16.678  1.00  0.00     0.218 HD
ENDBRANCH   2  30
BRANCH   6  32
HETATM   32  O4  UNL     1      -7.883  36.236  19.791  1.00  0.00    -0.351 OA
HETATM   33  C9  UNL     1      -9.128  36.053  19.201  1.00  0.00     0.210 C 
ENDBRANCH   6  32
BRANCH   1  34
HETATM   34  O1  UNL     1      -6.202  37.643  18.143  1.00  0.00    -0.350 OA
HETATM   35  C1  UNL     1      -6.829  37.884  16.892  1.00  0.00     0.210 C 
ENDBRANCH   1  34
TORSDOF 15
ENDMDL
MODEL 3
REMARK VINA RESULT: -6.407676298      0.801      1.404
REMARK  15 active torsions:
REMARK  status: ('A' for Active; 'I' for Inactive)
REMARK    1  A    between atoms: O1_2  and  C2_3 
REMARK    2  A    between atoms: C3_4  and  O2_5 
REMARK    3  A    between atoms: C6_9  and  O3_10 
REMARK    4  A    between atoms: C8_12  and  O4_13 
REMARK    5  A    between atoms: C12_17  and  O5_18 
REMARK    6  A    between atoms: O5_18  and  C13_19 
REMARK    7  A    between atoms: C13_19  and  C14_20 
REMARK    8  A    between atoms: C14_20  and  O6_21 
REMARK    9  A    between atoms: C14_20  and  C15_23 
REMARK   10  A    between atoms: C15_23  and  O7_24 
REMARK   11  A    between atoms: C15_23  and  C16_26 
REMARK   12  A    between atoms: C16_26  and  O8_27 
REMARK   13  A    between atoms: C17_29  and  O9_30 
REMARK   14  A    between atoms: C17_29  and  C18_32 
REMARK   15  A    between atoms: C18_32  and  O10_33 
ROOT
HETATM    1  C2  UNL     1      -3.341  29.368  16.675  1.00  0.00     0.140 A 
HETATM    2  C3  UNL     1      -4.237  30.399  16.941  1.00  0.00     0.136 A 
HETATM    3  C4  UNL     1      -3.868  31.445  17.759  1.00  0.00     0.118 A 
HETATM    4  C5  UNL     1      -2.576  31.430  18.306  1.00  0.00     0.018 A 
HETATM    5  C6  UNL     1      -1.710  30.403  18.029  1.00  0.00     0.113 A 
HETATM    6  C8  UNL     1      -2.076  29.363  17.215  1.00  0.00     0.138 A 
HETATM    7  C10 UNL     1      -1.963  32.441  19.208  1.00  0.00     0.074 C 
HETATM    8  C11 UNL     1      -2.501  33.808  18.910  1.00  0.00     0.016 C 
HETATM    9  C12 UNL     1      -3.764  34.215  18.802  1.00  0.00     0.107 C 
HETATM   10  C17 UNL     1      -4.942  33.329  18.970  1.00  0.00     0.239 C 
HETATM   11  O11 UNL     1      -4.890  32.378  17.909  1.00  0.00    -0.302 OA
ENDROOT
BRANCH   9  12
HETATM   12  O5  UNL     1      -3.932  35.543  18.519  1.00  0.00    -0.347 OA
BRANCH  12  13
HETATM   13  C13 UNL     1      -4.241  36.038  17.228  1.00  0.00     0.209 C 
BRANCH  13  14
HETATM   14  C14 UNL     1      -5.196  37.197  17.292  1.00  0.00     0.173 C 
BRANCH  14  15
HETATM   15  O6  UNL     1      -4.598  38.360  16.847  1.00  0.00    -0.391 OA
ATOM     16  H6  UNL     1      -4.791  39.088  17.427  1.00  0.00     0.210 HD
ENDBRANCH  14  15
BRANCH  14  17
HETATM   17  C15 UNL     1      -6.469  36.950  16.552  1.00  0.00     0.172 C 
BRANCH  17  18
HETATM   18  O7  UNL     1      -6.599  37.767  15.431  1.00  0.00    -0.391 OA
ATOM     19  H7  UNL     1      -6.969  37.306  14.687  1.00  0.00     0.210 HD
ENDBRANCH  17  18
BRANCH  17  20
HETATM   20  C16 UNL     1      -7.631  37.265  17.471  1.00  0.00     0.198 C 
BRANCH  20  21
HETATM   21  O8  UNL     1      -7.077  37.583  18.726  1.00  0.00    -0.398 OA
ATOM     22  H8  UNL     1      -6.200  37.909  18.562  1.00  0.00     0.209 HD
ENDBRANCH  20  21
ENDBRANCH  17  20
ENDBRANCH  14  17
ENDBRANCH  13  14
ENDBRANCH  12  13
ENDBRANCH   9  12
BRANCH  10  23
HETATM   23  O9  UNL     1      -4.787  32.693  20.211  1.00  0.00    -0.358 OA
ATOM     24  H9  UNL     1      -4.862  31.761  20.047  1.00  0.00     0.213 HD
ENDBRANCH  10  23
BRANCH  10  25
HETATM   25  C18 UNL     1      -6.231  34.087  18.975  1.00  0.00     0.240 C 
BRANCH  25  26
HETATM   26  O10 UNL     1      -6.202  34.980  20.039  1.00  0.00    -0.395 OA
ATOM     27  H10 UNL     1      -7.022  35.460  20.044  1.00  0.00     0.209 HD
ENDBRANCH  25  26
ENDBRANCH  10  25
BRANCH   5  28
HETATM   28  O3  UNL     1      -0.445  30.408  18.577  1.00  0.00    -0.352 OA
HETATM   29  C7  UNL     1       0.613  31.005  17.815  1.00  0.00     0.210 C 
ENDBRANCH   5  28
BRANCH   2  30
HETATM   30  O2  UNL     1      -5.512  30.418  16.405  1.00  0.00    -0.356 OA
ATOM     31  H2  UNL     1      -6.194  29.831  16.709  1.00  0.00     0.218 HD
ENDBRANCH   2  30
BRANCH   6  32
HETATM   32  O4  UNL     1      -1.204  28.357  16.956  1.00  0.00    -0.351 OA
HETATM   33  C9  UNL     1      -0.594  28.049  15.745  1.00  0.00     0.210 C 
ENDBRANCH   6  32
BRANCH   1  34
HETATM   34  O1  UNL     1      -3.716  28.329  15.856  1.00  0.00    -0.350 OA
HETATM   35  C1  UNL     1      -4.296  27.124  16.335  1.00  0.00     0.210 C 
ENDBRANCH   1  34
TORSDOF 15
ENDMDL
MODEL 4
REMARK VINA RESULT: -6.057820901      1.927      7.902
REMARK  15 active torsions:
REMARK  status: ('A' for Active; 'I' for Inactive)
REMARK    1  A    between atoms: O1_2  and  C2_3 
REMARK    2  A    between atoms: C3_4  and  O2_5 
REMARK    3  A    between atoms: C6_9  and  O3_10 
REMARK    4  A    between atoms: C8_12  and  O4_13 
REMARK    5  A    between atoms: C12_17  and  O5_18 
REMARK    6  A    between atoms: O5_18  and  C13_19 
REMARK    7  A    between atoms: C13_19  and  C14_20 
REMARK    8  A    between atoms: C14_20  and  O6_21 
REMARK    9  A    between atoms: C14_20  and  C15_23 
REMARK   10  A    between atoms: C15_23  and  O7_24 
REMARK   11  A    between atoms: C15_23  and  C16_26 
REMARK   12  A    between atoms: C16_26  and  O8_27 
REMARK   13  A    between atoms: C17_29  and  O9_30 
REMARK   14  A    between atoms: C17_29  and  C18_32 
REMARK   15  A    between atoms: C18_32  and  O10_33 
ROOT
HETATM    1  C2  UNL     1      -5.814  36.889  18.692  1.00  0.00     0.140 A 
HETATM    2  C3  UNL     1      -4.665  36.228  18.270  1.00  0.00     0.136 A 
HETATM    3  C4  UNL     1      -4.444  34.918  18.635  1.00  0.00     0.118 A 
HETATM    4  C5  UNL     1      -5.405  34.286  19.437  1.00  0.00     0.018 A 
HETATM    5  C6  UNL     1      -6.530  34.958  19.843  1.00  0.00     0.113 A 
HETATM    6  C8  UNL     1      -6.752  36.261  19.479  1.00  0.00     0.138 A 
HETATM    7  C10 UNL     1      -5.381  32.891  19.951  1.00  0.00     0.074 C 
HETATM    8  C11 UNL     1      -4.681  31.986  18.983  1.00  0.00     0.016 C 
HETATM    9  C12 UNL     1      -3.489  32.124  18.406  1.00  0.00     0.107 C 
HETATM   10  C17 UNL     1      -2.581  33.275  18.634  1.00  0.00     0.239 C 
HETATM   11  O11 UNL     1      -3.248  34.426  18.121  1.00  0.00    -0.302 OA
ENDROOT
BRANCH   9  12
HETATM   12  O5  UNL     1      -3.126  31.114  17.558  1.00  0.00    -0.347 OA
BRANCH  12  13
HETATM   13  C13 UNL     1      -4.039  30.407  16.739  1.00  0.00     0.209 C 
BRANCH  13  14
HETATM   14  C14 UNL     1      -3.409  29.188  16.126  1.00  0.00     0.173 C 
BRANCH  14  15
HETATM   15  O6  UNL     1      -2.353  29.534  15.304  1.00  0.00    -0.391 OA
ATOM     16  H6  UNL     1      -1.535  29.174  15.627  1.00  0.00     0.210 HD
ENDBRANCH  14  15
BRANCH  14  17
HETATM   17  C15 UNL     1      -2.972  28.181  17.138  1.00  0.00     0.172 C 
BRANCH  17  18
HETATM   18  O7  UNL     1      -3.288  28.564  18.440  1.00  0.00    -0.391 OA
ATOM     19  H7  UNL     1      -2.528  28.864  18.924  1.00  0.00     0.210 HD
ENDBRANCH  17  18
BRANCH  17  20
HETATM   20  C16 UNL     1      -1.465  28.047  17.066  1.00  0.00     0.198 C 
BRANCH  20  21
HETATM   21  O8  UNL     1      -0.929  29.091  17.845  1.00  0.00    -0.398 OA
ATOM     22  H8  UNL     1      -0.042  28.834  18.071  1.00  0.00     0.209 HD
ENDBRANCH  20  21
ENDBRANCH  17  20
ENDBRANCH  14  17
ENDBRANCH  13  14
ENDBRANCH  12  13
ENDBRANCH   9  12
BRANCH  10  23
HETATM   23  O9  UNL     1      -2.414  33.378  20.023  1.00  0.00    -0.358 OA
ATOM     24  H9  UNL     1      -2.876  32.641  20.405  1.00  0.00     0.213 HD
ENDBRANCH  10  23
BRANCH  10  25
HETATM   25  C18 UNL     1      -1.240  33.079  18.001  1.00  0.00     0.240 C 
BRANCH  25  26
HETATM   26  O10 UNL     1      -0.357  33.986  18.572  1.00  0.00    -0.395 OA
ATOM     27  H10 UNL     1       0.083  33.554  19.295  1.00  0.00     0.209 HD
ENDBRANCH  25  26
ENDBRANCH  10  25
BRANCH   5  28
HETATM   28  O3  UNL     1      -7.463  34.318  20.631  1.00  0.00    -0.352 OA
HETATM   29  C7  UNL     1      -7.273  34.345  22.051  1.00  0.00     0.210 C 
ENDBRANCH   5  28
BRANCH   2  30
HETATM   30  O2  UNL     1      -3.713  36.847  17.479  1.00  0.00    -0.356 OA
ATOM     31  H2  UNL     1      -3.182  36.361  16.859  1.00  0.00     0.218 HD
ENDBRANCH   2  30
BRANCH   6  32
HETATM   32  O4  UNL     1      -7.871  36.906  19.891  1.00  0.00    -0.351 OA
HETATM   33  C9  UNL     1      -8.033  37.687  21.030  1.00  0.00     0.210 C 
ENDBRANCH   6  32
BRANCH   1  34
HETATM   34  O1  UNL     1      -6.028  38.196  18.323  1.00  0.00    -0.350 OA
HETATM   35  C1  UNL     1      -5.448  39.305  18.993  1.00  0.00     0.210 C 
ENDBRANCH   1  34
TORSDOF 15
ENDMDL
MODEL 5
REMARK VINA RESULT: -5.750364242      7.741     11.049
REMARK  15 active torsions:
REMARK  status: ('A' for Active; 'I' for Inactive)
REMARK    1  A    between atoms: O1_2  and  C2_3 
REMARK    2  A    between atoms: C3_4  and  O2_5 
REMARK    3  A    between atoms: C6_9  and  O3_10 
REMARK    4  A    between atoms: C8_12  and  O4_13 
REMARK    5  A    between atoms: C12_17  and  O5_18 
REMARK    6  A    between atoms: O5_18  and  C13_19 
REMARK    7  A    between atoms: C13_19  and  C14_20 
REMARK    8  A    between atoms: C14_20  and  O6_21 
REMARK    9  A    between atoms: C14_20  and  C15_23 
REMARK   10  A    between atoms: C15_23  and  O7_24 
REMARK   11  A    between atoms: C15_23  and  C16_26 
REMARK   12  A    between atoms: C16_26  and  O8_27 
REMARK   13  A    between atoms: C17_29  and  O9_30 
REMARK   14  A    between atoms: C17_29  and  C18_32 
REMARK   15  A    between atoms: C18_32  and  O10_33 
ROOT
HETATM    1  C2  UNL     1      -9.827  35.812  13.882  1.00  0.00     0.140 A 
HETATM    2  C3  UNL     1      -9.523  34.509  13.501  1.00  0.00     0.136 A 
HETATM    3  C4  UNL     1      -9.985  34.010  12.303  1.00  0.00     0.118 A 
HETATM    4  C5  UNL     1     -10.763  34.852  11.494  1.00  0.00     0.018 A 
HETATM    5  C6  UNL     1     -11.050  36.134  11.891  1.00  0.00     0.113 A 
HETATM    6  C8  UNL     1     -10.590  36.631  13.082  1.00  0.00     0.138 A 
HETATM    7  C10 UNL     1     -11.365  34.536  10.172  1.00  0.00     0.074 C 
HETATM    8  C11 UNL     1     -10.505  33.566   9.421  1.00  0.00     0.016 C 
HETATM    9  C12 UNL     1      -9.998  32.400   9.817  1.00  0.00     0.107 C 
HETATM   10  C17 UNL     1     -10.210  31.814  11.164  1.00  0.00     0.239 C 
HETATM   11  O11 UNL     1      -9.583  32.695  12.093  1.00  0.00    -0.302 OA
ENDROOT
BRANCH   9  12
HETATM   12  O5  UNL     1      -9.242  31.740   8.887  1.00  0.00    -0.347 OA
BRANCH  12  13
HETATM   13  C13 UNL     1      -8.208  32.351   8.137  1.00  0.00     0.209 C 
BRANCH  13  14
HETATM   14  C14 UNL     1      -6.849  31.896   8.592  1.00  0.00     0.173 C 
BRANCH  14  15
HETATM   15  O6  UNL     1      -5.961  31.851   7.534  1.00  0.00    -0.391 OA
ATOM     16  H6  UNL     1      -5.123  32.230   7.775  1.00  0.00     0.210 HD
ENDBRANCH  14  15
BRANCH  14  17
HETATM   17  C15 UNL     1      -6.295  32.724   9.703  1.00  0.00     0.172 C 
BRANCH  17  18
HETATM   18  O7  UNL     1      -6.744  32.305  10.954  1.00  0.00    -0.391 OA
ATOM     19  H7  UNL     1      -7.299  32.953  11.375  1.00  0.00     0.210 HD
ENDBRANCH  17  18
BRANCH  17  20
HETATM   20  C16 UNL     1      -6.758  34.154   9.518  1.00  0.00     0.198 C 
BRANCH  20  21
HETATM   21  O8  UNL     1      -5.772  34.976  10.099  1.00  0.00    -0.398 OA
ATOM     22  H8  UNL     1      -5.202  34.403  10.600  1.00  0.00     0.209 HD
ENDBRANCH  20  21
ENDBRANCH  17  20
ENDBRANCH  14  17
ENDBRANCH  13  14
ENDBRANCH  12  13
ENDBRANCH   9  12
BRANCH  10  23
HETATM   23  O9  UNL     1     -11.598  31.787  11.370  1.00  0.00    -0.358 OA
ATOM     24  H9  UNL     1     -11.792  32.484  11.985  1.00  0.00     0.213 HD
ENDBRANCH  10  23
BRANCH  10  25
HETATM   25  C18 UNL     1      -9.679  30.420  11.271  1.00  0.00     0.240 C 
BRANCH  25  26
HETATM   26  O10 UNL     1      -9.705  30.050  12.609  1.00  0.00    -0.395 OA
ATOM     27  H10 UNL     1      -8.954  30.443  13.039  1.00  0.00     0.209 HD
ENDBRANCH  25  26
ENDBRANCH  10  25
BRANCH   5  28
HETATM   28  O3  UNL     1     -11.816  36.945  11.080  1.00  0.00    -0.352 OA
HETATM   29  C7  UNL     1     -11.137  37.899  10.253  1.00  0.00     0.210 C 
ENDBRANCH   5  28
BRANCH   2  30
HETATM   30  O2  UNL     1      -8.757  33.674  14.295  1.00  0.00    -0.356 OA
ATOM     31  H2  UNL     1      -7.940  33.299  13.989  1.00  0.00     0.218 HD
ENDBRANCH   2  30
BRANCH   6  32
HETATM   32  O4  UNL     1     -10.887  37.901  13.454  1.00  0.00    -0.351 OA
HETATM   33  C9  UNL     1     -12.010  38.347  14.143  1.00  0.00     0.210 C 
ENDBRANCH   6  32
BRANCH   1  34
HETATM   34  O1  UNL     1      -9.361  36.303  15.079  1.00  0.00    -0.350 OA
HETATM   35  C1  UNL     1     -10.013  36.087  16.322  1.00  0.00     0.210 C 
ENDBRANCH   1  34
TORSDOF 15
ENDMDL
