MODEL 1
REMARK VINA RESULT: -8.241117895      0.000      0.000
REMARK  13 active torsions:
REMARK  status: ('A' for Active; 'I' for Inactive)
REMARK    1  A    between atoms: C3_7  and  N3_8 
REMARK    2  A    between atoms: C4_11  and  C5_12 
REMARK    3  A    between atoms: C5_12  and  N4_13 
REMARK    4  A    between atoms: N4_13  and  O3_15 
REMARK    5  A    between atoms: O3_15  and  C6_16 
REMARK    6  A    between atoms: C6_16  and  C7_17 
REMARK    7  A    between atoms: C7_17  and  N5_18 
REMARK    8  A    between atoms: N5_18  and  O4_19 
REMARK    9  A    between atoms: N5_18  and  C12_26 
REMARK   10  A    between atoms: O4_19  and  C8_20 
REMARK   11  A    between atoms: C8_20  and  C11_23 
REMARK   12  A    between atoms: C11_23  and  O5_24 
REMARK   13  A    between atoms: C14_31  and  N8_32 
ROOT
HETATM    1  N5  UNL     1      -3.032  27.584  15.813  1.00  0.00    -0.247 N 
ENDROOT
BRANCH   1   2
HETATM    2  C7  UNL     1      -1.699  27.767  15.340  1.00  0.00     0.185 C 
BRANCH   2   3
HETATM    3  C6  UNL     1      -0.705  27.902  16.506  1.00  0.00     0.223 C 
BRANCH   3   4
HETATM    4  O3  UNL     1      -0.590  29.238  16.945  1.00  0.00    -0.279 OA
BRANCH   4   5
HETATM    5  N4  UNL     1      -0.639  29.595  18.250  1.00  0.00    -0.277 N 
ATOM      6  H4  UNL     1      -0.016  29.095  18.885  1.00  0.00     0.193 HD
BRANCH   5   7
HETATM    7  C5  UNL     1      -1.375  30.481  18.761  1.00  0.00     0.131 C 
BRANCH   7   8
HETATM    8  C4  UNL     1      -1.294  31.920  18.561  1.00  0.00     0.056 A 
HETATM    9  C2  UNL     1      -0.076  32.584  18.320  1.00  0.00     0.037 A 
HETATM   10  C1  UNL     1       1.291  31.966  18.242  1.00  0.00     0.070 C 
HETATM   11  N1  UNL     1      -0.360  33.879  18.172  1.00  0.00    -0.302 N 
HETATM   12  N2  UNL     1      -1.649  34.063  18.303  1.00  0.00    -0.280 N 
ATOM     13  H1  UNL     1       0.323  34.614  17.986  1.00  0.00     0.186 HD
HETATM   14  C3  UNL     1      -2.258  32.875  18.544  1.00  0.00     0.202 A 
ATOM     15  H2  UNL     1      -2.123  34.963  18.234  1.00  0.00     0.189 HD
BRANCH  14  16
HETATM   16  N3  UNL     1      -3.654  32.746  18.722  1.00  0.00    -0.096 N 
HETATM   17  O1  UNL     1      -4.183  32.005  19.536  1.00  0.00    -0.530 OA
HETATM   18  O2  UNL     1      -4.468  33.555  17.916  1.00  0.00    -0.530 OA
ENDBRANCH  14  16
ENDBRANCH   7   8
ENDBRANCH   5   7
ENDBRANCH   4   5
ENDBRANCH   3   4
ENDBRANCH   2   3
ENDBRANCH   1   2
BRANCH   1  19
HETATM   19  O4  UNL     1      -4.057  28.160  15.196  1.00  0.00    -0.265 OA
BRANCH  19  20
HETATM   20  C8  UNL     1      -4.170  29.444  14.911  1.00  0.00     0.103 C 
HETATM   21  C9  UNL     1      -3.140  29.708  13.750  1.00  0.00     0.050 C 
HETATM   22  C10 UNL     1      -5.456  29.956  14.241  1.00  0.00     0.050 C 
BRANCH  20  23
HETATM   23  C11 UNL     1      -3.801  30.463  15.969  1.00  0.00     0.203 C 
BRANCH  23  24
HETATM   24  O5  UNL     1      -4.870  30.811  16.763  1.00  0.00    -0.398 OA
ATOM     25  H5  UNL     1      -5.407  31.490  16.373  1.00  0.00     0.209 HD
ENDBRANCH  23  24
ENDBRANCH  20  23
ENDBRANCH  19  20
ENDBRANCH   1  19
BRANCH   1  26
HETATM   26  C12 UNL     1      -3.363  26.810  16.982  1.00  0.00     0.167 A 
HETATM   27  C13 UNL     1      -3.362  25.441  17.040  1.00  0.00     0.166 A 
HETATM   28  N6  UNL     1      -3.079  24.614  15.957  1.00  0.00    -0.079 NA
HETATM   29  N7  UNL     1      -3.638  24.756  18.196  1.00  0.00    -0.176 N 
HETATM   30  C14 UNL     1      -3.924  25.383  19.337  1.00  0.00     0.680 A 
ATOM     31  H7  UNL     1      -3.623  23.736  18.183  1.00  0.00     0.185 HD
HETATM   32  N9  UNL     1      -3.937  26.717  19.330  1.00  0.00    -0.154 N 
HETATM   33  C15 UNL     1      -3.667  27.417  18.202  1.00  0.00     0.291 A 
ATOM     34  H9  UNL     1      -4.154  27.219  20.191  1.00  0.00     0.187 HD
HETATM   35  O6  UNL     1      -3.694  28.661  18.292  1.00  0.00    -0.265 OA
BRANCH  30  36
HETATM   36  N8  UNL     1      -4.188  24.727  20.436  1.00  0.00    -0.234 N 
ATOM     37  H82 UNL     1      -3.759  25.009  21.318  1.00  0.00     0.174 HD
ATOM     38  H81 UNL     1      -4.819  23.927  20.446  1.00  0.00     0.174 HD
ENDBRANCH  30  36
ENDBRANCH   1  26
TORSDOF 13
ENDMDL
MODEL 2
REMARK VINA RESULT: -7.998700569      1.197      2.218
REMARK  13 active torsions:
REMARK  status: ('A' for Active; 'I' for Inactive)
REMARK    1  A    between atoms: C3_7  and  N3_8 
REMARK    2  A    between atoms: C4_11  and  C5_12 
REMARK    3  A    between atoms: C5_12  and  N4_13 
REMARK    4  A    between atoms: N4_13  and  O3_15 
REMARK    5  A    between atoms: O3_15  and  C6_16 
REMARK    6  A    between atoms: C6_16  and  C7_17 
REMARK    7  A    between atoms: C7_17  and  N5_18 
REMARK    8  A    between atoms: N5_18  and  O4_19 
REMARK    9  A    between atoms: N5_18  and  C12_26 
REMARK   10  A    between atoms: O4_19  and  C8_20 
REMARK   11  A    between atoms: C8_20  and  C11_23 
REMARK   12  A    between atoms: C11_23  and  O5_24 
REMARK   13  A    between atoms: C14_31  and  N8_32 
ROOT
HETATM    1  N5  UNL     1      -3.052  27.538  15.853  1.00  0.00    -0.247 N 
ENDROOT
BRANCH   1   2
HETATM    2  C7  UNL     1      -1.714  27.689  15.383  1.00  0.00     0.185 C 
BRANCH   2   3
HETATM    3  C6  UNL     1      -0.724  27.845  16.550  1.00  0.00     0.223 C 
BRANCH   3   4
HETATM    4  O3  UNL     1      -0.620  29.187  16.973  1.00  0.00    -0.279 OA
BRANCH   4   5
HETATM    5  N4  UNL     1      -0.726  29.566  18.268  1.00  0.00    -0.277 N 
ATOM      6  H4  UNL     1      -0.149  29.062  18.941  1.00  0.00     0.193 HD
BRANCH   5   7
HETATM    7  C5  UNL     1      -1.464  30.479  18.728  1.00  0.00     0.131 C 
BRANCH   7   8
HETATM    8  C4  UNL     1      -1.264  31.915  18.620  1.00  0.00     0.056 A 
HETATM    9  C2  UNL     1      -2.322  32.838  18.728  1.00  0.00     0.037 A 
HETATM   10  C1  UNL     1      -3.775  32.527  18.949  1.00  0.00     0.070 C 
HETATM   11  N1  UNL     1      -1.793  34.056  18.595  1.00  0.00    -0.302 N 
HETATM   12  N2  UNL     1      -0.500  33.955  18.415  1.00  0.00    -0.280 N 
ATOM     13  H1  UNL     1      -2.316  34.931  18.629  1.00  0.00     0.186 HD
HETATM   14  C3  UNL     1      -0.138  32.648  18.425  1.00  0.00     0.202 A 
ATOM     15  H2  UNL     1       0.137  34.741  18.288  1.00  0.00     0.189 HD
BRANCH  14  16
HETATM   16  N3  UNL     1       1.198  32.217  18.264  1.00  0.00    -0.096 N 
HETATM   17  O1  UNL     1       1.551  31.325  17.508  1.00  0.00    -0.530 OA
HETATM   18  O2  UNL     1       2.172  32.892  19.013  1.00  0.00    -0.530 OA
ENDBRANCH  14  16
ENDBRANCH   7   8
ENDBRANCH   5   7
ENDBRANCH   4   5
ENDBRANCH   3   4
ENDBRANCH   2   3
ENDBRANCH   1   2
BRANCH   1  19
HETATM   19  O4  UNL     1      -4.062  28.133  15.231  1.00  0.00    -0.265 OA
BRANCH  19  20
HETATM   20  C8  UNL     1      -4.129  29.411  14.907  1.00  0.00     0.103 C 
HETATM   21  C9  UNL     1      -2.903  29.666  13.952  1.00  0.00     0.050 C 
HETATM   22  C10 UNL     1      -5.272  29.899  14.001  1.00  0.00     0.050 C 
BRANCH  20  23
HETATM   23  C11 UNL     1      -3.969  30.451  15.996  1.00  0.00     0.203 C 
BRANCH  23  24
HETATM   24  O5  UNL     1      -5.126  30.643  16.716  1.00  0.00    -0.398 OA
ATOM     25  H5  UNL     1      -4.982  31.148  17.507  1.00  0.00     0.209 HD
ENDBRANCH  23  24
ENDBRANCH  20  23
ENDBRANCH  19  20
ENDBRANCH   1  19
BRANCH   1  26
HETATM   26  C12 UNL     1      -3.403  26.776  17.024  1.00  0.00     0.167 A 
HETATM   27  C13 UNL     1      -3.421  25.408  17.092  1.00  0.00     0.166 A 
HETATM   28  N6  UNL     1      -3.141  24.569  16.017  1.00  0.00    -0.079 NA
HETATM   29  N7  UNL     1      -3.717  24.734  18.251  1.00  0.00    -0.176 N 
HETATM   30  C14 UNL     1      -4.004  25.373  19.384  1.00  0.00     0.680 A 
ATOM     31  H7  UNL     1      -3.716  23.715  18.244  1.00  0.00     0.185 HD
HETATM   32  N9  UNL     1      -3.998  26.707  19.369  1.00  0.00    -0.154 N 
HETATM   33  C15 UNL     1      -3.709  27.396  18.238  1.00  0.00     0.291 A 
ATOM     34  H9  UNL     1      -4.215  27.218  20.224  1.00  0.00     0.187 HD
HETATM   35  O6  UNL     1      -3.719  28.640  18.319  1.00  0.00    -0.265 OA
BRANCH  30  36
HETATM   36  N8  UNL     1      -4.285  24.729  20.485  1.00  0.00    -0.234 N 
ATOM     37  H82 UNL     1      -3.993  25.103  21.388  1.00  0.00     0.174 HD
ATOM     38  H81 UNL     1      -4.798  23.848  20.476  1.00  0.00     0.174 HD
ENDBRANCH  30  36
ENDBRANCH   1  26
TORSDOF 13
ENDMDL
MODEL 3
REMARK VINA RESULT: -7.962811900      0.787      1.482
REMARK  13 active torsions:
REMARK  status: ('A' for Active; 'I' for Inactive)
REMARK    1  A    between atoms: C3_7  and  N3_8 
REMARK    2  A    between atoms: C4_11  and  C5_12 
REMARK    3  A    between atoms: C5_12  and  N4_13 
REMARK    4  A    between atoms: N4_13  and  O3_15 
REMARK    5  A    between atoms: O3_15  and  C6_16 
REMARK    6  A    between atoms: C6_16  and  C7_17 
REMARK    7  A    between atoms: C7_17  and  N5_18 
REMARK    8  A    between atoms: N5_18  and  O4_19 
REMARK    9  A    between atoms: N5_18  and  C12_26 
REMARK   10  A    between atoms: O4_19  and  C8_20 
REMARK   11  A    between atoms: C8_20  and  C11_23 
REMARK   12  A    between atoms: C11_23  and  O5_24 
REMARK   13  A    between atoms: C14_31  and  N8_32 
ROOT
HETATM    1  N5  UNL     1      -2.975  27.550  15.815  1.00  0.00    -0.247 N 
ENDROOT
BRANCH   1   2
HETATM    2  C7  UNL     1      -1.651  27.675  15.301  1.00  0.00     0.185 C 
BRANCH   2   3
HETATM    3  C6  UNL     1      -0.633  27.912  16.430  1.00  0.00     0.223 C 
BRANCH   3   4
HETATM    4  O3  UNL     1      -0.627  29.257  16.857  1.00  0.00    -0.279 OA
BRANCH   4   5
HETATM    5  N4  UNL     1      -0.533  29.620  18.158  1.00  0.00    -0.277 N 
ATOM      6  H4  UNL     1       0.174  29.142  18.716  1.00  0.00     0.193 HD
BRANCH   5   7
HETATM    7  C5  UNL     1      -1.228  30.489  18.749  1.00  0.00     0.131 C 
BRANCH   7   8
HETATM    8  C4  UNL     1      -1.186  31.931  18.563  1.00  0.00     0.056 A 
HETATM    9  C2  UNL     1       0.015  32.630  18.333  1.00  0.00     0.037 A 
HETATM   10  C1  UNL     1       1.398  32.050  18.253  1.00  0.00     0.070 C 
HETATM   11  N1  UNL     1      -0.304  33.919  18.197  1.00  0.00    -0.302 N 
HETATM   12  N2  UNL     1      -1.598  34.066  18.325  1.00  0.00    -0.280 N 
ATOM     13  H1  UNL     1       0.359  34.673  18.020  1.00  0.00     0.186 HD
HETATM   14  C3  UNL     1      -2.175  32.860  18.552  1.00  0.00     0.202 A 
ATOM     15  H2  UNL     1      -2.096  34.954  18.263  1.00  0.00     0.189 HD
BRANCH  14  16
HETATM   16  N3  UNL     1      -3.568  32.691  18.725  1.00  0.00    -0.096 N 
HETATM   17  O1  UNL     1      -4.078  31.926  19.527  1.00  0.00    -0.530 OA
HETATM   18  O2  UNL     1      -4.401  33.489  17.928  1.00  0.00    -0.530 OA
ENDBRANCH  14  16
ENDBRANCH   7   8
ENDBRANCH   5   7
ENDBRANCH   4   5
ENDBRANCH   3   4
ENDBRANCH   2   3
ENDBRANCH   1   2
BRANCH   1  19
HETATM   19  O4  UNL     1      -4.001  28.124  15.197  1.00  0.00    -0.265 OA
BRANCH  19  20
HETATM   20  C8  UNL     1      -4.114  29.407  14.908  1.00  0.00     0.103 C 
HETATM   21  C9  UNL     1      -3.043  29.680  13.787  1.00  0.00     0.050 C 
HETATM   22  C10 UNL     1      -5.378  29.909  14.191  1.00  0.00     0.050 C 
BRANCH  20  23
HETATM   23  C11 UNL     1      -3.793  30.429  15.979  1.00  0.00     0.203 C 
BRANCH  23  24
HETATM   24  O5  UNL     1      -4.893  30.767  16.733  1.00  0.00    -0.398 OA
ATOM     25  H5  UNL     1      -5.008  31.707  16.809  1.00  0.00     0.209 HD
ENDBRANCH  23  24
ENDBRANCH  20  23
ENDBRANCH  19  20
ENDBRANCH   1  19
BRANCH   1  26
HETATM   26  C12 UNL     1      -3.295  26.840  17.026  1.00  0.00     0.167 A 
HETATM   27  C13 UNL     1      -3.605  27.432  18.222  1.00  0.00     0.166 A 
HETATM   28  N6  UNL     1      -3.611  28.808  18.434  1.00  0.00    -0.079 NA
HETATM   29  N7  UNL     1      -3.950  26.705  19.334  1.00  0.00    -0.176 N 
HETATM   30  C14 UNL     1      -4.005  25.373  19.317  1.00  0.00     0.680 A 
ATOM     31  H7  UNL     1      -4.171  27.198  20.199  1.00  0.00     0.185 HD
HETATM   32  N9  UNL     1      -3.712  24.750  18.174  1.00  0.00    -0.154 N 
HETATM   33  C15 UNL     1      -3.369  25.445  17.062  1.00  0.00     0.291 A 
ATOM     34  H9  UNL     1      -3.747  23.732  18.136  1.00  0.00     0.187 HD
HETATM   35  O6  UNL     1      -3.120  24.780  16.038  1.00  0.00    -0.265 OA
BRANCH  30  36
HETATM   36  N8  UNL     1      -4.333  24.684  20.377  1.00  0.00    -0.234 N 
ATOM     37  H82 UNL     1      -4.998  23.913  20.303  1.00  0.00     0.174 HD
ATOM     38  H81 UNL     1      -3.941  24.891  21.295  1.00  0.00     0.174 HD
ENDBRANCH  30  36
ENDBRANCH   1  26
TORSDOF 13
ENDMDL
MODEL 4
REMARK VINA RESULT: -7.586239940      3.222      5.952
REMARK  13 active torsions:
REMARK  status: ('A' for Active; 'I' for Inactive)
REMARK    1  A    between atoms: C3_7  and  N3_8 
REMARK    2  A    between atoms: C4_11  and  C5_12 
REMARK    3  A    between atoms: C5_12  and  N4_13 
REMARK    4  A    between atoms: N4_13  and  O3_15 
REMARK    5  A    between atoms: O3_15  and  C6_16 
REMARK    6  A    between atoms: C6_16  and  C7_17 
REMARK    7  A    between atoms: C7_17  and  N5_18 
REMARK    8  A    between atoms: N5_18  and  O4_19 
REMARK    9  A    between atoms: N5_18  and  C12_26 
REMARK   10  A    between atoms: O4_19  and  C8_20 
REMARK   11  A    between atoms: C8_20  and  C11_23 
REMARK   12  A    between atoms: C11_23  and  O5_24 
REMARK   13  A    between atoms: C14_31  and  N8_32 
ROOT
HETATM    1  N5  UNL     1      -2.638  30.985  17.717  1.00  0.00    -0.247 N 
ENDROOT
BRANCH   1   2
HETATM    2  C7  UNL     1      -3.619  30.888  18.747  1.00  0.00     0.185 C 
BRANCH   2   3
HETATM    3  C6  UNL     1      -4.576  32.093  18.723  1.00  0.00     0.223 C 
BRANCH   3   4
HETATM    4  O3  UNL     1      -4.665  32.716  19.986  1.00  0.00    -0.279 OA
BRANCH   4   5
HETATM    5  N4  UNL     1      -4.508  34.049  20.166  1.00  0.00    -0.277 N 
ATOM      6  H4  UNL     1      -3.550  34.398  20.188  1.00  0.00     0.193 HD
BRANCH   5   7
HETATM    7  C5  UNL     1      -5.424  34.902  20.311  1.00  0.00     0.131 C 
BRANCH   7   8
HETATM    8  C4  UNL     1      -6.311  35.428  19.285  1.00  0.00     0.056 A 
HETATM    9  C2  UNL     1      -7.707  35.503  19.455  1.00  0.00     0.037 A 
HETATM   10  C1  UNL     1      -8.496  35.067  20.657  1.00  0.00     0.070 C 
HETATM   11  N1  UNL     1      -8.208  36.039  18.341  1.00  0.00    -0.302 N 
HETATM   12  N2  UNL     1      -7.236  36.298  17.504  1.00  0.00    -0.280 N 
ATOM     13  H1  UNL     1      -9.197  36.220  18.168  1.00  0.00     0.186 HD
HETATM   14  C3  UNL     1      -6.051  35.934  18.052  1.00  0.00     0.202 A 
ATOM     15  H2  UNL     1      -7.353  36.711  16.578  1.00  0.00     0.189 HD
BRANCH  14  16
HETATM   16  N3  UNL     1      -4.812  36.097  17.392  1.00  0.00    -0.096 N 
HETATM   17  O1  UNL     1      -4.043  35.187  17.127  1.00  0.00    -0.530 OA
HETATM   18  O2  UNL     1      -4.477  37.401  16.999  1.00  0.00    -0.530 OA
ENDBRANCH  14  16
ENDBRANCH   7   8
ENDBRANCH   5   7
ENDBRANCH   4   5
ENDBRANCH   3   4
ENDBRANCH   2   3
ENDBRANCH   1   2
BRANCH   1  19
HETATM   19  O4  UNL     1      -2.963  30.778  16.447  1.00  0.00    -0.265 OA
BRANCH  19  20
HETATM   20  C8  UNL     1      -3.668  29.763  15.981  1.00  0.00     0.103 C 
HETATM   21  C9  UNL     1      -3.087  29.473  14.547  1.00  0.00     0.050 C 
HETATM   22  C10 UNL     1      -3.497  28.373  16.618  1.00  0.00     0.050 C 
BRANCH  20  23
HETATM   23  C11 UNL     1      -5.152  29.949  15.747  1.00  0.00     0.203 C 
BRANCH  23  24
HETATM   24  O5  UNL     1      -5.452  30.185  14.424  1.00  0.00    -0.398 OA
ATOM     25  H5  UNL     1      -6.323  30.544  14.307  1.00  0.00     0.209 HD
ENDBRANCH  23  24
ENDBRANCH  20  23
ENDBRANCH  19  20
ENDBRANCH   1  19
BRANCH   1  26
HETATM   26  C12 UNL     1      -1.249  31.274  17.966  1.00  0.00     0.167 A 
HETATM   27  C13 UNL     1      -0.219  30.388  17.781  1.00  0.00     0.166 A 
HETATM   28  N6  UNL     1      -0.389  29.070  17.364  1.00  0.00    -0.079 NA
HETATM   29  N7  UNL     1       1.093  30.734  17.987  1.00  0.00    -0.176 N 
HETATM   30  C14 UNL     1       1.446  31.956  18.381  1.00  0.00     0.680 A 
ATOM     31  H7  UNL     1       1.818  30.034  17.834  1.00  0.00     0.185 HD
HETATM   32  N9  UNL     1       0.479  32.855  18.575  1.00  0.00    -0.154 N 
HETATM   33  C15 UNL     1      -0.824  32.539  18.377  1.00  0.00     0.291 A 
ATOM     34  H9  UNL     1       0.725  33.797  18.877  1.00  0.00     0.187 HD
HETATM   35  O6  UNL     1      -1.658  33.444  18.574  1.00  0.00    -0.265 OA
BRANCH  30  36
HETATM   36  N8  UNL     1       2.696  32.282  18.578  1.00  0.00    -0.234 N 
ATOM     37  H82 UNL     1       2.944  32.954  19.305  1.00  0.00     0.174 HD
ATOM     38  H81 UNL     1       3.449  31.881  18.021  1.00  0.00     0.174 HD
ENDBRANCH  30  36
ENDBRANCH   1  26
TORSDOF 13
ENDMDL
MODEL 5
REMARK VINA RESULT: -7.542581198      3.132      6.118
REMARK  13 active torsions:
REMARK  status: ('A' for Active; 'I' for Inactive)
REMARK    1  A    between atoms: C3_7  and  N3_8 
REMARK    2  A    between atoms: C4_11  and  C5_12 
REMARK    3  A    between atoms: C5_12  and  N4_13 
REMARK    4  A    between atoms: N4_13  and  O3_15 
REMARK    5  A    between atoms: O3_15  and  C6_16 
REMARK    6  A    between atoms: C6_16  and  C7_17 
REMARK    7  A    between atoms: C7_17  and  N5_18 
REMARK    8  A    between atoms: N5_18  and  O4_19 
REMARK    9  A    between atoms: N5_18  and  C12_26 
REMARK   10  A    between atoms: O4_19  and  C8_20 
REMARK   11  A    between atoms: C8_20  and  C11_23 
REMARK   12  A    between atoms: C11_23  and  O5_24 
REMARK   13  A    between atoms: C14_31  and  N8_32 
ROOT
HETATM    1  N5  UNL     1      -2.530  30.971  17.738  1.00  0.00    -0.247 N 
ENDROOT
BRANCH   1   2
HETATM    2  C7  UNL     1      -3.491  30.821  18.781  1.00  0.00     0.185 C 
BRANCH   2   3
HETATM    3  C6  UNL     1      -4.496  31.985  18.788  1.00  0.00     0.223 C 
BRANCH   3   4
HETATM    4  O3  UNL     1      -4.496  32.670  20.022  1.00  0.00    -0.279 OA
BRANCH   4   5
HETATM    5  N4  UNL     1      -4.399  34.016  20.122  1.00  0.00    -0.277 N 
ATOM      6  H4  UNL     1      -3.465  34.417  20.022  1.00  0.00     0.193 HD
BRANCH   5   7
HETATM    7  C5  UNL     1      -5.343  34.827  20.325  1.00  0.00     0.131 C 
BRANCH   7   8
HETATM    8  C4  UNL     1      -6.267  35.370  19.342  1.00  0.00     0.056 A 
HETATM    9  C2  UNL     1      -7.656  35.434  19.562  1.00  0.00     0.037 A 
HETATM   10  C1  UNL     1      -8.402  34.966  20.780  1.00  0.00     0.070 C 
HETATM   11  N1  UNL     1      -8.198  35.991  18.478  1.00  0.00    -0.302 N 
HETATM   12  N2  UNL     1      -7.257  36.274  17.614  1.00  0.00    -0.280 N 
ATOM     13  H1  UNL     1      -9.194  36.170  18.344  1.00  0.00     0.186 HD
HETATM   14  C3  UNL     1      -6.052  35.905  18.113  1.00  0.00     0.202 A 
ATOM     15  H2  UNL     1      -7.408  36.707  16.703  1.00  0.00     0.189 HD
BRANCH  14  16
HETATM   16  N3  UNL     1      -4.837  36.090  17.415  1.00  0.00    -0.096 N 
HETATM   17  O1  UNL     1      -4.074  35.190  17.101  1.00  0.00    -0.530 OA
HETATM   18  O2  UNL     1      -4.521  37.404  17.041  1.00  0.00    -0.530 OA
ENDBRANCH  14  16
ENDBRANCH   7   8
ENDBRANCH   5   7
ENDBRANCH   4   5
ENDBRANCH   3   4
ENDBRANCH   2   3
ENDBRANCH   1   2
BRANCH   1  19
HETATM   19  O4  UNL     1      -2.859  30.739  16.473  1.00  0.00    -0.265 OA
BRANCH  19  20
HETATM   20  C8  UNL     1      -3.407  29.634  16.003  1.00  0.00     0.103 C 
HETATM   21  C9  UNL     1      -2.426  29.125  14.881  1.00  0.00     0.050 C 
HETATM   22  C10 UNL     1      -3.457  28.382  16.894  1.00  0.00     0.050 C 
BRANCH  20  23
HETATM   23  C11 UNL     1      -4.748  29.722  15.306  1.00  0.00     0.203 C 
BRANCH  23  24
HETATM   24  O5  UNL     1      -5.616  30.584  15.938  1.00  0.00    -0.398 OA
ATOM     25  H5  UNL     1      -5.195  31.393  16.204  1.00  0.00     0.209 HD
ENDBRANCH  23  24
ENDBRANCH  20  23
ENDBRANCH  19  20
ENDBRANCH   1  19
BRANCH   1  26
HETATM   26  C12 UNL     1      -1.157  31.342  17.968  1.00  0.00     0.167 A 
HETATM   27  C13 UNL     1      -0.734  32.596  18.322  1.00  0.00     0.166 A 
HETATM   28  N6  UNL     1      -1.580  33.693  18.468  1.00  0.00    -0.079 NA
HETATM   29  N7  UNL     1       0.584  32.882  18.577  1.00  0.00    -0.176 N 
HETATM   30  C14 UNL     1       1.535  31.953  18.494  1.00  0.00     0.680 A 
ATOM     31  H7  UNL     1       0.842  33.834  18.837  1.00  0.00     0.185 HD
HETATM   32  N9  UNL     1       1.173  30.715  18.152  1.00  0.00    -0.154 N 
HETATM   33  C15 UNL     1      -0.122  30.407  17.897  1.00  0.00     0.291 A 
ATOM     34  H9  UNL     1       1.884  29.988  18.082  1.00  0.00     0.187 HD
HETATM   35  O6  UNL     1      -0.369  29.224  17.593  1.00  0.00    -0.265 OA
BRANCH  30  36
HETATM   36  N8  UNL     1       2.789  32.229  18.736  1.00  0.00    -0.234 N 
ATOM     37  H82 UNL     1       3.097  32.430  19.687  1.00  0.00     0.174 HD
ATOM     38  H81 UNL     1       3.487  32.251  17.993  1.00  0.00     0.174 HD
ENDBRANCH  30  36
ENDBRANCH   1  26
TORSDOF 13
ENDMDL
