MODEL 1
REMARK VINA RESULT: -7.873250195      0.000      0.000
REMARK  12 active torsions:
REMARK  status: ('A' for Active; 'I' for Inactive)
REMARK    1  A    between atoms: C2_2  and  C3_4 
REMARK    2  A    between atoms: C3_4  and  C4_5 
REMARK    3  A    between atoms: C3_4  and  N4_17 
REMARK    4  A    between atoms: C4_5  and  S1_6 
REMARK    5  A    between atoms: S1_6  and  C5_7 
REMARK    6  A    between atoms: N4_17  and  C7_19 
REMARK    7  A    between atoms: C7_19  and  C8_24 
REMARK    8  A    between atoms: N5_20  and  O2_22 
REMARK       I    between atoms: C8_24  and  N6_26 
REMARK    9  A    between atoms: N6_26  and  O4_28 
REMARK   10  A    between atoms: O4_28  and  C9_29 
REMARK   11  A    between atoms: C9_29  and  C11_31 
REMARK   12  A    between atoms: C9_29  and  C12_34 
ROOT
HETATM    1  N4  UNL     1      -2.343  30.085  16.663  1.00  0.00    -0.336 N 
ATOM      2  H4  UNL     1      -1.611  30.593  16.167  1.00  0.00     0.167 HD
ENDROOT
BRANCH   1   3
HETATM    3  C3  UNL     1      -2.713  28.880  16.028  1.00  0.00     0.066 C 
BRANCH   3   4
HETATM    4  C2  UNL     1      -3.656  29.120  14.903  1.00  0.00     0.168 C 
HETATM    5  C1  UNL     1      -3.205  29.671  13.611  1.00  0.00     0.098 C 
HETATM    6  O1  UNL     1      -4.828  28.860  15.106  1.00  0.00    -0.292 OA
ENDBRANCH   3   4
BRANCH   3   7
HETATM    7  C4  UNL     1      -1.691  27.875  15.811  1.00  0.00     0.142 C 
BRANCH   7   8
HETATM    8  S1  UNL     1      -2.310  26.185  15.827  1.00  0.00    -0.097 SA
BRANCH   8   9
HETATM    9  C5  UNL     1      -2.982  25.858  17.466  1.00  0.00     0.130 A 
HETATM   10  N1  UNL     1      -2.378  25.260  18.482  1.00  0.00    -0.286 N 
HETATM   11  N2  UNL     1      -2.980  25.016  19.570  1.00  0.00    -0.279 N 
ATOM     12  H1  UNL     1      -1.399  24.989  18.387  1.00  0.00     0.188 HD
HETATM   13  C6  UNL     1      -4.284  25.394  19.653  1.00  0.00     0.159 A 
ATOM     14  H2  UNL     1      -2.508  24.557  20.348  1.00  0.00     0.189 HD
HETATM   15  N3  UNL     1      -5.049  25.156  20.663  1.00  0.00    -0.379 N 
HETATM   16  S2  UNL     1      -4.544  26.086  18.118  1.00  0.00    -0.027 SA
ATOM     17  H32 UNL     1      -4.894  24.742  21.582  1.00  0.00     0.158 HD
ATOM     18  H31 UNL     1      -6.028  25.439  20.725  1.00  0.00     0.158 HD
ENDBRANCH   8   9
ENDBRANCH   7   8
ENDBRANCH   3   7
ENDBRANCH   1   3
BRANCH   1  19
HETATM   19  C7  UNL     1      -2.771  30.731  17.835  1.00  0.00     0.196 C 
HETATM   20  N5  UNL     1      -2.042  30.633  18.921  1.00  0.00    -0.248 N 
ATOM     21  H5  UNL     1      -2.341  31.107  19.773  1.00  0.00     0.196 HD
BRANCH  20  22
HETATM   22  O2  UNL     1      -0.898  29.913  18.924  1.00  0.00    -0.288 OA
ATOM     23  H2  UNL     1      -0.052  30.344  18.890  1.00  0.00     0.244 HD
ENDBRANCH  20  22
BRANCH  19  24
HETATM   24  C8  UNL     1      -3.966  31.547  17.923  1.00  0.00     0.310 C 
HETATM   25  O3  UNL     1      -5.006  31.318  17.343  1.00  0.00    -0.262 OA
HETATM   26  N6  UNL     1      -3.900  32.781  18.758  1.00  0.00    -0.227 N 
ATOM     27  H6  UNL     1      -3.039  32.953  19.278  1.00  0.00     0.198 HD
BRANCH  26  28
HETATM   28  O4  UNL     1      -4.790  33.595  18.865  1.00  0.00    -0.257 OA
BRANCH  28  29
HETATM   29  C9  UNL     1      -5.393  34.697  18.947  1.00  0.00     0.166 C 
HETATM   30  C10 UNL     1      -5.287  35.185  20.442  1.00  0.00     0.059 C 
BRANCH  29  31
HETATM   31  C11 UNL     1      -4.769  35.785  18.122  1.00  0.00     0.268 C 
HETATM   32  N7  UNL     1      -4.881  37.149  18.513  1.00  0.00    -0.059 NA
HETATM   33  O5  UNL     1      -4.154  35.492  17.105  1.00  0.00    -0.273 OA
ENDBRANCH  29  31
BRANCH  29  34
HETATM   34  C12 UNL     1      -6.897  34.749  18.708  1.00  0.00     0.023 C 
HETATM   35  C13 UNL     1      -7.589  35.220  19.936  1.00  0.00     0.013 C 
HETATM   36  C14 UNL     1      -7.334  35.425  17.463  1.00  0.00     0.013 C 
ENDBRANCH  29  34
ENDBRANCH  28  29
ENDBRANCH  26  28
ENDBRANCH  19  24
ENDBRANCH   1  19
TORSDOF 12
ENDMDL
MODEL 2
REMARK VINA RESULT: -7.869457398      2.420      3.665
REMARK  12 active torsions:
REMARK  status: ('A' for Active; 'I' for Inactive)
REMARK    1  A    between atoms: C2_2  and  C3_4 
REMARK    2  A    between atoms: C3_4  and  C4_5 
REMARK    3  A    between atoms: C3_4  and  N4_17 
REMARK    4  A    between atoms: C4_5  and  S1_6 
REMARK    5  A    between atoms: S1_6  and  C5_7 
REMARK    6  A    between atoms: N4_17  and  C7_19 
REMARK    7  A    between atoms: C7_19  and  C8_24 
REMARK    8  A    between atoms: N5_20  and  O2_22 
REMARK       I    between atoms: C8_24  and  N6_26 
REMARK    9  A    between atoms: N6_26  and  O4_28 
REMARK   10  A    between atoms: O4_28  and  C9_29 
REMARK   11  A    between atoms: C9_29  and  C11_31 
REMARK   12  A    between atoms: C9_29  and  C12_34 
ROOT
HETATM    1  N4  UNL     1      -1.815  31.907  18.796  1.00  0.00    -0.336 N 
ATOM      2  H4  UNL     1      -1.691  31.871  19.808  1.00  0.00     0.167 HD
ENDROOT
BRANCH   1   3
HETATM    3  C3  UNL     1      -0.629  31.638  18.078  1.00  0.00     0.066 C 
BRANCH   3   4
HETATM    4  C2  UNL     1       0.464  32.573  18.456  1.00  0.00     0.168 C 
HETATM    5  C1  UNL     1       1.884  32.178  18.398  1.00  0.00     0.098 C 
HETATM    6  O1  UNL     1       0.130  33.679  18.837  1.00  0.00    -0.292 OA
ENDBRANCH   3   4
BRANCH   3   7
HETATM    7  C4  UNL     1      -0.252  30.254  17.869  1.00  0.00     0.142 C 
BRANCH   7   8
HETATM    8  S1  UNL     1      -0.673  29.619  16.238  1.00  0.00    -0.097 SA
BRANCH   8   9
HETATM    9  C5  UNL     1      -1.608  28.095  16.462  1.00  0.00     0.130 A 
HETATM   10  N1  UNL     1      -1.293  27.060  17.227  1.00  0.00    -0.286 N 
HETATM   11  N2  UNL     1      -1.993  26.005  17.247  1.00  0.00    -0.279 N 
ATOM     12  H1  UNL     1      -0.462  27.114  17.817  1.00  0.00     0.188 HD
HETATM   13  C6  UNL     1      -3.090  25.975  16.443  1.00  0.00     0.159 A 
ATOM     14  H2  UNL     1      -1.745  25.212  17.839  1.00  0.00     0.189 HD
HETATM   15  N3  UNL     1      -3.863  24.953  16.301  1.00  0.00    -0.379 N 
HETATM   16  S2  UNL     1      -3.021  27.509  15.705  1.00  0.00    -0.027 SA
ATOM     17  H32 UNL     1      -3.904  24.035  16.743  1.00  0.00     0.158 HD
ATOM     18  H31 UNL     1      -4.686  24.931  15.698  1.00  0.00     0.158 HD
ENDBRANCH   8   9
ENDBRANCH   7   8
ENDBRANCH   3   7
ENDBRANCH   1   3
BRANCH   1  19
HETATM   19  C7  UNL     1      -3.130  32.214  18.409  1.00  0.00     0.196 C 
HETATM   20  N5  UNL     1      -4.017  31.249  18.339  1.00  0.00    -0.248 N 
ATOM     21  H5  UNL     1      -4.976  31.465  18.068  1.00  0.00     0.196 HD
BRANCH  20  22
HETATM   22  O2  UNL     1      -3.674  29.973  18.623  1.00  0.00    -0.288 OA
ATOM     23  H2  UNL     1      -4.256  29.414  19.124  1.00  0.00     0.244 HD
ENDBRANCH  20  22
BRANCH  19  24
HETATM   24  C8  UNL     1      -3.599  33.553  18.113  1.00  0.00     0.310 C 
HETATM   25  O3  UNL     1      -3.337  34.171  17.102  1.00  0.00    -0.262 OA
HETATM   26  N6  UNL     1      -4.433  34.237  19.142  1.00  0.00    -0.227 N 
ATOM     27  H6  UNL     1      -4.688  33.704  19.974  1.00  0.00     0.198 HD
BRANCH  26  28
HETATM   28  O4  UNL     1      -4.831  35.378  19.066  1.00  0.00    -0.257 OA
BRANCH  28  29
HETATM   29  C9  UNL     1      -5.470  36.394  18.686  1.00  0.00     0.166 C 
HETATM   30  C10 UNL     1      -4.450  37.350  17.956  1.00  0.00     0.059 C 
BRANCH  29  31
HETATM   31  C11 UNL     1      -6.533  36.090  17.670  1.00  0.00     0.268 C 
HETATM   32  N7  UNL     1      -7.033  37.109  16.812  1.00  0.00    -0.059 NA
HETATM   33  O5  UNL     1      -6.968  34.949  17.579  1.00  0.00    -0.273 OA
ENDBRANCH  29  31
BRANCH  29  34
HETATM   34  C12 UNL     1      -6.084  37.327  19.723  1.00  0.00     0.023 C 
HETATM   35  C13 UNL     1      -6.062  36.681  21.061  1.00  0.00     0.013 C 
HETATM   36  C14 UNL     1      -5.592  38.726  19.710  1.00  0.00     0.013 C 
ENDBRANCH  29  34
ENDBRANCH  28  29
ENDBRANCH  26  28
ENDBRANCH  19  24
ENDBRANCH   1  19
TORSDOF 12
ENDMDL
MODEL 3
REMARK VINA RESULT: -7.829258098      2.491      3.438
REMARK  12 active torsions:
REMARK  status: ('A' for Active; 'I' for Inactive)
REMARK    1  A    between atoms: C2_2  and  C3_4 
REMARK    2  A    between atoms: C3_4  and  C4_5 
REMARK    3  A    between atoms: C3_4  and  N4_17 
REMARK    4  A    between atoms: C4_5  and  S1_6 
REMARK    5  A    between atoms: S1_6  and  C5_7 
REMARK    6  A    between atoms: N4_17  and  C7_19 
REMARK    7  A    between atoms: C7_19  and  C8_24 
REMARK    8  A    between atoms: N5_20  and  O2_22 
REMARK       I    between atoms: C8_24  and  N6_26 
REMARK    9  A    between atoms: N6_26  and  O4_28 
REMARK   10  A    between atoms: O4_28  and  C9_29 
REMARK   11  A    between atoms: C9_29  and  C11_31 
REMARK   12  A    between atoms: C9_29  and  C12_34 
ROOT
HETATM    1  N4  UNL     1      -1.763  31.669  18.746  1.00  0.00    -0.336 N 
ATOM      2  H4  UNL     1      -1.169  31.585  19.571  1.00  0.00     0.167 HD
ENDROOT
BRANCH   1   3
HETATM    3  C3  UNL     1      -1.733  30.526  17.918  1.00  0.00     0.066 C 
BRANCH   3   4
HETATM    4  C2  UNL     1      -0.344  30.040  17.705  1.00  0.00     0.168 C 
HETATM    5  C1  UNL     1       0.828  30.775  18.217  1.00  0.00     0.098 C 
HETATM    6  O1  UNL     1      -0.217  29.012  17.065  1.00  0.00    -0.292 OA
ENDBRANCH   3   4
BRANCH   3   7
HETATM    7  C4  UNL     1      -2.750  29.511  18.112  1.00  0.00     0.142 C 
BRANCH   7   8
HETATM    8  S1  UNL     1      -3.681  29.114  16.622  1.00  0.00    -0.097 SA
BRANCH   8   9
HETATM    9  C5  UNL     1      -3.463  27.357  16.287  1.00  0.00     0.130 A 
HETATM   10  N1  UNL     1      -4.326  26.378  16.519  1.00  0.00    -0.286 N 
HETATM   11  N2  UNL     1      -4.031  25.164  16.311  1.00  0.00    -0.279 N 
ATOM     12  H1  UNL     1      -5.253  26.609  16.875  1.00  0.00     0.188 HD
HETATM   13  C6  UNL     1      -2.783  24.902  15.838  1.00  0.00     0.159 A 
ATOM     14  H2  UNL     1      -4.700  24.416  16.490  1.00  0.00     0.189 HD
HETATM   15  N3  UNL     1      -2.311  23.719  15.640  1.00  0.00    -0.379 N 
HETATM   16  S2  UNL     1      -2.118  26.466  15.730  1.00  0.00    -0.027 SA
ATOM     17  H32 UNL     1      -2.710  22.782  15.705  1.00  0.00     0.158 HD
ATOM     18  H31 UNL     1      -1.375  23.522  15.286  1.00  0.00     0.158 HD
ENDBRANCH   8   9
ENDBRANCH   7   8
ENDBRANCH   3   7
ENDBRANCH   1   3
BRANCH   1  19
HETATM   19  C7  UNL     1      -2.439  32.899  18.672  1.00  0.00     0.196 C 
HETATM   20  N5  UNL     1      -1.760  33.983  18.379  1.00  0.00    -0.248 N 
ATOM     21  H5  UNL     1      -2.244  34.878  18.315  1.00  0.00     0.196 HD
BRANCH  20  22
HETATM   22  O2  UNL     1      -0.427  33.928  18.160  1.00  0.00    -0.288 OA
ATOM     23  H2  UNL     1      -0.064  34.152  17.312  1.00  0.00     0.244 HD
ENDBRANCH  20  22
BRANCH  19  24
HETATM   24  C8  UNL     1      -3.867  33.056  18.863  1.00  0.00     0.310 C 
HETATM   25  O3  UNL     1      -4.719  32.483  18.216  1.00  0.00    -0.262 OA
HETATM   26  N6  UNL     1      -4.323  34.020  19.903  1.00  0.00    -0.227 N 
ATOM     27  H6  UNL     1      -3.608  34.472  20.475  1.00  0.00     0.198 HD
BRANCH  26  28
HETATM   28  O4  UNL     1      -5.478  34.310  20.122  1.00  0.00    -0.257 OA
BRANCH  28  29
HETATM   29  C9  UNL     1      -6.528  34.987  20.274  1.00  0.00     0.166 C 
HETATM   30  C10 UNL     1      -6.114  36.367  20.913  1.00  0.00     0.059 C 
BRANCH  29  31
HETATM   31  C11 UNL     1      -7.213  35.332  18.983  1.00  0.00     0.268 C 
HETATM   32  N7  UNL     1      -6.496  35.324  17.754  1.00  0.00    -0.059 NA
HETATM   33  O5  UNL     1      -8.404  35.617  18.991  1.00  0.00    -0.273 OA
ENDBRANCH  29  31
BRANCH  29  34
HETATM   34  C12 UNL     1      -7.600  34.504  21.244  1.00  0.00     0.023 C 
HETATM   35  C13 UNL     1      -7.408  33.060  21.533  1.00  0.00     0.013 C 
HETATM   36  C14 UNL     1      -7.815  35.346  22.445  1.00  0.00     0.013 C 
ENDBRANCH  29  34
ENDBRANCH  28  29
ENDBRANCH  26  28
ENDBRANCH  19  24
ENDBRANCH   1  19
TORSDOF 12
ENDMDL
MODEL 4
REMARK VINA RESULT: -7.823276154      2.588      3.510
REMARK  12 active torsions:
REMARK  status: ('A' for Active; 'I' for Inactive)
REMARK    1  A    between atoms: C2_2  and  C3_4 
REMARK    2  A    between atoms: C3_4  and  C4_5 
REMARK    3  A    between atoms: C3_4  and  N4_17 
REMARK    4  A    between atoms: C4_5  and  S1_6 
REMARK    5  A    between atoms: S1_6  and  C5_7 
REMARK    6  A    between atoms: N4_17  and  C7_19 
REMARK    7  A    between atoms: C7_19  and  C8_24 
REMARK    8  A    between atoms: N5_20  and  O2_22 
REMARK       I    between atoms: C8_24  and  N6_26 
REMARK    9  A    between atoms: N6_26  and  O4_28 
REMARK   10  A    between atoms: O4_28  and  C9_29 
REMARK   11  A    between atoms: C9_29  and  C11_31 
REMARK   12  A    between atoms: C9_29  and  C12_34 
ROOT
HETATM    1  N4  UNL     1      -1.638  31.548  18.648  1.00  0.00    -0.336 N 
ATOM      2  H4  UNL     1      -1.344  31.235  19.573  1.00  0.00     0.167 HD
ENDROOT
BRANCH   1   3
HETATM    3  C3  UNL     1      -1.832  30.488  17.736  1.00  0.00     0.066 C 
BRANCH   3   4
HETATM    4  C2  UNL     1      -0.543  30.011  17.169  1.00  0.00     0.168 C 
HETATM    5  C1  UNL     1      -0.438  29.501  15.789  1.00  0.00     0.098 C 
HETATM    6  O1  UNL     1       0.424  30.040  17.908  1.00  0.00    -0.292 OA
ENDBRANCH   3   4
BRANCH   3   7
HETATM    7  C4  UNL     1      -2.809  29.469  18.065  1.00  0.00     0.142 C 
BRANCH   7   8
HETATM    8  S1  UNL     1      -3.869  29.001  16.686  1.00  0.00    -0.097 SA
BRANCH   8   9
HETATM    9  C5  UNL     1      -3.561  27.264  16.317  1.00  0.00     0.130 A 
HETATM   10  N1  UNL     1      -4.388  26.244  16.489  1.00  0.00    -0.286 N 
HETATM   11  N2  UNL     1      -4.032  25.049  16.264  1.00  0.00    -0.279 N 
ATOM     12  H1  UNL     1      -5.339  26.424  16.812  1.00  0.00     0.188 HD
HETATM   13  C6  UNL     1      -2.756  24.854  15.837  1.00  0.00     0.159 A 
ATOM     14  H2  UNL     1      -4.675  24.268  16.397  1.00  0.00     0.189 HD
HETATM   15  N3  UNL     1      -2.225  23.698  15.629  1.00  0.00    -0.379 N 
HETATM   16  S2  UNL     1      -2.156  26.448  15.794  1.00  0.00    -0.027 SA
ATOM     17  H32 UNL     1      -2.584  22.743  15.655  1.00  0.00     0.158 HD
ATOM     18  H31 UNL     1      -1.267  23.551  15.309  1.00  0.00     0.158 HD
ENDBRANCH   8   9
ENDBRANCH   7   8
ENDBRANCH   3   7
ENDBRANCH   1   3
BRANCH   1  19
HETATM   19  C7  UNL     1      -1.765  32.944  18.549  1.00  0.00     0.196 C 
HETATM   20  N5  UNL     1      -0.681  33.679  18.466  1.00  0.00    -0.248 N 
ATOM     21  H5  UNL     1      -0.765  34.692  18.385  1.00  0.00     0.196 HD
BRANCH  20  22
HETATM   22  O2  UNL     1       0.544  33.109  18.485  1.00  0.00    -0.288 OA
ATOM     23  H2  UNL     1       0.665  32.229  18.819  1.00  0.00     0.244 HD
ENDBRANCH  20  22
BRANCH  19  24
HETATM   24  C8  UNL     1      -3.033  33.643  18.494  1.00  0.00     0.310 C 
HETATM   25  O3  UNL     1      -3.543  34.075  17.481  1.00  0.00    -0.262 OA
HETATM   26  N6  UNL     1      -3.746  33.886  19.781  1.00  0.00    -0.227 N 
ATOM     27  H6  UNL     1      -3.338  33.489  20.628  1.00  0.00     0.198 HD
BRANCH  26  28
HETATM   28  O4  UNL     1      -4.771  34.520  19.898  1.00  0.00    -0.257 OA
BRANCH  28  29
HETATM   29  C9  UNL     1      -5.956  34.823  20.193  1.00  0.00     0.166 C 
HETATM   30  C10 UNL     1      -6.746  35.019  18.843  1.00  0.00     0.059 C 
BRANCH  29  31
HETATM   31  C11 UNL     1      -6.687  33.740  20.934  1.00  0.00     0.268 C 
HETATM   32  N7  UNL     1      -8.036  33.923  21.345  1.00  0.00    -0.059 NA
HETATM   33  O5  UNL     1      -6.112  32.688  21.180  1.00  0.00    -0.273 OA
ENDBRANCH  29  31
BRANCH  29  34
HETATM   34  C12 UNL     1      -6.238  36.137  20.912  1.00  0.00     0.023 C 
HETATM   35  C13 UNL     1      -5.552  36.150  22.230  1.00  0.00     0.013 C 
HETATM   36  C14 UNL     1      -6.048  37.370  20.111  1.00  0.00     0.013 C 
ENDBRANCH  29  34
ENDBRANCH  28  29
ENDBRANCH  26  28
ENDBRANCH  19  24
ENDBRANCH   1  19
TORSDOF 12
ENDMDL
MODEL 5
REMARK VINA RESULT: -7.773941535      1.074      1.744
REMARK  12 active torsions:
REMARK  status: ('A' for Active; 'I' for Inactive)
REMARK    1  A    between atoms: C2_2  and  C3_4 
REMARK    2  A    between atoms: C3_4  and  C4_5 
REMARK    3  A    between atoms: C3_4  and  N4_17 
REMARK    4  A    between atoms: C4_5  and  S1_6 
REMARK    5  A    between atoms: S1_6  and  C5_7 
REMARK    6  A    between atoms: N4_17  and  C7_19 
REMARK    7  A    between atoms: C7_19  and  C8_24 
REMARK    8  A    between atoms: N5_20  and  O2_22 
REMARK       I    between atoms: C8_24  and  N6_26 
REMARK    9  A    between atoms: N6_26  and  O4_28 
REMARK   10  A    between atoms: O4_28  and  C9_29 
REMARK   11  A    between atoms: C9_29  and  C11_31 
REMARK   12  A    between atoms: C9_29  and  C12_34 
ROOT
HETATM    1  N4  UNL     1      -2.282  30.055  16.631  1.00  0.00    -0.336 N 
ATOM      2  H4  UNL     1      -1.529  30.523  16.127  1.00  0.00     0.167 HD
ENDROOT
BRANCH   1   3
HETATM    3  C3  UNL     1      -2.695  28.850  16.024  1.00  0.00     0.066 C 
BRANCH   3   4
HETATM    4  C2  UNL     1      -3.689  29.092  14.944  1.00  0.00     0.168 C 
HETATM    5  C1  UNL     1      -3.302  29.662  13.640  1.00  0.00     0.098 C 
HETATM    6  O1  UNL     1      -4.848  28.817  15.195  1.00  0.00    -0.292 OA
ENDBRANCH   3   4
BRANCH   3   7
HETATM    7  C4  UNL     1      -1.695  27.833  15.765  1.00  0.00     0.142 C 
BRANCH   7   8
HETATM    8  S1  UNL     1      -2.336  26.151  15.795  1.00  0.00    -0.097 SA
BRANCH   8   9
HETATM    9  C5  UNL     1      -2.994  25.839  17.443  1.00  0.00     0.130 A 
HETATM   10  N1  UNL     1      -2.373  25.272  18.466  1.00  0.00    -0.286 N 
HETATM   11  N2  UNL     1      -2.965  25.034  19.560  1.00  0.00    -0.279 N 
ATOM     12  H1  UNL     1      -1.390  25.018  18.370  1.00  0.00     0.188 HD
HETATM   13  C6  UNL     1      -4.276  25.387  19.643  1.00  0.00     0.159 A 
ATOM     14  H2  UNL     1      -2.480  24.598  20.344  1.00  0.00     0.189 HD
HETATM   15  N3  UNL     1      -5.032  25.152  20.661  1.00  0.00    -0.379 N 
HETATM   16  S2  UNL     1      -4.557  26.047  18.098  1.00  0.00    -0.027 SA
ATOM     17  H32 UNL     1      -4.864  24.756  21.586  1.00  0.00     0.158 HD
ATOM     18  H31 UNL     1      -6.016  25.415  20.723  1.00  0.00     0.158 HD
ENDBRANCH   8   9
ENDBRANCH   7   8
ENDBRANCH   3   7
ENDBRANCH   1   3
BRANCH   1  19
HETATM   19  C7  UNL     1      -2.691  30.747  17.784  1.00  0.00     0.196 C 
HETATM   20  N5  UNL     1      -1.978  30.635  18.881  1.00  0.00    -0.248 N 
ATOM     21  H5  UNL     1      -2.263  31.140  19.720  1.00  0.00     0.196 HD
BRANCH  20  22
HETATM   22  O2  UNL     1      -0.872  29.860  18.911  1.00  0.00    -0.288 OA
ATOM     23  H2  UNL     1      -0.400  29.717  19.724  1.00  0.00     0.244 HD
ENDBRANCH  20  22
BRANCH  19  24
HETATM   24  C8  UNL     1      -3.844  31.622  17.843  1.00  0.00     0.310 C 
HETATM   25  O3  UNL     1      -4.954  31.333  17.448  1.00  0.00    -0.262 OA
HETATM   26  N6  UNL     1      -3.644  32.993  18.392  1.00  0.00    -0.227 N 
ATOM     27  H6  UNL     1      -2.721  33.223  18.762  1.00  0.00     0.198 HD
BRANCH  26  28
HETATM   28  O4  UNL     1      -4.494  33.855  18.433  1.00  0.00    -0.257 OA
BRANCH  28  29
HETATM   29  C9  UNL     1      -5.372  34.641  18.874  1.00  0.00     0.166 C 
HETATM   30  C10 UNL     1      -6.700  34.368  18.069  1.00  0.00     0.059 C 
BRANCH  29  31
HETATM   31  C11 UNL     1      -5.720  34.406  20.316  1.00  0.00     0.268 C 
HETATM   32  N7  UNL     1      -6.109  33.114  20.769  1.00  0.00    -0.059 NA
HETATM   33  O5  UNL     1      -5.664  35.338  21.107  1.00  0.00    -0.273 OA
ENDBRANCH  29  31
BRANCH  29  34
HETATM   34  C12 UNL     1      -5.198  36.143  18.686  1.00  0.00     0.023 C 
HETATM   35  C13 UNL     1      -4.137  36.409  17.681  1.00  0.00     0.013 C 
HETATM   36  C14 UNL     1      -6.444  36.921  18.482  1.00  0.00     0.013 C 
ENDBRANCH  29  34
ENDBRANCH  28  29
ENDBRANCH  26  28
ENDBRANCH  19  24
ENDBRANCH   1  19
TORSDOF 12
ENDMDL
