MODEL 1
REMARK VINA RESULT: -5.868224667      0.000      0.000
REMARK  9 active torsions:
REMARK  status: ('A' for Active; 'I' for Inactive)
REMARK    1  A    between atoms: C2_2  and  C3_3 
REMARK    2  A    between atoms: C3_3  and  C4_4 
REMARK    3  A    between atoms: C6_6  and  C7_7 
REMARK    4  A    between atoms: C7_7  and  O1_8 
REMARK    5  A    between atoms: C7_7  and  C8_10 
REMARK    6  A    between atoms: C11_13  and  O2_14 
REMARK    7  A    between atoms: O2_14  and  C12_15 
REMARK    8  A    between atoms: C14_17  and  C15_18 
REMARK    9  A    between atoms: C16_19  and  C17_20 
ROOT
HETATM    1  C4  UNL     1     -32.407 -19.822 -34.583  1.00  0.00    -0.041 A 
HETATM    2  C5  UNL     1     -33.182 -21.078 -34.475  1.00  0.00     0.022 A 
HETATM    3  C6  UNL     1     -33.619 -21.666 -35.683  1.00  0.00     0.000 A 
HETATM    4  C10 UNL     1     -33.294 -21.059 -36.854  1.00  0.00     0.052 A 
HETATM    5  C11 UNL     1     -32.548 -19.870 -36.941  1.00  0.00     0.080 A 
HETATM    6  C14 UNL     1     -32.153 -19.310 -35.764  1.00  0.00     0.004 A 
ENDROOT
BRANCH   3   7
HETATM    7  C7  UNL     1     -34.450 -22.738 -35.576  1.00  0.00     0.075 C 
BRANCH   7   8
HETATM    8  O1  UNL     1     -34.404 -23.531 -34.412  1.00  0.00    -0.360 OA
ATOM      9  H1  UNL     1     -33.628 -23.506 -33.865  1.00  0.00     0.217 HD
ENDBRANCH   7   8
BRANCH   7  10
HETATM   10  C8  UNL     1     -35.517 -23.406 -36.387  1.00  0.00     0.027 C 
HETATM   11  C9  UNL     1     -36.266 -23.003 -37.303  1.00  0.00     0.014 C 
ENDBRANCH   7  10
ENDBRANCH   3   7
BRANCH   1  12
HETATM   12  C3  UNL     1     -31.815 -19.407 -33.301  1.00  0.00     0.066 C 
BRANCH  12  13
HETATM   13  C2  UNL     1     -32.433 -18.224 -32.687  1.00  0.00    -0.032 C 
HETATM   14  C1  UNL     1     -32.128 -17.002 -32.541  1.00  0.00     0.007 C 
ENDBRANCH  12  13
ENDBRANCH   1  12
BRANCH   5  15
HETATM   15  O2  UNL     1     -32.239 -19.308 -38.201  1.00  0.00    -0.351 OA
BRANCH  15  16
HETATM   16  C12 UNL     1     -33.065 -19.831 -39.272  1.00  0.00     0.171 C 
HETATM   17  C13 UNL     1     -33.516 -18.621 -40.130  1.00  0.00     0.034 C 
ENDBRANCH  15  16
ENDBRANCH   5  15
BRANCH   6  18
HETATM   18  C15 UNL     1     -31.486 -17.955 -35.921  1.00  0.00     0.011 C 
HETATM   19  C16 UNL     1     -30.378 -17.408 -35.683  1.00  0.00    -0.026 C 
BRANCH  19  20
HETATM   20  C17 UNL     1     -30.275 -15.918 -36.054  1.00  0.00     0.022 C 
HETATM   21  C18 UNL     1     -29.992 -15.756 -37.524  1.00  0.00     0.009 C 
ENDBRANCH  19  20
ENDBRANCH   6  18
TORSDOF 9
ENDMDL
MODEL 2
REMARK VINA RESULT: -5.855846700      1.175      1.763
REMARK  9 active torsions:
REMARK  status: ('A' for Active; 'I' for Inactive)
REMARK    1  A    between atoms: C2_2  and  C3_3 
REMARK    2  A    between atoms: C3_3  and  C4_4 
REMARK    3  A    between atoms: C6_6  and  C7_7 
REMARK    4  A    between atoms: C7_7  and  O1_8 
REMARK    5  A    between atoms: C7_7  and  C8_10 
REMARK    6  A    between atoms: C11_13  and  O2_14 
REMARK    7  A    between atoms: O2_14  and  C12_15 
REMARK    8  A    between atoms: C14_17  and  C15_18 
REMARK    9  A    between atoms: C16_19  and  C17_20 
ROOT
HETATM    1  C4  UNL     1     -30.973 -18.421 -35.008  1.00  0.00    -0.041 A 
HETATM    2  C5  UNL     1     -31.622 -19.642 -34.484  1.00  0.00     0.022 A 
HETATM    3  C6  UNL     1     -32.415 -20.385 -35.388  1.00  0.00     0.000 A 
HETATM    4  C10 UNL     1     -32.521 -19.946 -36.668  1.00  0.00     0.052 A 
HETATM    5  C11 UNL     1     -31.890 -18.787 -37.156  1.00  0.00     0.080 A 
HETATM    6  C14 UNL     1     -31.146 -18.076 -36.263  1.00  0.00     0.004 A 
ENDROOT
BRANCH   3   7
HETATM    7  C7  UNL     1     -33.124 -21.425 -34.869  1.00  0.00     0.075 C 
BRANCH   7   8
HETATM    8  O1  UNL     1     -32.875 -21.834 -33.544  1.00  0.00    -0.360 OA
ATOM      9  H1  UNL     1     -33.201 -21.304 -32.826  1.00  0.00     0.217 HD
ENDBRANCH   7   8
BRANCH   7  10
HETATM   10  C8  UNL     1     -34.206 -22.363 -35.306  1.00  0.00     0.027 C 
HETATM   11  C9  UNL     1     -34.369 -23.052 -36.336  1.00  0.00     0.014 C 
ENDBRANCH   7  10
ENDBRANCH   3   7
BRANCH   1  12
HETATM   12  C3  UNL     1     -30.004 -17.841 -34.065  1.00  0.00     0.066 C 
BRANCH  12  13
HETATM   13  C2  UNL     1     -30.590 -17.288 -32.837  1.00  0.00    -0.032 C 
HETATM   14  C1  UNL     1     -31.598 -16.578 -32.541  1.00  0.00     0.007 C 
ENDBRANCH  12  13
ENDBRANCH   1  12
BRANCH   5  15
HETATM   15  O2  UNL     1     -32.037 -18.405 -38.508  1.00  0.00    -0.351 OA
BRANCH  15  16
HETATM   16  C12 UNL     1     -32.887 -19.306 -39.262  1.00  0.00     0.171 C 
HETATM   17  C13 UNL     1     -33.621 -18.455 -40.329  1.00  0.00     0.034 C 
ENDBRANCH  15  16
ENDBRANCH   5  15
BRANCH   6  18
HETATM   18  C15 UNL     1     -30.618 -16.762 -36.810  1.00  0.00     0.011 C 
HETATM   19  C16 UNL     1     -30.662 -15.534 -36.539  1.00  0.00    -0.026 C 
BRANCH  19  20
HETATM   20  C17 UNL     1     -29.915 -14.608 -37.516  1.00  0.00     0.022 C 
HETATM   21  C18 UNL     1     -29.232 -15.411 -38.591  1.00  0.00     0.009 C 
ENDBRANCH  19  20
ENDBRANCH   6  18
TORSDOF 9
ENDMDL
MODEL 3
REMARK VINA RESULT: -5.667200999      6.734      9.588
REMARK  9 active torsions:
REMARK  status: ('A' for Active; 'I' for Inactive)
REMARK    1  A    between atoms: C2_2  and  C3_3 
REMARK    2  A    between atoms: C3_3  and  C4_4 
REMARK    3  A    between atoms: C6_6  and  C7_7 
REMARK    4  A    between atoms: C7_7  and  O1_8 
REMARK    5  A    between atoms: C7_7  and  C8_10 
REMARK    6  A    between atoms: C11_13  and  O2_14 
REMARK    7  A    between atoms: O2_14  and  C12_15 
REMARK    8  A    between atoms: C14_17  and  C15_18 
REMARK    9  A    between atoms: C16_19  and  C17_20 
ROOT
HETATM    1  C4  UNL     1     -35.959 -25.730 -41.859  1.00  0.00    -0.041 A 
HETATM    2  C5  UNL     1     -35.344 -25.842 -40.518  1.00  0.00     0.022 A 
HETATM    3  C6  UNL     1     -34.349 -24.894 -40.189  1.00  0.00     0.000 A 
HETATM    4  C10 UNL     1     -34.033 -23.942 -41.105  1.00  0.00     0.052 A 
HETATM    5  C11 UNL     1     -34.633 -23.843 -42.373  1.00  0.00     0.080 A 
HETATM    6  C14 UNL     1     -35.576 -24.778 -42.677  1.00  0.00     0.004 A 
ENDROOT
BRANCH   3   7
HETATM    7  C7  UNL     1     -33.686 -25.084 -39.016  1.00  0.00     0.075 C 
BRANCH   7   8
HETATM    8  O1  UNL     1     -32.492 -24.372 -38.778  1.00  0.00    -0.360 OA
ATOM      9  H1  UNL     1     -32.124 -24.364 -37.902  1.00  0.00     0.217 HD
ENDBRANCH   7   8
BRANCH   7  10
HETATM   10  C8  UNL     1     -33.845 -25.887 -37.763  1.00  0.00     0.027 C 
HETATM   11  C9  UNL     1     -33.474 -27.036 -37.437  1.00  0.00     0.014 C 
ENDBRANCH   7  10
ENDBRANCH   3   7
BRANCH   1  12
HETATM   12  C3  UNL     1     -37.124 -26.614 -42.026  1.00  0.00     0.066 C 
BRANCH  12  13
HETATM   13  C2  UNL     1     -38.407 -26.034 -41.608  1.00  0.00    -0.032 C 
HETATM   14  C1  UNL     1     -39.415 -25.526 -42.186  1.00  0.00     0.007 C 
ENDBRANCH  12  13
ENDBRANCH   1  12
BRANCH   5  15
HETATM   15  O2  UNL     1     -34.258 -22.813 -43.266  1.00  0.00    -0.351 OA
BRANCH  15  16
HETATM   16  C12 UNL     1     -34.434 -21.487 -42.705  1.00  0.00     0.171 C 
HETATM   17  C13 UNL     1     -35.946 -21.157 -42.782  1.00  0.00     0.034 C 
ENDBRANCH  15  16
ENDBRANCH   5  15
BRANCH   6  18
HETATM   18  C15 UNL     1     -36.074 -24.707 -44.110  1.00  0.00     0.011 C 
HETATM   19  C16 UNL     1     -37.024 -24.203 -44.761  1.00  0.00    -0.026 C 
BRANCH  19  20
HETATM   20  C17 UNL     1     -37.029 -24.498 -46.272  1.00  0.00     0.022 C 
HETATM   21  C18 UNL     1     -38.316 -25.168 -46.676  1.00  0.00     0.009 C 
ENDBRANCH  19  20
ENDBRANCH   6  18
TORSDOF 9
ENDMDL
MODEL 4
REMARK VINA RESULT: -5.560409274      3.853      7.559
REMARK  9 active torsions:
REMARK  status: ('A' for Active; 'I' for Inactive)
REMARK    1  A    between atoms: C2_2  and  C3_3 
REMARK    2  A    between atoms: C3_3  and  C4_4 
REMARK    3  A    between atoms: C6_6  and  C7_7 
REMARK    4  A    between atoms: C7_7  and  O1_8 
REMARK    5  A    between atoms: C7_7  and  C8_10 
REMARK    6  A    between atoms: C11_13  and  O2_14 
REMARK    7  A    between atoms: O2_14  and  C12_15 
REMARK    8  A    between atoms: C14_17  and  C15_18 
REMARK    9  A    between atoms: C16_19  and  C17_20 
ROOT
HETATM    1  C4  UNL     1     -34.262 -24.805 -38.981  1.00  0.00    -0.041 A 
HETATM    2  C5  UNL     1     -34.065 -24.179 -37.654  1.00  0.00     0.022 A 
HETATM    3  C6  UNL     1     -34.416 -22.816 -37.531  1.00  0.00     0.000 A 
HETATM    4  C10 UNL     1     -34.918 -22.175 -38.618  1.00  0.00     0.052 A 
HETATM    5  C11 UNL     1     -35.108 -22.786 -39.872  1.00  0.00     0.080 A 
HETATM    6  C14 UNL     1     -34.746 -24.095 -39.973  1.00  0.00     0.004 A 
ENDROOT
BRANCH   3   7
HETATM    7  C7  UNL     1     -34.102 -22.206 -36.355  1.00  0.00     0.075 C 
BRANCH   7   8
HETATM    8  O1  UNL     1     -34.988 -22.320 -35.265  1.00  0.00    -0.360 OA
ATOM      9  H1  UNL     1     -35.804 -21.835 -35.278  1.00  0.00     0.217 HD
ENDBRANCH   7   8
BRANCH   7  10
HETATM   10  C8  UNL     1     -32.992 -21.374 -35.793  1.00  0.00     0.027 C 
HETATM   11  C9  UNL     1     -32.578 -20.223 -36.052  1.00  0.00     0.014 C 
ENDBRANCH   7  10
ENDBRANCH   3   7
BRANCH   1  12
HETATM   12  C3  UNL     1     -34.077 -26.264 -38.955  1.00  0.00     0.066 C 
BRANCH  12  13
HETATM   13  C2  UNL     1     -35.277 -27.034 -38.601  1.00  0.00    -0.032 C 
HETATM   14  C1  UNL     1     -36.321 -27.431 -39.201  1.00  0.00     0.007 C 
ENDBRANCH  12  13
ENDBRANCH   1  12
BRANCH   5  15
HETATM   15  O2  UNL     1     -35.650 -22.053 -40.952  1.00  0.00    -0.351 OA
BRANCH  15  16
HETATM   16  C12 UNL     1     -34.805 -20.952 -41.370  1.00  0.00     0.171 C 
HETATM   17  C13 UNL     1     -34.461 -21.184 -42.863  1.00  0.00     0.034 C 
ENDBRANCH  15  16
ENDBRANCH   5  15
BRANCH   6  18
HETATM   18  C15 UNL     1     -34.833 -24.650 -41.384  1.00  0.00     0.011 C 
HETATM   19  C16 UNL     1     -35.641 -25.291 -42.104  1.00  0.00    -0.026 C 
BRANCH  19  20
HETATM   20  C17 UNL     1     -35.157 -25.612 -43.529  1.00  0.00     0.022 C 
HETATM   21  C18 UNL     1     -33.951 -24.781 -43.879  1.00  0.00     0.009 C 
ENDBRANCH  19  20
ENDBRANCH   6  18
TORSDOF 9
ENDMDL
MODEL 5
REMARK VINA RESULT: -5.547187155      8.371     11.961
REMARK  9 active torsions:
REMARK  status: ('A' for Active; 'I' for Inactive)
REMARK    1  A    between atoms: C2_2  and  C3_3 
REMARK    2  A    between atoms: C3_3  and  C4_4 
REMARK    3  A    between atoms: C6_6  and  C7_7 
REMARK    4  A    between atoms: C7_7  and  O1_8 
REMARK    5  A    between atoms: C7_7  and  C8_10 
REMARK    6  A    between atoms: C11_13  and  O2_14 
REMARK    7  A    between atoms: O2_14  and  C12_15 
REMARK    8  A    between atoms: C14_17  and  C15_18 
REMARK    9  A    between atoms: C16_19  and  C17_20 
ROOT
HETATM    1  C4  UNL     1     -37.768 -25.231 -45.004  1.00  0.00    -0.041 A 
HETATM    2  C5  UNL     1     -38.942 -26.095 -45.257  1.00  0.00     0.022 A 
HETATM    3  C6  UNL     1     -39.535 -26.715 -44.134  1.00  0.00     0.000 A 
HETATM    4  C10 UNL     1     -39.008 -26.471 -42.906  1.00  0.00     0.052 A 
HETATM    5  C11 UNL     1     -37.897 -25.640 -42.679  1.00  0.00     0.080 A 
HETATM    6  C14 UNL     1     -37.329 -25.068 -43.778  1.00  0.00     0.004 A 
ENDROOT
BRANCH   3   7
HETATM    7  C7  UNL     1     -40.522 -27.619 -44.383  1.00  0.00     0.075 C 
BRANCH   7   8
HETATM    8  O1  UNL     1     -40.281 -28.985 -44.133  1.00  0.00    -0.360 OA
ATOM      9  H1  UNL     1     -40.100 -29.564 -44.864  1.00  0.00     0.217 HD
ENDBRANCH   7   8
BRANCH   7  10
HETATM   10  C8  UNL     1     -41.933 -27.618 -44.882  1.00  0.00     0.027 C 
HETATM   11  C9  UNL     1     -42.432 -27.504 -46.023  1.00  0.00     0.014 C 
ENDBRANCH   7  10
ENDBRANCH   3   7
BRANCH   1  12
HETATM   12  C3  UNL     1     -37.358 -24.465 -46.191  1.00  0.00     0.066 C 
BRANCH  12  13
HETATM   13  C2  UNL     1     -36.731 -25.260 -47.255  1.00  0.00    -0.032 C 
HETATM   14  C1  UNL     1     -37.061 -25.670 -48.409  1.00  0.00     0.007 C 
ENDBRANCH  12  13
ENDBRANCH   1  12
BRANCH   5  15
HETATM   15  O2  UNL     1     -37.417 -25.425 -41.368  1.00  0.00    -0.351 OA
BRANCH  15  16
HETATM   16  C12 UNL     1     -36.782 -26.599 -40.798  1.00  0.00     0.171 C 
HETATM   17  C13 UNL     1     -35.447 -26.131 -40.165  1.00  0.00     0.034 C 
ENDBRANCH  15  16
ENDBRANCH   5  15
BRANCH   6  18
HETATM   18  C15 UNL     1     -36.048 -24.307 -43.483  1.00  0.00     0.011 C 
HETATM   19  C16 UNL     1     -34.806 -24.501 -43.486  1.00  0.00    -0.026 C 
BRANCH  19  20
HETATM   20  C17 UNL     1     -33.941 -23.305 -43.048  1.00  0.00     0.022 C 
HETATM   21  C18 UNL     1     -34.783 -22.064 -42.914  1.00  0.00     0.009 C 
ENDBRANCH  19  20
ENDBRANCH   6  18
TORSDOF 9
ENDMDL
