MODEL 1
REMARK VINA RESULT: -6.177726831      0.000      0.000
REMARK  9 active torsions:
REMARK  status: ('A' for Active; 'I' for Inactive)
REMARK    1  A    between atoms: C2_2  and  C3_3 
REMARK    2  A    between atoms: C3_3  and  C4_4 
REMARK    3  A    between atoms: C4_4  and  C5_5 
REMARK    4  A    between atoms: C4_4  and  C8_8 
REMARK    5  A    between atoms: C5_5  and  C6_6 
REMARK    6  A    between atoms: C8_8  and  C9_10 
REMARK    7  A    between atoms: C9_10  and  C10_11 
REMARK    8  A    between atoms: C10_11  and  C11_12 
REMARK    9  A    between atoms: C14_15  and  C15_16 
ROOT
HETATM    1  C9  UNL     1     -32.844 -18.829 -33.481  1.00  0.00     0.083 C 
ENDROOT
BRANCH   1   2
HETATM    2  C8  UNL     1     -32.652 -17.480 -34.027  1.00  0.00     0.132 C 
HETATM    3  O1  UNL     1     -33.590 -16.968 -34.699  1.00  0.00    -0.298 OA
BRANCH   2   4
HETATM    4  C4  UNL     1     -31.475 -16.594 -33.901  1.00  0.00     0.062 C 
BRANCH   4   5
HETATM    5  C3  UNL     1     -30.641 -16.651 -35.190  1.00  0.00     0.038 C 
BRANCH   5   6
HETATM    6  C2  UNL     1     -30.673 -15.406 -35.970  1.00  0.00    -0.036 C 
HETATM    7  C1  UNL     1     -30.276 -15.424 -37.238  1.00  0.00     0.007 C 
ENDBRANCH   5   6
ENDBRANCH   4   5
BRANCH   4   8
HETATM    8  C5  UNL     1     -30.529 -16.933 -32.781  1.00  0.00     0.038 C 
BRANCH   8   9
HETATM    9  C6  UNL     1     -29.317 -17.645 -33.258  1.00  0.00    -0.036 C 
HETATM   10  C7  UNL     1     -28.213 -17.668 -32.541  1.00  0.00     0.007 C 
ENDBRANCH   8   9
ENDBRANCH   4   8
ENDBRANCH   2   4
ENDBRANCH   1   2
BRANCH   1  11
HETATM   11  C10 UNL     1     -32.041 -19.889 -34.124  1.00  0.00     0.046 C 
BRANCH  11  12
HETATM   12  C11 UNL     1     -32.851 -20.775 -35.008  1.00  0.00    -0.052 A 
HETATM   13  C12 UNL     1     -33.562 -21.823 -34.480  1.00  0.00     0.008 A 
HETATM   14  C13 UNL     1     -34.322 -22.686 -35.240  1.00  0.00     0.015 A 
HETATM   15  C14 UNL     1     -34.361 -22.466 -36.614  1.00  0.00     0.002 A 
HETATM   16  C16 UNL     1     -33.644 -21.409 -37.135  1.00  0.00     0.021 A 
HETATM   17  C17 UNL     1     -32.882 -20.546 -36.374  1.00  0.00    -0.055 A 
HETATM   18  C18 UNL     1     -32.123 -19.418 -36.956  1.00  0.00     0.049 C 
BRANCH  15  19
HETATM   19  C15 UNL     1     -35.140 -23.336 -37.475  1.00  0.00     0.269 C 
HETATM   20  O2  UNL     1     -35.394 -24.523 -37.162  1.00  0.00    -0.301 OA
ENDBRANCH  15  19
ENDBRANCH  11  12
ENDBRANCH   1  11
TORSDOF 9
ENDMDL
MODEL 2
REMARK VINA RESULT: -6.074349944      1.370      2.176
REMARK  9 active torsions:
REMARK  status: ('A' for Active; 'I' for Inactive)
REMARK    1  A    between atoms: C2_2  and  C3_3 
REMARK    2  A    between atoms: C3_3  and  C4_4 
REMARK    3  A    between atoms: C4_4  and  C5_5 
REMARK    4  A    between atoms: C4_4  and  C8_8 
REMARK    5  A    between atoms: C5_5  and  C6_6 
REMARK    6  A    between atoms: C8_8  and  C9_10 
REMARK    7  A    between atoms: C9_10  and  C10_11 
REMARK    8  A    between atoms: C10_11  and  C11_12 
REMARK    9  A    between atoms: C14_15  and  C15_16 
ROOT
HETATM    1  C9  UNL     1     -32.721 -18.825 -33.584  1.00  0.00     0.083 C 
ENDROOT
BRANCH   1   2
HETATM    2  C8  UNL     1     -32.472 -17.447 -34.021  1.00  0.00     0.132 C 
HETATM    3  O1  UNL     1     -33.410 -16.821 -34.590  1.00  0.00    -0.298 OA
BRANCH   2   4
HETATM    4  C4  UNL     1     -31.237 -16.646 -33.887  1.00  0.00     0.062 C 
BRANCH   4   5
HETATM    5  C3  UNL     1     -30.400 -16.766 -35.170  1.00  0.00     0.038 C 
BRANCH   5   6
HETATM    6  C2  UNL     1     -30.555 -15.626 -36.084  1.00  0.00    -0.036 C 
HETATM    7  C1  UNL     1     -30.146 -15.744 -37.344  1.00  0.00     0.007 C 
ENDBRANCH   5   6
ENDBRANCH   4   5
BRANCH   4   8
HETATM    8  C5  UNL     1     -30.325 -17.051 -32.760  1.00  0.00     0.038 C 
BRANCH   8   9
HETATM    9  C6  UNL     1     -29.112 -17.761 -33.238  1.00  0.00    -0.036 C 
HETATM   10  C7  UNL     1     -27.994 -17.744 -32.542  1.00  0.00     0.007 C 
ENDBRANCH   8   9
ENDBRANCH   4   8
ENDBRANCH   2   4
ENDBRANCH   1   2
BRANCH   1  11
HETATM   11  C10 UNL     1     -31.908 -19.857 -34.260  1.00  0.00     0.046 C 
BRANCH  11  12
HETATM   12  C11 UNL     1     -32.400 -20.178 -35.630  1.00  0.00    -0.052 A 
HETATM   13  C12 UNL     1     -32.030 -19.406 -36.701  1.00  0.00     0.008 A 
HETATM   14  C13 UNL     1     -32.455 -19.641 -37.991  1.00  0.00     0.015 A 
HETATM   15  C14 UNL     1     -33.303 -20.725 -38.200  1.00  0.00     0.002 A 
HETATM   16  C16 UNL     1     -33.668 -21.496 -37.116  1.00  0.00     0.021 A 
HETATM   17  C17 UNL     1     -33.243 -21.260 -35.824  1.00  0.00    -0.055 A 
HETATM   18  C18 UNL     1     -33.647 -22.104 -34.679  1.00  0.00     0.049 C 
BRANCH  15  19
HETATM   19  C15 UNL     1     -33.790 -21.030 -39.532  1.00  0.00     0.269 C 
HETATM   20  O2  UNL     1     -34.729 -20.387 -40.058  1.00  0.00    -0.301 OA
ENDBRANCH  15  19
ENDBRANCH  11  12
ENDBRANCH   1  11
TORSDOF 9
ENDMDL
MODEL 3
REMARK VINA RESULT: -5.974336191      0.787      2.287
REMARK  9 active torsions:
REMARK  status: ('A' for Active; 'I' for Inactive)
REMARK    1  A    between atoms: C2_2  and  C3_3 
REMARK    2  A    between atoms: C3_3  and  C4_4 
REMARK    3  A    between atoms: C4_4  and  C5_5 
REMARK    4  A    between atoms: C4_4  and  C8_8 
REMARK    5  A    between atoms: C5_5  and  C6_6 
REMARK    6  A    between atoms: C8_8  and  C9_10 
REMARK    7  A    between atoms: C9_10  and  C10_11 
REMARK    8  A    between atoms: C10_11  and  C11_12 
REMARK    9  A    between atoms: C14_15  and  C15_16 
ROOT
HETATM    1  C9  UNL     1     -32.882 -19.293 -33.454  1.00  0.00     0.083 C 
ENDROOT
BRANCH   1   2
HETATM    2  C8  UNL     1     -32.246 -17.987 -33.247  1.00  0.00     0.132 C 
HETATM    3  O1  UNL     1     -32.850 -17.132 -32.541  1.00  0.00    -0.298 OA
BRANCH   2   4
HETATM    4  C4  UNL     1     -30.945 -17.503 -33.759  1.00  0.00     0.062 C 
BRANCH   4   5
HETATM    5  C3  UNL     1     -30.097 -16.967 -32.596  1.00  0.00     0.038 C 
BRANCH   5   6
HETATM    6  C2  UNL     1     -28.700 -17.424 -32.626  1.00  0.00    -0.036 C 
HETATM    7  C1  UNL     1     -28.388 -18.512 -33.322  1.00  0.00     0.007 C 
ENDBRANCH   5   6
ENDBRANCH   4   5
BRANCH   4   8
HETATM    8  C5  UNL     1     -31.024 -16.385 -34.763  1.00  0.00     0.038 C 
BRANCH   8   9
HETATM    9  C6  UNL     1     -30.153 -16.619 -35.943  1.00  0.00    -0.036 C 
HETATM   10  C7  UNL     1     -30.240 -15.861 -37.016  1.00  0.00     0.007 C 
ENDBRANCH   8   9
ENDBRANCH   4   8
ENDBRANCH   2   4
ENDBRANCH   1   2
BRANCH   1  11
HETATM   11  C10 UNL     1     -32.102 -20.251 -34.263  1.00  0.00     0.046 C 
BRANCH  11  12
HETATM   12  C11 UNL     1     -32.946 -21.032 -35.212  1.00  0.00    -0.052 A 
HETATM   13  C12 UNL     1     -33.683 -22.101 -34.771  1.00  0.00     0.008 A 
HETATM   14  C13 UNL     1     -34.476 -22.870 -35.596  1.00  0.00     0.015 A 
HETATM   15  C14 UNL     1     -34.521 -22.528 -36.944  1.00  0.00     0.002 A 
HETATM   16  C16 UNL     1     -33.777 -21.451 -37.378  1.00  0.00     0.021 A 
HETATM   17  C17 UNL     1     -32.982 -20.682 -36.552  1.00  0.00    -0.055 A 
HETATM   18  C18 UNL     1     -32.195 -19.529 -37.041  1.00  0.00     0.049 C 
BRANCH  15  19
HETATM   19  C15 UNL     1     -35.334 -23.296 -37.869  1.00  0.00     0.269 C 
HETATM   20  O2  UNL     1     -35.730 -24.454 -37.601  1.00  0.00    -0.301 OA
ENDBRANCH  15  19
ENDBRANCH  11  12
ENDBRANCH   1  11
TORSDOF 9
ENDMDL
MODEL 4
REMARK VINA RESULT: -5.896437310      1.990      7.252
REMARK  9 active torsions:
REMARK  status: ('A' for Active; 'I' for Inactive)
REMARK    1  A    between atoms: C2_2  and  C3_3 
REMARK    2  A    between atoms: C3_3  and  C4_4 
REMARK    3  A    between atoms: C4_4  and  C5_5 
REMARK    4  A    between atoms: C4_4  and  C8_8 
REMARK    5  A    between atoms: C5_5  and  C6_6 
REMARK    6  A    between atoms: C8_8  and  C9_10 
REMARK    7  A    between atoms: C9_10  and  C10_11 
REMARK    8  A    between atoms: C10_11  and  C11_12 
REMARK    9  A    between atoms: C14_15  and  C15_16 
ROOT
HETATM    1  C9  UNL     1     -34.062 -22.330 -35.179  1.00  0.00     0.083 C 
ENDROOT
BRANCH   1   2
HETATM    2  C8  UNL     1     -34.949 -23.114 -36.045  1.00  0.00     0.132 C 
HETATM    3  O1  UNL     1     -36.196 -22.957 -35.924  1.00  0.00    -0.298 OA
BRANCH   2   4
HETATM    4  C4  UNL     1     -34.586 -24.101 -37.085  1.00  0.00     0.062 C 
BRANCH   4   5
HETATM    5  C3  UNL     1     -35.074 -23.611 -38.457  1.00  0.00     0.038 C 
BRANCH   5   6
HETATM    6  C2  UNL     1     -34.021 -22.986 -39.269  1.00  0.00    -0.036 C 
HETATM    7  C1  UNL     1     -34.057 -21.673 -39.478  1.00  0.00     0.007 C 
ENDBRANCH   5   6
ENDBRANCH   4   5
BRANCH   4   8
HETATM    8  C5  UNL     1     -35.172 -25.475 -36.903  1.00  0.00     0.038 C 
BRANCH   8   9
HETATM    9  C6  UNL     1     -34.755 -26.416 -37.974  1.00  0.00    -0.036 C 
HETATM   10  C7  UNL     1     -33.547 -26.939 -37.989  1.00  0.00     0.007 C 
ENDBRANCH   8   9
ENDBRANCH   4   8
ENDBRANCH   2   4
ENDBRANCH   1   2
BRANCH   1  11
HETATM   11  C10 UNL     1     -33.130 -21.427 -35.884  1.00  0.00     0.046 C 
BRANCH  11  12
HETATM   12  C11 UNL     1     -32.766 -20.225 -35.082  1.00  0.00    -0.052 A 
HETATM   13  C12 UNL     1     -32.909 -20.229 -33.718  1.00  0.00     0.008 A 
HETATM   14  C13 UNL     1     -32.600 -19.150 -32.917  1.00  0.00     0.015 A 
HETATM   15  C14 UNL     1     -32.118 -18.004 -33.543  1.00  0.00     0.002 A 
HETATM   16  C16 UNL     1     -31.977 -18.010 -34.915  1.00  0.00     0.021 A 
HETATM   17  C17 UNL     1     -32.287 -19.090 -35.716  1.00  0.00    -0.055 A 
HETATM   18  C18 UNL     1     -32.124 -19.072 -37.186  1.00  0.00     0.049 C 
BRANCH  15  19
HETATM   19  C15 UNL     1     -31.774 -16.831 -32.761  1.00  0.00     0.269 C 
HETATM   20  O2  UNL     1     -30.584 -16.505 -32.542  1.00  0.00    -0.301 OA
ENDBRANCH  15  19
ENDBRANCH  11  12
ENDBRANCH   1  11
TORSDOF 9
ENDMDL
MODEL 5
REMARK VINA RESULT: -5.877786467      2.234      7.715
REMARK  9 active torsions:
REMARK  status: ('A' for Active; 'I' for Inactive)
REMARK    1  A    between atoms: C2_2  and  C3_3 
REMARK    2  A    between atoms: C3_3  and  C4_4 
REMARK    3  A    between atoms: C4_4  and  C5_5 
REMARK    4  A    between atoms: C4_4  and  C8_8 
REMARK    5  A    between atoms: C5_5  and  C6_6 
REMARK    6  A    between atoms: C8_8  and  C9_10 
REMARK    7  A    between atoms: C9_10  and  C10_11 
REMARK    8  A    between atoms: C10_11  and  C11_12 
REMARK    9  A    between atoms: C14_15  and  C15_16 
ROOT
HETATM    1  C9  UNL     1     -34.000 -22.323 -35.132  1.00  0.00     0.083 C 
ENDROOT
BRANCH   1   2
HETATM    2  C8  UNL     1     -34.938 -23.097 -35.953  1.00  0.00     0.132 C 
HETATM    3  O1  UNL     1     -35.897 -22.487 -36.503  1.00  0.00    -0.298 OA
BRANCH   2   4
HETATM    4  C4  UNL     1     -34.925 -24.546 -36.249  1.00  0.00     0.062 C 
BRANCH   4   5
HETATM    5  C3  UNL     1     -34.529 -24.772 -37.716  1.00  0.00     0.038 C 
BRANCH   5   6
HETATM    6  C2  UNL     1     -34.590 -26.180 -38.133  1.00  0.00    -0.036 C 
HETATM    7  C1  UNL     1     -33.525 -26.955 -37.958  1.00  0.00     0.007 C 
ENDBRANCH   5   6
ENDBRANCH   4   5
BRANCH   4   8
HETATM    8  C5  UNL     1     -36.239 -25.254 -36.061  1.00  0.00     0.038 C 
BRANCH   8   9
HETATM    9  C6  UNL     1     -36.304 -26.001 -34.779  1.00  0.00    -0.036 C 
HETATM   10  C7  UNL     1     -35.318 -26.786 -34.397  1.00  0.00     0.007 C 
ENDBRANCH   8   9
ENDBRANCH   4   8
ENDBRANCH   2   4
ENDBRANCH   1   2
BRANCH   1  11
HETATM   11  C10 UNL     1     -33.137 -21.384 -35.878  1.00  0.00     0.046 C 
BRANCH  11  12
HETATM   12  C11 UNL     1     -32.755 -20.185 -35.077  1.00  0.00    -0.052 A 
HETATM   13  C12 UNL     1     -32.953 -20.162 -33.720  1.00  0.00     0.008 A 
HETATM   14  C13 UNL     1     -32.632 -19.084 -32.923  1.00  0.00     0.015 A 
HETATM   15  C14 UNL     1     -32.076 -17.970 -33.544  1.00  0.00     0.002 A 
HETATM   16  C16 UNL     1     -31.880 -18.003 -34.909  1.00  0.00     0.021 A 
HETATM   17  C17 UNL     1     -32.203 -19.082 -35.707  1.00  0.00    -0.055 A 
HETATM   18  C18 UNL     1     -31.980 -19.094 -37.169  1.00  0.00     0.049 C 
BRANCH  15  19
HETATM   19  C15 UNL     1     -31.716 -16.799 -32.766  1.00  0.00     0.269 C 
HETATM   20  O2  UNL     1     -30.521 -16.495 -32.541  1.00  0.00    -0.301 OA
ENDBRANCH  15  19
ENDBRANCH  11  12
ENDBRANCH   1  11
TORSDOF 9
ENDMDL
