MODEL 1
REMARK VINA RESULT: -5.895055867      0.000      0.000
REMARK  10 active torsions:
REMARK  status: ('A' for Active; 'I' for Inactive)
REMARK    1  A    between atoms: C2_2  and  C3_3 
REMARK    2  A    between atoms: C5_5  and  C6_6 
REMARK    3  A    between atoms: C6_6  and  C7_7 
REMARK    4  A    between atoms: C7_7  and  C8_8 
REMARK    5  A    between atoms: C14_14  and  O1_15 
REMARK    6  A    between atoms: O1_15  and  C15_16 
REMARK    7  A    between atoms: C15_16  and  C16_17 
REMARK    8  A    between atoms: C16_17  and  C17_18 
REMARK    9  A    between atoms: C17_18  and  C18_19 
REMARK   10  A    between atoms: C18_19  and  O2_20 
ROOT
HETATM    1  C8  UNL     1     -33.134 -20.743 -36.468  1.00  0.00    -0.024 A 
HETATM    2  C9  UNL     1     -33.034 -21.067 -35.136  1.00  0.00     0.010 A 
HETATM    3  C10 UNL     1     -33.660 -22.142 -34.572  1.00  0.00     0.001 A 
HETATM    4  C11 UNL     1     -34.423 -22.937 -35.368  1.00  0.00     0.009 A 
HETATM    5  C12 UNL     1     -34.545 -22.629 -36.732  1.00  0.00    -0.028 A 
HETATM    6  C13 UNL     1     -35.400 -23.562 -37.490  1.00  0.00     0.051 C 
HETATM    7  C14 UNL     1     -33.924 -21.550 -37.318  1.00  0.00     0.081 A 
ENDROOT
BRANCH   1   8
HETATM    8  C7  UNL     1     -32.338 -19.591 -36.918  1.00  0.00     0.045 C 
BRANCH   8   9
HETATM    9  C6  UNL     1     -32.351 -18.460 -35.902  1.00  0.00     0.032 C 
BRANCH   9  10
HETATM   10  C5  UNL     1     -30.949 -18.172 -35.502  1.00  0.00    -0.024 C 
HETATM   11  C3  UNL     1     -30.516 -18.005 -34.274  1.00  0.00    -0.088 C 
HETATM   12  C4  UNL     1     -29.042 -17.716 -34.066  1.00  0.00     0.043 C 
BRANCH  11  13
HETATM   13  C2  UNL     1     -31.322 -18.067 -33.038  1.00  0.00     0.029 C 
HETATM   14  C1  UNL     1     -31.759 -16.696 -32.541  1.00  0.00     0.010 C 
ENDBRANCH  11  13
ENDBRANCH   9  10
ENDBRANCH   8   9
ENDBRANCH   1   8
BRANCH   7  15
HETATM   15  O1  UNL     1     -34.006 -21.208 -38.580  1.00  0.00    -0.350 OA
BRANCH  15  16
HETATM   16  C15 UNL     1     -33.854 -21.409 -39.868  1.00  0.00     0.176 C 
BRANCH  16  17
HETATM   17  C16 UNL     1     -33.566 -22.670 -40.570  1.00  0.00     0.029 C 
BRANCH  17  18
HETATM   18  C17 UNL     1     -34.434 -23.035 -41.733  1.00  0.00     0.028 C 
BRANCH  18  19
HETATM   19  C18 UNL     1     -33.609 -23.332 -42.982  1.00  0.00     0.164 C 
BRANCH  19  20
HETATM   20  O2  UNL     1     -32.450 -22.577 -43.035  1.00  0.00    -0.401 OA
ATOM     21  H2  UNL     1     -32.584 -21.742 -43.468  1.00  0.00     0.209 HD
ENDBRANCH  19  20
ENDBRANCH  18  19
ENDBRANCH  17  18
ENDBRANCH  16  17
ENDBRANCH  15  16
ENDBRANCH   7  15
TORSDOF 10
ENDMDL
MODEL 2
REMARK VINA RESULT: -5.834313055      1.816      2.800
REMARK  10 active torsions:
REMARK  status: ('A' for Active; 'I' for Inactive)
REMARK    1  A    between atoms: C2_2  and  C3_3 
REMARK    2  A    between atoms: C5_5  and  C6_6 
REMARK    3  A    between atoms: C6_6  and  C7_7 
REMARK    4  A    between atoms: C7_7  and  C8_8 
REMARK    5  A    between atoms: C14_14  and  O1_15 
REMARK    6  A    between atoms: O1_15  and  C15_16 
REMARK    7  A    between atoms: C15_16  and  C16_17 
REMARK    8  A    between atoms: C16_17  and  C17_18 
REMARK    9  A    between atoms: C17_18  and  C18_19 
REMARK   10  A    between atoms: C18_19  and  O2_20 
ROOT
HETATM    1  C8  UNL     1     -34.429 -23.629 -36.862  1.00  0.00    -0.024 A 
HETATM    2  C9  UNL     1     -35.139 -24.056 -35.766  1.00  0.00     0.010 A 
HETATM    3  C10 UNL     1     -35.514 -25.355 -35.569  1.00  0.00     0.001 A 
HETATM    4  C11 UNL     1     -35.166 -26.277 -36.505  1.00  0.00     0.009 A 
HETATM    5  C12 UNL     1     -34.442 -25.868 -37.637  1.00  0.00    -0.028 A 
HETATM    6  C13 UNL     1     -34.127 -26.958 -38.581  1.00  0.00     0.051 C 
HETATM    7  C14 UNL     1     -34.058 -24.565 -37.853  1.00  0.00     0.081 A 
ENDROOT
BRANCH   1   8
HETATM    8  C7  UNL     1     -34.052 -22.207 -36.877  1.00  0.00     0.045 C 
BRANCH   8   9
HETATM    9  C6  UNL     1     -33.509 -21.749 -35.533  1.00  0.00     0.032 C 
BRANCH   9  10
HETATM   10  C5  UNL     1     -32.540 -20.647 -35.769  1.00  0.00    -0.024 C 
HETATM   11  C3  UNL     1     -32.095 -19.806 -34.865  1.00  0.00    -0.088 C 
HETATM   12  C4  UNL     1     -31.105 -18.744 -35.300  1.00  0.00     0.043 C 
BRANCH  11  13
HETATM   13  C2  UNL     1     -32.457 -19.774 -33.433  1.00  0.00     0.029 C 
HETATM   14  C1  UNL     1     -32.554 -18.362 -32.873  1.00  0.00     0.010 C 
ENDBRANCH  11  13
ENDBRANCH   9  10
ENDBRANCH   8   9
ENDBRANCH   1   8
BRANCH   7  15
HETATM   15  O1  UNL     1     -33.389 -24.122 -38.890  1.00  0.00    -0.350 OA
BRANCH  15  16
HETATM   16  C15 UNL     1     -33.265 -23.763 -40.146  1.00  0.00     0.176 C 
BRANCH  16  17
HETATM   17  C16 UNL     1     -34.325 -23.447 -41.117  1.00  0.00     0.029 C 
BRANCH  17  18
HETATM   18  C17 UNL     1     -33.928 -22.752 -42.381  1.00  0.00     0.028 C 
BRANCH  18  19
HETATM   19  C18 UNL     1     -32.943 -23.585 -43.198  1.00  0.00     0.164 C 
BRANCH  19  20
HETATM   20  O2  UNL     1     -31.709 -22.971 -43.314  1.00  0.00    -0.401 OA
ATOM     21  H2  UNL     1     -30.991 -23.584 -43.203  1.00  0.00     0.209 HD
ENDBRANCH  19  20
ENDBRANCH  18  19
ENDBRANCH  17  18
ENDBRANCH  16  17
ENDBRANCH  15  16
ENDBRANCH   7  15
TORSDOF 10
ENDMDL
MODEL 3
REMARK VINA RESULT: -5.701904824      1.986      3.344
REMARK  10 active torsions:
REMARK  status: ('A' for Active; 'I' for Inactive)
REMARK    1  A    between atoms: C2_2  and  C3_3 
REMARK    2  A    between atoms: C5_5  and  C6_6 
REMARK    3  A    between atoms: C6_6  and  C7_7 
REMARK    4  A    between atoms: C7_7  and  C8_8 
REMARK    5  A    between atoms: C14_14  and  O1_15 
REMARK    6  A    between atoms: O1_15  and  C15_16 
REMARK    7  A    between atoms: C15_16  and  C16_17 
REMARK    8  A    between atoms: C16_17  and  C17_18 
REMARK    9  A    between atoms: C17_18  and  C18_19 
REMARK   10  A    between atoms: C18_19  and  O2_20 
ROOT
HETATM    1  C8  UNL     1     -32.837 -20.659 -36.276  1.00  0.00    -0.024 A 
HETATM    2  C9  UNL     1     -32.180 -19.580 -36.815  1.00  0.00     0.010 A 
HETATM    3  C10 UNL     1     -32.253 -19.234 -38.135  1.00  0.00     0.001 A 
HETATM    4  C11 UNL     1     -33.017 -19.996 -38.961  1.00  0.00     0.009 A 
HETATM    5  C12 UNL     1     -33.698 -21.107 -38.438  1.00  0.00    -0.028 A 
HETATM    6  C13 UNL     1     -34.491 -21.855 -39.432  1.00  0.00     0.051 C 
HETATM    7  C14 UNL     1     -33.636 -21.471 -37.113  1.00  0.00     0.081 A 
ENDROOT
BRANCH   1   8
HETATM    8  C7  UNL     1     -32.701 -20.843 -34.823  1.00  0.00     0.045 C 
BRANCH   8   9
HETATM    9  C6  UNL     1     -33.191 -19.631 -34.048  1.00  0.00     0.032 C 
BRANCH   9  10
HETATM   10  C5  UNL     1     -32.039 -19.047 -33.313  1.00  0.00    -0.024 C 
HETATM   11  C3  UNL     1     -31.545 -17.843 -33.486  1.00  0.00    -0.088 C 
HETATM   12  C4  UNL     1     -30.360 -17.425 -32.638  1.00  0.00     0.043 C 
BRANCH  11  13
HETATM   13  C2  UNL     1     -32.023 -16.820 -34.439  1.00  0.00     0.029 C 
HETATM   14  C1  UNL     1     -30.921 -16.287 -35.345  1.00  0.00     0.010 C 
ENDBRANCH  11  13
ENDBRANCH   9  10
ENDBRANCH   8   9
ENDBRANCH   1   8
BRANCH   7  15
HETATM   15  O1  UNL     1     -34.241 -22.498 -36.568  1.00  0.00    -0.350 OA
BRANCH  15  16
HETATM   16  C15 UNL     1     -35.266 -23.295 -36.374  1.00  0.00     0.176 C 
BRANCH  16  17
HETATM   17  C16 UNL     1     -35.585 -24.559 -37.058  1.00  0.00     0.029 C 
BRANCH  17  18
HETATM   18  C17 UNL     1     -34.493 -25.570 -37.202  1.00  0.00     0.028 C 
BRANCH  18  19
HETATM   19  C18 UNL     1     -33.726 -25.391 -38.510  1.00  0.00     0.164 C 
BRANCH  19  20
HETATM   20  O2  UNL     1     -32.597 -24.608 -38.351  1.00  0.00    -0.401 OA
ATOM     21  H2  UNL     1     -31.812 -25.039 -38.669  1.00  0.00     0.209 HD
ENDBRANCH  19  20
ENDBRANCH  18  19
ENDBRANCH  17  18
ENDBRANCH  16  17
ENDBRANCH  15  16
ENDBRANCH   7  15
TORSDOF 10
ENDMDL
MODEL 4
REMARK VINA RESULT: -5.691732639      2.415      7.880
REMARK  10 active torsions:
REMARK  status: ('A' for Active; 'I' for Inactive)
REMARK    1  A    between atoms: C2_2  and  C3_3 
REMARK    2  A    between atoms: C5_5  and  C6_6 
REMARK    3  A    between atoms: C6_6  and  C7_7 
REMARK    4  A    between atoms: C7_7  and  C8_8 
REMARK    5  A    between atoms: C14_14  and  O1_15 
REMARK    6  A    between atoms: O1_15  and  C15_16 
REMARK    7  A    between atoms: C15_16  and  C16_17 
REMARK    8  A    between atoms: C16_17  and  C17_18 
REMARK    9  A    between atoms: C17_18  and  C18_19 
REMARK   10  A    between atoms: C18_19  and  O2_20 
ROOT
HETATM    1  C8  UNL     1     -33.943 -24.955 -38.753  1.00  0.00    -0.024 A 
HETATM    2  C9  UNL     1     -34.417 -26.132 -39.280  1.00  0.00     0.010 A 
HETATM    3  C10 UNL     1     -35.227 -26.993 -38.596  1.00  0.00     0.001 A 
HETATM    4  C11 UNL     1     -35.587 -26.671 -37.326  1.00  0.00     0.009 A 
HETATM    5  C12 UNL     1     -35.116 -25.475 -36.760  1.00  0.00    -0.028 A 
HETATM    6  C13 UNL     1     -35.572 -25.238 -35.378  1.00  0.00     0.051 C 
HETATM    7  C14 UNL     1     -34.298 -24.596 -37.433  1.00  0.00     0.081 A 
ENDROOT
BRANCH   1   8
HETATM    8  C7  UNL     1     -33.138 -24.116 -39.654  1.00  0.00     0.045 C 
BRANCH   8   9
HETATM    9  C6  UNL     1     -34.005 -23.329 -40.623  1.00  0.00     0.032 C 
BRANCH   9  10
HETATM   10  C5  UNL     1     -33.754 -23.837 -41.997  1.00  0.00    -0.024 C 
HETATM   11  C3  UNL     1     -34.606 -24.504 -42.740  1.00  0.00    -0.088 C 
HETATM   12  C4  UNL     1     -34.164 -24.941 -44.122  1.00  0.00     0.043 C 
BRANCH  11  13
HETATM   13  C2  UNL     1     -35.984 -24.889 -42.374  1.00  0.00     0.029 C 
HETATM   14  C1  UNL     1     -36.214 -26.394 -42.414  1.00  0.00     0.010 C 
ENDBRANCH  11  13
ENDBRANCH   9  10
ENDBRANCH   8   9
ENDBRANCH   1   8
BRANCH   7  15
HETATM   15  O1  UNL     1     -33.822 -23.472 -36.957  1.00  0.00    -0.350 OA
BRANCH  15  16
HETATM   16  C15 UNL     1     -33.914 -22.217 -36.585  1.00  0.00     0.176 C 
BRANCH  16  17
HETATM   17  C16 UNL     1     -33.160 -21.515 -35.534  1.00  0.00     0.029 C 
BRANCH  17  18
HETATM   18  C17 UNL     1     -32.479 -20.234 -35.900  1.00  0.00     0.028 C 
BRANCH  18  19
HETATM   19  C18 UNL     1     -32.885 -19.093 -34.971  1.00  0.00     0.164 C 
BRANCH  19  20
HETATM   20  O2  UNL     1     -33.716 -18.180 -35.595  1.00  0.00    -0.401 OA
ATOM     21  H2  UNL     1     -34.402 -17.865 -35.018  1.00  0.00     0.209 HD
ENDBRANCH  19  20
ENDBRANCH  18  19
ENDBRANCH  17  18
ENDBRANCH  16  17
ENDBRANCH  15  16
ENDBRANCH   7  15
TORSDOF 10
ENDMDL
MODEL 5
REMARK VINA RESULT: -5.664828180      2.648      7.528
REMARK  10 active torsions:
REMARK  status: ('A' for Active; 'I' for Inactive)
REMARK    1  A    between atoms: C2_2  and  C3_3 
REMARK    2  A    between atoms: C5_5  and  C6_6 
REMARK    3  A    between atoms: C6_6  and  C7_7 
REMARK    4  A    between atoms: C7_7  and  C8_8 
REMARK    5  A    between atoms: C14_14  and  O1_15 
REMARK    6  A    between atoms: O1_15  and  C15_16 
REMARK    7  A    between atoms: C15_16  and  C16_17 
REMARK    8  A    between atoms: C16_17  and  C17_18 
REMARK    9  A    between atoms: C17_18  and  C18_19 
REMARK   10  A    between atoms: C18_19  and  O2_20 
ROOT
HETATM    1  C8  UNL     1     -33.522 -21.466 -36.460  1.00  0.00    -0.024 A 
HETATM    2  C9  UNL     1     -33.815 -21.460 -37.803  1.00  0.00     0.010 A 
HETATM    3  C10 UNL     1     -33.319 -20.537 -38.679  1.00  0.00     0.001 A 
HETATM    4  C11 UNL     1     -32.489 -19.572 -38.201  1.00  0.00     0.009 A 
HETATM    5  C12 UNL     1     -32.174 -19.553 -36.833  1.00  0.00    -0.028 A 
HETATM    6  C13 UNL     1     -31.268 -18.458 -36.435  1.00  0.00     0.051 C 
HETATM    7  C14 UNL     1     -32.665 -20.472 -35.935  1.00  0.00     0.081 A 
ENDROOT
BRANCH   1   8
HETATM    8  C7  UNL     1     -34.089 -22.574 -35.676  1.00  0.00     0.045 C 
BRANCH   8   9
HETATM    9  C6  UNL     1     -35.167 -23.321 -36.446  1.00  0.00     0.032 C 
BRANCH   9  10
HETATM   10  C5  UNL     1     -34.687 -24.703 -36.704  1.00  0.00    -0.024 C 
HETATM   11  C3  UNL     1     -34.564 -25.269 -37.882  1.00  0.00    -0.088 C 
HETATM   12  C4  UNL     1     -34.057 -26.697 -37.942  1.00  0.00     0.043 C 
BRANCH  11  13
HETATM   13  C2  UNL     1     -34.872 -24.660 -39.192  1.00  0.00     0.029 C 
HETATM   14  C1  UNL     1     -33.626 -24.264 -39.973  1.00  0.00     0.010 C 
ENDBRANCH  11  13
ENDBRANCH   9  10
ENDBRANCH   8   9
ENDBRANCH   1   8
BRANCH   7  15
HETATM   15  O1  UNL     1     -32.414 -20.502 -34.649  1.00  0.00    -0.350 OA
BRANCH  15  16
HETATM   16  C15 UNL     1     -32.246 -19.954 -33.468  1.00  0.00     0.176 C 
BRANCH  16  17
HETATM   17  C16 UNL     1     -32.905 -18.763 -32.910  1.00  0.00     0.029 C 
BRANCH  17  18
HETATM   18  C17 UNL     1     -32.053 -17.571 -32.609  1.00  0.00     0.028 C 
BRANCH  18  19
HETATM   19  C18 UNL     1     -32.128 -16.528 -33.722  1.00  0.00     0.164 C 
BRANCH  19  20
HETATM   20  O2  UNL     1     -33.314 -16.603 -34.430  1.00  0.00    -0.401 OA
ATOM     21  H2  UNL     1     -33.512 -17.490 -34.707  1.00  0.00     0.209 HD
ENDBRANCH  19  20
ENDBRANCH  18  19
ENDBRANCH  17  18
ENDBRANCH  16  17
ENDBRANCH  15  16
ENDBRANCH   7  15
TORSDOF 10
ENDMDL
