MODEL 1
REMARK VINA RESULT: -7.058905960      0.000      0.000
REMARK  1 active torsions:
REMARK  status: ('A' for Active; 'I' for Inactive)
REMARK    1  A    between atoms: N1_1  and  C1_5 
ROOT
HETATM    1  C1  UNL     1     -22.553 -21.212 -24.239  1.00  0.00     0.357 C 
HETATM    2  N2  UNL     1     -21.469 -21.395 -23.370  1.00  0.00    -0.385 N 
ATOM      3  H2  UNL     1     -20.573 -20.943 -23.552  1.00  0.00     0.155 HD
HETATM    4  C2  UNL     1     -21.645 -22.218 -22.236  1.00  0.00     0.202 C 
HETATM    5  C3  UNL     1     -22.558 -23.371 -22.382  1.00  0.00     0.329 C 
HETATM    6  F1  UNL     1     -22.823 -23.883 -21.114  1.00  0.00    -0.198 F 
HETATM    7  F2  UNL     1     -22.016 -24.365 -23.145  1.00  0.00    -0.198 F 
HETATM    8  C4  UNL     1     -23.883 -22.882 -22.927  1.00  0.00     0.377 C 
HETATM    9  F3  UNL     1     -24.350 -21.927 -22.044  1.00  0.00    -0.192 F 
HETATM   10  F4  UNL     1     -24.759 -23.922 -23.073  1.00  0.00    -0.192 F 
HETATM   11  C5  UNL     1     -23.582 -22.282 -24.282  1.00  0.00     0.358 C 
HETATM   12  F5  UNL     1     -24.704 -21.810 -24.912  1.00  0.00    -0.195 F 
HETATM   13  F6  UNL     1     -23.071 -23.326 -25.062  1.00  0.00    -0.195 F 
ENDROOT
BRANCH   1  14
HETATM   14  N1  UNL     1     -22.029 -21.062 -25.606  1.00  0.00    -0.052 N 
ATOM     15  H13 UNL     1     -21.097 -20.647 -25.626  1.00  0.00     0.277 HD
ATOM     16  H12 UNL     1     -21.792 -21.956 -26.036  1.00  0.00     0.277 HD
ATOM     17  H11 UNL     1     -22.707 -20.531 -26.153  1.00  0.00     0.277 HD
ENDBRANCH   1  14
TORSDOF 1
ENDMDL
MODEL 2
REMARK VINA RESULT: -6.698037361      1.479      1.853
REMARK  1 active torsions:
REMARK  status: ('A' for Active; 'I' for Inactive)
REMARK    1  A    between atoms: N1_1  and  C1_5 
ROOT
HETATM    1  C1  UNL     1     -22.291 -21.821 -22.344  1.00  0.00     0.357 C 
HETATM    2  N2  UNL     1     -21.984 -23.008 -21.666  1.00  0.00    -0.385 N 
ATOM      3  H2  UNL     1     -21.064 -23.146 -21.247  1.00  0.00     0.155 HD
HETATM    4  C2  UNL     1     -22.976 -24.009 -21.576  1.00  0.00     0.202 C 
HETATM    5  C3  UNL     1     -23.900 -24.140 -22.722  1.00  0.00     0.329 C 
HETATM    6  F1  UNL     1     -24.959 -24.960 -22.339  1.00  0.00    -0.198 F 
HETATM    7  F2  UNL     1     -23.295 -24.695 -23.812  1.00  0.00    -0.198 F 
HETATM    8  C4  UNL     1     -24.502 -22.784 -23.023  1.00  0.00     0.377 C 
HETATM    9  F3  UNL     1     -25.126 -22.357 -21.866  1.00  0.00    -0.192 F 
HETATM   10  F4  UNL     1     -25.369 -22.864 -24.078  1.00  0.00    -0.192 F 
HETATM   11  C5  UNL     1     -23.343 -21.884 -23.390  1.00  0.00     0.358 C 
HETATM   12  F5  UNL     1     -23.742 -20.613 -23.712  1.00  0.00    -0.195 F 
HETATM   13  F6  UNL     1     -22.766 -22.444 -24.535  1.00  0.00    -0.195 F 
ENDROOT
BRANCH   1  14
HETATM   14  N1  UNL     1     -21.065 -21.330 -22.995  1.00  0.00    -0.052 N 
ATOM     15  H13 UNL     1     -20.252 -21.910 -22.790  1.00  0.00     0.277 HD
ATOM     16  H12 UNL     1     -21.078 -21.462 -24.006  1.00  0.00     0.277 HD
ATOM     17  H11 UNL     1     -20.929 -20.355 -22.727  1.00  0.00     0.277 HD
ENDBRANCH   1  14
TORSDOF 1
ENDMDL
MODEL 3
REMARK VINA RESULT: -6.517426724      1.425      2.899
REMARK  1 active torsions:
REMARK  status: ('A' for Active; 'I' for Inactive)
REMARK    1  A    between atoms: N1_1  and  C1_5 
ROOT
HETATM    1  C1  UNL     1     -22.519 -21.874 -24.110  1.00  0.00     0.357 C 
HETATM    2  N2  UNL     1     -23.850 -21.967 -24.540  1.00  0.00    -0.385 N 
ATOM      3  H2  UNL     1     -24.188 -21.399 -25.317  1.00  0.00     0.155 HD
HETATM    4  C2  UNL     1     -24.713 -22.864 -23.873  1.00  0.00     0.202 C 
HETATM    5  C3  UNL     1     -24.486 -23.058 -22.426  1.00  0.00     0.329 C 
HETATM    6  F1  UNL     1     -25.226 -24.163 -22.011  1.00  0.00    -0.198 F 
HETATM    7  F2  UNL     1     -24.878 -21.976 -21.692  1.00  0.00    -0.198 F 
HETATM    8  C4  UNL     1     -23.032 -23.412 -22.201  1.00  0.00     0.377 C 
HETATM    9  F3  UNL     1     -22.776 -24.546 -22.949  1.00  0.00    -0.192 F 
HETATM   10  F4  UNL     1     -22.782 -23.605 -20.870  1.00  0.00    -0.192 F 
HETATM   11  C5  UNL     1     -22.231 -22.230 -22.698  1.00  0.00     0.358 C 
HETATM   12  F5  UNL     1     -20.881 -22.400 -22.538  1.00  0.00    -0.195 F 
HETATM   13  F6  UNL     1     -22.614 -21.142 -21.904  1.00  0.00    -0.195 F 
ENDROOT
BRANCH   1  14
HETATM   14  N1  UNL     1     -22.066 -20.487 -24.307  1.00  0.00    -0.052 N 
ATOM     15  H13 UNL     1     -21.146 -20.433 -24.745  1.00  0.00     0.277 HD
ATOM     16  H12 UNL     1     -22.593 -20.001 -25.033  1.00  0.00     0.277 HD
ATOM     17  H11 UNL     1     -22.101 -20.008 -23.407  1.00  0.00     0.277 HD
ENDBRANCH   1  14
TORSDOF 1
ENDMDL
MODEL 4
REMARK VINA RESULT: -6.478050266      1.539      3.318
REMARK  1 active torsions:
REMARK  status: ('A' for Active; 'I' for Inactive)
REMARK    1  A    between atoms: N1_1  and  C1_5 
ROOT
HETATM    1  C1  UNL     1     -22.468 -23.477 -22.313  1.00  0.00     0.357 C 
HETATM    2  N2  UNL     1     -21.694 -22.322 -22.482  1.00  0.00    -0.385 N 
ATOM      3  H2  UNL     1     -20.922 -22.114 -21.848  1.00  0.00     0.155 HD
HETATM    4  C2  UNL     1     -22.004 -21.452 -23.550  1.00  0.00     0.202 C 
HETATM    5  C3  UNL     1     -23.429 -21.335 -23.924  1.00  0.00     0.329 C 
HETATM    6  F1  UNL     1     -23.508 -20.675 -25.148  1.00  0.00    -0.198 F 
HETATM    7  F2  UNL     1     -24.148 -20.627 -23.004  1.00  0.00    -0.198 F 
HETATM    8  C4  UNL     1     -23.992 -22.722 -24.153  1.00  0.00     0.377 C 
HETATM    9  F3  UNL     1     -23.217 -23.310 -25.135  1.00  0.00    -0.192 F 
HETATM   10  F4  UNL     1     -25.311 -22.656 -24.506  1.00  0.00    -0.192 F 
HETATM   11  C5  UNL     1     -23.858 -23.450 -22.835  1.00  0.00     0.358 C 
HETATM   12  F5  UNL     1     -24.351 -24.728 -22.884  1.00  0.00    -0.195 F 
HETATM   13  F6  UNL     1     -24.637 -22.735 -21.917  1.00  0.00    -0.195 F 
ENDROOT
BRANCH   1  14
HETATM   14  N1  UNL     1     -22.553 -23.770 -20.873  1.00  0.00    -0.052 N 
ATOM     15  H13 UNL     1     -22.787 -22.947 -20.318  1.00  0.00     0.277 HD
ATOM     16  H12 UNL     1     -23.369 -24.334 -20.634  1.00  0.00     0.277 HD
ATOM     17  H11 UNL     1     -21.677 -24.204 -20.582  1.00  0.00     0.277 HD
ENDBRANCH   1  14
TORSDOF 1
ENDMDL
MODEL 5
REMARK VINA RESULT: -6.459223111      2.183      3.212
REMARK  1 active torsions:
REMARK  status: ('A' for Active; 'I' for Inactive)
REMARK    1  A    between atoms: N1_1  and  C1_5 
ROOT
HETATM    1  C1  UNL     1     -24.044 -24.079 -22.734  1.00  0.00     0.357 C 
HETATM    2  N2  UNL     1     -22.905 -24.127 -21.920  1.00  0.00    -0.385 N 
ATOM      3  H2  UNL     1     -22.800 -24.855 -21.213  1.00  0.00     0.155 HD
HETATM    4  C2  UNL     1     -21.905 -23.146 -22.099  1.00  0.00     0.202 C 
HETATM    5  C3  UNL     1     -22.357 -21.797 -22.498  1.00  0.00     0.329 C 
HETATM    6  F1  UNL     1     -21.243 -21.062 -22.897  1.00  0.00    -0.198 F 
HETATM    7  F2  UNL     1     -22.968 -21.133 -21.474  1.00  0.00    -0.198 F 
HETATM    8  C4  UNL     1     -23.244 -21.918 -23.719  1.00  0.00     0.377 C 
HETATM    9  F3  UNL     1     -22.498 -22.554 -24.694  1.00  0.00    -0.192 F 
HETATM   10  F4  UNL     1     -23.681 -20.687 -24.123  1.00  0.00    -0.192 F 
HETATM   11  C5  UNL     1     -24.428 -22.758 -23.294  1.00  0.00     0.358 C 
HETATM   12  F5  UNL     1     -25.338 -22.938 -24.303  1.00  0.00    -0.195 F 
HETATM   13  F6  UNL     1     -25.066 -22.040 -22.277  1.00  0.00    -0.195 F 
ENDROOT
BRANCH   1  14
HETATM   14  N1  UNL     1     -25.192 -24.566 -21.953  1.00  0.00    -0.052 N 
ATOM     15  H13 UNL     1     -24.968 -24.701 -20.967  1.00  0.00     0.277 HD
ATOM     16  H12 UNL     1     -25.916 -23.857 -21.834  1.00  0.00     0.277 HD
ATOM     17  H11 UNL     1     -25.543 -25.416 -22.395  1.00  0.00     0.277 HD
ENDBRANCH   1  14
TORSDOF 1
ENDMDL
