MODEL 1
REMARK VINA RESULT: -7.521111431      0.000      0.000
REMARK  2 active torsions:
REMARK  status: ('A' for Active; 'I' for Inactive)
REMARK    1  A    between atoms: O1_1  and  C1_3 
REMARK    2  A    between atoms: C3_8  and  C4_10 
ROOT
HETATM    1  C1  UNL     1     -21.667 -21.574 -23.022  1.00  0.00     0.340 C 
HETATM    2  O2  UNL     1     -22.812 -20.833 -23.152  1.00  0.00    -0.286 OA
HETATM    3  C2  UNL     1     -23.869 -21.700 -23.408  1.00  0.00     0.404 C 
HETATM    4  F1  UNL     1     -24.291 -21.423 -24.709  1.00  0.00    -0.171 F 
HETATM    5  F2  UNL     1     -24.875 -21.350 -22.504  1.00  0.00    -0.171 F 
HETATM    6  C3  UNL     1     -23.391 -23.091 -23.230  1.00  0.00     0.322 C 
HETATM    7  F3  UNL     1     -22.946 -23.591 -24.439  1.00  0.00    -0.221 F 
HETATM    8  C5  UNL     1     -22.148 -22.878 -22.376  1.00  0.00     0.341 C 
HETATM    9  F6  UNL     1     -22.532 -22.635 -21.079  1.00  0.00    -0.197 F 
HETATM   10  F7  UNL     1     -21.244 -23.883 -22.503  1.00  0.00    -0.197 F 
ENDROOT
BRANCH   6  11
HETATM   11  C4  UNL     1     -24.357 -24.033 -22.596  1.00  0.00     0.408 C 
HETATM   12  F4  UNL     1     -25.577 -23.882 -23.260  1.00  0.00    -0.210 F 
HETATM   13  F5  UNL     1     -24.004 -25.336 -22.609  1.00  0.00    -0.210 F 
ENDBRANCH   6  11
BRANCH   1  14
HETATM   14  O1  UNL     1     -20.738 -20.926 -22.224  1.00  0.00    -0.366 OA
ATOM     15  H1  UNL     1     -19.924 -20.784 -22.691  1.00  0.00     0.212 HD
ENDBRANCH   1  14
TORSDOF 2
ENDMDL
MODEL 2
REMARK VINA RESULT: -7.436221371      1.142      1.386
REMARK  2 active torsions:
REMARK  status: ('A' for Active; 'I' for Inactive)
REMARK    1  A    between atoms: O1_1  and  C1_3 
REMARK    2  A    between atoms: C3_8  and  C4_10 
ROOT
HETATM    1  C1  UNL     1     -21.387 -21.770 -22.810  1.00  0.00     0.340 C 
HETATM    2  O2  UNL     1     -21.907 -21.202 -23.943  1.00  0.00    -0.286 OA
HETATM    3  C2  UNL     1     -23.047 -21.912 -24.307  1.00  0.00     0.404 C 
HETATM    4  F1  UNL     1     -22.745 -22.539 -25.516  1.00  0.00    -0.171 F 
HETATM    5  F2  UNL     1     -24.042 -20.953 -24.511  1.00  0.00    -0.171 F 
HETATM    6  C3  UNL     1     -23.376 -22.863 -23.219  1.00  0.00     0.322 C 
HETATM    7  F3  UNL     1     -22.776 -24.083 -23.468  1.00  0.00    -0.221 F 
HETATM    8  C5  UNL     1     -22.623 -22.253 -22.044  1.00  0.00     0.341 C 
HETATM    9  F6  UNL     1     -23.326 -21.169 -21.576  1.00  0.00    -0.197 F 
HETATM   10  F7  UNL     1     -22.316 -23.164 -21.086  1.00  0.00    -0.197 F 
ENDROOT
BRANCH   6  11
HETATM   11  C4  UNL     1     -24.827 -23.041 -22.929  1.00  0.00     0.408 C 
HETATM   12  F4  UNL     1     -25.481 -23.164 -24.158  1.00  0.00    -0.210 F 
HETATM   13  F5  UNL     1     -25.147 -24.095 -22.149  1.00  0.00    -0.210 F 
ENDBRANCH   6  11
BRANCH   1  14
HETATM   14  O1  UNL     1     -20.663 -20.846 -22.074  1.00  0.00    -0.366 OA
ATOM     15  H1  UNL     1     -21.189 -20.477 -21.374  1.00  0.00     0.212 HD
ENDBRANCH   1  14
TORSDOF 2
ENDMDL
MODEL 3
REMARK VINA RESULT: -7.268905075      1.311      2.897
REMARK  2 active torsions:
REMARK  status: ('A' for Active; 'I' for Inactive)
REMARK    1  A    between atoms: O1_1  and  C1_3 
REMARK    2  A    between atoms: C3_8  and  C4_10 
ROOT
HETATM    1  C1  UNL     1     -21.759 -21.361 -22.146  1.00  0.00     0.340 C 
HETATM    2  O2  UNL     1     -21.420 -22.666 -21.903  1.00  0.00    -0.286 OA
HETATM    3  C2  UNL     1     -22.558 -23.451 -22.056  1.00  0.00     0.404 C 
HETATM    4  F1  UNL     1     -22.858 -23.950 -20.788  1.00  0.00    -0.171 F 
HETATM    5  F2  UNL     1     -22.185 -24.502 -22.897  1.00  0.00    -0.171 F 
HETATM    6  C3  UNL     1     -23.638 -22.610 -22.626  1.00  0.00     0.322 C 
HETATM    7  F3  UNL     1     -24.391 -22.062 -21.605  1.00  0.00    -0.221 F 
HETATM    8  C5  UNL     1     -22.840 -21.460 -23.228  1.00  0.00     0.341 C 
HETATM    9  F6  UNL     1     -22.273 -21.878 -24.408  1.00  0.00    -0.197 F 
HETATM   10  F7  UNL     1     -23.567 -20.319 -23.340  1.00  0.00    -0.197 F 
ENDROOT
BRANCH   6  11
HETATM   11  C4  UNL     1     -24.516 -23.274 -23.629  1.00  0.00     0.408 C 
HETATM   12  F4  UNL     1     -25.366 -24.134 -22.929  1.00  0.00    -0.210 F 
HETATM   13  F5  UNL     1     -25.257 -22.451 -24.400  1.00  0.00    -0.210 F 
ENDBRANCH   6  11
BRANCH   1  14
HETATM   14  O1  UNL     1     -20.666 -20.633 -22.587  1.00  0.00    -0.366 OA
ATOM     15  H1  UNL     1     -20.531 -20.749 -23.520  1.00  0.00     0.212 HD
ENDBRANCH   1  14
TORSDOF 2
ENDMDL
MODEL 4
REMARK VINA RESULT: -7.246357049      1.057      1.521
REMARK  2 active torsions:
REMARK  status: ('A' for Active; 'I' for Inactive)
REMARK    1  A    between atoms: O1_1  and  C1_3 
REMARK    2  A    between atoms: C3_8  and  C4_10 
ROOT
HETATM    1  C1  UNL     1     -21.434 -21.859 -22.852  1.00  0.00     0.340 C 
HETATM    2  O2  UNL     1     -22.208 -21.508 -23.926  1.00  0.00    -0.286 OA
HETATM    3  C2  UNL     1     -23.144 -22.515 -24.140  1.00  0.00     0.404 C 
HETATM    4  F1  UNL     1     -22.814 -23.097 -25.365  1.00  0.00    -0.171 F 
HETATM    5  F2  UNL     1     -24.379 -21.870 -24.245  1.00  0.00    -0.171 F 
HETATM    6  C3  UNL     1     -23.082 -23.465 -23.005  1.00  0.00     0.322 C 
HETATM    7  F3  UNL     1     -22.203 -24.489 -23.299  1.00  0.00    -0.221 F 
HETATM    8  C5  UNL     1     -22.403 -22.617 -21.937  1.00  0.00     0.341 C 
HETATM    9  F6  UNL     1     -23.320 -21.740 -21.410  1.00  0.00    -0.197 F 
HETATM   10  F7  UNL     1     -21.757 -23.364 -21.005  1.00  0.00    -0.197 F 
ENDROOT
BRANCH   6  11
HETATM   11  C4  UNL     1     -24.390 -24.011 -22.544  1.00  0.00     0.408 C 
HETATM   12  F4  UNL     1     -24.119 -25.175 -21.820  1.00  0.00    -0.210 F 
HETATM   13  F5  UNL     1     -25.140 -23.183 -21.787  1.00  0.00    -0.210 F 
ENDBRANCH   6  11
BRANCH   1  14
HETATM   14  O1  UNL     1     -20.914 -20.739 -22.222  1.00  0.00    -0.366 OA
ATOM     15  H1  UNL     1     -20.497 -20.970 -21.400  1.00  0.00     0.212 HD
ENDBRANCH   1  14
TORSDOF 2
ENDMDL
MODEL 5
REMARK VINA RESULT: -7.235008579      1.258      1.865
REMARK  2 active torsions:
REMARK  status: ('A' for Active; 'I' for Inactive)
REMARK    1  A    between atoms: O1_1  and  C1_3 
REMARK    2  A    between atoms: C3_8  and  C4_10 
ROOT
HETATM    1  C1  UNL     1     -22.801 -21.678 -24.191  1.00  0.00     0.340 C 
HETATM    2  O2  UNL     1     -23.104 -21.094 -22.988  1.00  0.00    -0.286 OA
HETATM    3  C2  UNL     1     -23.988 -21.925 -22.308  1.00  0.00     0.404 C 
HETATM    4  F1  UNL     1     -25.196 -21.230 -22.237  1.00  0.00    -0.171 F 
HETATM    5  F2  UNL     1     -23.457 -22.075 -21.025  1.00  0.00    -0.171 F 
HETATM    6  C3  UNL     1     -24.092 -23.207 -23.044  1.00  0.00     0.322 C 
HETATM    7  F3  UNL     1     -25.144 -23.148 -23.940  1.00  0.00    -0.221 F 
HETATM    8  C5  UNL     1     -22.820 -23.179 -23.882  1.00  0.00     0.341 C 
HETATM    9  F6  UNL     1     -21.750 -23.498 -23.082  1.00  0.00    -0.197 F 
HETATM   10  F7  UNL     1     -22.914 -23.937 -25.005  1.00  0.00    -0.197 F 
ENDROOT
BRANCH   6  11
HETATM   11  C4  UNL     1     -24.187 -24.433 -22.203  1.00  0.00     0.408 C 
HETATM   12  F4  UNL     1     -25.504 -24.518 -21.745  1.00  0.00    -0.210 F 
HETATM   13  F5  UNL     1     -23.854 -25.591 -22.810  1.00  0.00    -0.210 F 
ENDBRANCH   6  11
BRANCH   1  14
HETATM   14  O1  UNL     1     -21.557 -21.270 -24.646  1.00  0.00    -0.366 OA
ATOM     15  H1  UNL     1     -20.927 -21.980 -24.605  1.00  0.00     0.212 HD
ENDBRANCH   1  14
TORSDOF 2
ENDMDL
