MODEL 1
REMARK VINA RESULT: -6.718491647      0.000      0.000
REMARK  6 active torsions:
REMARK  status: ('A' for Active; 'I' for Inactive)
REMARK    1  A    between atoms: C2_2  and  C3_3 
REMARK    2  A    between atoms: C3_3  and  C4_4 
REMARK    3  A    between atoms: C4_4  and  O1_5 
REMARK    4  A    between atoms: N1_11  and  C9_12 
REMARK    5  A    between atoms: C9_12  and  O2_13 
REMARK    6  A    between atoms: C9_12  and  C10_15 
ROOT
HETATM    1  C3  UNL     1      18.438  14.276  27.374  1.00  0.00     0.029 C 
HETATM    2  C5  UNL     1      19.656  13.458  27.439  1.00  0.00     0.033 C 
HETATM    3  C6  UNL     1      19.886  12.626  26.234  1.00  0.00    -0.027 C 
HETATM    4  C7  UNL     1      20.932  13.286  25.358  1.00  0.00     0.030 C 
HETATM    5  C8  UNL     1      22.173  12.447  25.246  1.00  0.00     0.125 C 
HETATM    6  N1  UNL     1      21.848  11.065  24.894  1.00  0.00    -0.364 N 
HETATM    7  C15 UNL     1      20.760  10.422  25.572  1.00  0.00     0.125 C 
HETATM    8  C16 UNL     1      20.395  11.296  26.764  1.00  0.00     0.030 C 
HETATM    9  C17 UNL     1      18.671  12.363  25.454  1.00  0.00     0.084 C 
HETATM   10  S1  UNL     1      17.359  13.425  26.167  1.00  0.00    -0.156 SA
ENDROOT
BRANCH   6  11
HETATM   11  C9  UNL     1      22.626  10.414  23.927  1.00  0.00     0.144 C 
BRANCH  11  12
HETATM   12  O2  UNL     1      23.171   9.309  24.383  1.00  0.00    -0.348 OA
ATOM     13  H2  UNL     1      24.081   9.427  24.627  1.00  0.00     0.219 HD
ENDBRANCH  11  12
BRANCH  11  14
HETATM   14  C10 UNL     1      22.928  10.739  22.541  1.00  0.00     0.259 C 
HETATM   15  C11 UNL     1      21.854  11.190  21.638  1.00  0.00     0.041 C 
HETATM   16  C12 UNL     1      22.442  11.459  20.251  1.00  0.00     0.004 C 
HETATM   17  C13 UNL     1      23.012  10.155  19.746  1.00  0.00     0.027 C 
HETATM   18  C14 UNL     1      24.164   9.802  20.687  1.00  0.00     0.233 C 
HETATM   19  N2  UNL     1      23.608   9.576  21.976  1.00  0.00    -0.064 N 
ATOM     20  H22 UNL     1      24.322   9.231  22.619  1.00  0.00     0.278 HD
ATOM     21  H21 UNL     1      22.985   8.769  21.961  1.00  0.00     0.278 HD
ENDBRANCH  11  14
ENDBRANCH   6  11
BRANCH   1  22
HETATM   22  C2  UNL     1      18.651  15.698  26.946  1.00  0.00     0.018 C 
HETATM   23  C1  UNL     1      19.939  16.274  27.430  1.00  0.00     0.006 C 
ENDBRANCH   1  22
BRANCH   1  24
HETATM   24  C4  UNL     1      17.750  14.277  28.721  1.00  0.00     0.184 C 
BRANCH  24  25
HETATM   25  O1  UNL     1      17.584  13.007  29.259  1.00  0.00    -0.399 OA
ATOM     26  H1  UNL     1      16.712  12.853  29.603  1.00  0.00     0.209 HD
ENDBRANCH  24  25
ENDBRANCH   1  24
TORSDOF 6
ENDMDL
MODEL 2
REMARK VINA RESULT: -6.653691824      1.440      2.083
REMARK  6 active torsions:
REMARK  status: ('A' for Active; 'I' for Inactive)
REMARK    1  A    between atoms: C2_2  and  C3_3 
REMARK    2  A    between atoms: C3_3  and  C4_4 
REMARK    3  A    between atoms: C4_4  and  O1_5 
REMARK    4  A    between atoms: N1_11  and  C9_12 
REMARK    5  A    between atoms: C9_12  and  O2_13 
REMARK    6  A    between atoms: C9_12  and  C10_15 
ROOT
HETATM    1  C3  UNL     1      18.888  13.119  28.180  1.00  0.00     0.029 C 
HETATM    2  C5  UNL     1      18.837  12.343  26.934  1.00  0.00     0.033 C 
HETATM    3  C6  UNL     1      20.126  12.290  26.205  1.00  0.00    -0.027 C 
HETATM    4  C7  UNL     1      20.796  10.955  26.464  1.00  0.00     0.030 C 
HETATM    5  C8  UNL     1      20.920  10.141  25.208  1.00  0.00     0.125 C 
HETATM    6  N1  UNL     1      21.502  10.930  24.121  1.00  0.00    -0.364 N 
HETATM    7  C15 UNL     1      21.028  12.267  23.915  1.00  0.00     0.125 C 
HETATM    8  C16 UNL     1      19.757  12.426  24.738  1.00  0.00     0.030 C 
HETATM    9  C17 UNL     1      21.043  13.386  26.541  1.00  0.00     0.084 C 
HETATM   10  S1  UNL     1      20.301  14.261  27.969  1.00  0.00    -0.156 SA
ENDROOT
BRANCH   6  11
HETATM   11  C9  UNL     1      22.481  10.341  23.311  1.00  0.00     0.144 C 
BRANCH  11  12
HETATM   12  O2  UNL     1      23.116   9.365  23.920  1.00  0.00    -0.348 OA
ATOM     13  H2  UNL     1      23.848   9.037  23.412  1.00  0.00     0.219 HD
ENDBRANCH  11  12
BRANCH  11  14
HETATM   14  C10 UNL     1      22.907  10.613  21.946  1.00  0.00     0.259 C 
HETATM   15  C11 UNL     1      21.958  10.449  20.830  1.00  0.00     0.041 C 
HETATM   16  C12 UNL     1      22.662  10.795  19.516  1.00  0.00     0.004 C 
HETATM   17  C13 UNL     1      23.808   9.826  19.351  1.00  0.00     0.027 C 
HETATM   18  C14 UNL     1      24.777  10.116  20.498  1.00  0.00     0.233 C 
HETATM   19  N2  UNL     1      24.106   9.811  21.713  1.00  0.00    -0.064 N 
ATOM     20  H22 UNL     1      24.746   9.884  22.504  1.00  0.00     0.278 HD
ATOM     21  H21 UNL     1      23.886   8.816  21.761  1.00  0.00     0.278 HD
ENDBRANCH  11  14
ENDBRANCH   6  11
BRANCH   1  22
HETATM   22  C2  UNL     1      19.079  12.305  29.427  1.00  0.00     0.018 C 
HETATM   23  C1  UNL     1      20.093  12.882  30.357  1.00  0.00     0.006 C 
ENDBRANCH   1  22
BRANCH   1  24
HETATM   24  C4  UNL     1      17.624  13.935  28.328  1.00  0.00     0.184 C 
BRANCH  24  25
HETATM   25  O1  UNL     1      16.734  13.411  29.257  1.00  0.00    -0.399 OA
ATOM     26  H1  UNL     1      17.148  13.142  30.068  1.00  0.00     0.209 HD
ENDBRANCH  24  25
ENDBRANCH   1  24
TORSDOF 6
ENDMDL
MODEL 3
REMARK VINA RESULT: -6.600319852      3.830      8.016
REMARK  6 active torsions:
REMARK  status: ('A' for Active; 'I' for Inactive)
REMARK    1  A    between atoms: C2_2  and  C3_3 
REMARK    2  A    between atoms: C3_3  and  C4_4 
REMARK    3  A    between atoms: C4_4  and  O1_5 
REMARK    4  A    between atoms: N1_11  and  C9_12 
REMARK    5  A    between atoms: C9_12  and  O2_13 
REMARK    6  A    between atoms: C9_12  and  C10_15 
ROOT
HETATM    1  C3  UNL     1      24.737  13.592  18.735  1.00  0.00     0.029 C 
HETATM    2  C5  UNL     1      24.383  14.179  20.033  1.00  0.00     0.033 C 
HETATM    3  C6  UNL     1      23.779  13.215  20.984  1.00  0.00    -0.027 C 
HETATM    4  C7  UNL     1      24.825  12.777  21.989  1.00  0.00     0.030 C 
HETATM    5  C8  UNL     1      24.473  13.212  23.383  1.00  0.00     0.125 C 
HETATM    6  N1  UNL     1      23.095  12.850  23.719  1.00  0.00    -0.364 N 
HETATM    7  C15 UNL     1      22.067  13.088  22.748  1.00  0.00     0.125 C 
HETATM    8  C16 UNL     1      22.664  13.985  21.672  1.00  0.00     0.030 C 
HETATM    9  C17 UNL     1      23.180  12.041  20.338  1.00  0.00     0.084 C 
HETATM   10  S1  UNL     1      23.670  12.116  18.574  1.00  0.00    -0.156 SA
ENDROOT
BRANCH   6  11
HETATM   11  C9  UNL     1      22.830  12.307  24.983  1.00  0.00     0.144 C 
BRANCH  11  12
HETATM   12  O2  UNL     1      23.509  11.204  25.207  1.00  0.00    -0.348 OA
ATOM     13  H2  UNL     1      23.955  10.888  24.430  1.00  0.00     0.219 HD
ENDBRANCH  11  12
BRANCH  11  14
HETATM   14  C10 UNL     1      21.957  12.738  26.064  1.00  0.00     0.259 C 
HETATM   15  C11 UNL     1      21.783  14.175  26.343  1.00  0.00     0.041 C 
HETATM   16  C12 UNL     1      20.823  14.346  27.522  1.00  0.00     0.004 C 
HETATM   17  C13 UNL     1      21.455  13.673  28.717  1.00  0.00     0.027 C 
HETATM   18  C14 UNL     1      21.525  12.184  28.377  1.00  0.00     0.233 C 
HETATM   19  N2  UNL     1      22.403  12.040  27.268  1.00  0.00    -0.064 N 
ATOM     20  H22 UNL     1      22.570  11.053  27.069  1.00  0.00     0.278 HD
ATOM     21  H21 UNL     1      23.348  12.327  27.519  1.00  0.00     0.278 HD
ENDBRANCH  11  14
ENDBRANCH   6  11
BRANCH   1  22
HETATM   22  C2  UNL     1      26.177  13.191  18.591  1.00  0.00     0.018 C 
HETATM   23  C1  UNL     1      26.389  11.716  18.668  1.00  0.00     0.006 C 
ENDBRANCH   1  22
BRANCH   1  24
HETATM   24  C4  UNL     1      24.396  14.560  17.624  1.00  0.00     0.184 C 
BRANCH  24  25
HETATM   25  O1  UNL     1      23.030  14.757  17.463  1.00  0.00    -0.399 OA
ATOM     26  H1  UNL     1      22.793  15.666  17.323  1.00  0.00     0.209 HD
ENDBRANCH  24  25
ENDBRANCH   1  24
TORSDOF 6
ENDMDL
MODEL 4
REMARK VINA RESULT: -6.575139719      3.668      7.668
REMARK  6 active torsions:
REMARK  status: ('A' for Active; 'I' for Inactive)
REMARK    1  A    between atoms: C2_2  and  C3_3 
REMARK    2  A    between atoms: C3_3  and  C4_4 
REMARK    3  A    between atoms: C4_4  and  O1_5 
REMARK    4  A    between atoms: N1_11  and  C9_12 
REMARK    5  A    between atoms: C9_12  and  O2_13 
REMARK    6  A    between atoms: C9_12  and  C10_15 
ROOT
HETATM    1  C3  UNL     1      24.888  13.308  19.102  1.00  0.00     0.029 C 
HETATM    2  C5  UNL     1      23.683  13.263  19.941  1.00  0.00     0.033 C 
HETATM    3  C6  UNL     1      23.598  12.062  20.807  1.00  0.00    -0.027 C 
HETATM    4  C7  UNL     1      24.006  12.430  22.219  1.00  0.00     0.030 C 
HETATM    5  C8  UNL     1      22.866  12.275  23.186  1.00  0.00     0.125 C 
HETATM    6  N1  UNL     1      22.225  10.967  23.042  1.00  0.00    -0.364 N 
HETATM    7  C15 UNL     1      21.951  10.478  21.723  1.00  0.00     0.125 C 
HETATM    8  C16 UNL     1      22.138  11.645  20.763  1.00  0.00     0.030 C 
HETATM    9  C17 UNL     1      24.402  10.930  20.331  1.00  0.00     0.084 C 
HETATM   10  S1  UNL     1      25.428  11.567  18.953  1.00  0.00    -0.156 SA
ENDROOT
BRANCH   6  11
HETATM   11  C9  UNL     1      21.881  10.255  24.199  1.00  0.00     0.144 C 
BRANCH  11  12
HETATM   12  O2  UNL     1      22.710   9.264  24.442  1.00  0.00    -0.348 OA
ATOM     13  H2  UNL     1      23.557   9.567  24.747  1.00  0.00     0.219 HD
ENDBRANCH  11  12
BRANCH  11  14
HETATM   14  C10 UNL     1      20.795  10.415  25.154  1.00  0.00     0.259 C 
HETATM   15  C11 UNL     1      19.577  11.149  24.769  1.00  0.00     0.041 C 
HETATM   16  C12 UNL     1      18.607  11.169  25.953  1.00  0.00     0.004 C 
HETATM   17  C13 UNL     1      19.296  11.893  27.085  1.00  0.00     0.027 C 
HETATM   18  C14 UNL     1      20.496  11.030  27.473  1.00  0.00     0.233 C 
HETATM   19  N2  UNL     1      21.379  11.001  26.359  1.00  0.00    -0.064 N 
ATOM     20  H22 UNL     1      22.249  10.526  26.603  1.00  0.00     0.278 HD
ATOM     21  H21 UNL     1      21.741  11.934  26.165  1.00  0.00     0.278 HD
ENDBRANCH  11  14
ENDBRANCH   6  11
BRANCH   1  22
HETATM   22  C2  UNL     1      26.011  14.139  19.650  1.00  0.00     0.018 C 
HETATM   23  C1  UNL     1      27.243  13.347  19.940  1.00  0.00     0.006 C 
ENDBRANCH   1  22
BRANCH   1  24
HETATM   24  C4  UNL     1      24.534  13.825  17.726  1.00  0.00     0.184 C 
BRANCH  24  25
HETATM   25  O1  UNL     1      23.695  14.932  17.751  1.00  0.00    -0.399 OA
ATOM     26  H1  UNL     1      22.813  14.732  18.042  1.00  0.00     0.209 HD
ENDBRANCH  24  25
ENDBRANCH   1  24
TORSDOF 6
ENDMDL
MODEL 5
REMARK VINA RESULT: -6.574835300      4.734      6.955
REMARK  6 active torsions:
REMARK  status: ('A' for Active; 'I' for Inactive)
REMARK    1  A    between atoms: C2_2  and  C3_3 
REMARK    2  A    between atoms: C3_3  and  C4_4 
REMARK    3  A    between atoms: C4_4  and  O1_5 
REMARK    4  A    between atoms: N1_11  and  C9_12 
REMARK    5  A    between atoms: C9_12  and  O2_13 
REMARK    6  A    between atoms: C9_12  and  C10_15 
ROOT
HETATM    1  C3  UNL     1      21.579  10.584  23.000  1.00  0.00     0.029 C 
HETATM    2  C5  UNL     1      22.838  11.271  22.684  1.00  0.00     0.033 C 
HETATM    3  C6  UNL     1      23.053  11.494  21.234  1.00  0.00    -0.027 C 
HETATM    4  C7  UNL     1      22.720  12.932  20.891  1.00  0.00     0.030 C 
HETATM    5  C8  UNL     1      23.929  13.685  20.414  1.00  0.00     0.125 C 
HETATM    6  N1  UNL     1      24.637  12.943  19.370  1.00  0.00    -0.364 N 
HETATM    7  C15 UNL     1      24.850  11.536  19.552  1.00  0.00     0.125 C 
HETATM    8  C16 UNL     1      24.529  11.218  21.006  1.00  0.00     0.030 C 
HETATM    9  C17 UNL     1      22.288  10.583  20.374  1.00  0.00     0.084 C 
HETATM   10  S1  UNL     1      21.136   9.678  21.475  1.00  0.00    -0.156 SA
ENDROOT
BRANCH   6  11
HETATM   11  C9  UNL     1      25.099  13.637  18.245  1.00  0.00     0.144 C 
BRANCH  11  12
HETATM   12  O2  UNL     1      24.203  13.691  17.285  1.00  0.00    -0.348 OA
ATOM     13  H2  UNL     1      23.689  12.895  17.225  1.00  0.00     0.219 HD
ENDBRANCH  11  12
BRANCH  11  14
HETATM   14  C10 UNL     1      26.367  14.295  17.960  1.00  0.00     0.259 C 
HETATM   15  C11 UNL     1      27.092  14.995  19.034  1.00  0.00     0.041 C 
HETATM   16  C12 UNL     1      28.380  15.593  18.464  1.00  0.00     0.004 C 
HETATM   17  C13 UNL     1      27.981  16.583  17.397  1.00  0.00     0.027 C 
HETATM   18  C14 UNL     1      27.309  15.767  16.291  1.00  0.00     0.233 C 
HETATM   19  N2  UNL     1      26.126  15.200  16.838  1.00  0.00    -0.064 N 
ATOM     20  H22 UNL     1      25.583  14.734  16.111  1.00  0.00     0.278 HD
ATOM     21  H21 UNL     1      25.467  15.932  17.103  1.00  0.00     0.278 HD
ENDBRANCH  11  14
ENDBRANCH   6  11
BRANCH   1  22
HETATM   22  C2  UNL     1      20.447  11.485  23.398  1.00  0.00     0.018 C 
HETATM   23  C1  UNL     1      20.896  12.713  24.117  1.00  0.00     0.006 C 
ENDBRANCH   1  22
BRANCH   1  24
HETATM   24  C4  UNL     1      21.808   9.581  24.110  1.00  0.00     0.184 C 
BRANCH  24  25
HETATM   25  O1  UNL     1      23.140   9.221  24.263  1.00  0.00    -0.399 OA
ATOM     26  H1  UNL     1      23.343   8.878  25.125  1.00  0.00     0.209 HD
ENDBRANCH  24  25
ENDBRANCH   1  24
TORSDOF 6
ENDMDL
