MODEL 1
REMARK VINA RESULT: -8.931383009      0.000      0.000
REMARK  3 active torsions:
REMARK  status: ('A' for Active; 'I' for Inactive)
REMARK       I    between atoms: C1_2  and  N1_3 
REMARK    1  A    between atoms: C1_2  and  C14_17 
REMARK    2  A    between atoms: N1_3  and  C2_5 
REMARK    3  A    between atoms: C16_19  and  C17_20 
ROOT
HETATM    1  O1  UNL     1      20.732   9.059  20.632  1.00  0.00    -0.273 OA
HETATM    2  C1  UNL     1      21.054   9.976  21.431  1.00  0.00     0.222 C 
HETATM    3  N1  UNL     1      21.989  10.991  21.094  1.00  0.00    -0.355 N 
ATOM      4  H1  UNL     1      22.195  11.698  21.800  1.00  0.00     0.162 HD
ENDROOT
BRANCH   2   5
HETATM    5  C14 UNL     1      20.405   9.959  22.765  1.00  0.00     0.079 C 
HETATM    6  C15 UNL     1      21.453   9.656  23.818  1.00  0.00     0.026 C 
HETATM    7  C16 UNL     1      20.731  10.678  24.704  1.00  0.00     0.058 C 
HETATM    8  C18 UNL     1      20.227  11.313  23.406  1.00  0.00     0.026 C 
BRANCH   7   9
HETATM    9  C17 UNL     1      21.612  11.530  25.496  1.00  0.00     0.117 A 
HETATM   10  N2  UNL     1      21.665  11.562  26.838  1.00  0.00    -0.272 N 
HETATM   11  N3  UNL     1      22.571  12.447  27.216  1.00  0.00    -0.227 N 
ATOM     12  H2  UNL     1      21.096  10.994  27.465  1.00  0.00     0.190 HD
HETATM   13  N4  UNL     1      23.100  12.983  26.135  1.00  0.00    -0.227 N 
ATOM     14  H3  UNL     1      22.817  12.675  28.179  1.00  0.00     0.210 HD
HETATM   15  N5  UNL     1      22.517  12.427  25.074  1.00  0.00    -0.272 N 
ATOM     16  H4  UNL     1      23.828  13.697  26.114  1.00  0.00     0.210 HD
ATOM     17  H5  UNL     1      22.725  12.648  24.101  1.00  0.00     0.190 HD
ENDBRANCH   7   9
ENDBRANCH   2   5
BRANCH   3  18
HETATM   18  C2  UNL     1      22.659  11.088  19.843  1.00  0.00     0.092 C 
HETATM   19  C3  UNL     1      23.093  12.517  19.603  1.00  0.00     0.009 C 
HETATM   20  C4  UNL     1      23.707  13.167  20.796  1.00  0.00     0.007 C 
HETATM   21  C10 UNL     1      23.790  12.741  18.315  1.00  0.00     0.015 C 
HETATM   22  C5  UNL     1      24.974  12.722  21.318  1.00  0.00     0.009 C 
HETATM   23  C6  UNL     1      25.650  11.506  20.784  1.00  0.00     0.008 C 
HETATM   24  C7  UNL     1      26.416  11.845  19.555  1.00  0.00    -0.026 C 
HETATM   25  C13 UNL     1      24.845  10.278  20.702  1.00  0.00     0.015 C 
HETATM   26  C8  UNL     1      26.050  11.921  18.268  1.00  0.00    -0.026 C 
HETATM   27  C9  UNL     1      24.647  11.644  17.815  1.00  0.00     0.009 C 
HETATM   28  C11 UNL     1      24.298  10.275  18.248  1.00  0.00     0.015 C 
HETATM   29  C12 UNL     1      23.812  10.164  19.661  1.00  0.00     0.010 C 
ENDBRANCH   3  18
TORSDOF 3
ENDMDL
MODEL 2
REMARK VINA RESULT: -8.686783444      4.314      6.523
REMARK  3 active torsions:
REMARK  status: ('A' for Active; 'I' for Inactive)
REMARK       I    between atoms: C1_2  and  N1_3 
REMARK    1  A    between atoms: C1_2  and  C14_17 
REMARK    2  A    between atoms: N1_3  and  C2_5 
REMARK    3  A    between atoms: C16_19  and  C17_20 
ROOT
HETATM    1  O1  UNL     1      26.743  13.281  19.596  1.00  0.00    -0.273 OA
HETATM    2  C1  UNL     1      26.470  12.228  20.227  1.00  0.00     0.222 C 
HETATM    3  N1  UNL     1      25.489  12.183  21.253  1.00  0.00    -0.355 N 
ATOM      4  H1  UNL     1      25.328  11.288  21.716  1.00  0.00     0.162 HD
ENDROOT
BRANCH   2   5
HETATM    5  C14 UNL     1      27.226  11.008  19.851  1.00  0.00     0.079 C 
HETATM    6  C15 UNL     1      28.666  11.162  20.301  1.00  0.00     0.026 C 
HETATM    7  C16 UNL     1      28.616   9.677  20.677  1.00  0.00     0.058 C 
HETATM    8  C18 UNL     1      27.103   9.856  20.818  1.00  0.00     0.026 C 
BRANCH   7   9
HETATM    9  C17 UNL     1      29.306   9.337  21.917  1.00  0.00     0.117 A 
HETATM   10  N2  UNL     1      29.206   8.166  22.567  1.00  0.00    -0.272 N 
HETATM   11  N3  UNL     1      29.963   8.205  23.650  1.00  0.00    -0.227 N 
ATOM     12  H2  UNL     1      28.637   7.373  22.272  1.00  0.00     0.190 HD
HETATM   13  N4  UNL     1      30.548   9.384  23.702  1.00  0.00    -0.227 N 
ATOM     14  H3  UNL     1      30.076   7.451  24.328  1.00  0.00     0.210 HD
HETATM   15  N5  UNL     1      30.150  10.087  22.643  1.00  0.00    -0.272 N 
ATOM     16  H4  UNL     1      31.192   9.703  24.426  1.00  0.00     0.210 HD
ATOM     17  H5  UNL     1      30.439  11.039  22.421  1.00  0.00     0.190 HD
ENDBRANCH   7   9
ENDBRANCH   2   5
BRANCH   3  18
HETATM   18  C2  UNL     1      24.717  13.299  21.681  1.00  0.00     0.092 C 
HETATM   19  C3  UNL     1      23.538  13.493  20.753  1.00  0.00     0.009 C 
HETATM   20  C4  UNL     1      22.834  12.227  20.404  1.00  0.00     0.007 C 
HETATM   21  C10 UNL     1      22.669  14.644  21.094  1.00  0.00     0.015 C 
HETATM   22  C5  UNL     1      22.107  11.479  21.398  1.00  0.00     0.009 C 
HETATM   23  C6  UNL     1      22.151  11.856  22.839  1.00  0.00     0.008 C 
HETATM   24  C7  UNL     1      21.169  12.939  23.114  1.00  0.00    -0.026 C 
HETATM   25  C13 UNL     1      23.481  12.050  23.437  1.00  0.00     0.015 C 
HETATM   26  C8  UNL     1      21.257  14.273  23.004  1.00  0.00    -0.026 C 
HETATM   27  C9  UNL     1      22.503  14.959  22.530  1.00  0.00     0.009 C 
HETATM   28  C11 UNL     1      23.604  14.561  23.430  1.00  0.00     0.015 C 
HETATM   29  C12 UNL     1      24.255  13.253  23.095  1.00  0.00     0.010 C 
ENDBRANCH   3  18
TORSDOF 3
ENDMDL
MODEL 3
REMARK VINA RESULT: -8.613207682      2.607      3.449
REMARK  3 active torsions:
REMARK  status: ('A' for Active; 'I' for Inactive)
REMARK       I    between atoms: C1_2  and  N1_3 
REMARK    1  A    between atoms: C1_2  and  C14_17 
REMARK    2  A    between atoms: N1_3  and  C2_5 
REMARK    3  A    between atoms: C16_19  and  C17_20 
ROOT
HETATM    1  O1  UNL     1      22.098  16.080  22.313  1.00  0.00    -0.273 OA
HETATM    2  C1  UNL     1      22.211  14.835  22.461  1.00  0.00     0.222 C 
HETATM    3  N1  UNL     1      22.836  14.003  21.494  1.00  0.00    -0.355 N 
ATOM      4  H1  UNL     1      22.887  13.004  21.692  1.00  0.00     0.162 HD
ENDROOT
BRANCH   2   5
HETATM    5  C14 UNL     1      21.655  14.258  23.710  1.00  0.00     0.079 C 
HETATM    6  C15 UNL     1      20.933  12.967  23.376  1.00  0.00     0.026 C 
HETATM    7  C16 UNL     1      21.510  12.409  24.682  1.00  0.00     0.058 C 
HETATM    8  C18 UNL     1      22.629  13.441  24.523  1.00  0.00     0.026 C 
BRANCH   7   9
HETATM    9  C17 UNL     1      21.950  11.020  24.611  1.00  0.00     0.117 A 
HETATM   10  N2  UNL     1      23.181  10.610  24.266  1.00  0.00    -0.272 N 
HETATM   11  N3  UNL     1      23.226   9.289  24.307  1.00  0.00    -0.227 N 
ATOM     12  H2  UNL     1      23.957  11.220  24.011  1.00  0.00     0.190 HD
HETATM   13  N4  UNL     1      22.041   8.847  24.675  1.00  0.00    -0.227 N 
ATOM     14  H3  UNL     1      24.039   8.712  24.091  1.00  0.00     0.210 HD
HETATM   15  N5  UNL     1      21.250   9.902  24.863  1.00  0.00    -0.272 N 
ATOM     16  H4  UNL     1      21.776   7.870  24.795  1.00  0.00     0.210 HD
ATOM     17  H5  UNL     1      20.273   9.866  25.152  1.00  0.00     0.190 HD
ENDBRANCH   7   9
ENDBRANCH   2   5
BRANCH   3  18
HETATM   18  C2  UNL     1      23.396  14.466  20.271  1.00  0.00     0.092 C 
HETATM   19  C3  UNL     1      24.849  14.831  20.477  1.00  0.00     0.009 C 
HETATM   20  C4  UNL     1      25.611  13.833  21.280  1.00  0.00     0.007 C 
HETATM   21  C10 UNL     1      25.532  15.345  19.267  1.00  0.00     0.015 C 
HETATM   22  C5  UNL     1      25.869  12.509  20.772  1.00  0.00     0.009 C 
HETATM   23  C6  UNL     1      25.264  12.035  19.496  1.00  0.00     0.008 C 
HETATM   24  C7  UNL     1      26.076  12.502  18.340  1.00  0.00    -0.026 C 
HETATM   25  C13 UNL     1      23.810  12.198  19.347  1.00  0.00     0.015 C 
HETATM   26  C8  UNL     1      26.063  13.650  17.647  1.00  0.00    -0.026 C 
HETATM   27  C9  UNL     1      25.121  14.771  17.967  1.00  0.00     0.009 C 
HETATM   28  C11 UNL     1      23.745  14.239  17.880  1.00  0.00     0.015 C 
HETATM   29  C12 UNL     1      23.257  13.541  19.113  1.00  0.00     0.010 C 
ENDBRANCH   3  18
TORSDOF 3
ENDMDL
MODEL 4
REMARK VINA RESULT: -8.593818530      3.786      6.328
REMARK  3 active torsions:
REMARK  status: ('A' for Active; 'I' for Inactive)
REMARK       I    between atoms: C1_2  and  N1_3 
REMARK    1  A    between atoms: C1_2  and  C14_17 
REMARK    2  A    between atoms: N1_3  and  C2_5 
REMARK    3  A    between atoms: C16_19  and  C17_20 
ROOT
HETATM    1  O1  UNL     1      24.237   9.944  19.303  1.00  0.00    -0.273 OA
HETATM    2  C1  UNL     1      24.916  10.379  20.269  1.00  0.00     0.222 C 
HETATM    3  N1  UNL     1      24.418  10.416  21.599  1.00  0.00    -0.355 N 
ATOM      4  H1  UNL     1      25.033  10.783  22.325  1.00  0.00     0.162 HD
ENDROOT
BRANCH   2   5
HETATM    5  C14 UNL     1      26.285  10.861  19.961  1.00  0.00     0.079 C 
HETATM    6  C15 UNL     1      26.921  11.384  21.234  1.00  0.00     0.026 C 
HETATM    7  C16 UNL     1      28.225  10.749  20.740  1.00  0.00     0.058 C 
HETATM    8  C18 UNL     1      27.347   9.789  19.933  1.00  0.00     0.026 C 
BRANCH   7   9
HETATM    9  C17 UNL     1      29.027  10.112  21.778  1.00  0.00     0.117 A 
HETATM   10  N2  UNL     1      28.881   8.848  22.209  1.00  0.00    -0.272 N 
HETATM   11  N3  UNL     1      29.771   8.606  23.155  1.00  0.00    -0.227 N 
ATOM     12  H2  UNL     1      28.192   8.181  21.860  1.00  0.00     0.190 HD
HETATM   13  N4  UNL     1      30.487   9.697  23.338  1.00  0.00    -0.227 N 
ATOM     14  H3  UNL     1      29.884   7.725  23.658  1.00  0.00     0.210 HD
HETATM   15  N5  UNL     1      30.036  10.627  22.498  1.00  0.00    -0.272 N 
ATOM     16  H4  UNL     1      31.250   9.809  24.004  1.00  0.00     0.210 HD
ATOM     17  H5  UNL     1      30.400  11.576  22.415  1.00  0.00     0.190 HD
ENDBRANCH   7   9
ENDBRANCH   2   5
BRANCH   3  18
HETATM   18  C2  UNL     1      23.122   9.977  21.988  1.00  0.00     0.092 C 
HETATM   19  C3  UNL     1      22.975  10.080  23.490  1.00  0.00     0.009 C 
HETATM   20  C4  UNL     1      23.499  11.354  24.058  1.00  0.00     0.007 C 
HETATM   21  C10 UNL     1      21.664   9.630  24.012  1.00  0.00     0.015 C 
HETATM   22  C5  UNL     1      22.867  12.616  23.769  1.00  0.00     0.009 C 
HETATM   23  C6  UNL     1      21.760  12.720  22.777  1.00  0.00     0.008 C 
HETATM   24  C7  UNL     1      20.466  12.359  23.416  1.00  0.00    -0.026 C 
HETATM   25  C13 UNL     1      21.993  12.123  21.453  1.00  0.00     0.015 C 
HETATM   26  C8  UNL     1      19.866  11.175  23.610  1.00  0.00    -0.026 C 
HETATM   27  C9  UNL     1      20.479   9.882  23.163  1.00  0.00     0.009 C 
HETATM   28  C11 UNL     1      20.711   9.975  21.707  1.00  0.00     0.015 C 
HETATM   29  C12 UNL     1      21.985  10.660  21.312  1.00  0.00     0.010 C 
ENDBRANCH   3  18
TORSDOF 3
ENDMDL
MODEL 5
REMARK VINA RESULT: -8.522578078      4.072      6.558
REMARK  3 active torsions:
REMARK  status: ('A' for Active; 'I' for Inactive)
REMARK       I    between atoms: C1_2  and  N1_3 
REMARK    1  A    between atoms: C1_2  and  C14_17 
REMARK    2  A    between atoms: N1_3  and  C2_5 
REMARK    3  A    between atoms: C16_19  and  C17_20 
ROOT
HETATM    1  O1  UNL     1      25.753  13.538  20.711  1.00  0.00    -0.273 OA
HETATM    2  C1  UNL     1      25.766  12.304  20.955  1.00  0.00     0.222 C 
HETATM    3  N1  UNL     1      24.851  11.691  21.852  1.00  0.00    -0.355 N 
ATOM      4  H1  UNL     1      24.929  10.684  21.993  1.00  0.00     0.162 HD
ENDROOT
BRANCH   2   5
HETATM    5  C14 UNL     1      26.794  11.495  20.254  1.00  0.00     0.079 C 
HETATM    6  C15 UNL     1      28.152  11.795  20.858  1.00  0.00     0.026 C 
HETATM    7  C16 UNL     1      28.456  10.301  20.698  1.00  0.00     0.058 C 
HETATM    8  C18 UNL     1      26.942  10.079  20.755  1.00  0.00     0.026 C 
BRANCH   7   9
HETATM    9  C17 UNL     1      29.199   9.707  21.803  1.00  0.00     0.117 A 
HETATM   10  N2  UNL     1      29.034   8.458  22.271  1.00  0.00    -0.272 N 
HETATM   11  N3  UNL     1      29.870   8.256  23.274  1.00  0.00    -0.227 N 
ATOM     12  H2  UNL     1      28.370   7.775  21.908  1.00  0.00     0.190 HD
HETATM   13  N4  UNL     1      30.569   9.358  23.458  1.00  0.00    -0.227 N 
ATOM     14  H3  UNL     1      29.958   7.395  23.815  1.00  0.00     0.210 HD
HETATM   15  N5  UNL     1      30.164  10.254  22.560  1.00  0.00    -0.272 N 
ATOM     16  H4  UNL     1      31.292   9.500  24.162  1.00  0.00     0.210 HD
ATOM     17  H5  UNL     1      30.527  11.202  22.463  1.00  0.00     0.190 HD
ENDBRANCH   7   9
ENDBRANCH   2   5
BRANCH   3  18
HETATM   18  C2  UNL     1      23.835  12.385  22.567  1.00  0.00     0.092 C 
HETATM   19  C3  UNL     1      22.693  12.726  21.635  1.00  0.00     0.009 C 
HETATM   20  C4  UNL     1      22.298  11.606  20.735  1.00  0.00     0.007 C 
HETATM   21  C10 UNL     1      21.580  13.468  22.271  1.00  0.00     0.015 C 
HETATM   22  C5  UNL     1      21.697  10.405  21.258  1.00  0.00     0.009 C 
HETATM   23  C6  UNL     1      21.582  10.170  22.725  1.00  0.00     0.008 C 
HETATM   24  C7  UNL     1      20.376  10.858  23.259  1.00  0.00    -0.026 C 
HETATM   25  C13 UNL     1      22.805  10.337  23.525  1.00  0.00     0.015 C 
HETATM   26  C8  UNL     1      20.181  12.116  23.682  1.00  0.00    -0.026 C 
HETATM   27  C9  UNL     1      21.273  13.142  23.681  1.00  0.00     0.009 C 
HETATM   28  C11 UNL     1      22.385  12.616  24.499  1.00  0.00     0.015 C 
HETATM   29  C12 UNL     1      23.319  11.691  23.779  1.00  0.00     0.010 C 
ENDBRANCH   3  18
TORSDOF 3
ENDMDL
