MODEL 1
REMARK VINA RESULT: -7.284050431      0.000      0.000
REMARK  5 active torsions:
REMARK  status: ('A' for Active; 'I' for Inactive)
REMARK    1  A    between atoms: C2_2  and  C3_3 
REMARK    2  A    between atoms: C2_2  and  N2_16 
REMARK    3  A    between atoms: C17_19  and  N3_20 
REMARK    4  A    between atoms: C17_19  and  C18_24 
REMARK    5  A    between atoms: C18_24  and  O1_25 
ROOT
HETATM    1  C1  UNL     1      20.916  14.395  24.620  1.00  0.00     0.043 C 
HETATM    2  C2  UNL     1      22.119  13.525  24.709  1.00  0.00     0.223 C 
ENDROOT
BRANCH   2   3
HETATM    3  C3  UNL     1      22.313  12.576  23.579  1.00  0.00     0.018 C 
HETATM    4  C4  UNL     1      23.795  12.443  23.313  1.00  0.00     0.007 C 
HETATM    5  C5  UNL     1      24.210  13.164  22.051  1.00  0.00     0.012 C 
HETATM    6  C6  UNL     1      23.438  12.680  20.844  1.00  0.00    -0.008 C 
HETATM    7  C7  UNL     1      22.120  12.062  21.227  1.00  0.00     0.012 C 
HETATM    8  C9  UNL     1      23.116  13.904  19.988  1.00  0.00     0.042 C 
HETATM    9  C14 UNL     1      24.309  11.802  20.007  1.00  0.00     0.231 C 
HETATM   10  C8  UNL     1      21.541  12.950  22.336  1.00  0.00     0.007 C 
HETATM   11  C10 UNL     1      23.500  13.415  18.607  1.00  0.00     0.273 C 
HETATM   12  N1  UNL     1      24.696  12.610  18.873  1.00  0.00     0.093 N 
HETATM   13  C11 UNL     1      24.892  11.738  17.752  1.00  0.00     0.273 C 
HETATM   14  C12 UNL     1      24.447  10.357  18.165  1.00  0.00     0.032 C 
HETATM   15  C13 UNL     1      23.622  10.613  19.422  1.00  0.00     0.038 C 
ENDBRANCH   2   3
BRANCH   2  16
HETATM   16  N2  UNL     1      22.193  12.758  25.929  1.00  0.00     0.095 N 
HETATM   17  C15 UNL     1      21.317  11.630  25.966  1.00  0.00     0.275 C 
HETATM   18  C16 UNL     1      20.490  11.795  27.221  1.00  0.00     0.073 C 
HETATM   19  C17 UNL     1      21.494  12.532  28.111  1.00  0.00     0.172 C 
HETATM   20  C19 UNL     1      22.093  13.509  27.123  1.00  0.00     0.313 C 
BRANCH  19  21
HETATM   21  N3  UNL     1      22.453  11.622  28.665  1.00  0.00    -0.067 N 
ATOM     22  H33 UNL     1      22.010  10.932  29.272  1.00  0.00     0.275 HD
ATOM     23  H32 UNL     1      22.824  10.989  27.957  1.00  0.00     0.275 HD
ATOM     24  H31 UNL     1      23.197  12.126  29.148  1.00  0.00     0.275 HD
ENDBRANCH  19  21
BRANCH  19  25
HETATM   25  C18 UNL     1      20.807  13.334  29.185  1.00  0.00     0.204 C 
BRANCH  25  26
HETATM   26  O1  UNL     1      21.461  14.548  29.288  1.00  0.00    -0.398 OA
ATOM     27  H1  UNL     1      20.820  15.202  29.544  1.00  0.00     0.209 HD
ENDBRANCH  25  26
ENDBRANCH  19  25
ENDBRANCH   2  16
TORSDOF 5
ENDMDL
MODEL 2
REMARK VINA RESULT: -7.090511238      2.976      4.835
REMARK  5 active torsions:
REMARK  status: ('A' for Active; 'I' for Inactive)
REMARK    1  A    between atoms: C2_2  and  C3_3 
REMARK    2  A    between atoms: C2_2  and  N2_16 
REMARK    3  A    between atoms: C17_19  and  N3_20 
REMARK    4  A    between atoms: C17_19  and  C18_24 
REMARK    5  A    between atoms: C18_24  and  O1_25 
ROOT
HETATM    1  C1  UNL     1      23.236   9.648  19.220  1.00  0.00     0.043 C 
HETATM    2  C2  UNL     1      22.720  10.615  20.226  1.00  0.00     0.223 C 
ENDROOT
BRANCH   2   3
HETATM    3  C3  UNL     1      23.644  11.725  20.586  1.00  0.00     0.018 C 
HETATM    4  C4  UNL     1      22.940  13.037  20.331  1.00  0.00     0.007 C 
HETATM    5  C5  UNL     1      23.473  13.735  19.100  1.00  0.00     0.012 C 
HETATM    6  C6  UNL     1      24.963  13.973  19.187  1.00  0.00    -0.008 C 
HETATM    7  C7  UNL     1      25.635  13.015  20.133  1.00  0.00     0.012 C 
HETATM    8  C9  UNL     1      25.549  13.704  17.801  1.00  0.00     0.042 C 
HETATM    9  C14 UNL     1      25.227  15.414  19.480  1.00  0.00     0.231 C 
HETATM   10  C8  UNL     1      24.982  11.649  19.889  1.00  0.00     0.007 C 
HETATM   11  C10 UNL     1      26.445  14.911  17.614  1.00  0.00     0.273 C 
HETATM   12  N1  UNL     1      25.664  15.989  18.227  1.00  0.00     0.093 N 
HETATM   13  C11 UNL     1      26.563  17.065  18.522  1.00  0.00     0.273 C 
HETATM   14  C12 UNL     1      26.825  17.048  20.007  1.00  0.00     0.032 C 
HETATM   15  C13 UNL     1      26.348  15.663  20.433  1.00  0.00     0.038 C 
ENDBRANCH   2   3
BRANCH   2  16
HETATM   16  N2  UNL     1      22.292   9.998  21.459  1.00  0.00     0.095 N 
HETATM   17  C15 UNL     1      20.876   9.986  21.646  1.00  0.00     0.275 C 
HETATM   18  C16 UNL     1      20.634  10.648  22.984  1.00  0.00     0.073 C 
HETATM   19  C17 UNL     1      21.920  10.255  23.716  1.00  0.00     0.172 C 
HETATM   20  C19 UNL     1      22.948  10.457  22.624  1.00  0.00     0.313 C 
BRANCH  19  21
HETATM   21  N3  UNL     1      21.848   8.903  24.188  1.00  0.00    -0.067 N 
ATOM     22  H33 UNL     1      22.710   8.622  24.655  1.00  0.00     0.275 HD
ATOM     23  H32 UNL     1      21.208   8.812  24.977  1.00  0.00     0.275 HD
ATOM     24  H31 UNL     1      21.605   8.264  23.430  1.00  0.00     0.275 HD
ENDBRANCH  19  21
BRANCH  19  25
HETATM   25  C18 UNL     1      22.245  11.213  24.831  1.00  0.00     0.204 C 
BRANCH  25  26
HETATM   26  O1  UNL     1      23.618  11.221  24.994  1.00  0.00    -0.398 OA
ATOM     27  H1  UNL     1      23.823  10.703  25.764  1.00  0.00     0.209 HD
ENDBRANCH  25  26
ENDBRANCH  19  25
ENDBRANCH   2  16
TORSDOF 5
ENDMDL
MODEL 3
REMARK VINA RESULT: -7.069537621      2.780      4.289
REMARK  5 active torsions:
REMARK  status: ('A' for Active; 'I' for Inactive)
REMARK    1  A    between atoms: C2_2  and  C3_3 
REMARK    2  A    between atoms: C2_2  and  N2_16 
REMARK    3  A    between atoms: C17_19  and  N3_20 
REMARK    4  A    between atoms: C17_19  and  C18_24 
REMARK    5  A    between atoms: C18_24  and  O1_25 
ROOT
HETATM    1  C1  UNL     1      21.969   9.697  20.189  1.00  0.00     0.043 C 
HETATM    2  C2  UNL     1      22.076  11.077  20.734  1.00  0.00     0.223 C 
ENDROOT
BRANCH   2   3
HETATM    3  C3  UNL     1      22.740  12.070  19.846  1.00  0.00     0.018 C 
HETATM    4  C4  UNL     1      24.006  11.455  19.299  1.00  0.00     0.007 C 
HETATM    5  C5  UNL     1      25.243  12.036  19.946  1.00  0.00     0.012 C 
HETATM    6  C6  UNL     1      25.307  13.539  19.791  1.00  0.00    -0.008 C 
HETATM    7  C7  UNL     1      23.948  14.143  19.566  1.00  0.00     0.012 C 
HETATM    8  C9  UNL     1      25.828  14.111  21.109  1.00  0.00     0.042 C 
HETATM    9  C14 UNL     1      26.319  13.896  18.752  1.00  0.00     0.231 C 
HETATM   10  C8  UNL     1      22.992  13.403  20.511  1.00  0.00     0.007 C 
HETATM   11  C10 UNL     1      26.881  15.084  20.619  1.00  0.00     0.273 C 
HETATM   12  N1  UNL     1      27.471  14.374  19.482  1.00  0.00     0.093 N 
HETATM   13  C11 UNL     1      28.145  15.340  18.666  1.00  0.00     0.273 C 
HETATM   14  C12 UNL     1      27.283  15.595  17.454  1.00  0.00     0.032 C 
HETATM   15  C13 UNL     1      25.927  15.027  17.860  1.00  0.00     0.038 C 
ENDBRANCH   2   3
BRANCH   2  16
HETATM   16  N2  UNL     1      22.730  11.146  22.018  1.00  0.00     0.095 N 
HETATM   17  C15 UNL     1      23.252   9.898  22.478  1.00  0.00     0.275 C 
HETATM   18  C16 UNL     1      22.644   9.679  23.845  1.00  0.00     0.073 C 
HETATM   19  C17 UNL     1      22.490  11.130  24.308  1.00  0.00     0.172 C 
HETATM   20  C19 UNL     1      21.990  11.786  23.039  1.00  0.00     0.313 C 
BRANCH  19  21
HETATM   21  N3  UNL     1      23.741  11.657  24.768  1.00  0.00    -0.067 N 
ATOM     22  H33 UNL     1      23.739  12.677  24.775  1.00  0.00     0.275 HD
ATOM     23  H32 UNL     1      23.873  11.496  25.767  1.00  0.00     0.275 HD
ATOM     24  H31 UNL     1      24.517  11.286  24.220  1.00  0.00     0.275 HD
ENDBRANCH  19  21
BRANCH  19  25
HETATM   25  C18 UNL     1      21.412  11.274  25.350  1.00  0.00     0.204 C 
BRANCH  25  26
HETATM   26  O1  UNL     1      21.152  10.018  25.866  1.00  0.00    -0.398 OA
ATOM     27  H1  UNL     1      20.901   9.454  25.144  1.00  0.00     0.209 HD
ENDBRANCH  25  26
ENDBRANCH  19  25
ENDBRANCH   2  16
TORSDOF 5
ENDMDL
MODEL 4
REMARK VINA RESULT: -7.053859764      1.793      2.447
REMARK  5 active torsions:
REMARK  status: ('A' for Active; 'I' for Inactive)
REMARK    1  A    between atoms: C2_2  and  C3_3 
REMARK    2  A    between atoms: C2_2  and  N2_16 
REMARK    3  A    between atoms: C17_19  and  N3_20 
REMARK    4  A    between atoms: C17_19  and  C18_24 
REMARK    5  A    between atoms: C18_24  and  O1_25 
ROOT
HETATM    1  C1  UNL     1      19.377  11.162  25.231  1.00  0.00     0.043 C 
HETATM    2  C2  UNL     1      20.359  12.263  25.044  1.00  0.00     0.223 C 
ENDROOT
BRANCH   2   3
HETATM    3  C3  UNL     1      21.620  11.891  24.346  1.00  0.00     0.018 C 
HETATM    4  C4  UNL     1      21.853  12.872  23.221  1.00  0.00     0.007 C 
HETATM    5  C5  UNL     1      21.575  12.257  21.868  1.00  0.00     0.012 C 
HETATM    6  C6  UNL     1      22.405  11.015  21.632  1.00  0.00    -0.008 C 
HETATM    7  C7  UNL     1      22.850  10.379  22.921  1.00  0.00     0.012 C 
HETATM    8  C9  UNL     1      21.511   9.997  20.926  1.00  0.00     0.042 C 
HETATM    9  C14 UNL     1      23.516  11.325  20.683  1.00  0.00     0.231 C 
HETATM   10  C8  UNL     1      21.648  10.458  23.870  1.00  0.00     0.007 C 
HETATM   11  C10 UNL     1      22.418   9.522  19.810  1.00  0.00     0.273 C 
HETATM   12  N1  UNL     1      23.116  10.750  19.418  1.00  0.00     0.093 N 
HETATM   13  C11 UNL     1      24.300  10.371  18.707  1.00  0.00     0.273 C 
HETATM   14  C12 UNL     1      25.472  10.563  19.637  1.00  0.00     0.032 C 
HETATM   15  C13 UNL     1      24.818  10.673  21.010  1.00  0.00     0.038 C 
ENDBRANCH   2   3
BRANCH   2  16
HETATM   16  N2  UNL     1      20.729  12.927  26.272  1.00  0.00     0.095 N 
HETATM   17  C15 UNL     1      21.917  12.414  26.879  1.00  0.00     0.275 C 
HETATM   18  C16 UNL     1      21.526  12.043  28.292  1.00  0.00     0.073 C 
HETATM   19  C17 UNL     1      20.428  13.077  28.549  1.00  0.00     0.172 C 
HETATM   20  C19 UNL     1      19.694  13.054  27.226  1.00  0.00     0.313 C 
BRANCH  19  21
HETATM   21  N3  UNL     1      20.992  14.357  28.866  1.00  0.00    -0.067 N 
ATOM     22  H33 UNL     1      20.271  15.072  28.963  1.00  0.00     0.275 HD
ATOM     23  H32 UNL     1      21.362  14.380  29.816  1.00  0.00     0.275 HD
ATOM     24  H31 UNL     1      21.697  14.624  28.179  1.00  0.00     0.275 HD
ENDBRANCH  19  21
BRANCH  19  25
HETATM   25  C18 UNL     1      19.464  12.619  29.612  1.00  0.00     0.204 C 
BRANCH  25  26
HETATM   26  O1  UNL     1      19.706  13.364  30.751  1.00  0.00    -0.398 OA
ATOM     27  H1  UNL     1      19.471  14.266  30.564  1.00  0.00     0.209 HD
ENDBRANCH  25  26
ENDBRANCH  19  25
ENDBRANCH   2  16
TORSDOF 5
ENDMDL
MODEL 5
REMARK VINA RESULT: -6.971333188      1.533      1.931
REMARK  5 active torsions:
REMARK  status: ('A' for Active; 'I' for Inactive)
REMARK    1  A    between atoms: C2_2  and  C3_3 
REMARK    2  A    between atoms: C2_2  and  N2_16 
REMARK    3  A    between atoms: C17_19  and  N3_20 
REMARK    4  A    between atoms: C17_19  and  C18_24 
REMARK    5  A    between atoms: C18_24  and  O1_25 
ROOT
HETATM    1  C1  UNL     1      19.622  14.603  24.319  1.00  0.00     0.043 C 
HETATM    2  C2  UNL     1      20.758  13.645  24.264  1.00  0.00     0.223 C 
ENDROOT
BRANCH   2   3
HETATM    3  C3  UNL     1      21.113  13.143  22.908  1.00  0.00     0.018 C 
HETATM    4  C4  UNL     1      21.532  11.697  23.025  1.00  0.00     0.007 C 
HETATM    5  C5  UNL     1      23.027  11.527  22.871  1.00  0.00     0.012 C 
HETATM    6  C6  UNL     1      23.526  12.090  21.559  1.00  0.00    -0.008 C 
HETATM    7  C7  UNL     1      22.601  13.139  21.006  1.00  0.00     0.012 C 
HETATM    8  C9  UNL     1      24.858  12.784  21.840  1.00  0.00     0.042 C 
HETATM    9  C14 UNL     1      23.827  10.974  20.614  1.00  0.00     0.231 C 
HETATM   10  C8  UNL     1      22.151  13.984  22.204  1.00  0.00     0.007 C 
HETATM   11  C10 UNL     1      25.719  12.250  20.713  1.00  0.00     0.273 C 
HETATM   12  N1  UNL     1      25.268  10.860  20.596  1.00  0.00     0.093 N 
HETATM   13  C11 UNL     1      25.661  10.382  19.304  1.00  0.00     0.273 C 
HETATM   14  C12 UNL     1      24.430  10.359  18.432  1.00  0.00     0.032 C 
HETATM   15  C13 UNL     1      23.441  11.233  19.196  1.00  0.00     0.038 C 
ENDBRANCH   2   3
BRANCH   2  16
HETATM   16  N2  UNL     1      20.589  12.492  25.116  1.00  0.00     0.095 N 
HETATM   17  C15 UNL     1      19.252  12.302  25.584  1.00  0.00     0.275 C 
HETATM   18  C16 UNL     1      19.352  12.236  27.091  1.00  0.00     0.073 C 
HETATM   19  C17 UNL     1      20.749  11.626  27.243  1.00  0.00     0.172 C 
HETATM   20  C19 UNL     1      21.512  12.386  26.181  1.00  0.00     0.313 C 
BRANCH  19  21
HETATM   21  N3  UNL     1      20.717  10.210  27.018  1.00  0.00    -0.067 N 
ATOM     22  H33 UNL     1      20.103   9.966  26.243  1.00  0.00     0.275 HD
ATOM     23  H32 UNL     1      21.598   9.871  26.630  1.00  0.00     0.275 HD
ATOM     24  H31 UNL     1      20.464   9.711  27.871  1.00  0.00     0.275 HD
ENDBRANCH  19  21
BRANCH  19  25
HETATM   25  C18 UNL     1      21.365  11.961  28.575  1.00  0.00     0.204 C 
BRANCH  25  26
HETATM   26  O1  UNL     1      22.739  11.911  28.429  1.00  0.00    -0.398 OA
ATOM     27  H1  UNL     1      23.116  12.578  28.991  1.00  0.00     0.209 HD
ENDBRANCH  25  26
ENDBRANCH  19  25
ENDBRANCH   2  16
TORSDOF 5
ENDMDL
