MODEL 1
REMARK VINA RESULT: -7.438476502      0.000      0.000
REMARK  3 active torsions:
REMARK  status: ('A' for Active; 'I' for Inactive)
REMARK    1  A    between atoms: C3_4  and  N2_5 
REMARK       I    between atoms: N2_5  and  C4_7 
REMARK       I    between atoms: C4_7  and  N3_9 
REMARK    2  A    between atoms: C8_13  and  C9_14 
REMARK       I    between atoms: C9_14  and  N4_16 
REMARK    3  A    between atoms: N4_16  and  C10_18 
ROOT
HETATM    1  N2  UNL     1      27.675  10.712  20.453  1.00  0.00    -0.306 N 
ATOM      2  H2  UNL     1      27.438  10.032  19.731  1.00  0.00     0.171 HD
HETATM    3  C4  UNL     1      26.900  11.888  20.475  1.00  0.00     0.323 C 
HETATM    4  O1  UNL     1      27.171  12.758  21.364  1.00  0.00    -0.247 OA
HETATM    5  N3  UNL     1      25.838  12.131  19.550  1.00  0.00    -0.320 N 
HETATM    6  C5  UNL     1      25.432  11.242  18.510  1.00  0.00     0.129 C 
HETATM    7  C6  UNL     1      24.746  12.118  17.510  1.00  0.00     0.022 C 
HETATM    8  C7  UNL     1      24.805  13.527  18.045  1.00  0.00     0.037 C 
HETATM    9  C8  UNL     1      25.021  13.298  19.523  1.00  0.00     0.181 C 
ENDROOT
BRANCH   9  10
HETATM   10  C9  UNL     1      23.690  13.131  20.171  1.00  0.00     0.241 C 
HETATM   11  O2  UNL     1      22.777  13.999  19.951  1.00  0.00    -0.271 OA
HETATM   12  N4  UNL     1      23.341  12.062  21.035  1.00  0.00    -0.355 N 
ATOM     13  H4  UNL     1      24.040  11.348  21.241  1.00  0.00     0.162 HD
BRANCH  12  14
HETATM   14  C10 UNL     1      22.020  11.946  21.640  1.00  0.00     0.084 C 
HETATM   15  C11 UNL     1      22.010  12.631  22.958  1.00  0.00     0.025 C 
HETATM   16  C12 UNL     1      21.378  11.885  24.077  1.00  0.00     0.002 C 
HETATM   17  C13 UNL     1      20.068  11.304  23.523  1.00  0.00     0.000 C 
HETATM   18  C14 UNL     1      20.501  10.186  22.622  1.00  0.00     0.002 C 
HETATM   19  C15 UNL     1      21.550  10.528  21.645  1.00  0.00     0.025 C 
ENDBRANCH  12  14
ENDBRANCH   9  10
BRANCH   1  20
HETATM   20  C3  UNL     1      28.735  10.364  21.304  1.00  0.00     0.070 A 
HETATM   21  C2  UNL     1      28.892   9.287  22.141  1.00  0.00     0.140 A 
HETATM   22  N1  UNL     1      30.079   9.402  22.744  1.00  0.00    -0.306 N 
HETATM   23  C1  UNL     1      30.603   8.430  23.719  1.00  0.00     0.177 C 
HETATM   24  N5  UNL     1      30.661  10.499  22.322  1.00  0.00    -0.308 N 
HETATM   25  C16 UNL     1      29.887  11.131  21.438  1.00  0.00     0.138 A 
ATOM     26  H5  UNL     1      31.579  10.823  22.626  1.00  0.00     0.186 HD
ENDBRANCH   1  20
TORSDOF 3
ENDMDL
MODEL 2
REMARK VINA RESULT: -7.076453483      2.308      7.066
REMARK  3 active torsions:
REMARK  status: ('A' for Active; 'I' for Inactive)
REMARK    1  A    between atoms: C3_4  and  N2_5 
REMARK       I    between atoms: N2_5  and  C4_7 
REMARK       I    between atoms: C4_7  and  N3_9 
REMARK    2  A    between atoms: C8_13  and  C9_14 
REMARK       I    between atoms: C9_14  and  N4_16 
REMARK    3  A    between atoms: N4_16  and  C10_18 
ROOT
HETATM    1  N2  UNL     1      21.658  12.379  22.356  1.00  0.00    -0.306 N 
ATOM      2  H2  UNL     1      21.768  13.388  22.454  1.00  0.00     0.171 HD
HETATM    3  C4  UNL     1      22.247  11.799  21.217  1.00  0.00     0.323 C 
HETATM    4  O1  UNL     1      22.126  10.540  21.065  1.00  0.00    -0.247 OA
HETATM    5  N3  UNL     1      22.963  12.561  20.244  1.00  0.00    -0.320 N 
HETATM    6  C5  UNL     1      23.171  13.972  20.293  1.00  0.00     0.129 C 
HETATM    7  C6  UNL     1      23.425  14.367  18.873  1.00  0.00     0.022 C 
HETATM    8  C7  UNL     1      23.336  13.111  18.044  1.00  0.00     0.037 C 
HETATM    9  C8  UNL     1      23.578  12.031  19.073  1.00  0.00     0.181 C 
ENDROOT
BRANCH   9  10
HETATM   10  C9  UNL     1      25.048  11.820  19.194  1.00  0.00     0.241 C 
HETATM   11  O2  UNL     1      25.782  11.937  18.153  1.00  0.00    -0.271 OA
HETATM   12  N4  UNL     1      25.720  11.492  20.400  1.00  0.00    -0.355 N 
ATOM     13  H4  UNL     1      25.173  11.387  21.254  1.00  0.00     0.162 HD
BRANCH  12  14
HETATM   14  C10 UNL     1      27.163  11.299  20.462  1.00  0.00     0.084 C 
HETATM   15  C11 UNL     1      27.478   9.849  20.414  1.00  0.00     0.025 C 
HETATM   16  C12 UNL     1      28.479   9.365  21.399  1.00  0.00     0.002 C 
HETATM   17  C13 UNL     1      29.629  10.384  21.384  1.00  0.00     0.000 C 
HETATM   18  C14 UNL     1      29.076  11.591  22.083  1.00  0.00     0.002 C 
HETATM   19  C15 UNL     1      27.761  12.054  21.605  1.00  0.00     0.025 C 
ENDBRANCH  12  14
ENDBRANCH   9  10
BRANCH   1  20
HETATM   20  C3  UNL     1      20.937  11.737  23.374  1.00  0.00     0.070 A 
HETATM   21  C2  UNL     1      19.614  11.835  23.732  1.00  0.00     0.140 A 
HETATM   22  N1  UNL     1      19.405  11.021  24.770  1.00  0.00    -0.306 N 
HETATM   23  C1  UNL     1      18.100  10.855  25.434  1.00  0.00     0.177 C 
HETATM   24  N5  UNL     1      20.534  10.426  25.073  1.00  0.00    -0.308 N 
HETATM   25  C16 UNL     1      21.509  10.824  24.254  1.00  0.00     0.138 A 
ATOM     26  H5  UNL     1      20.650   9.753  25.831  1.00  0.00     0.186 HD
ENDBRANCH   1  20
TORSDOF 3
ENDMDL
MODEL 3
REMARK VINA RESULT: -7.057051295      2.959      7.068
REMARK  3 active torsions:
REMARK  status: ('A' for Active; 'I' for Inactive)
REMARK    1  A    between atoms: C3_4  and  N2_5 
REMARK       I    between atoms: N2_5  and  C4_7 
REMARK       I    between atoms: C4_7  and  N3_9 
REMARK    2  A    between atoms: C8_13  and  C9_14 
REMARK       I    between atoms: C9_14  and  N4_16 
REMARK    3  A    between atoms: N4_16  and  C10_18 
ROOT
HETATM    1  N2  UNL     1      22.015  11.578  23.486  1.00  0.00    -0.306 N 
ATOM      2  H2  UNL     1      21.607  12.326  22.927  1.00  0.00     0.171 HD
HETATM    3  C4  UNL     1      22.742  10.602  22.779  1.00  0.00     0.323 C 
HETATM    4  O1  UNL     1      23.264   9.652  23.449  1.00  0.00    -0.247 OA
HETATM    5  N3  UNL     1      22.912  10.641  21.361  1.00  0.00    -0.320 N 
HETATM    6  C5  UNL     1      22.383  11.644  20.495  1.00  0.00     0.129 C 
HETATM    7  C6  UNL     1      22.311  10.988  19.153  1.00  0.00     0.022 C 
HETATM    8  C7  UNL     1      22.816   9.578  19.326  1.00  0.00     0.037 C 
HETATM    9  C8  UNL     1      23.635   9.684  20.592  1.00  0.00     0.181 C 
ENDROOT
BRANCH   9  10
HETATM   10  C9  UNL     1      25.015  10.108  20.223  1.00  0.00     0.241 C 
HETATM   11  O2  UNL     1      25.352  10.125  18.989  1.00  0.00    -0.271 OA
HETATM   12  N4  UNL     1      26.012  10.506  21.150  1.00  0.00    -0.355 N 
ATOM     13  H4  UNL     1      25.787  10.505  22.145  1.00  0.00     0.162 HD
BRANCH  12  14
HETATM   14  C10 UNL     1      27.347  10.915  20.733  1.00  0.00     0.084 C 
HETATM   15  C11 UNL     1      28.328   9.856  21.081  1.00  0.00     0.025 C 
HETATM   16  C12 UNL     1      29.586  10.316  21.725  1.00  0.00     0.002 C 
HETATM   17  C13 UNL     1      30.056  11.542  20.928  1.00  0.00     0.000 C 
HETATM   18  C14 UNL     1      29.102  12.634  21.314  1.00  0.00     0.002 C 
HETATM   19  C15 UNL     1      27.672  12.286  21.230  1.00  0.00     0.025 C 
ENDBRANCH  12  14
ENDBRANCH   9  10
BRANCH   1  20
HETATM   20  C3  UNL     1      21.783  11.645  24.868  1.00  0.00     0.070 A 
HETATM   21  C2  UNL     1      22.279  12.505  25.818  1.00  0.00     0.140 A 
HETATM   22  N1  UNL     1      21.758  12.161  27.000  1.00  0.00    -0.306 N 
HETATM   23  C1  UNL     1      22.058  12.857  28.263  1.00  0.00     0.177 C 
HETATM   24  N5  UNL     1      20.966  11.130  26.826  1.00  0.00    -0.308 N 
HETATM   25  C16 UNL     1      20.940  10.768  25.543  1.00  0.00     0.138 A 
ATOM     26  H5  UNL     1      20.442  10.670  27.571  1.00  0.00     0.186 HD
ENDBRANCH   1  20
TORSDOF 3
ENDMDL
MODEL 4
REMARK VINA RESULT: -6.829403687      3.807      4.564
REMARK  3 active torsions:
REMARK  status: ('A' for Active; 'I' for Inactive)
REMARK    1  A    between atoms: C3_4  and  N2_5 
REMARK       I    between atoms: N2_5  and  C4_7 
REMARK       I    between atoms: C4_7  and  N3_9 
REMARK    2  A    between atoms: C8_13  and  C9_14 
REMARK       I    between atoms: C9_14  and  N4_16 
REMARK    3  A    between atoms: N4_16  and  C10_18 
ROOT
HETATM    1  N2  UNL     1      27.451  14.900  22.415  1.00  0.00    -0.306 N 
ATOM      2  H2  UNL     1      28.247  14.500  21.919  1.00  0.00     0.171 HD
HETATM    3  C4  UNL     1      26.336  15.240  21.624  1.00  0.00     0.323 C 
HETATM    4  O1  UNL     1      25.325  15.742  22.214  1.00  0.00    -0.247 OA
HETATM    5  N3  UNL     1      26.302  15.043  20.210  1.00  0.00    -0.320 N 
HETATM    6  C5  UNL     1      27.362  14.493  19.429  1.00  0.00     0.129 C 
HETATM    7  C6  UNL     1      27.120  15.006  18.045  1.00  0.00     0.022 C 
HETATM    8  C7  UNL     1      25.885  15.870  18.107  1.00  0.00     0.037 C 
HETATM    9  C8  UNL     1      25.206  15.368  19.360  1.00  0.00     0.181 C 
ENDROOT
BRANCH   9  10
HETATM   10  C9  UNL     1      24.347  14.206  18.995  1.00  0.00     0.241 C 
HETATM   11  O2  UNL     1      23.756  14.201  17.861  1.00  0.00    -0.271 OA
HETATM   12  N4  UNL     1      24.125  13.075  19.821  1.00  0.00    -0.355 N 
ATOM     13  H4  UNL     1      24.576  13.038  20.735  1.00  0.00     0.162 HD
BRANCH  12  14
HETATM   14  C10 UNL     1      23.277  11.964  19.412  1.00  0.00     0.084 C 
HETATM   15  C11 UNL     1      22.334  11.622  20.507  1.00  0.00     0.025 C 
HETATM   16  C12 UNL     1      22.192  10.176  20.821  1.00  0.00     0.002 C 
HETATM   17  C13 UNL     1      22.070   9.452  19.471  1.00  0.00     0.000 C 
HETATM   18  C14 UNL     1      23.451   9.501  18.888  1.00  0.00     0.002 C 
HETATM   19  C15 UNL     1      24.091  10.828  18.882  1.00  0.00     0.025 C 
ENDBRANCH  12  14
ENDBRANCH   9  10
BRANCH   1  20
HETATM   20  C3  UNL     1      27.598  15.044  23.802  1.00  0.00     0.070 A 
HETATM   21  C2  UNL     1      28.245  16.008  24.538  1.00  0.00     0.140 A 
HETATM   22  N1  UNL     1      28.103  15.705  25.831  1.00  0.00    -0.306 N 
HETATM   23  C1  UNL     1      28.663  16.511  26.930  1.00  0.00     0.177 C 
HETATM   24  N5  UNL     1      27.403  14.601  25.931  1.00  0.00    -0.308 N 
HETATM   25  C16 UNL     1      27.064  14.148  24.723  1.00  0.00     0.138 A 
ATOM     26  H5  UNL     1      27.151  14.151  26.811  1.00  0.00     0.186 HD
ENDBRANCH   1  20
TORSDOF 3
ENDMDL
MODEL 5
REMARK VINA RESULT: -6.819579530      3.932      7.912
REMARK  3 active torsions:
REMARK  status: ('A' for Active; 'I' for Inactive)
REMARK    1  A    between atoms: C3_4  and  N2_5 
REMARK       I    between atoms: N2_5  and  C4_7 
REMARK       I    between atoms: C4_7  and  N3_9 
REMARK    2  A    between atoms: C8_13  and  C9_14 
REMARK       I    between atoms: C9_14  and  N4_16 
REMARK    3  A    between atoms: N4_16  and  C10_18 
ROOT
HETATM    1  N2  UNL     1      20.780  12.521  25.878  1.00  0.00    -0.306 N 
ATOM      2  H2  UNL     1      19.922  12.410  25.338  1.00  0.00     0.171 HD
HETATM    3  C4  UNL     1      21.975  12.180  25.217  1.00  0.00     0.323 C 
HETATM    4  O1  UNL     1      23.065  12.308  25.864  1.00  0.00    -0.247 OA
HETATM    5  N3  UNL     1      22.006  11.707  23.869  1.00  0.00    -0.320 N 
HETATM    6  C5  UNL     1      20.864  11.520  23.036  1.00  0.00     0.129 C 
HETATM    7  C6  UNL     1      21.300  10.519  22.013  1.00  0.00     0.022 C 
HETATM    8  C7  UNL     1      22.730  10.161  22.331  1.00  0.00     0.037 C 
HETATM    9  C8  UNL     1      23.182  11.348  23.150  1.00  0.00     0.181 C 
ENDROOT
BRANCH   9  10
HETATM   10  C9  UNL     1      23.678  12.399  22.218  1.00  0.00     0.241 C 
HETATM   11  O2  UNL     1      23.696  13.618  22.606  1.00  0.00    -0.271 OA
HETATM   12  N4  UNL     1      24.144  12.155  20.900  1.00  0.00    -0.355 N 
ATOM     13  H4  UNL     1      24.145  11.198  20.549  1.00  0.00     0.162 HD
BRANCH  12  14
HETATM   14  C10 UNL     1      24.621  13.222  20.031  1.00  0.00     0.084 C 
HETATM   15  C11 UNL     1      23.513  13.697  19.164  1.00  0.00     0.025 C 
HETATM   16  C12 UNL     1      23.839  13.877  17.725  1.00  0.00     0.002 C 
HETATM   17  C13 UNL     1      25.193  14.601  17.677  1.00  0.00     0.000 C 
HETATM   18  C14 UNL     1      26.195  13.562  18.087  1.00  0.00     0.002 C 
HETATM   19  C15 UNL     1      25.872  12.821  19.319  1.00  0.00     0.025 C 
ENDBRANCH  12  14
ENDBRANCH   9  10
BRANCH   1  20
HETATM   20  C3  UNL     1      20.626  12.994  27.189  1.00  0.00     0.070 A 
HETATM   21  C2  UNL     1      20.398  12.318  28.363  1.00  0.00     0.140 A 
HETATM   22  N1  UNL     1      20.326  13.216  29.350  1.00  0.00    -0.306 N 
HETATM   23  C1  UNL     1      20.089  12.868  30.762  1.00  0.00     0.177 C 
HETATM   24  N5  UNL     1      20.496  14.414  28.843  1.00  0.00    -0.308 N 
HETATM   25  C16 UNL     1      20.684  14.343  27.524  1.00  0.00     0.138 A 
ATOM     26  H5  UNL     1      20.486  15.279  29.383  1.00  0.00     0.186 HD
ENDBRANCH   1  20
TORSDOF 3
ENDMDL
