MODEL 1
REMARK VINA RESULT: -7.491502611      0.000      0.000
REMARK  9 active torsions:
REMARK  status: ('A' for Active; 'I' for Inactive)
REMARK    1  A    between atoms: C2_2  and  C3_3 
REMARK    2  A    between atoms: C3_3  and  C4_4 
REMARK    3  A    between atoms: C5_5  and  N1_6 
REMARK    4  A    between atoms: N1_6  and  C6_9 
REMARK    5  A    between atoms: C6_9  and  O1_10 
REMARK    6  A    between atoms: C6_9  and  C7_12 
REMARK    7  A    between atoms: C15_21  and  O3_22 
REMARK    8  A    between atoms: C18_26  and  O4_28 
REMARK    9  A    between atoms: C23_33  and  O5_34 
ROOT
HETATM    1  C4  UNL     1       0.804  10.326  30.447  1.00  0.00     0.052 C 
HETATM    2  C5  UNL     1       0.295  11.011  31.695  1.00  0.00     0.226 C 
HETATM    3  C13 UNL     1       0.182  12.416  31.324  1.00  0.00     0.170 C 
HETATM    4  O2  UNL     1       0.604  13.424  32.099  1.00  0.00    -0.379 OA
HETATM    5  C14 UNL     1       0.717  14.519  31.200  1.00  0.00     0.209 C 
HETATM    6  C15 UNL     1       0.812  13.936  29.804  1.00  0.00     0.113 C 
HETATM    7  C17 UNL     1       1.847  14.662  28.997  1.00  0.00     0.133 C 
HETATM    8 BR1  UNL     1       1.964  16.473  29.718  1.00  0.00    -0.084 Br
HETATM    9  C18 UNL     1       3.197  14.046  28.962  1.00  0.00     0.088 C 
HETATM   10  C19 UNL     1       4.306  15.087  28.868  1.00  0.00     0.051 C 
HETATM   11  C20 UNL     1       3.534  13.146  30.076  1.00  0.00     0.008 C 
HETATM   12  C21 UNL     1       2.583  12.429  30.654  1.00  0.00    -0.010 C 
HETATM   13  C22 UNL     1       1.214  12.543  30.175  1.00  0.00     0.066 C 
HETATM   14  C23 UNL     1       0.762  11.409  29.352  1.00  0.00     0.142 C 
ENDROOT
BRANCH   2  15
HETATM   15  N1  UNL     1      -1.084  10.529  31.897  1.00  0.00    -0.037 N 
ATOM     16  H12 UNL     1      -1.770  11.168  31.494  1.00  0.00     0.281 HD
ATOM     17  H11 UNL     1      -1.283   9.709  31.325  1.00  0.00     0.281 HD
BRANCH  15  18
HETATM   18  C6  UNL     1      -1.344  10.279  33.298  1.00  0.00     0.353 C 
BRANCH  18  19
HETATM   19  O1  UNL     1      -1.177   8.913  33.515  1.00  0.00    -0.366 OA
ATOM     20  H1  UNL     1      -0.458   8.808  34.128  1.00  0.00     0.212 HD
ENDBRANCH  18  19
BRANCH  18  21
HETATM   21  C7  UNL     1      -2.740  10.671  33.614  1.00  0.00    -0.003 A 
HETATM   22  C8  UNL     1      -3.033  11.146  34.892  1.00  0.00     0.011 A 
HETATM   23  C9  UNL     1      -4.300  11.526  35.252  1.00  0.00     0.001 A 
HETATM   24  C10 UNL     1      -5.339  11.454  34.358  1.00  0.00     0.000 A 
HETATM   25  C11 UNL     1      -5.071  10.986  33.082  1.00  0.00     0.001 A 
HETATM   26  C12 UNL     1      -3.785  10.602  32.727  1.00  0.00     0.011 A 
ENDBRANCH  18  21
ENDBRANCH  15  18
ENDBRANCH   2  15
BRANCH   1  27
HETATM   27  C3  UNL     1       0.170   9.057  30.077  1.00  0.00     0.035 C 
BRANCH  27  28
HETATM   28  C2  UNL     1       1.085   8.249  29.211  1.00  0.00    -0.036 C 
HETATM   29  C1  UNL     1       2.396   8.237  29.410  1.00  0.00     0.007 C 
ENDBRANCH  27  28
ENDBRANCH   1  27
BRANCH  14  30
HETATM   30  O5  UNL     1      -0.541  11.498  28.943  1.00  0.00    -0.394 OA
ATOM     31  H5  UNL     1      -0.702  12.414  28.749  1.00  0.00     0.210 HD
ENDBRANCH  14  30
BRANCH   6  32
HETATM   32  O3  UNL     1      -0.417  13.886  29.217  1.00  0.00    -0.380 OA
HETATM   33  C16 UNL     1      -1.139  15.041  29.139  1.00  0.00     0.202 C 
ENDBRANCH   6  32
BRANCH   9  34
HETATM   34  O4  UNL     1       3.325  13.273  27.783  1.00  0.00    -0.385 OA
ATOM     35  H4  UNL     1       3.686  12.423  28.005  1.00  0.00     0.211 HD
ENDBRANCH   9  34
TORSDOF 9
ENDMDL
MODEL 2
REMARK VINA RESULT: -7.459421710      0.930      1.295
REMARK  9 active torsions:
REMARK  status: ('A' for Active; 'I' for Inactive)
REMARK    1  A    between atoms: C2_2  and  C3_3 
REMARK    2  A    between atoms: C3_3  and  C4_4 
REMARK    3  A    between atoms: C5_5  and  N1_6 
REMARK    4  A    between atoms: N1_6  and  C6_9 
REMARK    5  A    between atoms: C6_9  and  O1_10 
REMARK    6  A    between atoms: C6_9  and  C7_12 
REMARK    7  A    between atoms: C15_21  and  O3_22 
REMARK    8  A    between atoms: C18_26  and  O4_28 
REMARK    9  A    between atoms: C23_33  and  O5_34 
ROOT
HETATM    1  C4  UNL     1       1.439  10.693  30.245  1.00  0.00     0.052 C 
HETATM    2  C5  UNL     1       1.063  11.341  31.559  1.00  0.00     0.226 C 
HETATM    3  C13 UNL     1       0.774  12.727  31.218  1.00  0.00     0.170 C 
HETATM    4  O2  UNL     1       1.216  13.773  31.927  1.00  0.00    -0.379 OA
HETATM    5  C14 UNL     1       1.097  14.868  31.029  1.00  0.00     0.209 C 
HETATM    6  C15 UNL     1       1.034  14.286  29.630  1.00  0.00     0.113 C 
HETATM    7  C17 UNL     1       1.870  15.094  28.683  1.00  0.00     0.133 C 
HETATM    8 BR1  UNL     1       1.933  16.913  29.390  1.00  0.00    -0.084 Br
HETATM    9  C18 UNL     1       3.248  14.599  28.443  1.00  0.00     0.088 C 
HETATM   10  C19 UNL     1       4.235  15.733  28.192  1.00  0.00     0.051 C 
HETATM   11  C20 UNL     1       3.825  13.739  29.489  1.00  0.00     0.008 C 
HETATM   12  C21 UNL     1       3.038  12.946  30.198  1.00  0.00    -0.010 C 
HETATM   13  C22 UNL     1       1.607  12.937  29.929  1.00  0.00     0.066 C 
HETATM   14  C23 UNL     1       1.140  11.761  29.175  1.00  0.00     0.142 C 
ENDROOT
BRANCH   2  15
HETATM   15  N1  UNL     1      -0.223  10.740  31.961  1.00  0.00    -0.037 N 
ATOM     16  H12 UNL     1      -0.823  10.559  31.156  1.00  0.00     0.281 HD
ATOM     17  H11 UNL     1      -0.106   9.781  32.285  1.00  0.00     0.281 HD
BRANCH  15  18
HETATM   18  C6  UNL     1      -0.888  11.560  32.949  1.00  0.00     0.353 C 
BRANCH  18  19
HETATM   19  O1  UNL     1      -0.378  11.206  34.197  1.00  0.00    -0.366 OA
ATOM     20  H1  UNL     1      -1.097  11.237  34.818  1.00  0.00     0.212 HD
ENDBRANCH  18  19
BRANCH  18  21
HETATM   21  C7  UNL     1      -2.347  11.289  32.909  1.00  0.00    -0.003 A 
HETATM   22  C8  UNL     1      -2.843  10.418  31.939  1.00  0.00     0.011 A 
HETATM   23  C9  UNL     1      -4.179  10.123  31.846  1.00  0.00     0.001 A 
HETATM   24  C10 UNL     1      -5.087  10.676  32.714  1.00  0.00     0.000 A 
HETATM   25  C11 UNL     1      -4.617  11.543  33.686  1.00  0.00     0.001 A 
HETATM   26  C12 UNL     1      -3.263  11.837  33.773  1.00  0.00     0.011 A 
ENDBRANCH  18  21
ENDBRANCH  15  18
ENDBRANCH   2  15
BRANCH   1  27
HETATM   27  C3  UNL     1       0.871   9.372  29.965  1.00  0.00     0.035 C 
BRANCH  27  28
HETATM   28  C2  UNL     1       1.915   8.464  29.395  1.00  0.00    -0.036 C 
HETATM   29  C1  UNL     1       3.207   8.680  29.601  1.00  0.00     0.007 C 
ENDBRANCH  27  28
ENDBRANCH   1  27
BRANCH  14  30
HETATM   30  O5  UNL     1      -0.213  11.732  28.965  1.00  0.00    -0.394 OA
ATOM     31  H5  UNL     1      -0.592  12.370  29.558  1.00  0.00     0.210 HD
ENDBRANCH  14  30
BRANCH   6  32
HETATM   32  O3  UNL     1      -0.260  14.124  29.233  1.00  0.00    -0.380 OA
HETATM   33  C16 UNL     1      -1.118  15.171  29.399  1.00  0.00     0.202 C 
ENDBRANCH   6  32
BRANCH   9  34
HETATM   34  O4  UNL     1       3.267  13.832  27.253  1.00  0.00    -0.385 OA
ATOM     35  H4  UNL     1       4.151  13.525  27.094  1.00  0.00     0.211 HD
ENDBRANCH   9  34
TORSDOF 9
ENDMDL
MODEL 3
REMARK VINA RESULT: -7.406459586      8.681     11.163
REMARK  9 active torsions:
REMARK  status: ('A' for Active; 'I' for Inactive)
REMARK    1  A    between atoms: C2_2  and  C3_3 
REMARK    2  A    between atoms: C3_3  and  C4_4 
REMARK    3  A    between atoms: C5_5  and  N1_6 
REMARK    4  A    between atoms: N1_6  and  C6_9 
REMARK    5  A    between atoms: C6_9  and  O1_10 
REMARK    6  A    between atoms: C6_9  and  C7_12 
REMARK    7  A    between atoms: C15_21  and  O3_22 
REMARK    8  A    between atoms: C18_26  and  O4_28 
REMARK    9  A    between atoms: C23_33  and  O5_34 
ROOT
HETATM    1  C4  UNL     1     -10.612  16.952  30.569  1.00  0.00     0.052 C 
HETATM    2  C5  UNL     1     -10.384  16.493  31.992  1.00  0.00     0.226 C 
HETATM    3  C13 UNL     1      -9.242  17.271  32.452  1.00  0.00     0.170 C 
HETATM    4  O2  UNL     1      -8.214  16.748  33.133  1.00  0.00    -0.379 OA
HETATM    5  C14 UNL     1      -7.178  17.708  32.976  1.00  0.00     0.209 C 
HETATM    6  C15 UNL     1      -7.533  18.547  31.764  1.00  0.00     0.113 C 
HETATM    7  C17 UNL     1      -6.317  18.802  30.924  1.00  0.00     0.133 C 
HETATM    8 BR1  UNL     1      -4.775  18.738  32.120  1.00  0.00    -0.084 Br
HETATM    9  C18 UNL     1      -6.107  17.879  29.781  1.00  0.00     0.088 C 
HETATM   10  C19 UNL     1      -4.630  17.643  29.492  1.00  0.00     0.051 C 
HETATM   11  C20 UNL     1      -6.750  16.558  29.881  1.00  0.00     0.008 C 
HETATM   12  C21 UNL     1      -7.899  16.433  30.526  1.00  0.00    -0.010 C 
HETATM   13  C22 UNL     1      -8.510  17.609  31.128  1.00  0.00     0.066 C 
HETATM   14  C23 UNL     1      -9.658  18.147  30.378  1.00  0.00     0.142 C 
ENDROOT
BRANCH   2  15
HETATM   15  N1  UNL     1     -11.544  16.970  32.769  1.00  0.00    -0.037 N 
ATOM     16  H12 UNL     1     -11.255  17.441  33.627  1.00  0.00     0.281 HD
ATOM     17  H11 UNL     1     -12.007  17.754  32.311  1.00  0.00     0.281 HD
BRANCH  15  18
HETATM   18  C6  UNL     1     -12.465  15.887  33.038  1.00  0.00     0.353 C 
BRANCH  18  19
HETATM   19  O1  UNL     1     -13.749  16.429  33.062  1.00  0.00    -0.366 OA
ATOM     20  H1  UNL     1     -14.335  15.789  32.674  1.00  0.00     0.212 HD
ENDBRANCH  18  19
BRANCH  18  21
HETATM   21  C7  UNL     1     -12.147  15.291  34.359  1.00  0.00    -0.003 A 
HETATM   22  C8  UNL     1     -12.622  14.012  34.652  1.00  0.00     0.011 A 
HETATM   23  C9  UNL     1     -12.365  13.401  35.852  1.00  0.00     0.001 A 
HETATM   24  C10 UNL     1     -11.622  14.030  36.820  1.00  0.00     0.000 A 
HETATM   25  C11 UNL     1     -11.140  15.300  36.550  1.00  0.00     0.001 A 
HETATM   26  C12 UNL     1     -11.406  15.912  35.333  1.00  0.00     0.011 A 
ENDBRANCH  18  21
ENDBRANCH  15  18
ENDBRANCH   2  15
BRANCH   1  27
HETATM   27  C3  UNL     1     -11.997  17.206  30.164  1.00  0.00     0.035 C 
BRANCH  27  28
HETATM   28  C2  UNL     1     -12.425  16.222  29.120  1.00  0.00    -0.036 C 
HETATM   29  C1  UNL     1     -11.538  15.529  28.418  1.00  0.00     0.007 C 
ENDBRANCH  27  28
ENDBRANCH   1  27
BRANCH  14  30
HETATM   30  O5  UNL     1     -10.259  19.224  30.972  1.00  0.00    -0.394 OA
ATOM     31  H5  UNL     1     -10.040  19.982  30.443  1.00  0.00     0.210 HD
ENDBRANCH  14  30
BRANCH   6  32
HETATM   32  O3  UNL     1      -8.200  19.675  32.136  1.00  0.00    -0.380 OA
HETATM   33  C16 UNL     1      -7.466  20.773  32.478  1.00  0.00     0.202 C 
ENDBRANCH   6  32
BRANCH   9  34
HETATM   34  O4  UNL     1      -6.617  18.473  28.602  1.00  0.00    -0.385 OA
ATOM     35  H4  UNL     1      -5.944  19.017  28.211  1.00  0.00     0.211 HD
ENDBRANCH   9  34
TORSDOF 9
ENDMDL
MODEL 4
REMARK VINA RESULT: -7.337816871      1.959      3.068
REMARK  9 active torsions:
REMARK  status: ('A' for Active; 'I' for Inactive)
REMARK    1  A    between atoms: C2_2  and  C3_3 
REMARK    2  A    between atoms: C3_3  and  C4_4 
REMARK    3  A    between atoms: C5_5  and  N1_6 
REMARK    4  A    between atoms: N1_6  and  C6_9 
REMARK    5  A    between atoms: C6_9  and  O1_10 
REMARK    6  A    between atoms: C6_9  and  C7_12 
REMARK    7  A    between atoms: C15_21  and  O3_22 
REMARK    8  A    between atoms: C18_26  and  O4_28 
REMARK    9  A    between atoms: C23_33  and  O5_34 
ROOT
HETATM    1  C4  UNL     1       1.461  12.523  32.644  1.00  0.00     0.052 C 
HETATM    2  C5  UNL     1      -0.025  12.417  32.383  1.00  0.00     0.226 C 
HETATM    3  C13 UNL     1      -0.155  12.545  30.937  1.00  0.00     0.170 C 
HETATM    4  O2  UNL     1      -1.076  13.313  30.341  1.00  0.00    -0.379 OA
HETATM    5  C14 UNL     1      -0.569  13.492  29.025  1.00  0.00     0.209 C 
HETATM    6  C15 UNL     1       0.917  13.195  29.080  1.00  0.00     0.113 C 
HETATM    7  C17 UNL     1       1.685  14.195  28.269  1.00  0.00     0.133 C 
HETATM    8 BR1  UNL     1       0.485  14.835  26.868  1.00  0.00    -0.084 Br
HETATM    9  C18 UNL     1       2.248  15.348  29.015  1.00  0.00     0.088 C 
HETATM   10  C19 UNL     1       2.283  16.619  28.175  1.00  0.00     0.051 C 
HETATM   11  C20 UNL     1       1.595  15.683  30.290  1.00  0.00     0.008 C 
HETATM   12  C21 UNL     1       1.054  14.724  31.024  1.00  0.00    -0.010 C 
HETATM   13  C22 UNL     1       1.115  13.347  30.556  1.00  0.00     0.066 C 
HETATM   14  C23 UNL     1       2.113  12.514  31.248  1.00  0.00     0.142 C 
ENDROOT
BRANCH   2  15
HETATM   15  N1  UNL     1      -0.402  11.028  32.706  1.00  0.00    -0.037 N 
ATOM     16  H12 UNL     1      -0.568  10.476  31.864  1.00  0.00     0.281 HD
ATOM     17  H11 UNL     1       0.386  10.502  33.082  1.00  0.00     0.281 HD
BRANCH  15  18
HETATM   18  C6  UNL     1      -1.540  10.997  33.599  1.00  0.00     0.353 C 
BRANCH  18  19
HETATM   19  O1  UNL     1      -1.280  10.033  34.571  1.00  0.00    -0.366 OA
ATOM     20  H1  UNL     1      -0.364  10.110  34.810  1.00  0.00     0.212 HD
ENDBRANCH  18  19
BRANCH  18  21
HETATM   21  C7  UNL     1      -2.753  10.622  32.832  1.00  0.00    -0.003 A 
HETATM   22  C8  UNL     1      -3.996  11.078  33.272  1.00  0.00     0.011 A 
HETATM   23  C9  UNL     1      -5.157  10.770  32.611  1.00  0.00     0.001 A 
HETATM   24  C10 UNL     1      -5.140   9.995  31.478  1.00  0.00     0.000 A 
HETATM   25  C11 UNL     1      -3.918   9.532  31.022  1.00  0.00     0.001 A 
HETATM   26  C12 UNL     1      -2.747   9.848  31.699  1.00  0.00     0.011 A 
ENDBRANCH  18  21
ENDBRANCH  15  18
ENDBRANCH   2  15
BRANCH   1  27
HETATM   27  C3  UNL     1       2.041  11.570  33.595  1.00  0.00     0.035 C 
BRANCH  27  28
HETATM   28  C2  UNL     1       2.083  12.163  34.969  1.00  0.00    -0.036 C 
HETATM   29  C1  UNL     1       1.464  11.587  35.991  1.00  0.00     0.007 C 
ENDBRANCH  27  28
ENDBRANCH   1  27
BRANCH  14  30
HETATM   30  O5  UNL     1       2.135  11.209  30.837  1.00  0.00    -0.394 OA
ATOM     31  H5  UNL     1       1.797  10.692  31.559  1.00  0.00     0.210 HD
ENDBRANCH  14  30
BRANCH   6  32
HETATM   32  O3  UNL     1       1.163  11.898  28.745  1.00  0.00    -0.380 OA
HETATM   33  C16 UNL     1       0.496  11.373  27.677  1.00  0.00     0.202 C 
ENDBRANCH   6  32
BRANCH   9  34
HETATM   34  O4  UNL     1       3.603  15.083  29.328  1.00  0.00    -0.385 OA
ATOM     35  H4  UNL     1       3.674  14.863  30.249  1.00  0.00     0.211 HD
ENDBRANCH   9  34
TORSDOF 9
ENDMDL
MODEL 5
REMARK VINA RESULT: -6.959518384      2.492      4.171
REMARK  9 active torsions:
REMARK  status: ('A' for Active; 'I' for Inactive)
REMARK    1  A    between atoms: C2_2  and  C3_3 
REMARK    2  A    between atoms: C3_3  and  C4_4 
REMARK    3  A    between atoms: C5_5  and  N1_6 
REMARK    4  A    between atoms: N1_6  and  C6_9 
REMARK    5  A    between atoms: C6_9  and  O1_10 
REMARK    6  A    between atoms: C6_9  and  C7_12 
REMARK    7  A    between atoms: C15_21  and  O3_22 
REMARK    8  A    between atoms: C18_26  and  O4_28 
REMARK    9  A    between atoms: C23_33  and  O5_34 
ROOT
HETATM    1  C4  UNL     1      -0.628  12.106  30.959  1.00  0.00     0.052 C 
HETATM    2  C5  UNL     1      -1.096  10.696  31.237  1.00  0.00     0.226 C 
HETATM    3  C13 UNL     1      -0.029   9.846  30.728  1.00  0.00     0.170 C 
HETATM    4  O2  UNL     1      -0.243   8.748  29.990  1.00  0.00    -0.379 OA
HETATM    5  C14 UNL     1       1.009   8.511  29.361  1.00  0.00     0.209 C 
HETATM    6  C15 UNL     1       1.779   9.817  29.404  1.00  0.00     0.113 C 
HETATM    7  C17 UNL     1       2.477  10.062  28.100  1.00  0.00     0.133 C 
HETATM    8 BR1  UNL     1       2.822   8.314  27.302  1.00  0.00    -0.084 Br
HETATM    9  C18 UNL     1       1.761  10.926  27.128  1.00  0.00     0.088 C 
HETATM   10  C19 UNL     1       2.038  10.526  25.684  1.00  0.00     0.051 C 
HETATM   11  C20 UNL     1       0.300  11.016  27.285  1.00  0.00     0.008 C 
HETATM   12  C21 UNL     1      -0.238  10.927  28.491  1.00  0.00    -0.010 C 
HETATM   13  C22 UNL     1       0.627  10.741  29.647  1.00  0.00     0.066 C 
HETATM   14  C23 UNL     1       0.822  11.953  30.460  1.00  0.00     0.142 C 
ENDROOT
BRANCH   2  15
HETATM   15  N1  UNL     1      -1.081  10.538  32.704  1.00  0.00    -0.037 N 
ATOM     16  H12 UNL     1      -0.194  10.155  33.033  1.00  0.00     0.281 HD
ATOM     17  H11 UNL     1      -1.045  11.440  33.179  1.00  0.00     0.281 HD
BRANCH  15  18
HETATM   18  C6  UNL     1      -2.205   9.744  33.149  1.00  0.00     0.353 C 
BRANCH  18  19
HETATM   19  O1  UNL     1      -2.744   9.119  32.026  1.00  0.00    -0.366 OA
ATOM     20  H1  UNL     1      -2.065   9.093  31.362  1.00  0.00     0.212 HD
ENDBRANCH  18  19
BRANCH  18  21
HETATM   21  C7  UNL     1      -3.220  10.634  33.764  1.00  0.00    -0.003 A 
HETATM   22  C8  UNL     1      -2.954  11.200  35.011  1.00  0.00     0.011 A 
HETATM   23  C9  UNL     1      -3.847  12.032  35.635  1.00  0.00     0.001 A 
HETATM   24  C10 UNL     1      -5.049  12.343  35.051  1.00  0.00     0.000 A 
HETATM   25  C11 UNL     1      -5.335  11.793  33.813  1.00  0.00     0.001 A 
HETATM   26  C12 UNL     1      -4.425  10.951  33.188  1.00  0.00     0.011 A 
ENDBRANCH  18  21
ENDBRANCH  15  18
ENDBRANCH   2  15
BRANCH   1  27
HETATM   27  C3  UNL     1      -0.804  13.092  32.030  1.00  0.00     0.035 C 
BRANCH  27  28
HETATM   28  C2  UNL     1      -0.471  14.465  31.536  1.00  0.00    -0.036 C 
HETATM   29  C1  UNL     1      -1.026  14.960  30.438  1.00  0.00     0.007 C 
ENDBRANCH  27  28
ENDBRANCH   1  27
BRANCH  14  30
HETATM   30  O5  UNL     1       1.598  11.763  31.571  1.00  0.00    -0.394 OA
ATOM     31  H5  UNL     1       2.118  12.552  31.677  1.00  0.00     0.210 HD
ENDBRANCH  14  30
BRANCH   6  32
HETATM   32  O3  UNL     1       2.599   9.858  30.492  1.00  0.00    -0.380 OA
HETATM   33  C16 UNL     1       3.941   9.717  30.290  1.00  0.00     0.202 C 
ENDBRANCH   6  32
BRANCH   9  34
HETATM   34  O4  UNL     1       2.248  12.251  27.237  1.00  0.00    -0.385 OA
ATOM     35  H4  UNL     1       2.295  12.638  26.371  1.00  0.00     0.211 HD
ENDBRANCH   9  34
TORSDOF 9
ENDMDL
