MODEL 1
REMARK VINA RESULT: -7.861052767      0.000      0.000
REMARK  7 active torsions:
REMARK  status: ('A' for Active; 'I' for Inactive)
REMARK    1  A    between atoms: C2_2  and  N1_3 
REMARK    2  A    between atoms: N1_3  and  C3_4 
REMARK       I    between atoms: N1_3  and  C4_6 
REMARK       I    between atoms: C4_6  and  N3_10 
REMARK    3  A    between atoms: C6_15  and  C7_16 
REMARK    4  A    between atoms: C7_16  and  C8_17 
REMARK    5  A    between atoms: C8_17  and  C9_18 
REMARK    6  A    between atoms: C9_18  and  C10_19 
REMARK    7  A    between atoms: C10_19  and  N5_20 
ROOT
HETATM    1  N1  UNL     1     -10.085  17.286  31.916  1.00  0.00    -0.205 N 
HETATM    2  C4  UNL     1      -8.945  17.830  32.558  1.00  0.00     0.684 C 
HETATM    3  N2  UNL     1      -8.922  19.093  32.801  1.00  0.00    -0.234 N 
ATOM      4  H21 UNL     1      -8.101  19.485  33.263  1.00  0.00     0.174 HD
ATOM      5  H22 UNL     1      -9.713  19.662  32.497  1.00  0.00     0.174 HD
HETATM    6  N3  UNL     1      -7.859  17.047  32.975  1.00  0.00    -0.120 N 
HETATM    7  C5  UNL     1      -8.159  16.358  34.175  1.00  0.00     0.195 C 
HETATM    8  S1  UNL     1      -9.675  16.639  34.728  1.00  0.00    -0.040 SA
HETATM    9  N4  UNL     1      -7.429  15.480  35.007  1.00  0.00    -0.353 N 
ATOM     10  H4  UNL     1      -8.089  15.050  35.655  1.00  0.00     0.162 HD
HETATM   11  C6  UNL     1      -6.140  14.958  35.297  1.00  0.00     0.176 C 
HETATM   12  C15 UNL     1      -4.997  15.520  34.595  1.00  0.00     0.245 C 
HETATM   13  O2  UNL     1      -3.960  15.501  35.319  1.00  0.00    -0.271 OA
HETATM   14  N6  UNL     1      -4.680  16.085  33.340  1.00  0.00    -0.323 N 
ATOM     15  H6  UNL     1      -3.683  16.027  33.135  1.00  0.00     0.169 HD
HETATM   16  C16 UNL     1      -5.403  16.712  32.294  1.00  0.00     0.064 A 
HETATM   17  C17 UNL     1      -4.488  16.915  31.278  1.00  0.00     0.058 A 
HETATM   18  C18 UNL     1      -4.853  17.515  30.098  1.00  0.00     0.048 A 
HETATM   19  N7  UNL     1      -3.943  17.733  29.051  1.00  0.00    -0.102 NA
HETATM   20  C19 UNL     1      -6.152  17.907  29.952  1.00  0.00     0.029 A 
HETATM   21  C20 UNL     1      -7.071  17.703  30.969  1.00  0.00     0.035 A 
HETATM   22  C21 UNL     1      -6.732  17.107  32.159  1.00  0.00     0.086 A 
ENDROOT
BRANCH  11  23
HETATM   23  C7  UNL     1      -6.081  13.437  35.331  1.00  0.00     0.035 C 
BRANCH  23  24
HETATM   24  C8  UNL     1      -5.488  12.845  34.081  1.00  0.00     0.004 C 
BRANCH  24  25
HETATM   25  C9  UNL     1      -5.145  11.394  34.181  1.00  0.00     0.030 C 
BRANCH  25  26
HETATM   26  C10 UNL     1      -4.658  10.924  32.811  1.00  0.00     0.272 C 
BRANCH  26  27
HETATM   27  N5  UNL     1      -3.487  10.059  32.932  1.00  0.00     0.092 N 
HETATM   28  C11 UNL     1      -3.021  10.226  34.293  1.00  0.00     0.298 C 
HETATM   29  C12 UNL     1      -1.621   9.726  34.448  1.00  0.00     0.198 C 
HETATM   30  O1  UNL     1      -0.811  10.541  33.628  1.00  0.00    -0.388 OA
HETATM   31  C13 UNL     1      -1.116  10.260  32.284  1.00  0.00     0.198 C 
HETATM   32  C14 UNL     1      -2.540  10.529  31.942  1.00  0.00     0.298 C 
ENDBRANCH  26  27
ENDBRANCH  25  26
ENDBRANCH  24  25
ENDBRANCH  23  24
ENDBRANCH  11  23
BRANCH   1  33
HETATM   33  C2  UNL     1     -11.237  18.148  31.615  1.00  0.00     0.138 C 
HETATM   34  C1  UNL     1     -11.350  18.492  30.167  1.00  0.00     0.027 C 
ENDBRANCH   1  33
BRANCH   1  35
HETATM   35  C3  UNL     1     -10.210  15.900  31.513  1.00  0.00     0.256 C 
HETATM   36 CL1  UNL     1     -11.780  15.190  31.940  1.00  0.00    -0.108 Cl
ENDBRANCH   1  35
TORSDOF 7
ENDMDL
MODEL 2
REMARK VINA RESULT: -7.815055183      0.854      1.033
REMARK  7 active torsions:
REMARK  status: ('A' for Active; 'I' for Inactive)
REMARK    1  A    between atoms: C2_2  and  N1_3 
REMARK    2  A    between atoms: N1_3  and  C3_4 
REMARK       I    between atoms: N1_3  and  C4_6 
REMARK       I    between atoms: C4_6  and  N3_10 
REMARK    3  A    between atoms: C6_15  and  C7_16 
REMARK    4  A    between atoms: C7_16  and  C8_17 
REMARK    5  A    between atoms: C8_17  and  C9_18 
REMARK    6  A    between atoms: C9_18  and  C10_19 
REMARK    7  A    between atoms: C10_19  and  N5_20 
ROOT
HETATM    1  N1  UNL     1     -10.068  17.392  32.013  1.00  0.00    -0.205 N 
HETATM    2  C4  UNL     1      -8.911  17.910  32.645  1.00  0.00     0.684 C 
HETATM    3  N2  UNL     1      -8.874  19.166  32.923  1.00  0.00    -0.234 N 
ATOM      4  H21 UNL     1      -8.041  19.539  33.378  1.00  0.00     0.174 HD
ATOM      5  H22 UNL     1      -9.667  19.748  32.652  1.00  0.00     0.174 HD
HETATM    6  N3  UNL     1      -7.821  17.109  33.017  1.00  0.00    -0.120 N 
HETATM    7  C5  UNL     1      -8.101  16.388  34.204  1.00  0.00     0.195 C 
HETATM    8  S1  UNL     1      -9.603  16.663  34.797  1.00  0.00    -0.040 SA
HETATM    9  N4  UNL     1      -7.360  15.482  34.995  1.00  0.00    -0.353 N 
ATOM     10  H4  UNL     1      -8.009  15.039  35.644  1.00  0.00     0.162 HD
HETATM   11  C6  UNL     1      -6.069  14.945  35.243  1.00  0.00     0.176 C 
HETATM   12  C15 UNL     1      -4.937  15.518  34.532  1.00  0.00     0.245 C 
HETATM   13  O2  UNL     1      -3.884  15.473  35.233  1.00  0.00    -0.271 OA
HETATM   14  N6  UNL     1      -4.643  16.116  33.287  1.00  0.00    -0.323 N 
ATOM     15  H6  UNL     1      -3.650  16.058  33.060  1.00  0.00     0.169 HD
HETATM   16  C16 UNL     1      -5.383  16.778  32.275  1.00  0.00     0.064 A 
HETATM   17  C17 UNL     1      -4.489  17.004  31.245  1.00  0.00     0.058 A 
HETATM   18  C18 UNL     1      -4.874  17.638  30.091  1.00  0.00     0.048 A 
HETATM   19  N7  UNL     1      -3.985  17.880  29.031  1.00  0.00    -0.102 NA
HETATM   20  C19 UNL     1      -6.173  18.043  29.984  1.00  0.00     0.029 A 
HETATM   21  C20 UNL     1      -7.072  17.816  31.014  1.00  0.00     0.035 A 
HETATM   22  C21 UNL     1      -6.712  17.185  32.179  1.00  0.00     0.086 A 
ENDROOT
BRANCH  11  23
HETATM   23  C7  UNL     1      -6.020  13.423  35.232  1.00  0.00     0.035 C 
BRANCH  23  24
HETATM   24  C8  UNL     1      -5.512  12.861  33.932  1.00  0.00     0.004 C 
BRANCH  24  25
HETATM   25  C9  UNL     1      -5.176  11.405  33.971  1.00  0.00     0.030 C 
BRANCH  25  26
HETATM   26  C10 UNL     1      -3.750  11.258  34.496  1.00  0.00     0.272 C 
BRANCH  26  27
HETATM   27  N5  UNL     1      -2.997  10.274  33.722  1.00  0.00     0.092 N 
HETATM   28  C11 UNL     1      -1.684  10.856  33.529  1.00  0.00     0.298 C 
HETATM   29  C12 UNL     1      -0.943  10.160  32.434  1.00  0.00     0.198 C 
HETATM   30  O1  UNL     1      -1.676  10.385  31.247  1.00  0.00    -0.388 OA
HETATM   31  C13 UNL     1      -2.886   9.674  31.332  1.00  0.00     0.198 C 
HETATM   32  C14 UNL     1      -3.729  10.095  32.485  1.00  0.00     0.298 C 
ENDBRANCH  26  27
ENDBRANCH  25  26
ENDBRANCH  24  25
ENDBRANCH  23  24
ENDBRANCH  11  23
BRANCH   1  33
HETATM   33  C2  UNL     1     -11.220  18.269  31.762  1.00  0.00     0.138 C 
HETATM   34  C1  UNL     1     -11.228  18.848  30.385  1.00  0.00     0.027 C 
ENDBRANCH   1  33
BRANCH   1  35
HETATM   35  C3  UNL     1     -10.211  16.019  31.574  1.00  0.00     0.256 C 
HETATM   36 CL1  UNL     1      -9.756  15.781  29.875  1.00  0.00    -0.108 Cl
ENDBRANCH   1  35
TORSDOF 7
ENDMDL
MODEL 3
REMARK VINA RESULT: -7.548578567      4.381      9.058
REMARK  7 active torsions:
REMARK  status: ('A' for Active; 'I' for Inactive)
REMARK    1  A    between atoms: C2_2  and  N1_3 
REMARK    2  A    between atoms: N1_3  and  C3_4 
REMARK       I    between atoms: N1_3  and  C4_6 
REMARK       I    between atoms: C4_6  and  N3_10 
REMARK    3  A    between atoms: C6_15  and  C7_16 
REMARK    4  A    between atoms: C7_16  and  C8_17 
REMARK    5  A    between atoms: C8_17  and  C9_18 
REMARK    6  A    between atoms: C9_18  and  C10_19 
REMARK    7  A    between atoms: C10_19  and  N5_20 
ROOT
HETATM    1  N1  UNL     1       0.707  13.779  29.383  1.00  0.00    -0.205 N 
HETATM    2  C4  UNL     1       1.037  12.886  30.431  1.00  0.00     0.684 C 
HETATM    3  N2  UNL     1       2.247  12.873  30.868  1.00  0.00    -0.234 N 
ATOM      4  H21 UNL     1       2.485  12.229  31.622  1.00  0.00     0.174 HD
ATOM      5  H22 UNL     1       2.931  13.486  30.424  1.00  0.00     0.174 HD
HETATM    6  N3  UNL     1       0.096  12.043  31.040  1.00  0.00    -0.120 N 
HETATM    7  C5  UNL     1      -0.712  12.760  31.957  1.00  0.00     0.195 C 
HETATM    8  S1  UNL     1      -0.349  14.355  32.038  1.00  0.00    -0.040 SA
HETATM    9  N4  UNL     1      -1.765  12.396  32.825  1.00  0.00    -0.353 N 
ATOM     10  H4  UNL     1      -2.205  13.255  33.153  1.00  0.00     0.162 HD
HETATM   11  C6  UNL     1      -2.453  11.306  33.421  1.00  0.00     0.176 C 
HETATM   12  C15 UNL     1      -1.927   9.965  33.217  1.00  0.00     0.245 C 
HETATM   13  O2  UNL     1      -2.151   9.226  34.219  1.00  0.00    -0.271 OA
HETATM   14  N6  UNL     1      -1.237   9.222  32.234  1.00  0.00    -0.323 N 
ATOM     15  H6  UNL     1      -1.371   8.217  32.350  1.00  0.00     0.169 HD
HETATM   16  C16 UNL     1      -0.403   9.523  31.128  1.00  0.00     0.064 A 
HETATM   17  C17 UNL     1      -0.164   8.315  30.500  1.00  0.00     0.058 A 
HETATM   18  C18 UNL     1       0.622   8.237  29.378  1.00  0.00     0.048 A 
HETATM   19  N7  UNL     1       0.880   7.022  28.722  1.00  0.00    -0.102 NA
HETATM   20  C19 UNL     1       1.165   9.391  28.892  1.00  0.00     0.029 A 
HETATM   21  C20 UNL     1       0.926  10.603  29.519  1.00  0.00     0.035 A 
HETATM   22  C21 UNL     1       0.144  10.709  30.643  1.00  0.00     0.086 A 
ENDROOT
BRANCH  11  23
HETATM   23  C7  UNL     1      -3.963  11.347  33.228  1.00  0.00     0.035 C 
BRANCH  23  24
HETATM   24  C8  UNL     1      -4.718  11.450  34.525  1.00  0.00     0.004 C 
BRANCH  24  25
HETATM   25  C9  UNL     1      -5.432  12.747  34.729  1.00  0.00     0.030 C 
BRANCH  25  26
HETATM   26  C10 UNL     1      -4.450  13.740  35.348  1.00  0.00     0.272 C 
BRANCH  26  27
HETATM   27  N5  UNL     1      -4.775  15.114  34.971  1.00  0.00     0.092 N 
HETATM   28  C11 UNL     1      -6.150  15.313  35.382  1.00  0.00     0.298 C 
HETATM   29  C12 UNL     1      -6.743  16.511  34.717  1.00  0.00     0.198 C 
HETATM   30  O1  UNL     1      -6.760  16.233  33.332  1.00  0.00    -0.388 OA
HETATM   31  C13 UNL     1      -5.433  16.219  32.866  1.00  0.00     0.198 C 
HETATM   32  C14 UNL     1      -4.593  15.188  33.536  1.00  0.00     0.298 C 
ENDBRANCH  26  27
ENDBRANCH  25  26
ENDBRANCH  24  25
ENDBRANCH  23  24
ENDBRANCH  11  23
BRANCH   1  33
HETATM   33  C2  UNL     1       1.717  14.718  28.875  1.00  0.00     0.138 C 
HETATM   34  C1  UNL     1       2.224  14.357  27.517  1.00  0.00     0.027 C 
ENDBRANCH   1  33
BRANCH   1  35
HETATM   35  C3  UNL     1      -0.593  13.843  28.745  1.00  0.00     0.256 C 
HETATM   36 CL1  UNL     1      -1.227  15.497  28.621  1.00  0.00    -0.108 Cl
ENDBRANCH   1  35
TORSDOF 7
ENDMDL
MODEL 4
REMARK VINA RESULT: -7.207839179      6.380     10.191
REMARK  7 active torsions:
REMARK  status: ('A' for Active; 'I' for Inactive)
REMARK    1  A    between atoms: C2_2  and  N1_3 
REMARK    2  A    between atoms: N1_3  and  C3_4 
REMARK       I    between atoms: N1_3  and  C4_6 
REMARK       I    between atoms: C4_6  and  N3_10 
REMARK    3  A    between atoms: C6_15  and  C7_16 
REMARK    4  A    between atoms: C7_16  and  C8_17 
REMARK    5  A    between atoms: C8_17  and  C9_18 
REMARK    6  A    between atoms: C9_18  and  C10_19 
REMARK    7  A    between atoms: C10_19  and  N5_20 
ROOT
HETATM    1  N1  UNL     1       2.973   9.445  28.464  1.00  0.00    -0.205 N 
HETATM    2  C4  UNL     1       1.859  10.313  28.356  1.00  0.00     0.684 C 
HETATM    3  N2  UNL     1       1.319  10.477  27.200  1.00  0.00    -0.234 N 
ATOM      4  H21 UNL     1       0.517  11.103  27.122  1.00  0.00     0.174 HD
ATOM      5  H22 UNL     1       1.730   9.999  26.398  1.00  0.00     0.174 HD
HETATM    6  N3  UNL     1       1.294  10.971  29.459  1.00  0.00    -0.120 N 
HETATM    7  C5  UNL     1       0.486  10.090  30.218  1.00  0.00     0.195 C 
HETATM    8  S1  UNL     1       0.449   8.563  29.626  1.00  0.00    -0.040 SA
HETATM    9  N4  UNL     1      -0.303  10.244  31.379  1.00  0.00    -0.353 N 
ATOM     10  H4  UNL     1      -0.551   9.311  31.709  1.00  0.00     0.162 HD
HETATM   11  C6  UNL     1      -0.889  11.184  32.269  1.00  0.00     0.176 C 
HETATM   12  C15 UNL     1      -0.795  12.596  31.937  1.00  0.00     0.245 C 
HETATM   13  O2  UNL     1      -1.808  13.233  32.348  1.00  0.00    -0.271 OA
HETATM   14  N6  UNL     1       0.088  13.490  31.292  1.00  0.00    -0.323 N 
ATOM     15  H6  UNL     1      -0.063  14.456  31.585  1.00  0.00     0.169 HD
HETATM   16  C16 UNL     1       1.131  13.381  30.338  1.00  0.00     0.064 A 
HETATM   17  C17 UNL     1       1.678  14.646  30.235  1.00  0.00     0.058 A 
HETATM   18  C18 UNL     1       2.723  14.906  29.384  1.00  0.00     0.048 A 
HETATM   19  N7  UNL     1       3.296  16.183  29.261  1.00  0.00    -0.102 NA
HETATM   20  C19 UNL     1       3.213  13.874  28.637  1.00  0.00     0.029 A 
HETATM   21  C20 UNL     1       2.668  12.605  28.739  1.00  0.00     0.035 A 
HETATM   22  C21 UNL     1       1.622  12.319  29.581  1.00  0.00     0.086 A 
ENDROOT
BRANCH  11  23
HETATM   23  C7  UNL     1      -0.564  10.933  33.735  1.00  0.00     0.035 C 
BRANCH  23  24
HETATM   24  C8  UNL     1      -1.062   9.602  34.228  1.00  0.00     0.004 C 
BRANCH  24  25
HETATM   25  C9  UNL     1      -2.486   9.598  34.680  1.00  0.00     0.030 C 
BRANCH  25  26
HETATM   26  C10 UNL     1      -2.725  10.855  35.514  1.00  0.00     0.272 C 
BRANCH  26  27
HETATM   27  N5  UNL     1      -4.055  11.410  35.269  1.00  0.00     0.092 N 
HETATM   28  C11 UNL     1      -4.317  11.179  33.863  1.00  0.00     0.298 C 
HETATM   29  C12 UNL     1      -5.444  12.031  33.378  1.00  0.00     0.198 C 
HETATM   30  O1  UNL     1      -5.017  13.372  33.507  1.00  0.00    -0.388 OA
HETATM   31  C13 UNL     1      -4.934  13.681  34.877  1.00  0.00     0.198 C 
HETATM   32  C14 UNL     1      -3.970  12.815  35.611  1.00  0.00     0.298 C 
ENDBRANCH  26  27
ENDBRANCH  25  26
ENDBRANCH  24  25
ENDBRANCH  23  24
ENDBRANCH  11  23
BRANCH   1  33
HETATM   33  C2  UNL     1       3.436   8.697  27.287  1.00  0.00     0.138 C 
HETATM   34  C1  UNL     1       3.656   7.245  27.563  1.00  0.00     0.027 C 
ENDBRANCH   1  33
BRANCH   1  35
HETATM   35  C3  UNL     1       3.723   9.230  29.685  1.00  0.00     0.256 C 
HETATM   36 CL1  UNL     1       5.163  10.263  29.807  1.00  0.00    -0.108 Cl
ENDBRANCH   1  35
TORSDOF 7
ENDMDL
MODEL 5
REMARK VINA RESULT: -7.203580927      5.659     10.875
REMARK  7 active torsions:
REMARK  status: ('A' for Active; 'I' for Inactive)
REMARK    1  A    between atoms: C2_2  and  N1_3 
REMARK    2  A    between atoms: N1_3  and  C3_4 
REMARK       I    between atoms: N1_3  and  C4_6 
REMARK       I    between atoms: C4_6  and  N3_10 
REMARK    3  A    between atoms: C6_15  and  C7_16 
REMARK    4  A    between atoms: C7_16  and  C8_17 
REMARK    5  A    between atoms: C8_17  and  C9_18 
REMARK    6  A    between atoms: C9_18  and  C10_19 
REMARK    7  A    between atoms: C10_19  and  N5_20 
ROOT
HETATM    1  N1  UNL     1       0.713   8.842  27.819  1.00  0.00    -0.205 N 
HETATM    2  C4  UNL     1       1.360   9.462  28.916  1.00  0.00     0.684 C 
HETATM    3  N2  UNL     1       2.315   8.831  29.502  1.00  0.00    -0.234 N 
ATOM      4  H21 UNL     1       2.781   9.278  30.292  1.00  0.00     0.174 HD
ATOM      5  H22 UNL     1       2.554   7.895  29.174  1.00  0.00     0.174 HD
HETATM    6  N3  UNL     1       1.032  10.749  29.366  1.00  0.00    -0.120 N 
HETATM    7  C5  UNL     1       1.591  11.742  28.524  1.00  0.00     0.195 C 
HETATM    8  S1  UNL     1       2.434  11.127  27.262  1.00  0.00    -0.040 SA
HETATM    9  N4  UNL     1       1.583  13.154  28.539  1.00  0.00    -0.353 N 
ATOM     10  H4  UNL     1       1.929  13.473  27.635  1.00  0.00     0.162 HD
HETATM   11  C6  UNL     1       1.283  14.305  29.316  1.00  0.00     0.176 C 
HETATM   12  C15 UNL     1       0.897  14.117  30.705  1.00  0.00     0.245 C 
HETATM   13  O2  UNL     1       1.281  15.085  31.424  1.00  0.00    -0.271 OA
HETATM   14  N6  UNL     1       0.218  13.178  31.512  1.00  0.00    -0.323 N 
ATOM     15  H6  UNL     1      -0.137  13.597  32.372  1.00  0.00     0.169 HD
HETATM   16  C16 UNL     1      -0.095  11.798  31.425  1.00  0.00     0.064 A 
HETATM   17  C17 UNL     1      -0.906  11.529  32.512  1.00  0.00     0.058 A 
HETATM   18  C18 UNL     1      -1.397  10.269  32.743  1.00  0.00     0.048 A 
HETATM   19  N7  UNL     1      -2.223   9.970  33.839  1.00  0.00    -0.102 NA
HETATM   20  C19 UNL     1      -1.063   9.279  31.864  1.00  0.00     0.029 A 
HETATM   21  C20 UNL     1      -0.251   9.545  30.774  1.00  0.00     0.035 A 
HETATM   22  C21 UNL     1       0.254  10.797  30.521  1.00  0.00     0.086 A 
ENDROOT
BRANCH  11  23
HETATM   23  C7  UNL     1       0.371  15.304  28.615  1.00  0.00     0.035 C 
BRANCH  23  24
HETATM   24  C8  UNL     1      -1.086  14.947  28.728  1.00  0.00     0.004 C 
BRANCH  24  25
HETATM   25  C9  UNL     1      -2.023  16.103  28.591  1.00  0.00     0.030 C 
BRANCH  25  26
HETATM   26  C10 UNL     1      -2.474  16.520  29.990  1.00  0.00     0.272 C 
BRANCH  26  27
HETATM   27  N5  UNL     1      -3.865  16.966  29.989  1.00  0.00     0.092 N 
HETATM   28  C11 UNL     1      -4.144  17.362  28.624  1.00  0.00     0.298 C 
HETATM   29  C12 UNL     1      -5.377  18.202  28.548  1.00  0.00     0.198 C 
HETATM   30  O1  UNL     1      -5.103  19.382  29.275  1.00  0.00    -0.388 OA
HETATM   31  C13 UNL     1      -5.012  19.051  30.639  1.00  0.00     0.198 C 
HETATM   32  C14 UNL     1      -3.932  18.067  30.928  1.00  0.00     0.298 C 
ENDBRANCH  26  27
ENDBRANCH  25  26
ENDBRANCH  24  25
ENDBRANCH  23  24
ENDBRANCH  11  23
BRANCH   1  33
HETATM   33  C2  UNL     1       1.191   7.542  27.327  1.00  0.00     0.138 C 
HETATM   34  C1  UNL     1       0.510   6.382  27.977  1.00  0.00     0.027 C 
ENDBRANCH   1  33
BRANCH   1  35
HETATM   35  C3  UNL     1      -0.425   9.404  27.120  1.00  0.00     0.256 C 
HETATM   36 CL1  UNL     1      -0.738   8.620  25.558  1.00  0.00    -0.108 Cl
ENDBRANCH   1  35
TORSDOF 7
ENDMDL
