MODEL 1
REMARK VINA RESULT: -8.845676169      0.000      0.000
REMARK  9 active torsions:
REMARK  status: ('A' for Active; 'I' for Inactive)
REMARK    1  A    between atoms: C6_6  and  C7_7 
REMARK       I    between atoms: C7_7  and  N1_9 
REMARK    2  A    between atoms: N1_9  and  C8_10 
REMARK    3  A    between atoms: C8_10  and  C9_11 
REMARK    4  A    between atoms: C9_11  and  C10_12 
REMARK    5  A    between atoms: C13_15  and  N2_16 
REMARK    6  A    between atoms: N2_16  and  S1_18 
REMARK    7  A    between atoms: S1_18  and  C14_21 
REMARK    8  A    between atoms: C22_30  and  O4_31 
REMARK    9  A    between atoms: C23_33  and  O5_34 
ROOT
HETATM    1  C7  UNL     1      -4.499  14.753  34.032  1.00  0.00     0.295 C 
HETATM    2  O1  UNL     1      -3.362  14.733  33.469  1.00  0.00    -0.257 OA
HETATM    3  N1  UNL     1      -5.145  13.719  34.698  1.00  0.00    -0.387 NA
ENDROOT
BRANCH   1   4
HETATM    4  C6  UNL     1      -5.189  16.092  33.932  1.00  0.00     0.097 C 
HETATM    5  C5  UNL     1      -5.649  16.379  32.534  1.00  0.00     0.004 C 
HETATM    6  C4  UNL     1      -5.258  17.758  32.094  1.00  0.00     0.007 C 
HETATM    7  C19 UNL     1      -7.132  16.169  32.627  1.00  0.00    -0.005 C 
HETATM    8  C3  UNL     1      -6.388  18.712  31.895  1.00  0.00     0.012 C 
HETATM    9  C2  UNL     1      -7.565  18.166  31.173  1.00  0.00    -0.011 C 
HETATM   10  C1  UNL     1      -7.264  18.283  29.673  1.00  0.00     0.018 C 
HETATM   11  C20 UNL     1      -7.940  16.774  31.544  1.00  0.00     0.003 C 
HETATM   12  C23 UNL     1      -8.759  19.062  31.427  1.00  0.00     0.155 C 
HETATM   13  C21 UNL     1      -9.410  16.777  31.891  1.00  0.00     0.040 C 
HETATM   14  C22 UNL     1      -9.806  18.206  32.096  1.00  0.00     0.148 C 
HETATM   15  C18 UNL     1      -7.557  16.551  34.011  1.00  0.00     0.006 C 
HETATM   16  C17 UNL     1      -6.344  16.182  34.867  1.00  0.00     0.016 C 
BRANCH  14  17
HETATM   17  O4  UNL     1     -11.043  18.515  31.519  1.00  0.00    -0.393 OA
ATOM     18  H4  UNL     1     -11.510  19.194  31.992  1.00  0.00     0.210 HD
ENDBRANCH  14  17
BRANCH  12  19
HETATM   19  O5  UNL     1      -8.461  20.114  32.304  1.00  0.00    -0.392 OA
ATOM     20  H5  UNL     1      -9.239  20.474  32.715  1.00  0.00     0.210 HD
ENDBRANCH  12  19
ENDBRANCH   1   4
BRANCH   3  21
HETATM   21  C8  UNL     1      -5.773  12.712  35.348  1.00  0.00     0.159 C 
BRANCH  21  22
HETATM   22  C9  UNL     1      -5.452  11.338  34.779  1.00  0.00     0.064 C 
BRANCH  22  23
HETATM   23  C10 UNL     1      -4.627  11.466  33.526  1.00  0.00    -0.009 C 
HETATM   24  C11 UNL     1      -3.195  11.177  33.960  1.00  0.00     0.007 C 
HETATM   25  C12 UNL     1      -2.768   9.805  33.403  1.00  0.00     0.026 C 
HETATM   26  C13 UNL     1      -2.769   9.975  31.914  1.00  0.00     0.092 C 
HETATM   27  C15 UNL     1      -4.159  10.125  31.427  1.00  0.00     0.026 C 
HETATM   28  C16 UNL     1      -5.100  10.426  32.538  1.00  0.00     0.007 C 
BRANCH  26  29
HETATM   29  N2  UNL     1      -1.975   8.998  31.219  1.00  0.00    -0.314 N 
ATOM     30  H2  UNL     1      -2.096   7.992  31.338  1.00  0.00     0.172 HD
BRANCH  29  31
HETATM   31  S1  UNL     1      -0.805   9.683  30.175  1.00  0.00     0.239 S 
HETATM   32  O2  UNL     1      -1.308   9.720  28.765  1.00  0.00    -0.205 OA
HETATM   33  O3  UNL     1       0.506   9.005  30.217  1.00  0.00    -0.205 OA
BRANCH  31  34
HETATM   34  C14 UNL     1      -0.546  11.375  30.700  1.00  0.00     0.277 C 
HETATM   35 CL1  UNL     1       0.447  11.379  32.191  1.00  0.00    -0.113 Cl
ENDBRANCH  31  34
ENDBRANCH  29  31
ENDBRANCH  26  29
ENDBRANCH  22  23
ENDBRANCH  21  22
ENDBRANCH   3  21
TORSDOF 9
ENDMDL
MODEL 2
REMARK VINA RESULT: -8.578574285      4.181      8.057
REMARK  9 active torsions:
REMARK  status: ('A' for Active; 'I' for Inactive)
REMARK    1  A    between atoms: C6_6  and  C7_7 
REMARK       I    between atoms: C7_7  and  N1_9 
REMARK    2  A    between atoms: N1_9  and  C8_10 
REMARK    3  A    between atoms: C8_10  and  C9_11 
REMARK    4  A    between atoms: C9_11  and  C10_12 
REMARK    5  A    between atoms: C13_15  and  N2_16 
REMARK    6  A    between atoms: N2_16  and  S1_18 
REMARK    7  A    between atoms: S1_18  and  C14_21 
REMARK    8  A    between atoms: C22_30  and  O4_31 
REMARK    9  A    between atoms: C23_33  and  O5_34 
ROOT
HETATM    1  C7  UNL     1       1.240  11.964  33.130  1.00  0.00     0.295 C 
HETATM    2  O1  UNL     1       2.314  12.419  33.630  1.00  0.00    -0.257 OA
HETATM    3  N1  UNL     1       0.219  11.274  33.773  1.00  0.00    -0.387 NA
ENDROOT
BRANCH   1   4
HETATM    4  C6  UNL     1       1.109  12.235  31.652  1.00  0.00     0.097 C 
HETATM    5  C5  UNL     1       0.332  13.491  31.382  1.00  0.00     0.004 C 
HETATM    6  C4  UNL     1      -0.724  13.275  30.341  1.00  0.00     0.007 C 
HETATM    7  C19 UNL     1       1.404  14.456  30.969  1.00  0.00    -0.005 C 
HETATM    8  C3  UNL     1      -0.505  13.987  29.048  1.00  0.00     0.012 C 
HETATM    9  C2  UNL     1      -0.060  15.399  29.164  1.00  0.00    -0.011 C 
HETATM   10  C1  UNL     1      -1.321  16.251  29.366  1.00  0.00     0.018 C 
HETATM   11  C20 UNL     1       0.944  15.656  30.233  1.00  0.00     0.003 C 
HETATM   12  C23 UNL     1       0.532  15.841  27.843  1.00  0.00     0.155 C 
HETATM   13  C21 UNL     1       2.103  16.390  29.600  1.00  0.00     0.040 C 
HETATM   14  C22 UNL     1       1.963  16.229  28.119  1.00  0.00     0.148 C 
HETATM   15  C18 UNL     1       2.478  13.673  30.279  1.00  0.00     0.006 C 
HETATM   16  C17 UNL     1       2.441  12.320  30.992  1.00  0.00     0.016 C 
BRANCH  14  17
HETATM   17  O4  UNL     1       2.229  17.410  27.416  1.00  0.00    -0.393 OA
ATOM     18  H4  UNL     1       2.156  18.186  27.959  1.00  0.00     0.210 HD
ENDBRANCH  14  17
BRANCH  12  19
HETATM   19  O5  UNL     1       0.556  14.807  26.895  1.00  0.00    -0.392 OA
ATOM     20  H5  UNL     1       1.037  14.047  27.202  1.00  0.00     0.210 HD
ENDBRANCH  12  19
ENDBRANCH   1   4
BRANCH   3  21
HETATM   21  C8  UNL     1      -0.775  10.604  34.401  1.00  0.00     0.159 C 
BRANCH  21  22
HETATM   22  C9  UNL     1      -1.794  10.006  33.442  1.00  0.00     0.064 C 
BRANCH  22  23
HETATM   23  C10 UNL     1      -3.178  10.080  34.030  1.00  0.00    -0.009 C 
HETATM   24  C11 UNL     1      -2.994  10.711  35.405  1.00  0.00     0.007 C 
HETATM   25  C12 UNL     1      -3.559  12.145  35.380  1.00  0.00     0.026 C 
HETATM   26  C13 UNL     1      -5.030  11.977  35.146  1.00  0.00     0.092 C 
HETATM   27  C15 UNL     1      -5.268  11.490  33.769  1.00  0.00     0.026 C 
HETATM   28  C16 UNL     1      -4.021  10.972  33.148  1.00  0.00     0.007 C 
BRANCH  26  29
HETATM   29  N2  UNL     1      -5.813  13.117  35.542  1.00  0.00    -0.314 N 
ATOM     30  H2  UNL     1      -6.542  13.074  36.255  1.00  0.00     0.172 HD
BRANCH  29  31
HETATM   31  S1  UNL     1      -5.407  14.551  34.701  1.00  0.00     0.239 S 
HETATM   32  O2  UNL     1      -5.345  14.303  33.227  1.00  0.00    -0.205 OA
HETATM   33  O3  UNL     1      -4.148  15.174  35.155  1.00  0.00    -0.205 OA
BRANCH  31  34
HETATM   34  C14 UNL     1      -6.721  15.731  34.995  1.00  0.00     0.277 C 
HETATM   35 CL1  UNL     1      -7.112  16.567  33.460  1.00  0.00    -0.113 Cl
ENDBRANCH  31  34
ENDBRANCH  29  31
ENDBRANCH  26  29
ENDBRANCH  22  23
ENDBRANCH  21  22
ENDBRANCH   3  21
TORSDOF 9
ENDMDL
MODEL 3
REMARK VINA RESULT: -8.514911159      1.559      2.475
REMARK  9 active torsions:
REMARK  status: ('A' for Active; 'I' for Inactive)
REMARK    1  A    between atoms: C6_6  and  C7_7 
REMARK       I    between atoms: C7_7  and  N1_9 
REMARK    2  A    between atoms: N1_9  and  C8_10 
REMARK    3  A    between atoms: C8_10  and  C9_11 
REMARK    4  A    between atoms: C9_11  and  C10_12 
REMARK    5  A    between atoms: C13_15  and  N2_16 
REMARK    6  A    between atoms: N2_16  and  S1_18 
REMARK    7  A    between atoms: S1_18  and  C14_21 
REMARK    8  A    between atoms: C22_30  and  O4_31 
REMARK    9  A    between atoms: C23_33  and  O5_34 
ROOT
HETATM    1  C7  UNL     1      -5.674  14.800  35.334  1.00  0.00     0.295 C 
HETATM    2  O1  UNL     1      -5.559  15.685  36.237  1.00  0.00    -0.257 OA
HETATM    3  N1  UNL     1      -5.251  13.477  35.372  1.00  0.00    -0.387 NA
ENDROOT
BRANCH   1   4
HETATM    4  C6  UNL     1      -6.362  15.304  34.090  1.00  0.00     0.097 C 
HETATM    5  C5  UNL     1      -6.385  16.803  34.035  1.00  0.00     0.004 C 
HETATM    6  C4  UNL     1      -7.751  17.324  33.699  1.00  0.00     0.007 C 
HETATM    7  C19 UNL     1      -5.347  17.109  32.995  1.00  0.00    -0.005 C 
HETATM    8  C3  UNL     1      -7.875  17.988  32.369  1.00  0.00     0.012 C 
HETATM    9  C2  UNL     1      -6.777  18.923  32.017  1.00  0.00    -0.011 C 
HETATM   10  C1  UNL     1      -7.110  20.272  32.670  1.00  0.00     0.018 C 
HETATM   11  C20 UNL     1      -5.413  18.461  32.395  1.00  0.00     0.003 C 
HETATM   12  C23 UNL     1      -6.796  19.169  30.524  1.00  0.00     0.155 C 
HETATM   13  C21 UNL     1      -4.543  18.558  31.164  1.00  0.00     0.040 C 
HETATM   14  C22 UNL     1      -5.463  18.705  29.992  1.00  0.00     0.148 C 
HETATM   15  C18 UNL     1      -5.351  15.986  32.007  1.00  0.00     0.006 C 
HETATM   16  C17 UNL     1      -5.721  14.769  32.857  1.00  0.00     0.016 C 
BRANCH  14  17
HETATM   17  O4  UNL     1      -5.017  19.655  29.067  1.00  0.00    -0.393 OA
ATOM     18  H4  UNL     1      -5.703  19.943  28.475  1.00  0.00     0.210 HD
ENDBRANCH  14  17
BRANCH  12  19
HETATM   19  O5  UNL     1      -7.787  18.422  29.872  1.00  0.00    -0.392 OA
ATOM     20  H5  UNL     1      -8.132  17.724  30.417  1.00  0.00     0.210 HD
ENDBRANCH  12  19
ENDBRANCH   1   4
BRANCH   3  21
HETATM   21  C8  UNL     1      -4.840  12.188  35.409  1.00  0.00     0.159 C 
BRANCH  21  22
HETATM   22  C9  UNL     1      -5.442  11.333  34.304  1.00  0.00     0.064 C 
BRANCH  22  23
HETATM   23  C10 UNL     1      -4.560  11.352  33.084  1.00  0.00    -0.009 C 
HETATM   24  C11 UNL     1      -3.137  11.251  33.618  1.00  0.00     0.007 C 
HETATM   25  C12 UNL     1      -2.573   9.855  33.288  1.00  0.00     0.026 C 
HETATM   26  C13 UNL     1      -2.505   9.809  31.791  1.00  0.00     0.092 C 
HETATM   27  C15 UNL     1      -3.872   9.770  31.226  1.00  0.00     0.026 C 
HETATM   28  C16 UNL     1      -4.895  10.144  32.239  1.00  0.00     0.007 C 
BRANCH  26  29
HETATM   29  N2  UNL     1      -1.598   8.815  31.283  1.00  0.00    -0.314 N 
ATOM     30  H2  UNL     1      -1.644   7.830  31.548  1.00  0.00     0.172 HD
BRANCH  29  31
HETATM   31  S1  UNL     1      -0.436   9.439  30.193  1.00  0.00     0.239 S 
HETATM   32  O2  UNL     1      -1.096   9.958  28.954  1.00  0.00    -0.205 OA
HETATM   33  O3  UNL     1       0.621   8.475  29.828  1.00  0.00    -0.205 OA
BRANCH  31  34
HETATM   34  C14 UNL     1       0.362  10.823  31.000  1.00  0.00     0.277 C 
HETATM   35 CL1  UNL     1      -0.477  12.336  30.535  1.00  0.00    -0.113 Cl
ENDBRANCH  31  34
ENDBRANCH  29  31
ENDBRANCH  26  29
ENDBRANCH  22  23
ENDBRANCH  21  22
ENDBRANCH   3  21
TORSDOF 9
ENDMDL
MODEL 4
REMARK VINA RESULT: -8.473023995      3.581      5.245
REMARK  9 active torsions:
REMARK  status: ('A' for Active; 'I' for Inactive)
REMARK    1  A    between atoms: C6_6  and  C7_7 
REMARK       I    between atoms: C7_7  and  N1_9 
REMARK    2  A    between atoms: N1_9  and  C8_10 
REMARK    3  A    between atoms: C8_10  and  C9_11 
REMARK    4  A    between atoms: C9_11  and  C10_12 
REMARK    5  A    between atoms: C13_15  and  N2_16 
REMARK    6  A    between atoms: N2_16  and  S1_18 
REMARK    7  A    between atoms: S1_18  and  C14_21 
REMARK    8  A    between atoms: C22_30  and  O4_31 
REMARK    9  A    between atoms: C23_33  and  O5_34 
ROOT
HETATM    1  C7  UNL     1      -4.729  18.328  28.725  1.00  0.00     0.295 C 
HETATM    2  O1  UNL     1      -5.342  19.072  27.899  1.00  0.00    -0.257 OA
HETATM    3  N1  UNL     1      -3.830  17.304  28.454  1.00  0.00    -0.387 NA
ENDROOT
BRANCH   1   4
HETATM    4  C6  UNL     1      -5.057  18.640  30.164  1.00  0.00     0.097 C 
HETATM    5  C5  UNL     1      -6.310  17.949  30.613  1.00  0.00     0.004 C 
HETATM    6  C4  UNL     1      -7.238  18.889  31.323  1.00  0.00     0.007 C 
HETATM    7  C19 UNL     1      -5.782  16.845  31.482  1.00  0.00    -0.005 C 
HETATM    8  C3  UNL     1      -7.426  18.624  32.780  1.00  0.00     0.012 C 
HETATM    9  C2  UNL     1      -7.621  17.200  33.151  1.00  0.00    -0.011 C 
HETATM   10  C1  UNL     1      -9.109  16.883  32.948  1.00  0.00     0.018 C 
HETATM   11  C20 UNL     1      -6.757  16.236  32.416  1.00  0.00     0.003 C 
HETATM   12  C23 UNL     1      -7.359  17.035  34.633  1.00  0.00     0.155 C 
HETATM   13  C21 UNL     1      -6.065  15.371  33.444  1.00  0.00     0.040 C 
HETATM   14  C22 UNL     1      -6.217  16.060  34.764  1.00  0.00     0.148 C 
HETATM   15  C18 UNL     1      -4.524  17.337  32.125  1.00  0.00     0.006 C 
HETATM   16  C17 UNL     1      -3.933  18.277  31.072  1.00  0.00     0.016 C 
BRANCH  14  17
HETATM   17  O4  UNL     1      -6.525  15.177  35.805  1.00  0.00    -0.393 OA
ATOM     18  H4  UNL     1      -7.103  15.560  36.454  1.00  0.00     0.210 HD
ENDBRANCH  14  17
BRANCH  12  19
HETATM   19  O5  UNL     1      -6.956  18.232  35.241  1.00  0.00    -0.392 OA
ATOM     20  H5  UNL     1      -7.420  18.400  36.053  1.00  0.00     0.210 HD
ENDBRANCH  12  19
ENDBRANCH   1   4
BRANCH   3  21
HETATM   21  C8  UNL     1      -2.953  16.308  28.189  1.00  0.00     0.159 C 
BRANCH  21  22
HETATM   22  C9  UNL     1      -1.654  16.427  28.972  1.00  0.00     0.064 C 
BRANCH  22  23
HETATM   23  C10 UNL     1      -1.330  15.126  29.656  1.00  0.00    -0.009 C 
HETATM   24  C11 UNL     1       0.171  14.942  29.473  1.00  0.00     0.007 C 
HETATM   25  C12 UNL     1       0.873  15.158  30.828  1.00  0.00     0.026 C 
HETATM   26  C13 UNL     1       0.379  14.044  31.702  1.00  0.00     0.092 C 
HETATM   27  C15 UNL     1      -1.052  14.252  32.019  1.00  0.00     0.026 C 
HETATM   28  C16 UNL     1      -1.671  15.263  31.122  1.00  0.00     0.007 C 
BRANCH  26  29
HETATM   29  N2  UNL     1       1.228  13.773  32.830  1.00  0.00    -0.314 N 
ATOM     30  H2  UNL     1       1.655  14.505  33.397  1.00  0.00     0.172 HD
BRANCH  29  31
HETATM   31  S1  UNL     1       1.454  12.103  33.132  1.00  0.00     0.239 S 
HETATM   32  O2  UNL     1       2.247  11.468  32.033  1.00  0.00    -0.205 OA
HETATM   33  O3  UNL     1       0.196  11.356  33.334  1.00  0.00    -0.205 OA
BRANCH  31  34
HETATM   34  C14 UNL     1       2.407  11.958  34.640  1.00  0.00     0.277 C 
HETATM   35 CL1  UNL     1       2.403  13.534  35.490  1.00  0.00    -0.113 Cl
ENDBRANCH  31  34
ENDBRANCH  29  31
ENDBRANCH  26  29
ENDBRANCH  22  23
ENDBRANCH  21  22
ENDBRANCH   3  21
TORSDOF 9
ENDMDL
MODEL 5
REMARK VINA RESULT: -8.424998992      4.263      5.850
REMARK  9 active torsions:
REMARK  status: ('A' for Active; 'I' for Inactive)
REMARK    1  A    between atoms: C6_6  and  C7_7 
REMARK       I    between atoms: C7_7  and  N1_9 
REMARK    2  A    between atoms: N1_9  and  C8_10 
REMARK    3  A    between atoms: C8_10  and  C9_11 
REMARK    4  A    between atoms: C9_11  and  C10_12 
REMARK    5  A    between atoms: C13_15  and  N2_16 
REMARK    6  A    between atoms: N2_16  and  S1_18 
REMARK    7  A    between atoms: S1_18  and  C14_21 
REMARK    8  A    between atoms: C22_30  and  O4_31 
REMARK    9  A    between atoms: C23_33  and  O5_34 
ROOT
HETATM    1  C7  UNL     1      -4.769  18.450  28.799  1.00  0.00     0.295 C 
HETATM    2  O1  UNL     1      -5.361  19.223  27.985  1.00  0.00    -0.257 OA
HETATM    3  N1  UNL     1      -3.880  17.420  28.513  1.00  0.00    -0.387 NA
ENDROOT
BRANCH   1   4
HETATM    4  C6  UNL     1      -5.110  18.730  30.242  1.00  0.00     0.097 C 
HETATM    5  C5  UNL     1      -6.356  18.012  30.669  1.00  0.00     0.004 C 
HETATM    6  C4  UNL     1      -7.301  18.925  31.391  1.00  0.00     0.007 C 
HETATM    7  C19 UNL     1      -5.817  16.900  31.521  1.00  0.00    -0.005 C 
HETATM    8  C3  UNL     1      -7.494  18.631  32.842  1.00  0.00     0.012 C 
HETATM    9  C2  UNL     1      -7.670  17.197  33.185  1.00  0.00    -0.011 C 
HETATM   10  C1  UNL     1      -9.152  16.862  32.967  1.00  0.00     0.018 C 
HETATM   11  C20 UNL     1      -6.788  16.259  32.437  1.00  0.00     0.003 C 
HETATM   12  C23 UNL     1      -7.415  17.009  34.665  1.00  0.00     0.155 C 
HETATM   13  C21 UNL     1      -6.090  15.386  33.454  1.00  0.00     0.040 C 
HETATM   14  C22 UNL     1      -6.259  16.047  34.785  1.00  0.00     0.148 C 
HETATM   15  C18 UNL     1      -4.569  17.399  32.181  1.00  0.00     0.006 C 
HETATM   16  C17 UNL     1      -3.987  18.366  31.149  1.00  0.00     0.016 C 
BRANCH  14  17
HETATM   17  O4  UNL     1      -6.561  15.141  35.808  1.00  0.00    -0.393 OA
ATOM     18  H4  UNL     1      -7.384  15.335  36.242  1.00  0.00     0.210 HD
ENDBRANCH  14  17
BRANCH  12  19
HETATM   19  O5  UNL     1      -7.033  18.200  35.298  1.00  0.00    -0.392 OA
ATOM     20  H5  UNL     1      -7.734  18.841  35.316  1.00  0.00     0.210 HD
ENDBRANCH  12  19
ENDBRANCH   1   4
BRANCH   3  21
HETATM   21  C8  UNL     1      -3.014  16.419  28.233  1.00  0.00     0.159 C 
BRANCH  21  22
HETATM   22  C9  UNL     1      -1.998  16.178  29.340  1.00  0.00     0.064 C 
BRANCH  22  23
HETATM   23  C10 UNL     1      -0.719  15.624  28.770  1.00  0.00    -0.009 C 
HETATM   24  C11 UNL     1       0.395  16.363  29.499  1.00  0.00     0.007 C 
HETATM   25  C12 UNL     1       1.092  15.391  30.471  1.00  0.00     0.026 C 
HETATM   26  C13 UNL     1       1.727  14.355  29.593  1.00  0.00     0.092 C 
HETATM   27  C15 UNL     1       0.680  13.519  28.963  1.00  0.00     0.026 C 
HETATM   28  C16 UNL     1      -0.664  14.146  29.077  1.00  0.00     0.007 C 
BRANCH  26  29
HETATM   29  N2  UNL     1       2.793  13.630  30.230  1.00  0.00    -0.314 N 
ATOM     30  H2  UNL     1       2.663  13.072  31.075  1.00  0.00     0.172 HD
BRANCH  29  31
HETATM   31  S1  UNL     1       4.302  13.793  29.438  1.00  0.00     0.239 S 
HETATM   32  O2  UNL     1       4.341  12.960  28.195  1.00  0.00    -0.205 OA
HETATM   33  O3  UNL     1       5.463  13.469  30.291  1.00  0.00    -0.205 OA
BRANCH  31  34
HETATM   34  C14 UNL     1       4.464  15.506  28.946  1.00  0.00     0.277 C 
HETATM   35 CL1  UNL     1       6.089  15.760  28.237  1.00  0.00    -0.113 Cl
ENDBRANCH  31  34
ENDBRANCH  29  31
ENDBRANCH  26  29
ENDBRANCH  22  23
ENDBRANCH  21  22
ENDBRANCH   3  21
TORSDOF 9
ENDMDL
