MODEL 1
REMARK VINA RESULT: -8.780232356      0.000      0.000
REMARK  8 active torsions:
REMARK  status: ('A' for Active; 'I' for Inactive)
REMARK    1  A    between atoms: C2_2  and  C3_3 
REMARK    2  A    between atoms: C5_5  and  O1_6 
REMARK    3  A    between atoms: C7_9  and  C8_10 
REMARK    4  A    between atoms: C8_10  and  N1_11 
REMARK    5  A    between atoms: N1_11  and  S1_13 
REMARK    6  A    between atoms: S1_13  and  C9_16 
REMARK    7  A    between atoms: C9_16  and  C10_17 
REMARK    8  A    between atoms: C10_17  and  O4_18 
ROOT
HETATM    1  C3  UNL     1      -6.392  18.329  31.523  1.00  0.00     0.009 C 
HETATM    2  C4  UNL     1      -7.106  19.577  31.963  1.00  0.00     0.074 C 
HETATM    3  C5  UNL     1      -8.152  19.294  33.014  1.00  0.00     0.163 C 
HETATM    4  C6  UNL     1      -7.660  18.203  33.924  1.00  0.00     0.079 C 
HETATM    5  C7  UNL     1      -7.977  16.814  33.548  1.00  0.00    -0.018 C 
HETATM    6  C11 UNL     1      -9.493  16.626  33.737  1.00  0.00     0.014 C 
HETATM    7  C12 UNL     1     -10.172  16.849  32.427  1.00  0.00     0.033 C 
HETATM    8  C13 UNL     1      -9.737  18.126  31.762  1.00  0.00     0.125 C 
HETATM    9  C14 UNL     1      -8.727  17.874  30.671  1.00  0.00     0.037 C 
HETATM   10  C15 UNL     1      -7.412  17.333  31.121  1.00  0.00    -0.006 C 
HETATM   11  C16 UNL     1      -7.530  16.319  32.224  1.00  0.00     0.016 C 
HETATM   12  O5  UNL     1      -9.425  19.155  32.588  1.00  0.00    -0.350 OA
ENDROOT
BRANCH   1  13
HETATM   13  C2  UNL     1      -5.349  18.692  30.511  1.00  0.00     0.007 A 
HETATM   14  C1  UNL     1      -5.012  20.190  30.733  1.00  0.00     0.022 C 
HETATM   15  C17 UNL     1      -5.539  18.421  29.094  1.00  0.00     0.057 A 
HETATM   16  C18 UNL     1      -4.323  17.598  29.161  1.00  0.00    -0.021 A 
HETATM   17  C19 UNL     1      -4.169  17.858  30.466  1.00  0.00     0.026 A 
HETATM   18  C25 UNL     1      -3.282  16.758  28.744  1.00  0.00     0.002 A 
HETATM   19  N2  UNL     1      -3.045  17.198  30.891  1.00  0.00    -0.358 N 
HETATM   20  C20 UNL     1      -2.517  16.545  29.870  1.00  0.00     0.043 A 
ATOM     21  H2  UNL     1      -2.676  17.209  31.842  1.00  0.00     0.166 HD
HETATM   22  C21 UNL     1      -1.402  15.718  29.679  1.00  0.00     0.033 A 
HETATM   23  C22 UNL     1      -1.122  15.172  28.429  1.00  0.00     0.044 A 
HETATM   24  C23 UNL     1      -1.920  15.422  27.351  1.00  0.00     0.117 A 
HETATM   25  F1  UNL     1      -1.704  14.922  26.107  1.00  0.00    -0.206 F 
HETATM   26  C24 UNL     1      -3.028  16.236  27.518  1.00  0.00     0.056 A 
ENDBRANCH   1  13
BRANCH   3  27
HETATM   27  O1  UNL     1      -8.181  20.462  33.829  1.00  0.00    -0.365 OA
ATOM     28  H1  UNL     1      -8.879  20.308  34.455  1.00  0.00     0.213 HD
ENDBRANCH   3  27
BRANCH   5  29
HETATM   29  C8  UNL     1      -7.362  15.895  34.587  1.00  0.00     0.141 C 
BRANCH  29  30
HETATM   30  N1  UNL     1      -6.111  16.333  35.115  1.00  0.00    -0.319 N 
ATOM     31  H1  UNL     1      -5.964  17.137  35.725  1.00  0.00     0.172 HD
BRANCH  30  32
HETATM   32  S1  UNL     1      -4.879  15.249  34.530  1.00  0.00     0.228 S 
HETATM   33  O2  UNL     1      -3.724  15.242  35.491  1.00  0.00    -0.206 OA
HETATM   34  O3  UNL     1      -4.370  15.693  33.197  1.00  0.00    -0.206 OA
BRANCH  32  35
HETATM   35  C9  UNL     1      -5.523  13.603  34.348  1.00  0.00     0.189 C 
BRANCH  35  36
HETATM   36  C10 UNL     1      -4.365  12.621  34.344  1.00  0.00     0.180 C 
BRANCH  36  37
HETATM   37  O4  UNL     1      -3.245  13.128  33.714  1.00  0.00    -0.400 OA
ATOM     38  H4  UNL     1      -3.225  12.921  32.787  1.00  0.00     0.209 HD
ENDBRANCH  36  37
ENDBRANCH  35  36
ENDBRANCH  32  35
ENDBRANCH  30  32
ENDBRANCH  29  30
ENDBRANCH   5  29
TORSDOF 8
ENDMDL
MODEL 2
REMARK VINA RESULT: -8.474239916      4.516      7.031
REMARK  8 active torsions:
REMARK  status: ('A' for Active; 'I' for Inactive)
REMARK    1  A    between atoms: C2_2  and  C3_3 
REMARK    2  A    between atoms: C5_5  and  O1_6 
REMARK    3  A    between atoms: C7_9  and  C8_10 
REMARK    4  A    between atoms: C8_10  and  N1_11 
REMARK    5  A    between atoms: N1_11  and  S1_13 
REMARK    6  A    between atoms: S1_13  and  C9_16 
REMARK    7  A    between atoms: C9_16  and  C10_17 
REMARK    8  A    between atoms: C10_17  and  O4_18 
ROOT
HETATM    1  C3  UNL     1      -9.632  17.643  30.891  1.00  0.00     0.009 C 
HETATM    2  C4  UNL     1      -9.648  18.992  31.555  1.00  0.00     0.074 C 
HETATM    3  C5  UNL     1      -8.311  19.347  32.157  1.00  0.00     0.163 C 
HETATM    4  C6  UNL     1      -7.213  18.824  31.273  1.00  0.00     0.079 C 
HETATM    5  C7  UNL     1      -6.724  17.459  31.538  1.00  0.00    -0.018 C 
HETATM    6  C11 UNL     1      -5.963  17.500  32.875  1.00  0.00     0.014 C 
HETATM    7  C12 UNL     1      -6.890  17.088  33.968  1.00  0.00     0.033 C 
HETATM    8  C13 UNL     1      -8.199  17.827  33.924  1.00  0.00     0.125 C 
HETATM    9  C14 UNL     1      -9.294  16.993  33.310  1.00  0.00     0.037 C 
HETATM   10  C15 UNL     1      -9.116  16.655  31.867  1.00  0.00    -0.006 C 
HETATM   11  C16 UNL     1      -7.694  16.339  31.499  1.00  0.00     0.016 C 
HETATM   12  O5  UNL     1      -8.149  19.106  33.475  1.00  0.00    -0.350 OA
ENDROOT
BRANCH   1  13
HETATM   13  C2  UNL     1     -10.977  17.376  30.288  1.00  0.00     0.007 A 
HETATM   14  C1  UNL     1     -11.835  18.647  30.529  1.00  0.00     0.022 C 
HETATM   15  C17 UNL     1     -11.736  16.182  30.624  1.00  0.00     0.057 A 
HETATM   16  C18 UNL     1     -11.698  15.842  29.195  1.00  0.00    -0.021 A 
HETATM   17  C19 UNL     1     -10.997  16.947  28.908  1.00  0.00     0.026 A 
HETATM   18  C25 UNL     1     -11.920  15.130  28.009  1.00  0.00     0.002 A 
HETATM   19  N2  UNL     1     -10.766  16.952  27.557  1.00  0.00    -0.358 N 
HETATM   20  C20 UNL     1     -11.314  15.874  27.021  1.00  0.00     0.043 A 
ATOM     21  H2  UNL     1     -10.254  17.672  27.046  1.00  0.00     0.166 HD
HETATM   22  C21 UNL     1     -11.415  15.338  25.730  1.00  0.00     0.033 A 
HETATM   23  C22 UNL     1     -12.085  14.140  25.504  1.00  0.00     0.044 A 
HETATM   24  C23 UNL     1     -12.667  13.449  26.526  1.00  0.00     0.117 A 
HETATM   25  F1  UNL     1     -13.334  12.276  26.374  1.00  0.00    -0.206 F 
HETATM   26  C24 UNL     1     -12.579  13.960  27.810  1.00  0.00     0.056 A 
ENDBRANCH   1  13
BRANCH   3  27
HETATM   27  O1  UNL     1      -8.221  20.765  32.046  1.00  0.00    -0.365 OA
ATOM     28  H1  UNL     1      -8.181  21.079  32.942  1.00  0.00     0.213 HD
ENDBRANCH   3  27
BRANCH   5  29
HETATM   29  C8  UNL     1      -5.649  17.140  30.514  1.00  0.00     0.141 C 
BRANCH  29  30
HETATM   30  N1  UNL     1      -6.107  17.051  29.166  1.00  0.00    -0.319 N 
ATOM     31  H1  UNL     1      -6.806  16.399  28.810  1.00  0.00     0.172 HD
BRANCH  30  32
HETATM   32  S1  UNL     1      -5.259  18.255  28.236  1.00  0.00     0.228 S 
HETATM   33  O2  UNL     1      -4.040  17.636  27.612  1.00  0.00    -0.206 OA
HETATM   34  O3  UNL     1      -4.811  19.382  29.109  1.00  0.00    -0.206 OA
BRANCH  32  35
HETATM   35  C9  UNL     1      -6.309  18.929  26.971  1.00  0.00     0.189 C 
BRANCH  35  36
HETATM   36  C10 UNL     1      -5.542  20.000  26.217  1.00  0.00     0.180 C 
BRANCH  36  37
HETATM   37  O4  UNL     1      -5.181  21.059  27.026  1.00  0.00    -0.400 OA
ATOM     38  H4  UNL     1      -5.536  21.886  26.721  1.00  0.00     0.209 HD
ENDBRANCH  36  37
ENDBRANCH  35  36
ENDBRANCH  32  35
ENDBRANCH  30  32
ENDBRANCH  29  30
ENDBRANCH   5  29
TORSDOF 8
ENDMDL
MODEL 3
REMARK VINA RESULT: -8.355234245      4.527      7.137
REMARK  8 active torsions:
REMARK  status: ('A' for Active; 'I' for Inactive)
REMARK    1  A    between atoms: C2_2  and  C3_3 
REMARK    2  A    between atoms: C5_5  and  O1_6 
REMARK    3  A    between atoms: C7_9  and  C8_10 
REMARK    4  A    between atoms: C8_10  and  N1_11 
REMARK    5  A    between atoms: N1_11  and  S1_13 
REMARK    6  A    between atoms: S1_13  and  C9_16 
REMARK    7  A    between atoms: C9_16  and  C10_17 
REMARK    8  A    between atoms: C10_17  and  O4_18 
ROOT
HETATM    1  C3  UNL     1      -8.792  17.951  30.850  1.00  0.00     0.009 C 
HETATM    2  C4  UNL     1      -8.693  19.090  31.828  1.00  0.00     0.074 C 
HETATM    3  C5  UNL     1      -7.274  19.326  32.285  1.00  0.00     0.163 C 
HETATM    4  C6  UNL     1      -6.334  19.076  31.139  1.00  0.00     0.079 C 
HETATM    5  C7  UNL     1      -5.820  17.704  30.973  1.00  0.00    -0.018 C 
HETATM    6  C11 UNL     1      -4.858  17.434  32.143  1.00  0.00     0.014 C 
HETATM    7  C12 UNL     1      -5.604  16.732  33.227  1.00  0.00     0.033 C 
HETATM    8  C13 UNL     1      -6.898  17.417  33.573  1.00  0.00     0.125 C 
HETATM    9  C14 UNL     1      -8.083  16.728  32.946  1.00  0.00     0.037 C 
HETATM   10  C15 UNL     1      -8.137  16.768  31.455  1.00  0.00    -0.006 C 
HETATM   11  C16 UNL     1      -6.793  16.599  30.804  1.00  0.00     0.016 C 
HETATM   12  O5  UNL     1      -6.909  18.768  33.459  1.00  0.00    -0.350 OA
ENDROOT
BRANCH   1  13
HETATM   13  C2  UNL     1     -10.217  17.801  30.415  1.00  0.00     0.007 A 
HETATM   14  C1  UNL     1     -10.919  19.155  30.705  1.00  0.00     0.022 C 
HETATM   15  C17 UNL     1     -11.040  16.696  30.880  1.00  0.00     0.057 A 
HETATM   16  C18 UNL     1     -11.203  16.316  29.469  1.00  0.00    -0.021 A 
HETATM   17  C19 UNL     1     -10.439  17.340  29.063  1.00  0.00     0.026 A 
HETATM   18  C25 UNL     1     -11.627  15.599  28.344  1.00  0.00     0.002 A 
HETATM   19  N2  UNL     1     -10.369  17.288  27.695  1.00  0.00    -0.358 N 
HETATM   20  C20 UNL     1     -11.074  16.255  27.266  1.00  0.00     0.043 A 
ATOM     21  H2  UNL     1      -9.855  17.941  27.103  1.00  0.00     0.166 HD
HETATM   22  C21 UNL     1     -11.375  15.697  26.016  1.00  0.00     0.033 A 
HETATM   23  C22 UNL     1     -12.176  14.564  25.913  1.00  0.00     0.044 A 
HETATM   24  C23 UNL     1     -12.696  13.960  27.020  1.00  0.00     0.117 A 
HETATM   25  F1  UNL     1     -13.484  12.854  26.988  1.00  0.00    -0.206 F 
HETATM   26  C24 UNL     1     -12.411  14.493  28.265  1.00  0.00     0.056 A 
ENDBRANCH   1  13
BRANCH   3  27
HETATM   27  O1  UNL     1      -7.192  20.729  32.523  1.00  0.00    -0.365 OA
ATOM     28  H1  UNL     1      -7.308  20.826  33.461  1.00  0.00     0.213 HD
ENDBRANCH   3  27
BRANCH   5  29
HETATM   29  C8  UNL     1      -4.922  17.685  29.749  1.00  0.00     0.141 C 
BRANCH  29  30
HETATM   30  N1  UNL     1      -5.528  17.171  28.564  1.00  0.00    -0.319 N 
ATOM     31  H1  UNL     1      -5.829  16.208  28.412  1.00  0.00     0.172 HD
BRANCH  30  32
HETATM   32  S1  UNL     1      -5.664  18.481  27.424  1.00  0.00     0.228 S 
HETATM   33  O2  UNL     1      -4.888  19.664  27.930  1.00  0.00    -0.206 OA
HETATM   34  O3  UNL     1      -7.089  18.897  27.260  1.00  0.00    -0.206 OA
BRANCH  32  35
HETATM   35  C9  UNL     1      -5.050  17.994  25.829  1.00  0.00     0.189 C 
BRANCH  35  36
HETATM   36  C10 UNL     1      -5.502  19.013  24.798  1.00  0.00     0.180 C 
BRANCH  36  37
HETATM   37  O4  UNL     1      -5.309  20.313  25.221  1.00  0.00    -0.400 OA
ATOM     38  H4  UNL     1      -4.684  20.373  25.934  1.00  0.00     0.209 HD
ENDBRANCH  36  37
ENDBRANCH  35  36
ENDBRANCH  32  35
ENDBRANCH  30  32
ENDBRANCH  29  30
ENDBRANCH   5  29
TORSDOF 8
ENDMDL
MODEL 4
REMARK VINA RESULT: -8.189010197      3.988      6.104
REMARK  8 active torsions:
REMARK  status: ('A' for Active; 'I' for Inactive)
REMARK    1  A    between atoms: C2_2  and  C3_3 
REMARK    2  A    between atoms: C5_5  and  O1_6 
REMARK    3  A    between atoms: C7_9  and  C8_10 
REMARK    4  A    between atoms: C8_10  and  N1_11 
REMARK    5  A    between atoms: N1_11  and  S1_13 
REMARK    6  A    between atoms: S1_13  and  C9_16 
REMARK    7  A    between atoms: C9_16  and  C10_17 
REMARK    8  A    between atoms: C10_17  and  O4_18 
ROOT
HETATM    1  C3  UNL     1      -9.263  16.881  31.227  1.00  0.00     0.009 C 
HETATM    2  C4  UNL     1      -8.363  17.081  30.039  1.00  0.00     0.074 C 
HETATM    3  C5  UNL     1      -6.915  17.229  30.440  1.00  0.00     0.163 C 
HETATM    4  C6  UNL     1      -6.628  16.328  31.609  1.00  0.00     0.079 C 
HETATM    5  C7  UNL     1      -6.831  16.886  32.958  1.00  0.00    -0.018 C 
HETATM    6  C11 UNL     1      -5.733  17.939  33.185  1.00  0.00     0.014 C 
HETATM    7  C12 UNL     1      -6.278  19.284  32.842  1.00  0.00     0.033 C 
HETATM    8  C13 UNL     1      -6.956  19.307  31.499  1.00  0.00     0.125 C 
HETATM    9  C14 UNL     1      -8.457  19.242  31.627  1.00  0.00     0.037 C 
HETATM   10  C15 UNL     1      -9.001  17.973  32.193  1.00  0.00    -0.006 C 
HETATM   11  C16 UNL     1      -8.171  17.413  33.313  1.00  0.00     0.016 C 
HETATM   12  O5  UNL     1      -6.437  18.486  30.554  1.00  0.00    -0.350 OA
ENDROOT
BRANCH   1  13
HETATM   13  C2  UNL     1     -10.672  16.706  30.751  1.00  0.00     0.007 A 
HETATM   14  C1  UNL     1     -11.493  17.885  31.339  1.00  0.00     0.022 C 
HETATM   15  C17 UNL     1     -11.386  15.452  30.934  1.00  0.00     0.057 A 
HETATM   16  C18 UNL     1     -11.525  15.399  29.472  1.00  0.00    -0.021 A 
HETATM   17  C19 UNL     1     -10.862  16.555  29.326  1.00  0.00     0.026 A 
HETATM   18  C25 UNL     1     -11.891  14.928  28.205  1.00  0.00     0.002 A 
HETATM   19  N2  UNL     1     -10.799  16.830  27.984  1.00  0.00    -0.358 N 
HETATM   20  C20 UNL     1     -11.410  15.865  27.317  1.00  0.00     0.043 A 
ATOM     21  H2  UNL     1     -10.353  17.647  27.568  1.00  0.00     0.166 HD
HETATM   22  C21 UNL     1     -11.669  15.590  25.968  1.00  0.00     0.033 A 
HETATM   23  C22 UNL     1     -12.363  14.444  25.592  1.00  0.00     0.044 A 
HETATM   24  C23 UNL     1     -12.816  13.553  26.521  1.00  0.00     0.117 A 
HETATM   25  F1  UNL     1     -13.499  12.417  26.223  1.00  0.00    -0.206 F 
HETATM   26  C24 UNL     1     -12.571  13.805  27.860  1.00  0.00     0.056 A 
ENDBRANCH   1  13
BRANCH   3  27
HETATM   27  O1  UNL     1      -6.175  16.668  29.359  1.00  0.00    -0.365 OA
ATOM     28  H1  UNL     1      -5.549  17.341  29.116  1.00  0.00     0.213 HD
ENDBRANCH   3  27
BRANCH   5  29
HETATM   29  C8  UNL     1      -6.510  15.799  33.968  1.00  0.00     0.141 C 
BRANCH  29  30
HETATM   30  N1  UNL     1      -5.876  14.641  33.426  1.00  0.00    -0.319 N 
ATOM     31  H1  UNL     1      -6.246  14.042  32.689  1.00  0.00     0.172 HD
BRANCH  30  32
HETATM   32  S1  UNL     1      -4.355  14.434  34.250  1.00  0.00     0.228 S 
HETATM   33  O2  UNL     1      -4.296  15.362  35.430  1.00  0.00    -0.206 OA
HETATM   34  O3  UNL     1      -3.212  14.761  33.345  1.00  0.00    -0.206 OA
BRANCH  32  35
HETATM   35  C9  UNL     1      -4.156  12.754  34.793  1.00  0.00     0.189 C 
BRANCH  35  36
HETATM   36  C10 UNL     1      -5.526  12.166  35.080  1.00  0.00     0.180 C 
BRANCH  36  37
HETATM   37  O4  UNL     1      -6.244  12.920  35.988  1.00  0.00    -0.400 OA
ATOM     38  H4  UNL     1      -5.685  13.470  36.524  1.00  0.00     0.209 HD
ENDBRANCH  36  37
ENDBRANCH  35  36
ENDBRANCH  32  35
ENDBRANCH  30  32
ENDBRANCH  29  30
ENDBRANCH   5  29
TORSDOF 8
ENDMDL
MODEL 5
REMARK VINA RESULT: -8.123099862      3.591      6.098
REMARK  8 active torsions:
REMARK  status: ('A' for Active; 'I' for Inactive)
REMARK    1  A    between atoms: C2_2  and  C3_3 
REMARK    2  A    between atoms: C5_5  and  O1_6 
REMARK    3  A    between atoms: C7_9  and  C8_10 
REMARK    4  A    between atoms: C8_10  and  N1_11 
REMARK    5  A    between atoms: N1_11  and  S1_13 
REMARK    6  A    between atoms: S1_13  and  C9_16 
REMARK    7  A    between atoms: C9_16  and  C10_17 
REMARK    8  A    between atoms: C10_17  and  O4_18 
ROOT
HETATM    1  C3  UNL     1      -6.504  15.786  33.788  1.00  0.00     0.009 C 
HETATM    2  C4  UNL     1      -7.876  16.019  34.358  1.00  0.00     0.074 C 
HETATM    3  C5  UNL     1      -8.698  16.952  33.502  1.00  0.00     0.163 C 
HETATM    4  C6  UNL     1      -8.387  16.701  32.053  1.00  0.00     0.079 C 
HETATM    5  C7  UNL     1      -7.284  17.475  31.453  1.00  0.00    -0.018 C 
HETATM    6  C11 UNL     1      -7.756  18.936  31.354  1.00  0.00     0.014 C 
HETATM    7  C12 UNL     1      -7.268  19.682  32.549  1.00  0.00     0.033 C 
HETATM    8  C13 UNL     1      -7.575  18.970  33.838  1.00  0.00     0.125 C 
HETATM    9  C14 UNL     1      -6.371  18.240  34.377  1.00  0.00     0.037 C 
HETATM   10  C15 UNL     1      -5.877  17.106  33.542  1.00  0.00    -0.006 C 
HETATM   11  C16 UNL     1      -5.938  17.380  32.066  1.00  0.00     0.016 C 
HETATM   12  O5  UNL     1      -8.724  18.251  33.866  1.00  0.00    -0.350 OA
ENDROOT
BRANCH   1  13
HETATM   13  C2  UNL     1      -5.764  14.826  34.667  1.00  0.00     0.007 A 
HETATM   14  C1  UNL     1      -6.544  14.754  36.007  1.00  0.00     0.022 C 
HETATM   15  C17 UNL     1      -4.339  14.973  34.920  1.00  0.00     0.057 A 
HETATM   16  C18 UNL     1      -4.171  13.632  34.341  1.00  0.00    -0.021 A 
HETATM   17  C19 UNL     1      -5.486  13.519  34.115  1.00  0.00     0.026 A 
HETATM   18  C25 UNL     1      -3.537  12.463  33.900  1.00  0.00     0.002 A 
HETATM   19  N2  UNL     1      -5.704  12.297  33.535  1.00  0.00    -0.358 N 
HETATM   20  C20 UNL     1      -4.548  11.667  33.407  1.00  0.00     0.043 A 
ATOM     21  H2  UNL     1      -6.613  11.930  33.249  1.00  0.00     0.166 HD
HETATM   22  C21 UNL     1      -4.134  10.427  32.905  1.00  0.00     0.033 A 
HETATM   23  C22 UNL     1      -2.791  10.062  32.920  1.00  0.00     0.044 A 
HETATM   24  C23 UNL     1      -1.835  10.896  33.424  1.00  0.00     0.117 A 
HETATM   25  F1  UNL     1      -0.510  10.601  33.468  1.00  0.00    -0.206 F 
HETATM   26  C24 UNL     1      -2.222  12.127  33.925  1.00  0.00     0.056 A 
ENDBRANCH   1  13
BRANCH   3  27
HETATM   27  O1  UNL     1     -10.043  16.514  33.666  1.00  0.00    -0.365 OA
ATOM     28  H1  UNL     1     -10.393  16.461  32.784  1.00  0.00     0.213 HD
ENDBRANCH   3  27
BRANCH   5  29
HETATM   29  C8  UNL     1      -7.137  17.038  30.007  1.00  0.00     0.141 C 
BRANCH  29  30
HETATM   30  N1  UNL     1      -7.114  18.100  29.056  1.00  0.00    -0.319 N 
ATOM     31  H1  UNL     1      -7.919  18.636  28.732  1.00  0.00     0.172 HD
BRANCH  30  32
HETATM   32  S1  UNL     1      -5.463  18.320  28.544  1.00  0.00     0.228 S 
HETATM   33  O2  UNL     1      -4.658  17.111  28.927  1.00  0.00    -0.206 OA
HETATM   34  O3  UNL     1      -4.855  19.512  29.209  1.00  0.00    -0.206 OA
BRANCH  32  35
HETATM   35  C9  UNL     1      -5.376  18.572  26.787  1.00  0.00     0.189 C 
BRANCH  35  36
HETATM   36  C10 UNL     1      -5.878  19.968  26.467  1.00  0.00     0.180 C 
BRANCH  36  37
HETATM   37  O4  UNL     1      -5.024  20.953  26.921  1.00  0.00    -0.400 OA
ATOM     38  H4  UNL     1      -5.118  21.113  27.853  1.00  0.00     0.209 HD
ENDBRANCH  36  37
ENDBRANCH  35  36
ENDBRANCH  32  35
ENDBRANCH  30  32
ENDBRANCH  29  30
ENDBRANCH   5  29
TORSDOF 8
ENDMDL
