MODEL 1
REMARK VINA RESULT: -8.440516491      0.000      0.000
REMARK  11 active torsions:
REMARK  status: ('A' for Active; 'I' for Inactive)
REMARK    1  A    between atoms: C2_2  and  C3_3 
REMARK    2  A    between atoms: C2_2  and  C10_15 
REMARK    3  A    between atoms: C3_3  and  O1_4 
REMARK    4  A    between atoms: C3_3  and  N1_6 
REMARK    5  A    between atoms: C4_7  and  C5_8 
REMARK    6  A    between atoms: C10_15  and  O4_16 
REMARK    7  A    between atoms: C10_15  and  C11_18 
REMARK    8  A    between atoms: C11_18  and  O5_20 
REMARK    9  A    between atoms: C11_18  and  C13_22 
REMARK   10  A    between atoms: C16_25  and  C17_26 
REMARK       I    between atoms: C17_26  and  N2_28 
REMARK   11  A    between atoms: N2_28  and  C18_30 
ROOT
HETATM    1  C11 UNL     1      -4.908  14.504  34.969  1.00  0.00     0.088 C 
HETATM    2  C12 UNL     1      -3.952  15.158  34.016  1.00  0.00     0.049 C 
ENDROOT
BRANCH   1   3
HETATM    3  C10 UNL     1      -6.310  14.944  34.698  1.00  0.00     0.189 C 
BRANCH   3   4
HETATM    4  C2  UNL     1      -6.508  16.104  33.841  1.00  0.00     0.015 C 
HETATM    5  C1  UNL     1      -6.636  15.799  32.505  1.00  0.00     0.026 C 
BRANCH   4   6
HETATM    6  C3  UNL     1      -6.669  17.488  34.152  1.00  0.00     0.147 C 
BRANCH   6   7
HETATM    7  O1  UNL     1      -6.823  17.727  35.427  1.00  0.00    -0.346 OA
ATOM      8  H1  UNL     1      -7.694  17.534  35.752  1.00  0.00     0.219 HD
ENDBRANCH   6   7
BRANCH   6   9
HETATM    9  N1  UNL     1      -6.704  18.645  33.375  1.00  0.00    -0.342 N 
HETATM   10  C4  UNL     1      -7.941  19.423  33.186  1.00  0.00     0.188 C 
HETATM   11  C6  UNL     1      -7.561  20.691  32.494  1.00  0.00     0.043 C 
HETATM   12  C7  UNL     1      -6.179  20.503  31.964  1.00  0.00     0.013 A 
HETATM   13  C8  UNL     1      -5.757  19.373  31.137  1.00  0.00     0.032 A 
HETATM   14  C9  UNL     1      -5.649  19.264  32.615  1.00  0.00     0.092 A 
BRANCH  10  15
HETATM   15  C5  UNL     1      -8.935  18.638  32.420  1.00  0.00     0.196 C 
HETATM   16  O2  UNL     1      -9.091  18.759  31.157  1.00  0.00    -0.646 OA
HETATM   17  O3  UNL     1      -9.760  17.714  33.046  1.00  0.00    -0.646 OA
ENDBRANCH  10  15
ENDBRANCH   6   9
ENDBRANCH   4   6
ENDBRANCH   3   4
BRANCH   3  18
HETATM   18  O4  UNL     1      -7.029  15.066  35.906  1.00  0.00    -0.388 OA
ATOM     19  H4  UNL     1      -7.553  14.293  36.078  1.00  0.00     0.210 HD
ENDBRANCH   3  18
ENDBRANCH   1   3
BRANCH   1  20
HETATM   20  O5  UNL     1      -4.526  14.904  36.285  1.00  0.00    -0.387 OA
ATOM     21  H5  UNL     1      -3.724  14.460  36.534  1.00  0.00     0.210 HD
ENDBRANCH   1  20
BRANCH   1  22
HETATM   22  C13 UNL     1      -4.732  13.016  34.871  1.00  0.00     0.022 C 
HETATM   23  C14 UNL     1      -3.693  12.432  35.763  1.00  0.00     0.008 C 
HETATM   24  C15 UNL     1      -2.988  11.290  35.107  1.00  0.00     0.014 C 
HETATM   25  C16 UNL     1      -3.809  10.338  34.328  1.00  0.00     0.078 C 
HETATM   26  C23 UNL     1      -4.947  11.020  33.569  1.00  0.00     0.014 C 
HETATM   27  C24 UNL     1      -4.505  12.492  33.495  1.00  0.00     0.008 C 
BRANCH  25  28
HETATM   28  C17 UNL     1      -2.952   9.754  33.230  1.00  0.00     0.227 C 
HETATM   29  O6  UNL     1      -3.560   9.395  32.180  1.00  0.00    -0.273 OA
HETATM   30  N2  UNL     1      -1.563   9.621  33.375  1.00  0.00    -0.313 N 
ATOM     31  H2  UNL     1      -1.206   8.990  34.092  1.00  0.00     0.170 HD
BRANCH  30  32
HETATM   32  C18 UNL     1      -0.731  10.252  32.655  1.00  0.00     0.107 A 
HETATM   33  C19 UNL     1      -0.055  11.342  33.134  1.00  0.00     0.050 A 
HETATM   34  C20 UNL     1       0.854  12.052  32.350  1.00  0.00     0.029 A 
HETATM   35  C21 UNL     1       1.074  11.639  31.060  1.00  0.00     0.049 A 
HETATM   36 CL1  UNL     1       2.214  12.500  30.015  1.00  0.00    -0.083 Cl
HETATM   37  C22 UNL     1       0.381  10.535  30.596  1.00  0.00     0.113 A 
HETATM   38  N3  UNL     1      -0.489   9.876  31.382  1.00  0.00    -0.351 N 
ATOM     39  H3  UNL     1      -0.981   9.067  31.004  1.00  0.00     0.166 HD
ENDBRANCH  30  32
ENDBRANCH  25  28
ENDBRANCH   1  22
TORSDOF 11
ENDMDL
MODEL 2
REMARK VINA RESULT: -8.419251429      3.445      8.717
REMARK  11 active torsions:
REMARK  status: ('A' for Active; 'I' for Inactive)
REMARK    1  A    between atoms: C2_2  and  C3_3 
REMARK    2  A    between atoms: C2_2  and  C10_15 
REMARK    3  A    between atoms: C3_3  and  O1_4 
REMARK    4  A    between atoms: C3_3  and  N1_6 
REMARK    5  A    between atoms: C4_7  and  C5_8 
REMARK    6  A    between atoms: C10_15  and  O4_16 
REMARK    7  A    between atoms: C10_15  and  C11_18 
REMARK    8  A    between atoms: C11_18  and  O5_20 
REMARK    9  A    between atoms: C11_18  and  C13_22 
REMARK   10  A    between atoms: C16_25  and  C17_26 
REMARK       I    between atoms: C17_26  and  N2_28 
REMARK   11  A    between atoms: N2_28  and  C18_30 
ROOT
HETATM    1  C11 UNL     1      -2.835  10.068  33.314  1.00  0.00     0.088 C 
HETATM    2  C12 UNL     1      -3.418   9.851  31.949  1.00  0.00     0.049 C 
ENDROOT
BRANCH   1   3
HETATM    3  C10 UNL     1      -1.453  10.630  33.215  1.00  0.00     0.189 C 
BRANCH   3   4
HETATM    4  C2  UNL     1      -0.871  10.783  31.889  1.00  0.00     0.015 C 
HETATM    5  C1  UNL     1      -0.514   9.595  31.293  1.00  0.00     0.026 C 
BRANCH   4   6
HETATM    6  C3  UNL     1      -0.681  11.939  31.074  1.00  0.00     0.147 C 
BRANCH   6   7
HETATM    7  O1  UNL     1      -1.476  12.931  31.370  1.00  0.00    -0.346 OA
ATOM      8  H1  UNL     1      -1.129  13.518  32.030  1.00  0.00     0.219 HD
ENDBRANCH   6   7
BRANCH   6   9
HETATM    9  N1  UNL     1       0.179  12.230  30.016  1.00  0.00    -0.342 N 
HETATM   10  C4  UNL     1       1.555  12.710  30.236  1.00  0.00     0.188 C 
HETATM   11  C6  UNL     1       2.240  12.704  28.908  1.00  0.00     0.043 C 
HETATM   12  C7  UNL     1       1.178  12.566  27.868  1.00  0.00     0.013 A 
HETATM   13  C8  UNL     1      -0.009  13.416  27.780  1.00  0.00     0.032 A 
HETATM   14  C9  UNL     1      -0.070  12.176  28.598  1.00  0.00     0.092 A 
BRANCH  10  15
HETATM   15  C5  UNL     1       1.542  14.053  30.859  1.00  0.00     0.196 C 
HETATM   16  O2  UNL     1       1.775  15.125  30.202  1.00  0.00    -0.646 OA
HETATM   17  O3  UNL     1       1.271  14.217  32.210  1.00  0.00    -0.646 OA
ENDBRANCH  10  15
ENDBRANCH   6   9
ENDBRANCH   4   6
ENDBRANCH   3   4
BRANCH   3  18
HETATM   18  O4  UNL     1      -0.581   9.944  34.086  1.00  0.00    -0.388 OA
ATOM     19  H4  UNL     1      -0.512   9.025  33.856  1.00  0.00     0.210 HD
ENDBRANCH   3  18
ENDBRANCH   1   3
BRANCH   1  20
HETATM   20  O5  UNL     1      -2.789   8.795  33.957  1.00  0.00    -0.387 OA
ATOM     21  H5  UNL     1      -2.509   8.903  34.859  1.00  0.00     0.210 HD
ENDBRANCH   1  20
BRANCH   1  22
HETATM   22  C13 UNL     1      -3.769  10.946  34.096  1.00  0.00     0.022 C 
HETATM   23  C14 UNL     1      -5.025  11.332  33.395  1.00  0.00     0.008 C 
HETATM   24  C15 UNL     1      -5.443  12.721  33.748  1.00  0.00     0.014 C 
HETATM   25  C16 UNL     1      -5.316  13.133  35.163  1.00  0.00     0.078 C 
HETATM   26  C23 UNL     1      -4.072  12.557  35.839  1.00  0.00     0.014 C 
HETATM   27  C24 UNL     1      -3.157  12.182  34.659  1.00  0.00     0.008 C 
BRANCH  25  28
HETATM   28  C17 UNL     1      -5.083  14.625  35.209  1.00  0.00     0.227 C 
HETATM   29  O6  UNL     1      -3.915  15.015  34.921  1.00  0.00    -0.273 OA
HETATM   30  N2  UNL     1      -6.110  15.518  35.551  1.00  0.00    -0.313 N 
ATOM     31  H2  UNL     1      -6.500  15.474  36.492  1.00  0.00     0.170 HD
BRANCH  30  32
HETATM   32  C18 UNL     1      -6.575  16.376  34.741  1.00  0.00     0.107 A 
HETATM   33  C19 UNL     1      -6.772  16.076  33.419  1.00  0.00     0.050 A 
HETATM   34  C20 UNL     1      -7.272  17.013  32.515  1.00  0.00     0.029 A 
HETATM   35  C21 UNL     1      -7.575  18.272  32.971  1.00  0.00     0.049 A 
HETATM   36 CL1  UNL     1      -8.211  19.504  31.872  1.00  0.00    -0.083 Cl
HETATM   37  C22 UNL     1      -7.370  18.552  34.310  1.00  0.00     0.113 A 
HETATM   38  N3  UNL     1      -6.885  17.623  35.152  1.00  0.00    -0.351 N 
ATOM     39  H3  UNL     1      -6.747  17.868  36.132  1.00  0.00     0.166 HD
ENDBRANCH  30  32
ENDBRANCH  25  28
ENDBRANCH   1  22
TORSDOF 11
ENDMDL
MODEL 3
REMARK VINA RESULT: -8.409207548      4.026      9.298
REMARK  11 active torsions:
REMARK  status: ('A' for Active; 'I' for Inactive)
REMARK    1  A    between atoms: C2_2  and  C3_3 
REMARK    2  A    between atoms: C2_2  and  C10_15 
REMARK    3  A    between atoms: C3_3  and  O1_4 
REMARK    4  A    between atoms: C3_3  and  N1_6 
REMARK    5  A    between atoms: C4_7  and  C5_8 
REMARK    6  A    between atoms: C10_15  and  O4_16 
REMARK    7  A    between atoms: C10_15  and  C11_18 
REMARK    8  A    between atoms: C11_18  and  O5_20 
REMARK    9  A    between atoms: C11_18  and  C13_22 
REMARK   10  A    between atoms: C16_25  and  C17_26 
REMARK       I    between atoms: C17_26  and  N2_28 
REMARK   11  A    between atoms: N2_28  and  C18_30 
ROOT
HETATM    1  C11 UNL     1      -4.783  11.808  34.452  1.00  0.00     0.088 C 
HETATM    2  C12 UNL     1      -5.143  11.485  33.032  1.00  0.00     0.049 C 
ENDROOT
BRANCH   1   3
HETATM    3  C10 UNL     1      -3.370  11.416  34.742  1.00  0.00     0.189 C 
BRANCH   3   4
HETATM    4  C2  UNL     1      -2.495  11.130  33.612  1.00  0.00     0.015 C 
HETATM    5  C1  UNL     1      -2.472   9.805  33.243  1.00  0.00     0.026 C 
BRANCH   4   6
HETATM    6  C3  UNL     1      -1.723  11.994  32.779  1.00  0.00     0.147 C 
BRANCH   6   7
HETATM    7  O1  UNL     1      -2.077  13.249  32.848  1.00  0.00    -0.346 OA
ATOM      8  H1  UNL     1      -1.933  13.733  32.044  1.00  0.00     0.219 HD
ENDBRANCH   6   7
BRANCH   6   9
HETATM    9  N1  UNL     1      -0.667  11.776  31.895  1.00  0.00    -0.342 N 
HETATM   10  C4  UNL     1       0.739  11.817  32.333  1.00  0.00     0.188 C 
HETATM   11  C6  UNL     1       1.569  11.327  31.191  1.00  0.00     0.043 C 
HETATM   12  C7  UNL     1       0.698  11.338  29.980  1.00  0.00     0.013 A 
HETATM   13  C8  UNL     1      -0.082  12.492  29.533  1.00  0.00     0.032 A 
HETATM   14  C9  UNL     1      -0.702  11.526  30.477  1.00  0.00     0.092 A 
BRANCH  10  15
HETATM   15  C5  UNL     1       1.111  13.186  32.755  1.00  0.00     0.196 C 
HETATM   16  O2  UNL     1       0.730  14.233  32.128  1.00  0.00    -0.646 OA
HETATM   17  O3  UNL     1       1.903  13.405  33.873  1.00  0.00    -0.646 OA
ENDBRANCH  10  15
ENDBRANCH   6   9
ENDBRANCH   4   6
ENDBRANCH   3   4
BRANCH   3  18
HETATM   18  O4  UNL     1      -3.334  10.380  35.698  1.00  0.00    -0.388 OA
ATOM     19  H4  UNL     1      -4.145  10.333  36.190  1.00  0.00     0.210 HD
ENDBRANCH   3  18
ENDBRANCH   1   3
BRANCH   1  20
HETATM   20  O5  UNL     1      -5.667  11.064  35.289  1.00  0.00    -0.387 OA
ATOM     21  H5  UNL     1      -6.548  11.099  34.933  1.00  0.00     0.210 HD
ENDBRANCH   1  20
BRANCH   1  22
HETATM   22  C13 UNL     1      -5.045  13.268  34.687  1.00  0.00     0.022 C 
HETATM   23  C14 UNL     1      -5.922  13.584  35.849  1.00  0.00     0.008 C 
HETATM   24  C15 UNL     1      -6.792  14.765  35.571  1.00  0.00     0.014 C 
HETATM   25  C16 UNL     1      -6.180  15.912  34.866  1.00  0.00     0.078 C 
HETATM   26  C23 UNL     1      -5.177  15.485  33.796  1.00  0.00     0.014 C 
HETATM   27  C24 UNL     1      -5.554  14.021  33.507  1.00  0.00     0.008 C 
BRANCH  25  28
HETATM   28  C17 UNL     1      -7.258  16.619  34.077  1.00  0.00     0.227 C 
HETATM   29  O6  UNL     1      -7.030  16.780  32.843  1.00  0.00    -0.273 OA
HETATM   30  N2  UNL     1      -8.439  17.067  34.687  1.00  0.00    -0.313 N 
ATOM     31  H2  UNL     1      -8.375  17.797  35.396  1.00  0.00     0.170 HD
BRANCH  30  32
HETATM   32  C18 UNL     1      -9.584  16.605  34.396  1.00  0.00     0.107 A 
HETATM   33  C19 UNL     1     -10.364  15.987  35.337  1.00  0.00     0.050 A 
HETATM   34  C20 UNL     1     -11.620  15.464  35.029  1.00  0.00     0.029 A 
HETATM   35  C21 UNL     1     -12.081  15.575  33.741  1.00  0.00     0.049 A 
HETATM   36 CL1  UNL     1     -13.665  14.929  33.288  1.00  0.00    -0.083 Cl
HETATM   37  C22 UNL     1     -11.277  16.203  32.807  1.00  0.00     0.113 A 
HETATM   38  N3  UNL     1     -10.071  16.695  33.142  1.00  0.00    -0.351 N 
ATOM     39  H3  UNL     1      -9.507  17.150  32.424  1.00  0.00     0.166 HD
ENDBRANCH  30  32
ENDBRANCH  25  28
ENDBRANCH   1  22
TORSDOF 11
ENDMDL
MODEL 4
REMARK VINA RESULT: -8.397353391      3.142      8.272
REMARK  11 active torsions:
REMARK  status: ('A' for Active; 'I' for Inactive)
REMARK    1  A    between atoms: C2_2  and  C3_3 
REMARK    2  A    between atoms: C2_2  and  C10_15 
REMARK    3  A    between atoms: C3_3  and  O1_4 
REMARK    4  A    between atoms: C3_3  and  N1_6 
REMARK    5  A    between atoms: C4_7  and  C5_8 
REMARK    6  A    between atoms: C10_15  and  O4_16 
REMARK    7  A    between atoms: C10_15  and  C11_18 
REMARK    8  A    between atoms: C11_18  and  O5_20 
REMARK    9  A    between atoms: C11_18  and  C13_22 
REMARK   10  A    between atoms: C16_25  and  C17_26 
REMARK       I    between atoms: C17_26  and  N2_28 
REMARK   11  A    between atoms: N2_28  and  C18_30 
ROOT
HETATM    1  C11 UNL     1      -2.862   9.934  33.479  1.00  0.00     0.088 C 
HETATM    2  C12 UNL     1      -3.408   9.588  32.126  1.00  0.00     0.049 C 
ENDROOT
BRANCH   1   3
HETATM    3  C10 UNL     1      -1.464  10.451  33.371  1.00  0.00     0.189 C 
BRANCH   3   4
HETATM    4  C2  UNL     1      -0.918  10.667  32.038  1.00  0.00     0.015 C 
HETATM    5  C1  UNL     1      -0.571   9.510  31.380  1.00  0.00     0.026 C 
BRANCH   4   6
HETATM    6  C3  UNL     1      -0.754  11.859  31.271  1.00  0.00     0.147 C 
BRANCH   6   7
HETATM    7  O1  UNL     1      -1.606  12.802  31.570  1.00  0.00    -0.346 OA
ATOM      8  H1  UNL     1      -1.274  13.680  31.429  1.00  0.00     0.219 HD
ENDBRANCH   6   7
BRANCH   6   9
HETATM    9  N1  UNL     1       0.129  12.229  30.257  1.00  0.00    -0.342 N 
HETATM   10  C4  UNL     1       1.517  12.634  30.539  1.00  0.00     0.188 C 
HETATM   11  C6  UNL     1       2.219  12.742  29.224  1.00  0.00     0.043 C 
HETATM   12  C7  UNL     1       1.167  12.752  28.166  1.00  0.00     0.013 A 
HETATM   13  C8  UNL     1       0.011  13.648  28.157  1.00  0.00     0.032 A 
HETATM   14  C9  UNL     1      -0.103  12.332  28.839  1.00  0.00     0.092 A 
BRANCH  10  15
HETATM   15  C5  UNL     1       1.544  13.904  31.299  1.00  0.00     0.196 C 
HETATM   16  O2  UNL     1       1.774  15.036  30.751  1.00  0.00    -0.646 OA
HETATM   17  O3  UNL     1       1.313  13.928  32.667  1.00  0.00    -0.646 OA
ENDBRANCH  10  15
ENDBRANCH   6   9
ENDBRANCH   4   6
ENDBRANCH   3   4
BRANCH   3  18
HETATM   18  O4  UNL     1      -0.592   9.682  34.168  1.00  0.00    -0.388 OA
ATOM     19  H4  UNL     1      -1.056   9.253  34.877  1.00  0.00     0.210 HD
ENDBRANCH   3  18
ENDBRANCH   1   3
BRANCH   1  20
HETATM   20  O5  UNL     1      -2.870   8.735  34.254  1.00  0.00    -0.387 OA
ATOM     21  H5  UNL     1      -2.494   8.025  33.746  1.00  0.00     0.210 HD
ENDBRANCH   1  20
BRANCH   1  22
HETATM   22  C13 UNL     1      -3.798  10.910  34.133  1.00  0.00     0.022 C 
HETATM   23  C14 UNL     1      -5.047  11.207  33.378  1.00  0.00     0.008 C 
HETATM   24  C15 UNL     1      -5.461  12.632  33.545  1.00  0.00     0.014 C 
HETATM   25  C16 UNL     1      -5.342  13.223  34.895  1.00  0.00     0.078 C 
HETATM   26  C23 UNL     1      -4.107  12.735  35.650  1.00  0.00     0.014 C 
HETATM   27  C24 UNL     1      -3.184  12.206  34.536  1.00  0.00     0.008 C 
BRANCH  25  28
HETATM   28  C17 UNL     1      -5.102  14.707  34.748  1.00  0.00     0.227 C 
HETATM   29  O6  UNL     1      -3.979  15.132  35.146  1.00  0.00    -0.273 OA
HETATM   30  N2  UNL     1      -6.075  15.557  34.201  1.00  0.00    -0.313 N 
ATOM     31  H2  UNL     1      -6.957  15.674  34.700  1.00  0.00     0.170 HD
BRANCH  30  32
HETATM   32  C18 UNL     1      -5.906  16.188  33.113  1.00  0.00     0.107 A 
HETATM   33  C19 UNL     1      -6.618  15.870  31.987  1.00  0.00     0.050 A 
HETATM   34  C20 UNL     1      -6.436  16.547  30.781  1.00  0.00     0.029 A 
HETATM   35  C21 UNL     1      -5.514  17.562  30.729  1.00  0.00     0.049 A 
HETATM   36 CL1  UNL     1      -5.236  18.456  29.228  1.00  0.00    -0.083 Cl
HETATM   37  C22 UNL     1      -4.807  17.867  31.878  1.00  0.00     0.113 A 
HETATM   38  N3  UNL     1      -5.010  17.191  33.023  1.00  0.00    -0.351 N 
ATOM     39  H3  UNL     1      -4.468  17.445  33.849  1.00  0.00     0.166 HD
ENDBRANCH  30  32
ENDBRANCH  25  28
ENDBRANCH   1  22
TORSDOF 11
ENDMDL
MODEL 5
REMARK VINA RESULT: -8.375377586      3.967      9.463
REMARK  11 active torsions:
REMARK  status: ('A' for Active; 'I' for Inactive)
REMARK    1  A    between atoms: C2_2  and  C3_3 
REMARK    2  A    between atoms: C2_2  and  C10_15 
REMARK    3  A    between atoms: C3_3  and  O1_4 
REMARK    4  A    between atoms: C3_3  and  N1_6 
REMARK    5  A    between atoms: C4_7  and  C5_8 
REMARK    6  A    between atoms: C10_15  and  O4_16 
REMARK    7  A    between atoms: C10_15  and  C11_18 
REMARK    8  A    between atoms: C11_18  and  O5_20 
REMARK    9  A    between atoms: C11_18  and  C13_22 
REMARK   10  A    between atoms: C16_25  and  C17_26 
REMARK       I    between atoms: C17_26  and  N2_28 
REMARK   11  A    between atoms: N2_28  and  C18_30 
ROOT
HETATM    1  C11 UNL     1      -4.263  12.826  34.848  1.00  0.00     0.088 C 
HETATM    2  C12 UNL     1      -5.478  11.961  35.009  1.00  0.00     0.049 C 
ENDROOT
BRANCH   1   3
HETATM    3  C10 UNL     1      -3.361  12.280  33.788  1.00  0.00     0.189 C 
BRANCH   3   4
HETATM    4  C2  UNL     1      -2.419  11.235  34.166  1.00  0.00     0.015 C 
HETATM    5  C1  UNL     1      -2.979  10.213  34.897  1.00  0.00     0.026 C 
BRANCH   4   6
HETATM    6  C3  UNL     1      -1.040  11.051  33.844  1.00  0.00     0.147 C 
BRANCH   6   7
HETATM    7  O1  UNL     1      -0.246  11.093  34.880  1.00  0.00    -0.346 OA
ATOM      8  H1  UNL     1       0.548  10.584  34.776  1.00  0.00     0.219 HD
ENDBRANCH   6   7
BRANCH   6   9
HETATM    9  N1  UNL     1      -0.359  10.840  32.646  1.00  0.00    -0.342 N 
HETATM   10  C4  UNL     1       0.833  11.623  32.277  1.00  0.00     0.188 C 
HETATM   11  C6  UNL     1       1.417  10.986  31.058  1.00  0.00     0.043 C 
HETATM   12  C7  UNL     1       0.384  10.059  30.511  1.00  0.00     0.013 A 
HETATM   13  C8  UNL     1      -0.999  10.440  30.224  1.00  0.00     0.032 A 
HETATM   14  C9  UNL     1      -0.659   9.924  31.576  1.00  0.00     0.092 A 
BRANCH  10  15
HETATM   15  C5  UNL     1       0.473  13.042  32.054  1.00  0.00     0.196 C 
HETATM   16  O2  UNL     1       1.153  14.014  32.531  1.00  0.00    -0.646 OA
HETATM   17  O3  UNL     1      -0.640  13.392  31.303  1.00  0.00    -0.646 OA
ENDBRANCH  10  15
ENDBRANCH   6   9
ENDBRANCH   4   6
ENDBRANCH   3   4
BRANCH   3  18
HETATM   18  O4  UNL     1      -2.719  13.330  33.100  1.00  0.00    -0.388 OA
ATOM     19  H4  UNL     1      -2.612  14.094  33.654  1.00  0.00     0.210 HD
ENDBRANCH   3  18
ENDBRANCH   1   3
BRANCH   1  20
HETATM   20  O5  UNL     1      -3.581  12.829  36.102  1.00  0.00    -0.387 OA
ATOM     21  H5  UNL     1      -3.161  11.987  36.238  1.00  0.00     0.210 HD
ENDBRANCH   1  20
BRANCH   1  22
HETATM   22  C13 UNL     1      -4.714  14.230  34.565  1.00  0.00     0.022 C 
HETATM   23  C14 UNL     1      -5.233  14.986  35.739  1.00  0.00     0.008 C 
HETATM   24  C15 UNL     1      -6.356  15.891  35.353  1.00  0.00     0.014 C 
HETATM   25  C16 UNL     1      -6.223  16.639  34.083  1.00  0.00     0.078 C 
HETATM   26  C23 UNL     1      -5.537  15.828  32.985  1.00  0.00     0.014 C 
HETATM   27  C24 UNL     1      -5.698  14.370  33.455  1.00  0.00     0.008 C 
BRANCH  25  28
HETATM   28  C17 UNL     1      -7.606  16.886  33.527  1.00  0.00     0.227 C 
HETATM   29  O6  UNL     1      -7.744  16.718  32.281  1.00  0.00    -0.273 OA
HETATM   30  N2  UNL     1      -8.670  17.280  34.353  1.00  0.00    -0.313 N 
ATOM     31  H2  UNL     1      -8.614  18.185  34.821  1.00  0.00     0.170 HD
BRANCH  30  32
HETATM   32  C18 UNL     1      -9.697  16.561  34.545  1.00  0.00     0.107 A 
HETATM   33  C19 UNL     1      -9.911  15.927  35.740  1.00  0.00     0.050 A 
HETATM   34  C20 UNL     1     -11.030  15.125  35.961  1.00  0.00     0.029 A 
HETATM   35  C21 UNL     1     -11.941  14.970  34.946  1.00  0.00     0.049 A 
HETATM   36 CL1  UNL     1     -13.379  13.963  35.165  1.00  0.00    -0.083 Cl
HETATM   37  C22 UNL     1     -11.705  15.620  33.748  1.00  0.00     0.113 A 
HETATM   38  N3  UNL     1     -10.614  16.386  33.571  1.00  0.00    -0.351 N 
ATOM     39  H3  UNL     1     -10.475  16.848  32.673  1.00  0.00     0.166 HD
ENDBRANCH  30  32
ENDBRANCH  25  28
ENDBRANCH   1  22
TORSDOF 11
ENDMDL
