MODEL 1
REMARK VINA RESULT: -5.413828865      0.000      0.000
REMARK  5 active torsions:
REMARK  status: ('A' for Active; 'I' for Inactive)
REMARK    1  A    between atoms: N1_2  and  C3_4 
REMARK    2  A    between atoms: C3_4  and  C4_5 
REMARK    3  A    between atoms: C4_5  and  C5_6 
REMARK    4  A    between atoms: C6_9  and  N3_10 
REMARK    5  A    between atoms: C7_15  and  N5_16 
ROOT
HETATM    1  C5  UNL     1      73.391  40.690  77.153  1.00  0.00     0.115 A 
HETATM    2  N2  UNL     1      74.303  39.878  76.588  1.00  0.00    -0.180 N 
ATOM      3  H2  UNL     1      74.500  39.956  75.590  1.00  0.00     0.185 HD
HETATM    4  C6  UNL     1      74.961  38.960  77.330  1.00  0.00     0.691 A 
HETATM    5  N4  UNL     1      74.730  38.823  78.655  1.00  0.00    -0.023 N 
ATOM      6  H4  UNL     1      75.229  38.130  79.211  1.00  0.00     0.203 HD
HETATM    7  C7  UNL     1      73.823  39.632  79.205  1.00  0.00     0.691 A 
HETATM    8  N6  UNL     1      73.162  40.555  78.457  1.00  0.00    -0.180 N 
ATOM      9  H6  UNL     1      72.475  41.160  78.906  1.00  0.00     0.185 HD
ENDROOT
BRANCH   1  10
HETATM   10  C4  UNL     1      72.635  41.711  76.385  1.00  0.00     0.108 C 
BRANCH  10  11
HETATM   11  C3  UNL     1      71.905  42.657  77.263  1.00  0.00     0.279 C 
BRANCH  11  12
HETATM   12  N1  UNL     1      72.142  44.035  77.102  1.00  0.00     0.080 N 
HETATM   13  C1  UNL     1      73.323  44.572  77.696  1.00  0.00     0.309 C 
HETATM   14  C2  UNL     1      71.004  44.812  77.624  1.00  0.00     0.309 C 
ENDBRANCH  11  12
ENDBRANCH  10  11
ENDBRANCH   1  10
BRANCH   4  15
HETATM   15  N3  UNL     1      75.839  38.169  76.815  1.00  0.00    -0.234 N 
ATOM     16  H32 UNL     1      76.769  38.560  76.663  1.00  0.00     0.174 HD
ATOM     17  H31 UNL     1      75.620  37.202  76.573  1.00  0.00     0.174 HD
ENDBRANCH   4  15
BRANCH   7  18
HETATM   18  N5  UNL     1      73.593  39.509  80.472  1.00  0.00    -0.234 N 
ATOM     19  H52 UNL     1      72.994  38.765  80.830  1.00  0.00     0.174 HD
ATOM     20  H51 UNL     1      74.031  40.180  81.103  1.00  0.00     0.174 HD
ENDBRANCH   7  18
TORSDOF 5
ENDMDL
MODEL 2
REMARK VINA RESULT: -5.390575405      0.116      2.177
REMARK  5 active torsions:
REMARK  status: ('A' for Active; 'I' for Inactive)
REMARK    1  A    between atoms: N1_2  and  C3_4 
REMARK    2  A    between atoms: C3_4  and  C4_5 
REMARK    3  A    between atoms: C4_5  and  C5_6 
REMARK    4  A    between atoms: C6_9  and  N3_10 
REMARK    5  A    between atoms: C7_15  and  N5_16 
ROOT
HETATM    1  C5  UNL     1      73.384  40.728  77.110  1.00  0.00     0.115 A 
HETATM    2  N2  UNL     1      73.121  40.598  78.423  1.00  0.00    -0.180 N 
ATOM      3  H2  UNL     1      72.426  41.201  78.862  1.00  0.00     0.185 HD
HETATM    4  C6  UNL     1      73.771  39.676  79.167  1.00  0.00     0.691 A 
HETATM    5  N4  UNL     1      74.701  38.857  78.625  1.00  0.00    -0.023 N 
ATOM      6  H4  UNL     1      75.189  38.162  79.190  1.00  0.00     0.203 HD
HETATM    7  C7  UNL     1      74.955  38.995  77.323  1.00  0.00     0.691 A 
HETATM    8  N6  UNL     1      74.299  39.924  76.576  1.00  0.00    -0.180 N 
ATOM      9  H6  UNL     1      74.515  40.005  75.583  1.00  0.00     0.185 HD
ENDROOT
BRANCH   1  10
HETATM   10  C4  UNL     1      72.705  41.727  76.247  1.00  0.00     0.108 C 
BRANCH  10  11
HETATM   11  C3  UNL     1      71.802  42.620  77.015  1.00  0.00     0.279 C 
BRANCH  11  12
HETATM   12  N1  UNL     1      72.067  44.003  77.006  1.00  0.00     0.080 N 
HETATM   13  C1  UNL     1      73.269  44.446  77.633  1.00  0.00     0.309 C 
HETATM   14  C2  UNL     1      70.955  44.737  77.636  1.00  0.00     0.309 C 
ENDBRANCH  11  12
ENDBRANCH  10  11
ENDBRANCH   1  10
BRANCH   4  15
HETATM   15  N3  UNL     1      73.541  39.529  80.426  1.00  0.00    -0.234 N 
ATOM     16  H32 UNL     1      73.784  40.316  81.028  1.00  0.00     0.174 HD
ATOM     17  H31 UNL     1      73.136  38.673  80.806  1.00  0.00     0.174 HD
ENDBRANCH   4  15
BRANCH   7  18
HETATM   18  N5  UNL     1      75.844  38.218  76.795  1.00  0.00    -0.234 N 
ATOM     19  H52 UNL     1      76.837  38.347  76.984  1.00  0.00     0.174 HD
ATOM     20  H51 UNL     1      75.519  37.470  76.182  1.00  0.00     0.174 HD
ENDBRANCH   7  18
TORSDOF 5
ENDMDL
MODEL 3
REMARK VINA RESULT: -5.347755914      2.834      5.596
REMARK  5 active torsions:
REMARK  status: ('A' for Active; 'I' for Inactive)
REMARK    1  A    between atoms: N1_2  and  C3_4 
REMARK    2  A    between atoms: C3_4  and  C4_5 
REMARK    3  A    between atoms: C4_5  and  C5_6 
REMARK    4  A    between atoms: C6_9  and  N3_10 
REMARK    5  A    between atoms: C7_15  and  N5_16 
ROOT
HETATM    1  C5  UNL     1      75.431  39.139  79.620  1.00  0.00     0.115 A 
HETATM    2  N2  UNL     1      74.781  40.271  79.292  1.00  0.00    -0.180 N 
ATOM      3  H2  UNL     1      74.849  41.086  79.900  1.00  0.00     0.185 HD
HETATM    4  C6  UNL     1      74.038  40.336  78.166  1.00  0.00     0.691 A 
HETATM    5  N4  UNL     1      73.921  39.277  77.333  1.00  0.00    -0.023 N 
ATOM      6  H4  UNL     1      73.360  39.331  76.483  1.00  0.00     0.203 HD
HETATM    7  C7  UNL     1      74.568  38.160  77.667  1.00  0.00     0.691 A 
HETATM    8  N6  UNL     1      75.315  38.097  78.802  1.00  0.00    -0.180 N 
ATOM      9  H6  UNL     1      75.799  37.229  79.031  1.00  0.00     0.185 HD
ENDROOT
BRANCH   1  10
HETATM   10  C4  UNL     1      76.255  39.010  80.848  1.00  0.00     0.108 C 
BRANCH  10  11
HETATM   11  C3  UNL     1      77.563  39.699  80.729  1.00  0.00     0.279 C 
BRANCH  11  12
HETATM   12  N1  UNL     1      78.525  39.157  79.855  1.00  0.00     0.080 N 
HETATM   13  C1  UNL     1      79.855  39.011  80.350  1.00  0.00     0.309 C 
HETATM   14  C2  UNL     1      78.607  39.966  78.626  1.00  0.00     0.309 C 
ENDBRANCH  11  12
ENDBRANCH  10  11
ENDBRANCH   1  10
BRANCH   4  15
HETATM   15  N3  UNL     1      73.404  41.406  77.827  1.00  0.00    -0.234 N 
ATOM     16  H32 UNL     1      73.686  42.268  78.295  1.00  0.00     0.174 HD
ATOM     17  H31 UNL     1      72.661  41.396  77.128  1.00  0.00     0.174 HD
ENDBRANCH   4  15
BRANCH   7  18
HETATM   18  N5  UNL     1      74.462  37.141  76.878  1.00  0.00    -0.234 N 
ATOM     19  H52 UNL     1      75.174  36.940  76.177  1.00  0.00     0.174 HD
ATOM     20  H51 UNL     1      73.641  36.543  76.979  1.00  0.00     0.174 HD
ENDBRANCH   7  18
TORSDOF 5
ENDMDL
MODEL 4
REMARK VINA RESULT: -5.319094972      2.823      5.335
REMARK  5 active torsions:
REMARK  status: ('A' for Active; 'I' for Inactive)
REMARK    1  A    between atoms: N1_2  and  C3_4 
REMARK    2  A    between atoms: C3_4  and  C4_5 
REMARK    3  A    between atoms: C4_5  and  C5_6 
REMARK    4  A    between atoms: C6_9  and  N3_10 
REMARK    5  A    between atoms: C7_15  and  N5_16 
ROOT
HETATM    1  C5  UNL     1      75.435  39.115  79.626  1.00  0.00     0.115 A 
HETATM    2  N2  UNL     1      75.336  38.064  78.791  1.00  0.00    -0.180 N 
ATOM      3  H2  UNL     1      75.828  37.198  79.008  1.00  0.00     0.185 HD
HETATM    4  C6  UNL     1      74.591  38.146  77.666  1.00  0.00     0.691 A 
HETATM    5  N4  UNL     1      73.923  39.276  77.341  1.00  0.00    -0.023 N 
ATOM      6  H4  UNL     1      73.362  39.334  76.492  1.00  0.00     0.203 HD
HETATM    7  C7  UNL     1      74.029  40.312  78.174  1.00  0.00     0.691 A 
HETATM    8  N6  UNL     1      74.779  40.227  79.306  1.00  0.00    -0.180 N 
ATOM      9  H6  UNL     1      74.841  41.035  79.924  1.00  0.00     0.185 HD
ENDROOT
BRANCH   1  10
HETATM   10  C4  UNL     1      76.243  39.081  80.870  1.00  0.00     0.108 C 
BRANCH  10  11
HETATM   11  C3  UNL     1      77.555  39.756  80.714  1.00  0.00     0.279 C 
BRANCH  11  12
HETATM   12  N1  UNL     1      78.500  39.182  79.842  1.00  0.00     0.080 N 
HETATM   13  C1  UNL     1      79.823  38.992  80.340  1.00  0.00     0.309 C 
HETATM   14  C2  UNL     1      78.613  39.987  78.613  1.00  0.00     0.309 C 
ENDBRANCH  11  12
ENDBRANCH  10  11
ENDBRANCH   1  10
BRANCH   4  15
HETATM   15  N3  UNL     1      74.478  37.156  76.848  1.00  0.00    -0.234 N 
ATOM     16  H32 UNL     1      73.804  36.434  77.100  1.00  0.00     0.174 HD
ATOM     17  H31 UNL     1      75.032  37.096  75.993  1.00  0.00     0.174 HD
ENDBRANCH   4  15
BRANCH   7  18
HETATM   18  N5  UNL     1      73.395  41.398  77.872  1.00  0.00    -0.234 N 
ATOM     19  H52 UNL     1      73.331  41.720  76.907  1.00  0.00     0.174 HD
ATOM     20  H51 UNL     1      72.962  41.924  78.631  1.00  0.00     0.174 HD
ENDBRANCH   7  18
TORSDOF 5
ENDMDL
MODEL 5
REMARK VINA RESULT: -5.281847049      2.766      5.248
REMARK  5 active torsions:
REMARK  status: ('A' for Active; 'I' for Inactive)
REMARK    1  A    between atoms: N1_2  and  C3_4 
REMARK    2  A    between atoms: C3_4  and  C4_5 
REMARK    3  A    between atoms: C4_5  and  C5_6 
REMARK    4  A    between atoms: C6_9  and  N3_10 
REMARK    5  A    between atoms: C7_15  and  N5_16 
ROOT
HETATM    1  C5  UNL     1      75.645  38.782  78.046  1.00  0.00     0.115 A 
HETATM    2  N2  UNL     1      75.275  39.206  76.823  1.00  0.00    -0.180 N 
ATOM      3  H2  UNL     1      75.857  38.985  76.015  1.00  0.00     0.185 HD
HETATM    4  C6  UNL     1      74.142  39.921  76.656  1.00  0.00     0.691 A 
HETATM    5  N4  UNL     1      73.343  40.235  77.700  1.00  0.00    -0.023 N 
ATOM      6  H4  UNL     1      72.487  40.775  77.570  1.00  0.00     0.203 HD
HETATM    7  C7  UNL     1      73.718  39.812  78.908  1.00  0.00     0.691 A 
HETATM    8  N6  UNL     1      74.860  39.091  79.074  1.00  0.00    -0.180 N 
ATOM      9  H6  UNL     1      75.120  38.781  80.010  1.00  0.00     0.185 HD
ENDROOT
BRANCH   1  10
HETATM   10  C4  UNL     1      76.882  37.999  78.288  1.00  0.00     0.108 C 
BRANCH  10  11
HETATM   11  C3  UNL     1      77.510  38.316  79.593  1.00  0.00     0.279 C 
BRANCH  11  12
HETATM   12  N1  UNL     1      78.367  39.430  79.667  1.00  0.00     0.080 N 
HETATM   13  C1  UNL     1      78.757  40.042  78.439  1.00  0.00     0.309 C 
HETATM   14  C2  UNL     1      79.604  39.073  80.384  1.00  0.00     0.309 C 
ENDBRANCH  11  12
ENDBRANCH  10  11
ENDBRANCH   1  10
BRANCH   4  15
HETATM   15  N3  UNL     1      73.764  40.340  75.497  1.00  0.00    -0.234 N 
ATOM     16  H32 UNL     1      74.088  41.267  75.222  1.00  0.00     0.174 HD
ATOM     17  H31 UNL     1      73.172  39.778  74.885  1.00  0.00     0.174 HD
ENDBRANCH   4  15
BRANCH   7  18
HETATM   18  N5  UNL     1      72.961  40.108  79.915  1.00  0.00    -0.234 N 
ATOM     19  H52 UNL     1      72.835  41.075  80.213  1.00  0.00     0.174 HD
ATOM     20  H51 UNL     1      72.495  39.342  80.402  1.00  0.00     0.174 HD
ENDBRANCH   7  18
TORSDOF 5
ENDMDL
