MODEL 1
REMARK VINA RESULT: -6.354758262      0.000      0.000
REMARK  6 active torsions:
REMARK  status: ('A' for Active; 'I' for Inactive)
REMARK    1  A    between atoms: C3_5  and  N2_6 
REMARK    2  A    between atoms: N2_6  and  C4_8 
REMARK    3  A    between atoms: C4_8  and  C5_9 
REMARK    4  A    between atoms: C5_9  and  C6_10 
REMARK    5  A    between atoms: C6_10  and  N3_11 
REMARK    6  A    between atoms: C6_10  and  N4_15 
ROOT
HETATM    1  N2  UNL     1      74.266  38.990  78.805  1.00  0.00    -0.225 N 
ATOM      2  H2  UNL     1      73.811  38.084  78.920  1.00  0.00     0.177 HD
ENDROOT
BRANCH   1   3
HETATM    3  C3  UNL     1      73.943  39.696  77.781  1.00  0.00     0.694 A 
HETATM    4  N1  UNL     1      73.114  40.754  77.820  1.00  0.00    -0.179 N 
HETATM    5  C2  UNL     1      72.988  41.264  76.583  1.00  0.00     0.108 A 
ATOM      6  H1  UNL     1      72.653  41.112  78.656  1.00  0.00     0.185 HD
HETATM    7  C1  UNL     1      72.157  42.450  76.179  1.00  0.00     0.091 C 
HETATM    8  N6  UNL     1      73.757  40.493  75.794  1.00  0.00    -0.275 N 
HETATM    9  N5  UNL     1      74.341  39.539  76.506  1.00  0.00    -0.131 N 
ATOM     10  H6  UNL     1      73.875  40.624  74.789  1.00  0.00     0.189 HD
ATOM     11  H5  UNL     1      74.974  38.822  76.152  1.00  0.00     0.205 HD
ENDBRANCH   1   3
BRANCH   1  12
HETATM   12  C4  UNL     1      75.219  39.388  79.792  1.00  0.00     0.142 C 
BRANCH  12  13
HETATM   13  C5  UNL     1      76.397  38.435  79.728  1.00  0.00     0.082 C 
BRANCH  13  14
HETATM   14  C6  UNL     1      77.658  39.256  79.844  1.00  0.00     0.379 C 
BRANCH  14  15
HETATM   15  N3  UNL     1      77.625  40.022  81.074  1.00  0.00    -0.050 N 
ATOM     16  H33 UNL     1      77.697  39.427  81.899  1.00  0.00     0.276 HD
ATOM     17  H32 UNL     1      78.477  40.566  81.211  1.00  0.00     0.276 HD
ATOM     18  H31 UNL     1      76.788  40.604  81.090  1.00  0.00     0.276 HD
ENDBRANCH  14  15
BRANCH  14  19
HETATM   19  N4  UNL     1      77.723  40.178  78.746  1.00  0.00    -0.050 N 
ATOM     20  H43 UNL     1      78.500  39.975  78.116  1.00  0.00     0.276 HD
ATOM     21  H42 UNL     1      76.961  40.044  78.082  1.00  0.00     0.276 HD
ATOM     22  H41 UNL     1      77.757  41.131  79.109  1.00  0.00     0.276 HD
ENDBRANCH  14  19
ENDBRANCH  13  14
ENDBRANCH  12  13
ENDBRANCH   1  12
TORSDOF 6
ENDMDL
MODEL 2
REMARK VINA RESULT: -6.068785288      1.267      1.994
REMARK  6 active torsions:
REMARK  status: ('A' for Active; 'I' for Inactive)
REMARK    1  A    between atoms: C3_5  and  N2_6 
REMARK    2  A    between atoms: N2_6  and  C4_8 
REMARK    3  A    between atoms: C4_8  and  C5_9 
REMARK    4  A    between atoms: C5_9  and  C6_10 
REMARK    5  A    between atoms: C6_10  and  N3_11 
REMARK    6  A    between atoms: C6_10  and  N4_15 
ROOT
HETATM    1  N2  UNL     1      74.418  39.398  76.544  1.00  0.00    -0.225 N 
ATOM      2  H2  UNL     1      74.737  39.310  75.578  1.00  0.00     0.177 HD
ENDROOT
BRANCH   1   3
HETATM    3  C3  UNL     1      73.733  40.439  76.856  1.00  0.00     0.694 A 
HETATM    4  N1  UNL     1      72.969  41.132  75.993  1.00  0.00    -0.179 N 
HETATM    5  C2  UNL     1      72.392  42.160  76.638  1.00  0.00     0.108 A 
ATOM      6  H1  UNL     1      72.848  40.912  75.005  1.00  0.00     0.185 HD
HETATM    7  C1  UNL     1      71.461  43.183  76.050  1.00  0.00     0.091 C 
HETATM    8  N6  UNL     1      72.822  42.076  77.910  1.00  0.00    -0.275 N 
HETATM    9  N5  UNL     1      73.635  41.039  78.056  1.00  0.00    -0.131 N 
ATOM     10  H6  UNL     1      72.559  42.718  78.657  1.00  0.00     0.189 HD
ATOM     11  H5  UNL     1      74.099  40.750  78.918  1.00  0.00     0.205 HD
ENDBRANCH   1   3
BRANCH   1  12
HETATM   12  C4  UNL     1      74.764  38.355  77.457  1.00  0.00     0.142 C 
BRANCH  12  13
HETATM   13  C5  UNL     1      76.276  38.288  77.554  1.00  0.00     0.082 C 
BRANCH  13  14
HETATM   14  C6  UNL     1      76.667  38.728  78.944  1.00  0.00     0.379 C 
BRANCH  14  15
HETATM   15  N3  UNL     1      75.560  38.505  79.851  1.00  0.00    -0.050 N 
ATOM     16  H33 UNL     1      75.734  37.727  80.487  1.00  0.00     0.276 HD
ATOM     17  H32 UNL     1      75.477  39.246  80.547  1.00  0.00     0.276 HD
ATOM     18  H31 UNL     1      74.700  38.381  79.315  1.00  0.00     0.276 HD
ENDBRANCH  14  15
BRANCH  14  19
HETATM   19  N4  UNL     1      76.957  40.134  78.929  1.00  0.00    -0.050 N 
ATOM     20  H43 UNL     1      77.678  40.374  78.249  1.00  0.00     0.276 HD
ATOM     21  H42 UNL     1      76.195  40.682  78.531  1.00  0.00     0.276 HD
ATOM     22  H41 UNL     1      77.199  40.436  79.873  1.00  0.00     0.276 HD
ENDBRANCH  14  19
ENDBRANCH  13  14
ENDBRANCH  12  13
ENDBRANCH   1  12
TORSDOF 6
ENDMDL
MODEL 3
REMARK VINA RESULT: -6.000274799      0.968      1.465
REMARK  6 active torsions:
REMARK  status: ('A' for Active; 'I' for Inactive)
REMARK    1  A    between atoms: C3_5  and  N2_6 
REMARK    2  A    between atoms: N2_6  and  C4_8 
REMARK    3  A    between atoms: C4_8  and  C5_9 
REMARK    4  A    between atoms: C5_9  and  C6_10 
REMARK    5  A    between atoms: C6_10  and  N3_11 
REMARK    6  A    between atoms: C6_10  and  N4_15 
ROOT
HETATM    1  N2  UNL     1      74.636  38.654  77.432  1.00  0.00    -0.225 N 
ATOM      2  H2  UNL     1      74.098  37.802  77.274  1.00  0.00     0.177 HD
ENDROOT
BRANCH   1   3
HETATM    3  C3  UNL     1      73.995  39.767  77.481  1.00  0.00     0.694 A 
HETATM    4  N1  UNL     1      73.412  40.354  76.422  1.00  0.00    -0.179 N 
HETATM    5  C2  UNL     1      72.831  41.501  76.814  1.00  0.00     0.108 A 
ATOM      6  H1  UNL     1      73.411  39.987  75.471  1.00  0.00     0.185 HD
HETATM    7  C1  UNL     1      72.070  42.466  75.949  1.00  0.00     0.091 C 
HETATM    8  N6  UNL     1      73.074  41.596  78.133  1.00  0.00    -0.275 N 
HETATM    9  N5  UNL     1      73.779  40.554  78.551  1.00  0.00    -0.131 N 
ATOM     10  H6  UNL     1      72.761  42.363  78.729  1.00  0.00     0.189 HD
ATOM     11  H5  UNL     1      74.097  40.381  79.505  1.00  0.00     0.205 HD
ENDBRANCH   1   3
BRANCH   1  12
HETATM   12  C4  UNL     1      76.051  38.529  77.585  1.00  0.00     0.142 C 
BRANCH  12  13
HETATM   13  C5  UNL     1      76.344  38.151  79.024  1.00  0.00     0.082 C 
BRANCH  13  14
HETATM   14  C6  UNL     1      77.259  39.205  79.599  1.00  0.00     0.379 C 
BRANCH  14  15
HETATM   15  N3  UNL     1      76.576  39.908  80.665  1.00  0.00    -0.050 N 
ATOM     16  H33 UNL     1      75.725  39.429  80.960  1.00  0.00     0.276 HD
ATOM     17  H32 UNL     1      77.085  39.858  81.548  1.00  0.00     0.276 HD
ATOM     18  H31 UNL     1      76.396  40.871  80.378  1.00  0.00     0.276 HD
ENDBRANCH  14  15
BRANCH  14  19
HETATM   19  N4  UNL     1      77.586  40.155  78.574  1.00  0.00    -0.050 N 
ATOM     20  H43 UNL     1      77.654  39.723  77.652  1.00  0.00     0.276 HD
ATOM     21  H42 UNL     1      76.815  40.793  78.377  1.00  0.00     0.276 HD
ATOM     22  H41 UNL     1      78.440  40.649  78.834  1.00  0.00     0.276 HD
ENDBRANCH  14  19
ENDBRANCH  13  14
ENDBRANCH  12  13
ENDBRANCH   1  12
TORSDOF 6
ENDMDL
MODEL 4
REMARK VINA RESULT: -5.968042192      1.781      5.297
REMARK  6 active torsions:
REMARK  status: ('A' for Active; 'I' for Inactive)
REMARK    1  A    between atoms: C3_5  and  N2_6 
REMARK    2  A    between atoms: N2_6  and  C4_8 
REMARK    3  A    between atoms: C4_8  and  C5_9 
REMARK    4  A    between atoms: C5_9  and  C6_10 
REMARK    5  A    between atoms: C6_10  and  N3_11 
REMARK    6  A    between atoms: C6_10  and  N4_15 
ROOT
HETATM    1  N2  UNL     1      74.123  39.865  77.198  1.00  0.00    -0.225 N 
ATOM      2  H2  UNL     1      74.173  39.638  76.205  1.00  0.00     0.177 HD
ENDROOT
BRANCH   1   3
HETATM    3  C3  UNL     1      74.948  39.279  77.989  1.00  0.00     0.694 A 
HETATM    4  N1  UNL     1      75.803  39.919  78.805  1.00  0.00    -0.179 N 
HETATM    5  C2  UNL     1      76.521  39.015  79.494  1.00  0.00     0.108 A 
ATOM      6  H1  UNL     1      75.893  40.931  78.888  1.00  0.00     0.185 HD
HETATM    7  C1  UNL     1      77.588  39.301  80.513  1.00  0.00     0.091 C 
HETATM    8  N6  UNL     1      76.083  37.814  79.078  1.00  0.00    -0.275 N 
HETATM    9  N5  UNL     1      75.131  37.958  78.167  1.00  0.00    -0.131 N 
ATOM     10  H6  UNL     1      76.434  36.918  79.416  1.00  0.00     0.189 HD
ATOM     11  H5  UNL     1      74.631  37.207  77.690  1.00  0.00     0.205 HD
ENDBRANCH   1   3
BRANCH   1  12
HETATM   12  C4  UNL     1      73.138  40.813  77.616  1.00  0.00     0.142 C 
BRANCH  12  13
HETATM   13  C5  UNL     1      72.665  41.578  76.394  1.00  0.00     0.082 C 
BRANCH  13  14
HETATM   14  C6  UNL     1      72.151  42.918  76.862  1.00  0.00     0.379 C 
BRANCH  14  15
HETATM   15  N3  UNL     1      71.696  43.687  75.722  1.00  0.00    -0.050 N 
ATOM     16  H33 UNL     1      70.681  43.670  75.626  1.00  0.00     0.276 HD
ATOM     17  H32 UNL     1      71.812  44.690  75.864  1.00  0.00     0.276 HD
ATOM     18  H31 UNL     1      72.169  43.358  74.880  1.00  0.00     0.276 HD
ENDBRANCH  14  15
BRANCH  14  19
HETATM   19  N4  UNL     1      73.220  43.640  77.491  1.00  0.00    -0.050 N 
ATOM     20  H43 UNL     1      72.894  44.488  77.955  1.00  0.00     0.276 HD
ATOM     21  H42 UNL     1      73.584  43.157  78.312  1.00  0.00     0.276 HD
ATOM     22  H41 UNL     1      73.947  43.831  76.801  1.00  0.00     0.276 HD
ENDBRANCH  14  19
ENDBRANCH  13  14
ENDBRANCH  12  13
ENDBRANCH   1  12
TORSDOF 6
ENDMDL
MODEL 5
REMARK VINA RESULT: -5.902615640      1.036      1.149
REMARK  6 active torsions:
REMARK  status: ('A' for Active; 'I' for Inactive)
REMARK    1  A    between atoms: C3_5  and  N2_6 
REMARK    2  A    between atoms: N2_6  and  C4_8 
REMARK    3  A    between atoms: C4_8  and  C5_9 
REMARK    4  A    between atoms: C5_9  and  C6_10 
REMARK    5  A    between atoms: C6_10  and  N3_11 
REMARK    6  A    between atoms: C6_10  and  N4_15 
ROOT
HETATM    1  N2  UNL     1      73.691  39.528  78.199  1.00  0.00    -0.225 N 
ATOM      2  H2  UNL     1      73.201  38.647  78.047  1.00  0.00     0.177 HD
ENDROOT
BRANCH   1   3
HETATM    3  C3  UNL     1      73.367  40.530  77.462  1.00  0.00     0.694 A 
HETATM    4  N1  UNL     1      72.919  41.706  77.933  1.00  0.00    -0.179 N 
HETATM    5  C2  UNL     1      72.671  42.532  76.902  1.00  0.00     0.108 A 
ATOM      6  H1  UNL     1      72.787  41.935  78.918  1.00  0.00     0.185 HD
HETATM    7  C1  UNL     1      72.158  43.942  76.983  1.00  0.00     0.091 C 
HETATM    8  N6  UNL     1      72.979  41.832  75.796  1.00  0.00    -0.275 N 
HETATM    9  N5  UNL     1      73.401  40.618  76.119  1.00  0.00    -0.131 N 
ATOM     10  H6  UNL     1      72.898  42.185  74.843  1.00  0.00     0.189 HD
ATOM     11  H5  UNL     1      73.696  39.887  75.471  1.00  0.00     0.205 HD
ENDBRANCH   1   3
BRANCH   1  12
HETATM   12  C4  UNL     1      74.693  39.566  79.217  1.00  0.00     0.142 C 
BRANCH  12  13
HETATM   13  C5  UNL     1      75.897  38.783  78.731  1.00  0.00     0.082 C 
BRANCH  13  14
HETATM   14  C6  UNL     1      77.105  39.281  79.487  1.00  0.00     0.379 C 
BRANCH  14  15
HETATM   15  N3  UNL     1      76.675  39.945  80.701  1.00  0.00    -0.050 N 
ATOM     16  H33 UNL     1      77.431  40.472  81.139  1.00  0.00     0.276 HD
ATOM     17  H32 UNL     1      76.045  40.724  80.511  1.00  0.00     0.276 HD
ATOM     18  H31 UNL     1      76.263  39.261  81.336  1.00  0.00     0.276 HD
ENDBRANCH  14  15
BRANCH  14  19
HETATM   19  N4  UNL     1      77.806  40.237  78.679  1.00  0.00    -0.050 N 
ATOM     20  H43 UNL     1      77.884  41.146  79.134  1.00  0.00     0.276 HD
ATOM     21  H42 UNL     1      78.801  40.026  78.606  1.00  0.00     0.276 HD
ATOM     22  H41 UNL     1      77.356  40.299  77.765  1.00  0.00     0.276 HD
ENDBRANCH  14  19
ENDBRANCH  13  14
ENDBRANCH  12  13
ENDBRANCH   1  12
TORSDOF 6
ENDMDL
