MODEL 1
REMARK VINA RESULT: -5.984772678      0.000      0.000
REMARK  4 active torsions:
REMARK  status: ('A' for Active; 'I' for Inactive)
REMARK    1  A    between atoms: C3_5  and  N2_6 
REMARK    2  A    between atoms: N4_12  and  C5_14 
REMARK    3  A    between atoms: C5_14  and  C6_15 
REMARK    4  A    between atoms: C6_15  and  N5_16 
ROOT
HETATM    1  C1  UNL     1      76.833  39.465  80.352  1.00  0.00     0.090 C 
HETATM    2  C2  UNL     1      75.752  39.427  79.315  1.00  0.00     0.109 A 
HETATM    3  N1  UNL     1      75.556  38.269  78.678  1.00  0.00    -0.180 N 
ATOM      4  H1  UNL     1      76.132  37.459  78.907  1.00  0.00     0.185 HD
HETATM    5  C3  UNL     1      74.609  38.167  77.742  1.00  0.00     0.691 A 
HETATM    6  N3  UNL     1      73.856  39.274  77.460  1.00  0.00    -0.022 N 
ATOM      7  H3  UNL     1      73.133  39.195  76.745  1.00  0.00     0.203 HD
HETATM    8  C4  UNL     1      74.015  40.450  78.069  1.00  0.00     0.697 A 
HETATM    9  N4  UNL     1      73.378  41.464  77.861  1.00  0.00    -0.203 N 
ATOM     10  H4  UNL     1      73.759  42.168  78.494  1.00  0.00     0.183 HD
HETATM   11  N6  UNL     1      75.006  40.489  79.022  1.00  0.00    -0.180 N 
ATOM     12  H6  UNL     1      75.175  41.362  79.521  1.00  0.00     0.185 HD
ENDROOT
BRANCH   9  13
HETATM   13  C5  UNL     1      72.381  42.088  77.161  1.00  0.00     0.106 C 
BRANCH  13  14
HETATM   14  C6  UNL     1      72.469  43.587  77.125  1.00  0.00     0.274 C 
BRANCH  14  15
HETATM   15  N5  UNL     1      73.596  44.069  77.934  1.00  0.00    -0.075 N 
ATOM     16  H53 UNL     1      73.276  44.554  78.772  1.00  0.00     0.274 HD
ATOM     17  H52 UNL     1      74.095  43.300  78.379  1.00  0.00     0.274 HD
ATOM     18  H51 UNL     1      74.222  44.651  77.379  1.00  0.00     0.274 HD
ENDBRANCH  14  15
ENDBRANCH  13  14
ENDBRANCH   9  13
BRANCH   5  19
HETATM   19  N2  UNL     1      74.397  37.041  77.104  1.00  0.00    -0.234 N 
ATOM     20  H22 UNL     1      75.151  36.596  76.580  1.00  0.00     0.174 HD
ATOM     21  H21 UNL     1      73.483  36.588  77.115  1.00  0.00     0.174 HD
ENDBRANCH   5  19
TORSDOF 4
ENDMDL
MODEL 2
REMARK VINA RESULT: -5.697002679      1.733      4.662
REMARK  4 active torsions:
REMARK  status: ('A' for Active; 'I' for Inactive)
REMARK    1  A    between atoms: C3_5  and  N2_6 
REMARK    2  A    between atoms: N4_12  and  C5_14 
REMARK    3  A    between atoms: C5_14  and  C6_15 
REMARK    4  A    between atoms: C6_15  and  N5_16 
ROOT
HETATM    1  C1  UNL     1      72.913  41.522  77.643  1.00  0.00     0.090 C 
HETATM    2  C2  UNL     1      73.874  40.433  78.009  1.00  0.00     0.109 A 
HETATM    3  N1  UNL     1      73.702  39.244  77.427  1.00  0.00    -0.180 N 
ATOM      4  H1  UNL     1      72.939  39.108  76.763  1.00  0.00     0.185 HD
HETATM    5  C3  UNL     1      74.524  38.229  77.710  1.00  0.00     0.691 A 
HETATM    6  N3  UNL     1      75.535  38.447  78.605  1.00  0.00    -0.022 N 
ATOM      7  H3  UNL     1      76.162  37.672  78.821  1.00  0.00     0.203 HD
HETATM    8  C4  UNL     1      75.747  39.617  79.211  1.00  0.00     0.697 A 
HETATM    9  N4  UNL     1      76.625  39.867  80.012  1.00  0.00    -0.203 N 
ATOM     10  H4  UNL     1      76.495  40.845  80.274  1.00  0.00     0.183 HD
HETATM   11  N6  UNL     1      74.866  40.619  78.877  1.00  0.00    -0.180 N 
ATOM     12  H6  UNL     1      74.977  41.536  79.309  1.00  0.00     0.185 HD
ENDROOT
BRANCH   9  13
HETATM   13  C5  UNL     1      77.711  39.430  80.722  1.00  0.00     0.106 C 
BRANCH  13  14
HETATM   14  C6  UNL     1      78.901  39.040  79.892  1.00  0.00     0.274 C 
BRANCH  14  15
HETATM   15  N5  UNL     1      80.117  38.972  80.713  1.00  0.00    -0.075 N 
ATOM     16  H53 UNL     1      80.949  39.206  80.171  1.00  0.00     0.274 HD
ATOM     17  H52 UNL     1      80.155  39.730  81.393  1.00  0.00     0.274 HD
ATOM     18  H51 UNL     1      80.205  38.061  81.162  1.00  0.00     0.274 HD
ENDBRANCH  14  15
ENDBRANCH  13  14
ENDBRANCH   9  13
BRANCH   5  19
HETATM   19  N2  UNL     1      74.376  37.053  77.151  1.00  0.00    -0.234 N 
ATOM     20  H22 UNL     1      74.128  36.978  76.164  1.00  0.00     0.174 HD
ATOM     21  H21 UNL     1      74.502  36.192  77.683  1.00  0.00     0.174 HD
ENDBRANCH   5  19
TORSDOF 4
ENDMDL
MODEL 3
REMARK VINA RESULT: -5.695841420      1.944      5.597
REMARK  4 active torsions:
REMARK  status: ('A' for Active; 'I' for Inactive)
REMARK    1  A    between atoms: C3_5  and  N2_6 
REMARK    2  A    between atoms: N4_12  and  C5_14 
REMARK    3  A    between atoms: C5_14  and  C6_15 
REMARK    4  A    between atoms: C6_15  and  N5_16 
ROOT
HETATM    1  C1  UNL     1      73.720  46.266  77.547  1.00  0.00     0.090 C 
HETATM    2  C2  UNL     1      72.927  44.996  77.511  1.00  0.00     0.109 A 
HETATM    3  N1  UNL     1      71.614  45.101  77.283  1.00  0.00    -0.180 N 
ATOM      4  H1  UNL     1      71.195  46.020  77.142  1.00  0.00     0.185 HD
HETATM    5  C3  UNL     1      70.849  44.007  77.240  1.00  0.00     0.691 A 
HETATM    6  N3  UNL     1      71.445  42.792  77.435  1.00  0.00    -0.022 N 
ATOM      7  H3  UNL     1      70.860  41.957  77.402  1.00  0.00     0.203 HD
HETATM    8  C4  UNL     1      72.751  42.638  77.666  1.00  0.00     0.697 A 
HETATM    9  N4  UNL     1      73.334  41.587  77.846  1.00  0.00    -0.203 N 
ATOM     10  H4  UNL     1      74.313  41.832  77.993  1.00  0.00     0.183 HD
HETATM   11  N6  UNL     1      73.482  43.801  77.698  1.00  0.00    -0.180 N 
ATOM     12  H6  UNL     1      74.486  43.747  77.871  1.00  0.00     0.185 HD
ENDROOT
BRANCH   9  13
HETATM   13  C5  UNL     1      73.270  40.223  77.941  1.00  0.00     0.106 C 
BRANCH  13  14
HETATM   14  C6  UNL     1      74.325  39.594  78.806  1.00  0.00     0.274 C 
BRANCH  14  15
HETATM   15  N5  UNL     1      75.451  40.513  79.016  1.00  0.00    -0.075 N 
ATOM     16  H53 UNL     1      75.262  41.173  79.770  1.00  0.00     0.274 HD
ATOM     17  H52 UNL     1      76.255  40.036  79.425  1.00  0.00     0.274 HD
ATOM     18  H51 UNL     1      75.700  40.991  78.151  1.00  0.00     0.274 HD
ENDBRANCH  14  15
ENDBRANCH  13  14
ENDBRANCH   9  13
BRANCH   5  19
HETATM   19  N2  UNL     1      69.559  44.084  77.017  1.00  0.00    -0.234 N 
ATOM     20  H22 UNL     1      69.131  43.537  76.271  1.00  0.00     0.174 HD
ATOM     21  H21 UNL     1      68.958  44.688  77.579  1.00  0.00     0.174 HD
ENDBRANCH   5  19
TORSDOF 4
ENDMDL
MODEL 4
REMARK VINA RESULT: -5.656959724      2.060      2.946
REMARK  4 active torsions:
REMARK  status: ('A' for Active; 'I' for Inactive)
REMARK    1  A    between atoms: C3_5  and  N2_6 
REMARK    2  A    between atoms: N4_12  and  C5_14 
REMARK    3  A    between atoms: C5_14  and  C6_15 
REMARK    4  A    between atoms: C6_15  and  N5_16 
ROOT
HETATM    1  C1  UNL     1      78.719  39.379  79.465  1.00  0.00     0.090 C 
HETATM    2  C2  UNL     1      77.249  39.455  79.741  1.00  0.00     0.109 A 
HETATM    3  N1  UNL     1      76.831  39.054  80.945  1.00  0.00    -0.180 N 
ATOM      4  H1  UNL     1      77.506  38.715  81.631  1.00  0.00     0.185 HD
HETATM    5  C3  UNL     1      75.532  39.096  81.256  1.00  0.00     0.691 A 
HETATM    6  N3  UNL     1      74.656  39.556  80.312  1.00  0.00    -0.022 N 
ATOM      7  H3  UNL     1      73.664  39.587  80.550  1.00  0.00     0.203 HD
HETATM    8  C4  UNL     1      75.026  39.967  79.098  1.00  0.00     0.697 A 
HETATM    9  N4  UNL     1      74.294  40.384  78.222  1.00  0.00    -0.203 N 
ATOM     10  H4  UNL     1      74.902  40.604  77.432  1.00  0.00     0.183 HD
HETATM   11  N6  UNL     1      76.375  39.899  78.841  1.00  0.00    -0.180 N 
ATOM     12  H6  UNL     1      76.718  40.198  77.929  1.00  0.00     0.185 HD
ENDROOT
BRANCH   9  13
HETATM   13  C5  UNL     1      73.024  40.691  77.816  1.00  0.00     0.106 C 
BRANCH  13  14
HETATM   14  C6  UNL     1      72.912  41.216  76.413  1.00  0.00     0.274 C 
BRANCH  14  15
HETATM   15  N5  UNL     1      73.681  40.387  75.476  1.00  0.00    -0.075 N 
ATOM     16  H53 UNL     1      73.467  39.396  75.590  1.00  0.00     0.274 HD
ATOM     17  H52 UNL     1      73.358  40.506  74.516  1.00  0.00     0.274 HD
ATOM     18  H51 UNL     1      74.680  40.568  75.561  1.00  0.00     0.274 HD
ENDBRANCH  14  15
ENDBRANCH  13  14
ENDBRANCH   9  13
BRANCH   5  19
HETATM   19  N2  UNL     1      75.098  38.708  82.431  1.00  0.00    -0.234 N 
ATOM     20  H22 UNL     1      74.117  38.828  82.684  1.00  0.00     0.174 HD
ATOM     21  H21 UNL     1      75.725  38.282  83.114  1.00  0.00     0.174 HD
ENDBRANCH   5  19
TORSDOF 4
ENDMDL
MODEL 5
REMARK VINA RESULT: -5.539335195      1.541      2.146
REMARK  4 active torsions:
REMARK  status: ('A' for Active; 'I' for Inactive)
REMARK    1  A    between atoms: C3_5  and  N2_6 
REMARK    2  A    between atoms: N4_12  and  C5_14 
REMARK    3  A    between atoms: C5_14  and  C6_15 
REMARK    4  A    between atoms: C6_15  and  N5_16 
ROOT
HETATM    1  C1  UNL     1      76.134  37.801  77.243  1.00  0.00     0.090 C 
HETATM    2  C2  UNL     1      75.088  38.749  77.744  1.00  0.00     0.109 A 
HETATM    3  N1  UNL     1      74.775  38.684  79.042  1.00  0.00    -0.180 N 
ATOM      4  H1  UNL     1      75.244  38.007  79.644  1.00  0.00     0.185 HD
HETATM    5  C3  UNL     1      73.850  39.501  79.553  1.00  0.00     0.691 A 
HETATM    6  N3  UNL     1      73.242  40.394  78.715  1.00  0.00    -0.022 N 
ATOM      7  H3  UNL     1      72.535  41.017  79.107  1.00  0.00     0.203 HD
HETATM    8  C4  UNL     1      73.521  40.496  77.414  1.00  0.00     0.697 A 
HETATM    9  N4  UNL     1      73.014  41.268  76.624  1.00  0.00    -0.203 N 
ATOM     10  H4  UNL     1      73.455  41.076  75.724  1.00  0.00     0.183 HD
HETATM   11  N6  UNL     1      74.481  39.628  76.951  1.00  0.00    -0.180 N 
ATOM     12  H6  UNL     1      74.737  39.658  75.964  1.00  0.00     0.185 HD
ENDROOT
BRANCH   9  13
HETATM   13  C5  UNL     1      72.119  42.278  76.397  1.00  0.00     0.106 C 
BRANCH  13  14
HETATM   14  C6  UNL     1      72.082  43.347  77.452  1.00  0.00     0.274 C 
BRANCH  14  15
HETATM   15  N5  UNL     1      73.412  43.937  77.652  1.00  0.00    -0.075 N 
ATOM     16  H53 UNL     1      73.655  43.990  78.641  1.00  0.00     0.274 HD
ATOM     17  H52 UNL     1      74.153  43.309  77.343  1.00  0.00     0.274 HD
ATOM     18  H51 UNL     1      73.479  44.849  77.200  1.00  0.00     0.274 HD
ENDBRANCH  14  15
ENDBRANCH  13  14
ENDBRANCH   9  13
BRANCH   5  19
HETATM   19  N2  UNL     1      73.526  39.456  80.823  1.00  0.00    -0.234 N 
ATOM     20  H22 UNL     1      73.073  38.628  81.211  1.00  0.00     0.174 HD
ATOM     21  H21 UNL     1      73.717  40.240  81.447  1.00  0.00     0.174 HD
ENDBRANCH   5  19
TORSDOF 4
ENDMDL
