MODEL 1
REMARK VINA RESULT: -5.017823929      0.000      0.000
REMARK  5 active torsions:
REMARK  status: ('A' for Active; 'I' for Inactive)
REMARK    1  A    between atoms: N1_1  and  C1_5 
REMARK    2  A    between atoms: C1_5  and  C2_6 
REMARK    3  A    between atoms: C2_6  and  N2_7 
REMARK    4  A    between atoms: C2_6  and  C3_11 
REMARK    5  A    between atoms: C3_11  and  C4_12 
ROOT
HETATM    1  C2  UNL     1      74.400  39.489  78.027  1.00  0.00     0.210 C 
ENDROOT
BRANCH   1   2
HETATM    2  C1  UNL     1      73.256  40.386  77.743  1.00  0.00     0.262 C 
BRANCH   2   3
HETATM    3  N1  UNL     1      73.243  40.788  76.315  1.00  0.00    -0.077 N 
ATOM      4  H13 UNL     1      72.323  41.118  76.024  1.00  0.00     0.274 HD
ATOM      5  H12 UNL     1      73.771  41.646  76.160  1.00  0.00     0.274 HD
ATOM      6  H11 UNL     1      73.577  40.028  75.722  1.00  0.00     0.274 HD
ENDBRANCH   2   3
ENDBRANCH   1   2
BRANCH   1   7
HETATM    7  N2  UNL     1      73.898  38.093  77.841  1.00  0.00    -0.073 N 
ATOM      8  H23 UNL     1      73.926  37.535  78.694  1.00  0.00     0.274 HD
ATOM      9  H22 UNL     1      72.890  38.043  77.690  1.00  0.00     0.274 HD
ATOM     10  H21 UNL     1      74.441  37.692  77.077  1.00  0.00     0.274 HD
ENDBRANCH   1   7
BRANCH   1  11
HETATM   11  C3  UNL     1      74.989  39.535  79.377  1.00  0.00     0.059 C 
BRANCH  11  12
HETATM   12  C4  UNL     1      76.436  39.812  79.560  1.00  0.00     0.080 C 
HETATM   13  C5  UNL     1      77.074  38.945  80.565  1.00  0.00     0.051 C 
HETATM   14  C6  UNL     1      78.372  38.507  79.953  1.00  0.00     0.103 A 
HETATM   15  N3  UNL     1      79.663  38.857  80.225  1.00  0.00    -0.407 N 
HETATM   16  C7  UNL     1      78.990  39.866  79.606  1.00  0.00     0.116 A 
ATOM     17  H3  UNL     1      80.551  38.558  80.628  1.00  0.00     0.154 HD
HETATM   18  C8  UNL     1      78.464  40.084  78.244  1.00  0.00     0.141 C 
HETATM   19  N4  UNL     1      77.045  39.883  78.273  1.00  0.00    -0.415 N 
ATOM     20  H4  UNL     1      76.499  39.795  77.416  1.00  0.00     0.153 HD
ENDBRANCH  11  12
ENDBRANCH   1  11
TORSDOF 5
ENDMDL
MODEL 2
REMARK VINA RESULT: -4.998576457      1.589      2.654
REMARK  5 active torsions:
REMARK  status: ('A' for Active; 'I' for Inactive)
REMARK    1  A    between atoms: N1_1  and  C1_5 
REMARK    2  A    between atoms: C1_5  and  C2_6 
REMARK    3  A    between atoms: C2_6  and  N2_7 
REMARK    4  A    between atoms: C2_6  and  C3_11 
REMARK    5  A    between atoms: C3_11  and  C4_12 
ROOT
HETATM    1  C2  UNL     1      73.586  40.885  77.128  1.00  0.00     0.210 C 
ENDROOT
BRANCH   1   2
HETATM    2  C1  UNL     1      72.584  41.970  77.236  1.00  0.00     0.262 C 
BRANCH   2   3
HETATM    3  N1  UNL     1      73.231  43.248  77.621  1.00  0.00    -0.077 N 
ATOM      4  H13 UNL     1      74.178  43.102  77.972  1.00  0.00     0.274 HD
ATOM      5  H12 UNL     1      73.456  43.817  76.805  1.00  0.00     0.274 HD
ATOM      6  H11 UNL     1      72.656  43.759  78.290  1.00  0.00     0.274 HD
ENDBRANCH   2   3
ENDBRANCH   1   2
BRANCH   1   7
HETATM    7  N2  UNL     1      73.562  40.429  75.704  1.00  0.00    -0.073 N 
ATOM      8  H23 UNL     1      73.618  39.415  75.603  1.00  0.00     0.274 HD
ATOM      9  H22 UNL     1      72.653  40.551  75.256  1.00  0.00     0.274 HD
ATOM     10  H21 UNL     1      74.316  40.925  75.231  1.00  0.00     0.274 HD
ENDBRANCH   1   7
BRANCH   1  11
HETATM   11  C3  UNL     1      73.381  39.677  77.948  1.00  0.00     0.059 C 
BRANCH  11  12
HETATM   12  C4  UNL     1      74.520  39.050  78.665  1.00  0.00     0.080 C 
HETATM   13  C5  UNL     1      75.786  39.111  77.918  1.00  0.00     0.051 C 
HETATM   14  C6  UNL     1      76.826  39.521  78.918  1.00  0.00     0.103 A 
HETATM   15  N3  UNL     1      77.836  38.820  79.511  1.00  0.00    -0.407 N 
HETATM   16  C7  UNL     1      76.618  38.447  79.993  1.00  0.00     0.116 A 
ATOM     17  H3  UNL     1      78.844  38.673  79.561  1.00  0.00     0.154 HD
HETATM   18  C8  UNL     1      75.597  39.087  80.846  1.00  0.00     0.141 C 
HETATM   19  N4  UNL     1      74.525  39.534  80.006  1.00  0.00    -0.415 N 
ATOM     20  H4  UNL     1      73.803  40.167  80.351  1.00  0.00     0.153 HD
ENDBRANCH  11  12
ENDBRANCH   1  11
TORSDOF 5
ENDMDL
MODEL 3
REMARK VINA RESULT: -4.929861968      1.511      5.158
REMARK  5 active torsions:
REMARK  status: ('A' for Active; 'I' for Inactive)
REMARK    1  A    between atoms: N1_1  and  C1_5 
REMARK    2  A    between atoms: C1_5  and  C2_6 
REMARK    3  A    between atoms: C2_6  and  N2_7 
REMARK    4  A    between atoms: C2_6  and  C3_11 
REMARK    5  A    between atoms: C3_11  and  C4_12 
ROOT
HETATM    1  C2  UNL     1      78.027  39.617  80.467  1.00  0.00     0.210 C 
ENDROOT
BRANCH   1   2
HETATM    2  C1  UNL     1      79.169  38.791  80.015  1.00  0.00     0.262 C 
BRANCH   2   3
HETATM    3  N1  UNL     1      80.374  39.060  80.838  1.00  0.00    -0.077 N 
ATOM      4  H13 UNL     1      80.373  38.512  81.698  1.00  0.00     0.274 HD
ATOM      5  H12 UNL     1      81.216  38.675  80.411  1.00  0.00     0.274 HD
ATOM      6  H11 UNL     1      80.468  40.058  81.026  1.00  0.00     0.274 HD
ENDBRANCH   2   3
ENDBRANCH   1   2
BRANCH   1   7
HETATM    7  N2  UNL     1      78.217  39.832  81.935  1.00  0.00    -0.073 N 
ATOM      8  H23 UNL     1      78.598  40.750  82.163  1.00  0.00     0.274 HD
ATOM      9  H22 UNL     1      77.340  39.928  82.447  1.00  0.00     0.274 HD
ATOM     10  H21 UNL     1      78.795  39.060  82.266  1.00  0.00     0.274 HD
ENDBRANCH   1   7
BRANCH   1  11
HETATM   11  C3  UNL     1      76.671  39.061  80.308  1.00  0.00     0.059 C 
BRANCH  11  12
HETATM   12  C4  UNL     1      75.735  39.630  79.305  1.00  0.00     0.080 C 
HETATM   13  C5  UNL     1      76.144  39.374  77.915  1.00  0.00     0.051 C 
HETATM   14  C6  UNL     1      74.895  38.950  77.199  1.00  0.00     0.103 A 
HETATM   15  N3  UNL     1      74.117  39.593  76.282  1.00  0.00    -0.407 N 
HETATM   16  C7  UNL     1      73.972  40.129  77.525  1.00  0.00     0.116 A 
ATOM     17  H3  UNL     1      73.829  39.641  75.304  1.00  0.00     0.154 HD
HETATM   18  C8  UNL     1      73.359  39.675  78.789  1.00  0.00     0.141 C 
HETATM   19  N4  UNL     1      74.407  39.267  79.677  1.00  0.00    -0.415 N 
ATOM     20  H4  UNL     1      74.213  38.744  80.530  1.00  0.00     0.153 HD
ENDBRANCH  11  12
ENDBRANCH   1  11
TORSDOF 5
ENDMDL
MODEL 4
REMARK VINA RESULT: -4.914805782      3.093      6.136
REMARK  5 active torsions:
REMARK  status: ('A' for Active; 'I' for Inactive)
REMARK    1  A    between atoms: N1_1  and  C1_5 
REMARK    2  A    between atoms: C1_5  and  C2_6 
REMARK    3  A    between atoms: C2_6  and  N2_7 
REMARK    4  A    between atoms: C2_6  and  C3_11 
REMARK    5  A    between atoms: C3_11  and  C4_12 
ROOT
HETATM    1  C2  UNL     1      74.400  39.823  78.679  1.00  0.00     0.210 C 
ENDROOT
BRANCH   1   2
HETATM    2  C1  UNL     1      75.159  38.665  78.153  1.00  0.00     0.262 C 
BRANCH   2   3
HETATM    3  N1  UNL     1      74.251  37.693  77.496  1.00  0.00    -0.077 N 
ATOM      4  H13 UNL     1      74.576  36.733  77.615  1.00  0.00     0.274 HD
ATOM      5  H12 UNL     1      73.361  37.617  77.988  1.00  0.00     0.274 HD
ATOM      6  H11 UNL     1      74.120  37.928  76.513  1.00  0.00     0.274 HD
ENDBRANCH   2   3
ENDBRANCH   1   2
BRANCH   1   7
HETATM    7  N2  UNL     1      73.969  39.451  80.062  1.00  0.00    -0.073 N 
ATOM      8  H23 UNL     1      74.633  38.845  80.544  1.00  0.00     0.274 HD
ATOM      9  H22 UNL     1      74.006  40.230  80.721  1.00  0.00     0.274 HD
ATOM     10  H21 UNL     1      73.039  39.042  79.973  1.00  0.00     0.274 HD
ENDBRANCH   1   7
BRANCH   1  11
HETATM   11  C3  UNL     1      73.175  40.224  77.963  1.00  0.00     0.059 C 
BRANCH  11  12
HETATM   12  C4  UNL     1      72.989  41.626  77.514  1.00  0.00     0.080 C 
HETATM   13  C5  UNL     1      72.717  41.746  76.072  1.00  0.00     0.051 C 
HETATM   14  C6  UNL     1      71.592  42.731  75.955  1.00  0.00     0.103 A 
HETATM   15  N3  UNL     1      71.564  44.023  75.517  1.00  0.00    -0.407 N 
HETATM   16  C7  UNL     1      72.178  43.918  76.727  1.00  0.00     0.116 A 
ATOM     17  H3  UNL     1      71.273  44.655  74.771  1.00  0.00     0.154 HD
HETATM   18  C8  UNL     1      71.725  43.620  78.101  1.00  0.00     0.141 C 
HETATM   19  N4  UNL     1      72.082  42.267  78.408  1.00  0.00    -0.415 N 
ATOM     20  H4  UNL     1      71.706  41.786  79.226  1.00  0.00     0.153 HD
ENDBRANCH  11  12
ENDBRANCH   1  11
TORSDOF 5
ENDMDL
MODEL 5
REMARK VINA RESULT: -4.914419880      1.108      1.494
REMARK  5 active torsions:
REMARK  status: ('A' for Active; 'I' for Inactive)
REMARK    1  A    between atoms: N1_1  and  C1_5 
REMARK    2  A    between atoms: C1_5  and  C2_6 
REMARK    3  A    between atoms: C2_6  and  N2_7 
REMARK    4  A    between atoms: C2_6  and  C3_11 
REMARK    5  A    between atoms: C3_11  and  C4_12 
ROOT
HETATM    1  C2  UNL     1      74.392  39.492  78.171  1.00  0.00     0.210 C 
ENDROOT
BRANCH   1   2
HETATM    2  C1  UNL     1      73.296  40.446  77.884  1.00  0.00     0.262 C 
BRANCH   2   3
HETATM    3  N1  UNL     1      73.236  40.759  76.435  1.00  0.00    -0.077 N 
ATOM      4  H13 UNL     1      73.936  41.452  76.169  1.00  0.00     0.274 HD
ATOM      5  H12 UNL     1      73.566  39.980  75.867  1.00  0.00     0.274 HD
ATOM      6  H11 UNL     1      72.296  41.050  76.166  1.00  0.00     0.274 HD
ENDBRANCH   2   3
ENDBRANCH   1   2
BRANCH   1   7
HETATM    7  N2  UNL     1      73.844  38.127  77.900  1.00  0.00    -0.073 N 
ATOM      8  H23 UNL     1      72.844  38.049  78.085  1.00  0.00     0.274 HD
ATOM      9  H22 UNL     1      73.808  37.895  76.907  1.00  0.00     0.274 HD
ATOM     10  H21 UNL     1      74.408  37.477  78.446  1.00  0.00     0.274 HD
ENDBRANCH   1   7
BRANCH   1  11
HETATM   11  C3  UNL     1      74.927  39.452  79.543  1.00  0.00     0.059 C 
BRANCH  11  12
HETATM   12  C4  UNL     1      76.355  39.131  79.788  1.00  0.00     0.080 C 
HETATM   13  C5  UNL     1      77.188  39.215  78.577  1.00  0.00     0.051 C 
HETATM   14  C6  UNL     1      78.432  39.943  78.993  1.00  0.00     0.103 A 
HETATM   15  N3  UNL     1      79.711  39.508  79.187  1.00  0.00    -0.407 N 
HETATM   16  C7  UNL     1      78.880  39.076  80.176  1.00  0.00     0.116 A 
ATOM     17  H3  UNL     1      80.666  39.508  78.828  1.00  0.00     0.154 HD
HETATM   18  C8  UNL     1      78.170  39.725  81.295  1.00  0.00     0.141 C 
HETATM   19  N4  UNL     1      76.789  39.858  80.935  1.00  0.00    -0.415 N 
ATOM     20  H4  UNL     1      76.149  40.444  81.471  1.00  0.00     0.153 HD
ENDBRANCH  11  12
ENDBRANCH   1  11
TORSDOF 5
ENDMDL
