MODEL 1
REMARK VINA RESULT: -8.133532639      0.000      0.000
REMARK  10 active torsions:
REMARK  status: ('A' for Active; 'I' for Inactive)
REMARK    1  A    between atoms: C2_2  and  O1_4 
REMARK    2  A    between atoms: C2_2  and  C4_6 
REMARK    3  A    between atoms: C5_10  and  C6_11 
REMARK       I    between atoms: C6_11  and  N2_13 
REMARK    4  A    between atoms: N2_13  and  C7_15 
REMARK    5  A    between atoms: C9_18  and  N4_19 
REMARK    6  A    between atoms: N4_19  and  C10_21 
REMARK    7  A    between atoms: C10_21  and  C13_24 
REMARK    8  A    between atoms: C13_24  and  O4_25 
REMARK    9  A    between atoms: C13_24  and  O5_27 
REMARK   10  A    between atoms: C14_29  and  O6_30 
ROOT
HETATM    1  C7  UNL     1     -13.425  -5.141  11.868  1.00  0.00     0.136 A 
HETATM    2  C8  UNL     1     -13.307  -3.743  11.733  1.00  0.00     0.171 A 
HETATM    3  N3  UNL     1     -14.327  -2.908  11.929  1.00  0.00    -0.204 N 
HETATM    4  C9  UNL     1     -15.583  -3.338  12.281  1.00  0.00     0.162 A 
HETATM    5  C14 UNL     1     -15.726  -4.685  12.419  1.00  0.00     0.164 A 
HETATM    6  C15 UNL     1     -14.649  -5.581  12.213  1.00  0.00     0.239 A 
HETATM    7  O7  UNL     1     -14.854  -6.809  12.361  1.00  0.00    -0.283 OA
HETATM    8  N5  UNL     1     -13.880  -1.578  11.710  1.00  0.00     0.002 NA
HETATM    9  N6  UNL     1     -12.489  -1.594  11.822  1.00  0.00    -0.007 NA
HETATM   10  N7  UNL     1     -12.188  -2.905  11.384  1.00  0.00    -0.268 N 
ATOM     11  H7  UNL     1     -11.337  -3.203  10.909  1.00  0.00     0.185 HD
ENDROOT
BRANCH   1  12
HETATM   12  N2  UNL     1     -12.264  -5.884  11.657  1.00  0.00    -0.313 N 
HETATM   13  C6  UNL     1     -11.739  -6.526  10.544  1.00  0.00     0.299 C 
HETATM   14  O3  UNL     1     -12.239  -6.559   9.427  1.00  0.00    -0.263 OA
ATOM     15  H2  UNL     1     -11.682  -5.974  12.489  1.00  0.00     0.169 HD
BRANCH  13  16
HETATM   16  C5  UNL     1     -10.452  -7.250  10.693  1.00  0.00     0.240 A 
HETATM   17  O2  UNL     1      -9.256  -6.869  10.364  1.00  0.00    -0.212 OA
HETATM   18  N1  UNL     1      -8.382  -7.782  10.651  1.00  0.00    -0.243 N 
HETATM   19  C4  UNL     1      -9.004  -8.837  11.201  1.00  0.00     0.138 A 
ATOM     20  H1  UNL     1      -7.378  -7.710  10.485  1.00  0.00     0.196 HD
HETATM   21  N8  UNL     1     -10.303  -8.496  11.226  1.00  0.00    -0.316 N 
ATOM     22  H8  UNL     1     -11.060  -9.078  11.586  1.00  0.00     0.169 HD
BRANCH  19  23
HETATM   23  C2  UNL     1      -8.406 -10.108  11.682  1.00  0.00     0.110 C 
HETATM   24  C1  UNL     1      -8.547 -10.281  13.181  1.00  0.00     0.054 C 
HETATM   25  C3  UNL     1      -6.948 -10.187  11.295  1.00  0.00     0.054 C 
BRANCH  23  26
HETATM   26  O1  UNL     1      -9.046 -11.178  11.047  1.00  0.00    -0.383 OA
ATOM     27  H1  UNL     1      -9.160 -11.880  11.677  1.00  0.00     0.211 HD
ENDBRANCH  23  26
ENDBRANCH  19  23
ENDBRANCH  13  16
ENDBRANCH   1  12
BRANCH   5  28
HETATM   28  O6  UNL     1     -16.900  -5.304  12.765  1.00  0.00    -0.354 OA
ATOM     29  H6  UNL     1     -17.225  -6.099  12.358  1.00  0.00     0.218 HD
ENDBRANCH   5  28
BRANCH   4  30
HETATM   30  N4  UNL     1     -16.613  -2.427  12.473  1.00  0.00    -0.359 N 
ATOM     31  H4  UNL     1     -16.941  -2.021  11.597  1.00  0.00     0.162 HD
BRANCH  30  32
HETATM   32  C10 UNL     1     -17.317  -1.926  13.595  1.00  0.00     0.073 C 
HETATM   33  C11 UNL     1     -18.257  -2.837  14.297  1.00  0.00     0.043 C 
HETATM   34  C12 UNL     1     -18.009  -0.626  13.269  1.00  0.00     0.043 C 
BRANCH  32  35
HETATM   35  C13 UNL     1     -16.276  -1.508  14.683  1.00  0.00     0.281 C 
BRANCH  35  36
HETATM   36  O4  UNL     1     -15.482  -0.541  14.071  1.00  0.00    -0.369 OA
ATOM     37  H4  UNL     1     -15.570   0.232  14.616  1.00  0.00     0.212 HD
ENDBRANCH  35  36
BRANCH  35  38
HETATM   38  O5  UNL     1     -16.890  -0.941  15.770  1.00  0.00    -0.369 OA
ATOM     39  H5  UNL     1     -16.256  -0.675  16.425  1.00  0.00     0.212 HD
ENDBRANCH  35  38
ENDBRANCH  32  35
ENDBRANCH  30  32
ENDBRANCH   4  30
TORSDOF 10
ENDMDL
MODEL 2
REMARK VINA RESULT: -7.682243543      1.645      2.291
REMARK  10 active torsions:
REMARK  status: ('A' for Active; 'I' for Inactive)
REMARK    1  A    between atoms: C2_2  and  O1_4 
REMARK    2  A    between atoms: C2_2  and  C4_6 
REMARK    3  A    between atoms: C5_10  and  C6_11 
REMARK       I    between atoms: C6_11  and  N2_13 
REMARK    4  A    between atoms: N2_13  and  C7_15 
REMARK    5  A    between atoms: C9_18  and  N4_19 
REMARK    6  A    between atoms: N4_19  and  C10_21 
REMARK    7  A    between atoms: C10_21  and  C13_24 
REMARK    8  A    between atoms: C13_24  and  O4_25 
REMARK    9  A    between atoms: C13_24  and  O5_27 
REMARK   10  A    between atoms: C14_29  and  O6_30 
ROOT
HETATM    1  C7  UNL     1     -13.111  -4.679  11.638  1.00  0.00     0.136 A 
HETATM    2  C8  UNL     1     -14.293  -5.261  12.138  1.00  0.00     0.171 A 
HETATM    3  N3  UNL     1     -15.422  -4.574  12.312  1.00  0.00    -0.204 N 
HETATM    4  C9  UNL     1     -15.531  -3.237  12.016  1.00  0.00     0.162 A 
HETATM    5  C14 UNL     1     -14.403  -2.648  11.529  1.00  0.00     0.164 A 
HETATM    6  C15 UNL     1     -13.199  -3.370  11.342  1.00  0.00     0.239 A 
HETATM    7  O7  UNL     1     -12.201  -2.762  10.887  1.00  0.00    -0.283 OA
HETATM    8  N5  UNL     1     -16.415  -5.445  12.832  1.00  0.00     0.002 NA
HETATM    9  N6  UNL     1     -16.002  -6.747  12.546  1.00  0.00    -0.007 NA
HETATM   10  N7  UNL     1     -14.594  -6.604  12.562  1.00  0.00    -0.268 N 
ATOM     11  H7  UNL     1     -13.918  -7.321  12.825  1.00  0.00     0.185 HD
ENDROOT
BRANCH   1  12
HETATM   12  N2  UNL     1     -12.017  -5.531  11.487  1.00  0.00    -0.313 N 
HETATM   13  C6  UNL     1     -11.633  -6.412  10.487  1.00  0.00     0.299 C 
HETATM   14  O3  UNL     1     -12.234  -6.623   9.441  1.00  0.00    -0.263 OA
ATOM     15  H2  UNL     1     -11.367  -5.500  12.272  1.00  0.00     0.169 HD
BRANCH  13  16
HETATM   16  C5  UNL     1     -10.379  -7.185  10.674  1.00  0.00     0.240 A 
HETATM   17  O2  UNL     1      -9.164  -6.861  10.354  1.00  0.00    -0.212 OA
HETATM   18  N1  UNL     1      -8.333  -7.802  10.678  1.00  0.00    -0.243 N 
HETATM   19  C4  UNL     1      -9.007  -8.816  11.245  1.00  0.00     0.138 A 
ATOM     20  H1  UNL     1      -7.325  -7.776  10.527  1.00  0.00     0.196 HD
HETATM   21  N8  UNL     1     -10.291  -8.422  11.240  1.00  0.00    -0.316 N 
ATOM     22  H8  UNL     1     -11.076  -8.963  11.603  1.00  0.00     0.169 HD
BRANCH  19  23
HETATM   23  C2  UNL     1      -8.470 -10.099  11.767  1.00  0.00     0.110 C 
HETATM   24  C1  UNL     1      -8.746 -10.280  13.245  1.00  0.00     0.054 C 
HETATM   25  C3  UNL     1      -6.984 -10.194  11.511  1.00  0.00     0.054 C 
BRANCH  23  26
HETATM   26  O1  UNL     1      -9.063 -11.156  11.068  1.00  0.00    -0.383 OA
ATOM     27  H1  UNL     1      -9.033 -10.960  10.138  1.00  0.00     0.211 HD
ENDBRANCH  23  26
ENDBRANCH  19  23
ENDBRANCH  13  16
ENDBRANCH   1  12
BRANCH   5  28
HETATM   28  O6  UNL     1     -14.315  -1.326  11.177  1.00  0.00    -0.354 OA
ATOM     29  H6  UNL     1     -13.906  -0.656  11.713  1.00  0.00     0.218 HD
ENDBRANCH   5  28
BRANCH   4  30
HETATM   30  N4  UNL     1     -16.730  -2.565  12.215  1.00  0.00    -0.359 N 
ATOM     31  H4  UNL     1     -17.185  -2.316  11.337  1.00  0.00     0.162 HD
BRANCH  30  32
HETATM   32  C10 UNL     1     -17.471  -2.144  13.346  1.00  0.00     0.073 C 
HETATM   33  C11 UNL     1     -18.304  -3.151  14.052  1.00  0.00     0.043 C 
HETATM   34  C12 UNL     1     -18.298  -0.922  13.032  1.00  0.00     0.043 C 
BRANCH  32  35
HETATM   35  C13 UNL     1     -16.469  -1.623  14.425  1.00  0.00     0.281 C 
BRANCH  35  36
HETATM   36  O4  UNL     1     -15.828  -0.540  13.830  1.00  0.00    -0.369 OA
ATOM     37  H4  UNL     1     -15.947   0.182  14.437  1.00  0.00     0.212 HD
ENDBRANCH  35  36
BRANCH  35  38
HETATM   38  O5  UNL     1     -17.126  -1.179  15.544  1.00  0.00    -0.369 OA
ATOM     39  H5  UNL     1     -17.953  -1.631  15.660  1.00  0.00     0.212 HD
ENDBRANCH  35  38
ENDBRANCH  32  35
ENDBRANCH  30  32
ENDBRANCH   4  30
TORSDOF 10
ENDMDL
MODEL 3
REMARK VINA RESULT: -7.364705030      4.966      6.346
REMARK  10 active torsions:
REMARK  status: ('A' for Active; 'I' for Inactive)
REMARK    1  A    between atoms: C2_2  and  O1_4 
REMARK    2  A    between atoms: C2_2  and  C4_6 
REMARK    3  A    between atoms: C5_10  and  C6_11 
REMARK       I    between atoms: C6_11  and  N2_13 
REMARK    4  A    between atoms: N2_13  and  C7_15 
REMARK    5  A    between atoms: C9_18  and  N4_19 
REMARK    6  A    between atoms: N4_19  and  C10_21 
REMARK    7  A    between atoms: C10_21  and  C13_24 
REMARK    8  A    between atoms: C13_24  and  O4_25 
REMARK    9  A    between atoms: C13_24  and  O5_27 
REMARK   10  A    between atoms: C14_29  and  O6_30 
ROOT
HETATM    1  C7  UNL     1     -14.638  -8.407  11.474  1.00  0.00     0.136 A 
HETATM    2  C8  UNL     1     -13.483  -7.816  10.924  1.00  0.00     0.171 A 
HETATM    3  N3  UNL     1     -13.125  -6.556  11.172  1.00  0.00    -0.204 N 
HETATM    4  C9  UNL     1     -13.853  -5.724  11.988  1.00  0.00     0.162 A 
HETATM    5  C14 UNL     1     -14.975  -6.270  12.534  1.00  0.00     0.164 A 
HETATM    6  C15 UNL     1     -15.363  -7.607  12.276  1.00  0.00     0.239 A 
HETATM    7  O7  UNL     1     -16.408  -8.042  12.816  1.00  0.00    -0.283 OA
HETATM    8  N5  UNL     1     -11.926  -6.271  10.467  1.00  0.00     0.002 NA
HETATM    9  N6  UNL     1     -11.335  -7.497  10.160  1.00  0.00    -0.007 NA
HETATM   10  N7  UNL     1     -12.471  -8.333  10.038  1.00  0.00    -0.268 N 
ATOM     11  H7  UNL     1     -12.557  -9.150   9.434  1.00  0.00     0.185 HD
ENDROOT
BRANCH   1  12
HETATM   12  N2  UNL     1     -14.867  -9.742  11.144  1.00  0.00    -0.313 N 
HETATM   13  C6  UNL     1     -14.526 -10.941  11.753  1.00  0.00     0.299 C 
HETATM   14  O3  UNL     1     -13.907 -11.068  12.802  1.00  0.00    -0.263 OA
ATOM     15  H2  UNL     1     -15.392  -9.862  10.277  1.00  0.00     0.169 HD
BRANCH  13  16
HETATM   16  C5  UNL     1     -14.937 -12.206  11.093  1.00  0.00     0.240 A 
HETATM   17  O2  UNL     1     -14.621 -13.427  11.398  1.00  0.00    -0.212 OA
HETATM   18  N1  UNL     1     -15.178 -14.269  10.584  1.00  0.00    -0.243 N 
HETATM   19  C4  UNL     1     -15.907 -13.595   9.679  1.00  0.00     0.138 A 
ATOM     20  H1  UNL     1     -15.078 -15.283  10.624  1.00  0.00     0.196 HD
HETATM   21  N8  UNL     1     -15.753 -12.302  10.005  1.00  0.00    -0.316 N 
ATOM     22  H8  UNL     1     -16.179 -11.514   9.516  1.00  0.00     0.169 HD
BRANCH  19  23
HETATM   23  C2  UNL     1     -16.714 -14.143   8.558  1.00  0.00     0.110 C 
HETATM   24  C1  UNL     1     -16.238 -15.513   8.121  1.00  0.00     0.054 C 
HETATM   25  C3  UNL     1     -16.693 -13.198   7.380  1.00  0.00     0.054 C 
BRANCH  23  26
HETATM   26  O1  UNL     1     -18.048 -14.242   8.966  1.00  0.00    -0.383 OA
ATOM     27  H1  UNL     1     -18.465 -13.396   8.849  1.00  0.00     0.211 HD
ENDBRANCH  23  26
ENDBRANCH  19  23
ENDBRANCH  13  16
ENDBRANCH   1  12
BRANCH   5  28
HETATM   28  O6  UNL     1     -15.829  -5.599  13.372  1.00  0.00    -0.354 OA
ATOM     29  H6  UNL     1     -15.743  -5.580  14.317  1.00  0.00     0.218 HD
ENDBRANCH   5  28
BRANCH   4  30
HETATM   30  N4  UNL     1     -13.438  -4.419  12.214  1.00  0.00    -0.359 N 
ATOM     31  H4  UNL     1     -12.825  -4.341  13.026  1.00  0.00     0.162 HD
BRANCH  30  32
HETATM   32  C10 UNL     1     -13.664  -3.168  11.589  1.00  0.00     0.073 C 
HETATM   33  C11 UNL     1     -13.726  -1.957  12.446  1.00  0.00     0.043 C 
HETATM   34  C12 UNL     1     -14.870  -3.220  10.685  1.00  0.00     0.043 C 
BRANCH  32  35
HETATM   35  C13 UNL     1     -12.490  -2.897  10.594  1.00  0.00     0.281 C 
BRANCH  35  36
HETATM   36  O4  UNL     1     -11.360  -3.423  11.216  1.00  0.00    -0.369 OA
ATOM     37  H4  UNL     1     -10.760  -3.625  10.508  1.00  0.00     0.212 HD
ENDBRANCH  35  36
BRANCH  35  38
HETATM   38  O5  UNL     1     -12.679  -3.556   9.407  1.00  0.00    -0.369 OA
ATOM     39  H5  UNL     1     -12.019  -3.314   8.768  1.00  0.00     0.212 HD
ENDBRANCH  35  38
ENDBRANCH  32  35
ENDBRANCH  30  32
ENDBRANCH   4  30
TORSDOF 10
ENDMDL
MODEL 4
REMARK VINA RESULT: -7.361249206      6.946     11.290
REMARK  10 active torsions:
REMARK  status: ('A' for Active; 'I' for Inactive)
REMARK    1  A    between atoms: C2_2  and  O1_4 
REMARK    2  A    between atoms: C2_2  and  C4_6 
REMARK    3  A    between atoms: C5_10  and  C6_11 
REMARK       I    between atoms: C6_11  and  N2_13 
REMARK    4  A    between atoms: N2_13  and  C7_15 
REMARK    5  A    between atoms: C9_18  and  N4_19 
REMARK    6  A    between atoms: N4_19  and  C10_21 
REMARK    7  A    between atoms: C10_21  and  C13_24 
REMARK    8  A    between atoms: C13_24  and  O4_25 
REMARK    9  A    between atoms: C13_24  and  O5_27 
REMARK   10  A    between atoms: C14_29  and  O6_30 
ROOT
HETATM    1  C7  UNL     1     -14.689 -12.367  11.186  1.00  0.00     0.136 A 
HETATM    2  C8  UNL     1     -15.452 -12.837  10.099  1.00  0.00     0.171 A 
HETATM    3  N3  UNL     1     -15.701 -14.130   9.893  1.00  0.00    -0.204 N 
HETATM    4  C9  UNL     1     -15.237 -15.118  10.726  1.00  0.00     0.162 A 
HETATM    5  C14 UNL     1     -14.496 -14.693  11.787  1.00  0.00     0.164 A 
HETATM    6  C15 UNL     1     -14.225 -13.321  12.013  1.00  0.00     0.239 A 
HETATM    7  O7  UNL     1     -13.538 -13.004  13.013  1.00  0.00    -0.283 OA
HETATM    8  N5  UNL     1     -16.487 -14.265   8.717  1.00  0.00     0.002 NA
HETATM    9  N6  UNL     1     -17.076 -13.023   8.478  1.00  0.00    -0.007 NA
HETATM   10  N7  UNL     1     -16.106 -12.145   9.017  1.00  0.00    -0.268 N 
ATOM     11  H7  UNL     1     -15.907 -11.197   8.699  1.00  0.00     0.185 HD
ENDROOT
BRANCH   1  12
HETATM   12  N2  UNL     1     -14.535 -10.985  11.283  1.00  0.00    -0.313 N 
HETATM   13  C6  UNL     1     -15.436  -9.930  11.298  1.00  0.00     0.299 C 
HETATM   14  O3  UNL     1     -16.655 -10.020  11.230  1.00  0.00    -0.263 OA
ATOM     15  H2  UNL     1     -13.562 -10.689  11.359  1.00  0.00     0.169 HD
BRANCH  13  16
HETATM   16  C5  UNL     1     -14.899  -8.549  11.404  1.00  0.00     0.240 A 
HETATM   17  O2  UNL     1     -13.830  -8.045  10.871  1.00  0.00    -0.212 OA
HETATM   18  N1  UNL     1     -13.693  -6.797  11.196  1.00  0.00    -0.243 N 
HETATM   19  C4  UNL     1     -14.714  -6.429  11.987  1.00  0.00     0.138 A 
ATOM     20  H1  UNL     1     -12.930  -6.190  10.896  1.00  0.00     0.196 HD
HETATM   21  N8  UNL     1     -15.468  -7.533  12.113  1.00  0.00    -0.316 N 
ATOM     22  H8  UNL     1     -16.330  -7.601  12.654  1.00  0.00     0.169 HD
BRANCH  19  23
HETATM   23  C2  UNL     1     -14.969  -5.100  12.598  1.00  0.00     0.110 C 
HETATM   24  C1  UNL     1     -16.448  -4.783  12.692  1.00  0.00     0.054 C 
HETATM   25  C3  UNL     1     -14.265  -4.015  11.819  1.00  0.00     0.054 C 
BRANCH  23  26
HETATM   26  O1  UNL     1     -14.426  -5.082  13.887  1.00  0.00    -0.383 OA
ATOM     27  H1  UNL     1     -13.640  -4.547  13.878  1.00  0.00     0.211 HD
ENDBRANCH  23  26
ENDBRANCH  19  23
ENDBRANCH  13  16
ENDBRANCH   1  12
BRANCH   5  28
HETATM   28  O6  UNL     1     -13.946 -15.526  12.727  1.00  0.00    -0.354 OA
ATOM     29  H6  UNL     1     -13.052 -15.843  12.702  1.00  0.00     0.218 HD
ENDBRANCH   5  28
BRANCH   4  30
HETATM   30  N4  UNL     1     -15.524 -16.452  10.468  1.00  0.00    -0.359 N 
ATOM     31  H4  UNL     1     -16.450 -16.721  10.800  1.00  0.00     0.162 HD
BRANCH  30  32
HETATM   32  C10 UNL     1     -14.838 -17.529   9.855  1.00  0.00     0.073 C 
HETATM   33  C11 UNL     1     -13.546 -17.964  10.446  1.00  0.00     0.043 C 
HETATM   34  C12 UNL     1     -14.673 -17.298   8.374  1.00  0.00     0.043 C 
BRANCH  32  35
HETATM   35  C13 UNL     1     -15.754 -18.793   9.915  1.00  0.00     0.281 C 
BRANCH  35  36
HETATM   36  O4  UNL     1     -15.022 -19.736  10.632  1.00  0.00    -0.369 OA
ATOM     37  H4  UNL     1     -14.697 -19.270  11.393  1.00  0.00     0.212 HD
ENDBRANCH  35  36
BRANCH  35  38
HETATM   38  O5  UNL     1     -16.916 -18.536  10.596  1.00  0.00    -0.369 OA
ATOM     39  H5  UNL     1     -17.678 -18.719  10.059  1.00  0.00     0.212 HD
ENDBRANCH  35  38
ENDBRANCH  32  35
ENDBRANCH  30  32
ENDBRANCH   4  30
TORSDOF 10
ENDMDL
MODEL 5
REMARK VINA RESULT: -7.273424026      5.569      8.870
REMARK  10 active torsions:
REMARK  status: ('A' for Active; 'I' for Inactive)
REMARK    1  A    between atoms: C2_2  and  O1_4 
REMARK    2  A    between atoms: C2_2  and  C4_6 
REMARK    3  A    between atoms: C5_10  and  C6_11 
REMARK       I    between atoms: C6_11  and  N2_13 
REMARK    4  A    between atoms: N2_13  and  C7_15 
REMARK    5  A    between atoms: C9_18  and  N4_19 
REMARK    6  A    between atoms: N4_19  and  C10_21 
REMARK    7  A    between atoms: C10_21  and  C13_24 
REMARK    8  A    between atoms: C13_24  and  O4_25 
REMARK    9  A    between atoms: C13_24  and  O5_27 
REMARK   10  A    between atoms: C14_29  and  O6_30 
ROOT
HETATM    1  C7  UNL     1     -14.761  -8.964  10.713  1.00  0.00     0.136 A 
HETATM    2  C8  UNL     1     -15.958  -8.962   9.970  1.00  0.00     0.171 A 
HETATM    3  N3  UNL     1     -16.661 -10.068   9.723  1.00  0.00    -0.204 N 
HETATM    4  C9  UNL     1     -16.278 -11.307  10.174  1.00  0.00     0.162 A 
HETATM    5  C14 UNL     1     -15.123 -11.340  10.897  1.00  0.00     0.164 A 
HETATM    6  C15 UNL     1     -14.371 -10.171  11.163  1.00  0.00     0.239 A 
HETATM    7  O7  UNL     1     -13.319 -10.276  11.838  1.00  0.00    -0.283 OA
HETATM    8  N5  UNL     1     -17.801  -9.725   8.950  1.00  0.00     0.002 NA
HETATM    9  N6  UNL     1     -18.010  -8.355   9.120  1.00  0.00    -0.007 NA
HETATM   10  N7  UNL     1     -16.688  -7.896   9.332  1.00  0.00    -0.268 N 
ATOM     11  H7  UNL     1     -16.320  -6.979   9.080  1.00  0.00     0.185 HD
ENDROOT
BRANCH   1  12
HETATM   12  N2  UNL     1     -14.152  -7.726  10.910  1.00  0.00    -0.313 N 
HETATM   13  C6  UNL     1     -12.854  -7.269  10.733  1.00  0.00     0.299 C 
HETATM   14  O3  UNL     1     -11.906  -7.928  10.322  1.00  0.00    -0.263 OA
ATOM     15  H2  UNL     1     -14.791  -7.010  11.255  1.00  0.00     0.169 HD
BRANCH  13  16
HETATM   16  C5  UNL     1     -12.556  -5.853  11.065  1.00  0.00     0.240 A 
HETATM   17  O2  UNL     1     -11.412  -5.297  11.322  1.00  0.00    -0.212 OA
HETATM   18  N1  UNL     1     -11.555  -4.033  11.569  1.00  0.00    -0.243 N 
HETATM   19  C4  UNL     1     -12.855  -3.706  11.479  1.00  0.00     0.138 A 
ATOM     20  H1  UNL     1     -10.799  -3.387  11.796  1.00  0.00     0.196 HD
HETATM   21  N8  UNL     1     -13.477  -4.853  11.162  1.00  0.00    -0.316 N 
ATOM     22  H8  UNL     1     -14.481  -4.959  11.016  1.00  0.00     0.169 HD
BRANCH  19  23
HETATM   23  C2  UNL     1     -13.484  -2.377  11.683  1.00  0.00     0.110 C 
HETATM   24  C1  UNL     1     -12.462  -1.288  11.936  1.00  0.00     0.054 C 
HETATM   25  C3  UNL     1     -14.468  -2.426  12.828  1.00  0.00     0.054 C 
BRANCH  23  26
HETATM   26  O1  UNL     1     -14.219  -2.043  10.541  1.00  0.00    -0.383 OA
ATOM     27  H1  UNL     1     -14.701  -2.811  10.256  1.00  0.00     0.211 HD
ENDBRANCH  23  26
ENDBRANCH  19  23
ENDBRANCH  13  16
ENDBRANCH   1  12
BRANCH   5  28
HETATM   28  O6  UNL     1     -14.580 -12.480  11.431  1.00  0.00    -0.354 OA
ATOM     29  H6  UNL     1     -14.048 -12.500  12.217  1.00  0.00     0.218 HD
ENDBRANCH   5  28
BRANCH   4  30
HETATM   30  N4  UNL     1     -17.044 -12.430   9.890  1.00  0.00    -0.359 N 
ATOM     31  H4  UNL     1     -17.588 -12.743  10.695  1.00  0.00     0.162 HD
BRANCH  30  32
HETATM   32  C10 UNL     1     -17.251 -13.244   8.750  1.00  0.00     0.073 C 
HETATM   33  C11 UNL     1     -16.553 -12.879   7.491  1.00  0.00     0.043 C 
HETATM   34  C12 UNL     1     -18.722 -13.444   8.482  1.00  0.00     0.043 C 
BRANCH  32  35
HETATM   35  C13 UNL     1     -16.755 -14.689   9.081  1.00  0.00     0.281 C 
BRANCH  35  36
HETATM   36  O4  UNL     1     -16.394 -15.237   7.853  1.00  0.00    -0.369 OA
ATOM     37  H4  UNL     1     -15.536 -14.875   7.664  1.00  0.00     0.212 HD
ENDBRANCH  35  36
BRANCH  35  38
HETATM   38  O5  UNL     1     -15.646 -14.662   9.888  1.00  0.00    -0.369 OA
ATOM     39  H5  UNL     1     -14.863 -14.457   9.392  1.00  0.00     0.212 HD
ENDBRANCH  35  38
ENDBRANCH  32  35
ENDBRANCH  30  32
ENDBRANCH   4  30
TORSDOF 10
ENDMDL
