MODEL 1
REMARK VINA RESULT: -8.875006160      0.000      0.000
REMARK  12 active torsions:
REMARK  status: ('A' for Active; 'I' for Inactive)
REMARK    1  A    between atoms: C4_7  and  O4_8 
REMARK    2  A    between atoms: C6_11  and  N1_12 
REMARK    3  A    between atoms: N1_12  and  C7_14 
REMARK    4  A    between atoms: C7_14  and  C8_15 
REMARK    5  A    between atoms: C9_16  and  C10_17 
REMARK    6  A    between atoms: C10_17  and  O5_18 
REMARK    7  A    between atoms: C10_17  and  O6_20 
REMARK    8  A    between atoms: C11_23  and  C12_24 
REMARK    9  A    between atoms: C12_24  and  O8_25 
REMARK   10  A    between atoms: C12_24  and  O9_27 
REMARK   11  A    between atoms: C13_29  and  O10_30 
REMARK   12  A    between atoms: C15_34  and  O12_35 
ROOT
HETATM    1  C8  UNL     1     -14.098  -5.628  11.863  1.00  0.00     0.067 A 
HETATM    2  C9  UNL     1     -13.331  -4.493  11.561  1.00  0.00     0.123 A 
HETATM    3  O7  UNL     1     -13.622  -3.331  12.099  1.00  0.00    -0.305 OA
HETATM    4  C11 UNL     1     -14.595  -3.082  12.930  1.00  0.00     0.144 A 
HETATM    5  C13 UNL     1     -15.400  -4.125  13.286  1.00  0.00     0.152 A 
HETATM    6  C14 UNL     1     -15.128  -5.415  12.729  1.00  0.00     0.221 A 
HETATM    7  O11 UNL     1     -15.891  -6.336  13.085  1.00  0.00    -0.284 OA
ENDROOT
BRANCH   1   8
HETATM    8  C7  UNL     1     -13.722  -6.887  11.265  1.00  0.00     0.106 C 
BRANCH   8   9
HETATM    9  N1  UNL     1     -14.683  -7.637  10.505  1.00  0.00    -0.363 N 
ATOM     10  H1  UNL     1     -15.319  -7.200   9.839  1.00  0.00     0.165 HD
BRANCH   9  11
HETATM   11  C6  UNL     1     -14.679  -9.064  10.760  1.00  0.00     0.071 A 
HETATM   12  C5  UNL     1     -13.969  -9.620  11.799  1.00  0.00     0.070 A 
HETATM   13  C4  UNL     1     -13.970 -10.988  12.040  1.00  0.00     0.087 A 
HETATM   14  C3  UNL     1     -14.696 -11.822  11.225  1.00  0.00     0.110 A 
HETATM   15  C2  UNL     1     -14.743 -13.196  11.407  1.00  0.00     0.308 A 
HETATM   16  C16 UNL     1     -15.407 -11.270  10.185  1.00  0.00     0.136 A 
HETATM   17  O2  UNL     1     -15.453 -13.943  10.598  1.00  0.00    -0.216 OA
HETATM   18  O3  UNL     1     -14.094 -13.672  12.351  1.00  0.00    -0.258 OA
HETATM   19  C1  UNL     1     -16.115 -13.377   9.620  1.00  0.00     0.419 A 
HETATM   20  O1  UNL     1     -16.779 -14.155   8.877  1.00  0.00    -0.229 OA
HETATM   21  O13 UNL     1     -16.093 -12.077   9.419  1.00  0.00    -0.251 OA
HETATM   22  C15 UNL     1     -15.394  -9.887   9.957  1.00  0.00     0.128 A 
BRANCH  13  23
HETATM   23  O4  UNL     1     -13.256 -11.546  13.085  1.00  0.00    -0.359 OA
ATOM     24  H4  UNL     1     -12.738 -10.971  13.635  1.00  0.00     0.217 HD
ENDBRANCH  13  23
BRANCH  22  25
HETATM   25  O12 UNL     1     -16.142  -9.466   8.892  1.00  0.00    -0.356 OA
ATOM     26  H12 UNL     1     -17.012  -9.788   8.688  1.00  0.00     0.218 HD
ENDBRANCH  22  25
ENDBRANCH   9  11
ENDBRANCH   8   9
ENDBRANCH   1   8
BRANCH   2  27
HETATM   27  C10 UNL     1     -12.189  -4.617  10.628  1.00  0.00     0.313 C 
BRANCH  27  28
HETATM   28  O5  UNL     1     -10.982  -4.310  11.200  1.00  0.00    -0.365 OA
ATOM     29  H5  UNL     1     -10.248  -4.400  10.604  1.00  0.00     0.213 HD
ENDBRANCH  27  28
BRANCH  27  30
HETATM   30  O6  UNL     1     -12.442  -3.714   9.561  1.00  0.00    -0.365 OA
ATOM     31  H6  UNL     1     -12.917  -4.204   8.900  1.00  0.00     0.213 HD
ENDBRANCH  27  30
ENDBRANCH   2  27
BRANCH   5  32
HETATM   32  O10 UNL     1     -16.445  -4.053  14.132  1.00  0.00    -0.355 OA
ATOM     33  H10 UNL     1     -16.386  -3.955  15.075  1.00  0.00     0.218 HD
ENDBRANCH   5  32
BRANCH   4  34
HETATM   34  C12 UNL     1     -14.788  -1.682  13.445  1.00  0.00     0.315 C 
BRANCH  34  35
HETATM   35  O8  UNL     1     -16.129  -1.324  13.071  1.00  0.00    -0.365 OA
ATOM     36  H8  UNL     1     -16.031  -0.694  12.367  1.00  0.00     0.213 HD
ENDBRANCH  34  35
BRANCH  34  37
HETATM   37  O9  UNL     1     -14.772  -1.691  14.817  1.00  0.00    -0.365 OA
ATOM     38  H9  UNL     1     -15.649  -1.852  15.144  1.00  0.00     0.213 HD
ENDBRANCH  34  37
ENDBRANCH   4  34
TORSDOF 12
ENDMDL
MODEL 2
REMARK VINA RESULT: -8.191849716      1.616      3.056
REMARK  12 active torsions:
REMARK  status: ('A' for Active; 'I' for Inactive)
REMARK    1  A    between atoms: C4_7  and  O4_8 
REMARK    2  A    between atoms: C6_11  and  N1_12 
REMARK    3  A    between atoms: N1_12  and  C7_14 
REMARK    4  A    between atoms: C7_14  and  C8_15 
REMARK    5  A    between atoms: C9_16  and  C10_17 
REMARK    6  A    between atoms: C10_17  and  O5_18 
REMARK    7  A    between atoms: C10_17  and  O6_20 
REMARK    8  A    between atoms: C11_23  and  C12_24 
REMARK    9  A    between atoms: C12_24  and  O8_25 
REMARK   10  A    between atoms: C12_24  and  O9_27 
REMARK   11  A    between atoms: C13_29  and  O10_30 
REMARK   12  A    between atoms: C15_34  and  O12_35 
ROOT
HETATM    1  C8  UNL     1     -14.265  -6.868  11.639  1.00  0.00     0.067 A 
HETATM    2  C9  UNL     1     -14.753  -5.604  12.001  1.00  0.00     0.123 A 
HETATM    3  O7  UNL     1     -13.984  -4.543  11.911  1.00  0.00    -0.305 OA
HETATM    4  C11 UNL     1     -12.746  -4.514  11.502  1.00  0.00     0.144 A 
HETATM    5  C13 UNL     1     -12.180  -5.697  11.126  1.00  0.00     0.152 A 
HETATM    6  C14 UNL     1     -12.974  -6.886  11.205  1.00  0.00     0.221 A 
HETATM    7  O11 UNL     1     -12.412  -7.942  10.850  1.00  0.00    -0.284 OA
ENDROOT
BRANCH   1   8
HETATM    8  C7  UNL     1     -15.157  -7.999  11.733  1.00  0.00     0.106 C 
BRANCH   8   9
HETATM    9  N1  UNL     1     -15.345  -8.863  10.601  1.00  0.00    -0.363 N 
ATOM     10  H1  UNL     1     -15.611  -8.512   9.680  1.00  0.00     0.165 HD
BRANCH   9  11
HETATM   11  C6  UNL     1     -15.127 -10.270  10.867  1.00  0.00     0.071 A 
HETATM   12  C5  UNL     1     -14.388 -10.706  11.943  1.00  0.00     0.070 A 
HETATM   13  C4  UNL     1     -14.184 -12.056  12.195  1.00  0.00     0.087 A 
HETATM   14  C3  UNL     1     -14.729 -12.996  11.355  1.00  0.00     0.110 A 
HETATM   15  C2  UNL     1     -14.567 -14.360  11.545  1.00  0.00     0.308 A 
HETATM   16  C16 UNL     1     -15.469 -12.565  10.277  1.00  0.00     0.136 A 
HETATM   17  O2  UNL     1     -15.111 -15.211  10.710  1.00  0.00    -0.216 OA
HETATM   18  O3  UNL     1     -13.896 -14.726  12.523  1.00  0.00    -0.258 OA
HETATM   19  C1  UNL     1     -15.807 -14.758   9.698  1.00  0.00     0.419 A 
HETATM   20  O1  UNL     1     -16.303 -15.632   8.932  1.00  0.00    -0.229 OA
HETATM   21  O13 UNL     1     -15.981 -13.471   9.487  1.00  0.00    -0.251 OA
HETATM   22  C15 UNL     1     -15.664 -11.197  10.039  1.00  0.00     0.128 A 
BRANCH  13  23
HETATM   23  O4  UNL     1     -13.441 -12.494  13.276  1.00  0.00    -0.359 OA
ATOM     24  H4  UNL     1     -13.575 -13.382  13.586  1.00  0.00     0.217 HD
ENDBRANCH  13  23
BRANCH  22  25
HETATM   25  O12 UNL     1     -16.418 -10.901   8.937  1.00  0.00    -0.356 OA
ATOM     26  H12 UNL     1     -17.328 -10.631   8.967  1.00  0.00     0.218 HD
ENDBRANCH  22  25
ENDBRANCH   9  11
ENDBRANCH   8   9
ENDBRANCH   1   8
BRANCH   2  27
HETATM   27  C10 UNL     1     -16.144  -5.477  12.488  1.00  0.00     0.313 C 
BRANCH  27  28
HETATM   28  O5  UNL     1     -16.998  -4.936  11.563  1.00  0.00    -0.365 OA
ATOM     29  H5  UNL     1     -16.561  -4.391  10.919  1.00  0.00     0.213 HD
ENDBRANCH  27  28
BRANCH  27  30
HETATM   30  O6  UNL     1     -16.095  -4.629  13.628  1.00  0.00    -0.365 OA
ATOM     31  H6  UNL     1     -15.850  -3.767  13.311  1.00  0.00     0.213 HD
ENDBRANCH  27  30
ENDBRANCH   2  27
BRANCH   5  32
HETATM   32  O10 UNL     1     -10.921  -5.854  10.675  1.00  0.00    -0.355 OA
ATOM     33  H10 UNL     1     -10.665  -5.909   9.762  1.00  0.00     0.218 HD
ENDBRANCH   5  32
BRANCH   4  34
HETATM   34  C12 UNL     1     -12.009  -3.203  11.468  1.00  0.00     0.315 C 
BRANCH  34  35
HETATM   35  O8  UNL     1     -11.683  -2.990  10.084  1.00  0.00    -0.365 OA
ATOM     36  H8  UNL     1     -11.307  -3.810   9.788  1.00  0.00     0.213 HD
ENDBRANCH  34  35
BRANCH  34  37
HETATM   37  O9  UNL     1     -12.864  -2.186  11.813  1.00  0.00    -0.365 OA
ATOM     38  H9  UNL     1     -12.369  -1.386  11.944  1.00  0.00     0.213 HD
ENDBRANCH  34  37
ENDBRANCH   4  34
TORSDOF 12
ENDMDL
MODEL 3
REMARK VINA RESULT: -8.092491178      2.130      8.794
REMARK  12 active torsions:
REMARK  status: ('A' for Active; 'I' for Inactive)
REMARK    1  A    between atoms: C4_7  and  O4_8 
REMARK    2  A    between atoms: C6_11  and  N1_12 
REMARK    3  A    between atoms: N1_12  and  C7_14 
REMARK    4  A    between atoms: C7_14  and  C8_15 
REMARK    5  A    between atoms: C9_16  and  C10_17 
REMARK    6  A    between atoms: C10_17  and  O5_18 
REMARK    7  A    between atoms: C10_17  and  O6_20 
REMARK    8  A    between atoms: C11_23  and  C12_24 
REMARK    9  A    between atoms: C12_24  and  O8_25 
REMARK   10  A    between atoms: C12_24  and  O9_27 
REMARK   11  A    between atoms: C13_29  and  O10_30 
REMARK   12  A    between atoms: C15_34  and  O12_35 
ROOT
HETATM    1  C8  UNL     1     -15.420 -12.058  11.077  1.00  0.00     0.067 A 
HETATM    2  C9  UNL     1     -14.484 -12.679  11.917  1.00  0.00     0.123 A 
HETATM    3  O7  UNL     1     -14.238 -13.963  11.805  1.00  0.00    -0.305 OA
HETATM    4  C11 UNL     1     -14.790 -14.788  10.958  1.00  0.00     0.144 A 
HETATM    5  C13 UNL     1     -15.717 -14.278  10.097  1.00  0.00     0.152 A 
HETATM    6  C14 UNL     1     -16.023 -12.882  10.176  1.00  0.00     0.221 A 
HETATM    7  O11 UNL     1     -16.876 -12.463   9.367  1.00  0.00    -0.284 OA
ENDROOT
BRANCH   1   8
HETATM    8  C7  UNL     1     -15.636 -10.638  11.224  1.00  0.00     0.106 C 
BRANCH   8   9
HETATM    9  N1  UNL     1     -15.372  -9.753  10.124  1.00  0.00    -0.363 N 
ATOM     10  H1  UNL     1     -15.926  -9.761   9.267  1.00  0.00     0.165 HD
BRANCH   9  11
HETATM   11  C6  UNL     1     -14.258  -8.848  10.325  1.00  0.00     0.071 A 
HETATM   12  C5  UNL     1     -12.973  -9.176   9.962  1.00  0.00     0.070 A 
HETATM   13  C4  UNL     1     -11.910  -8.304  10.155  1.00  0.00     0.087 A 
HETATM   14  C3  UNL     1     -12.133  -7.075  10.725  1.00  0.00     0.110 A 
HETATM   15  C2  UNL     1     -11.119  -6.154  10.947  1.00  0.00     0.308 A 
HETATM   16  C16 UNL     1     -13.417  -6.742  11.090  1.00  0.00     0.136 A 
HETATM   17  O2  UNL     1     -11.392  -4.995  11.495  1.00  0.00    -0.216 OA
HETATM   18  O3  UNL     1      -9.969  -6.475  10.611  1.00  0.00    -0.258 OA
HETATM   19  C1  UNL     1     -12.628  -4.718  11.827  1.00  0.00     0.419 A 
HETATM   20  O1  UNL     1     -12.820  -3.584  12.350  1.00  0.00    -0.229 OA
HETATM   21  O13 UNL     1     -13.613  -5.568  11.630  1.00  0.00    -0.251 OA
HETATM   22  C15 UNL     1     -14.478  -7.635  10.887  1.00  0.00     0.128 A 
BRANCH  13  23
HETATM   23  O4  UNL     1     -10.617  -8.635   9.790  1.00  0.00    -0.359 OA
ATOM     24  H4  UNL     1     -10.440  -9.528   9.517  1.00  0.00     0.217 HD
ENDBRANCH  13  23
BRANCH  22  25
HETATM   25  O12 UNL     1     -15.703  -7.184  11.292  1.00  0.00    -0.356 OA
ATOM     26  H12 UNL     1     -15.978  -7.123  12.199  1.00  0.00     0.218 HD
ENDBRANCH  22  25
ENDBRANCH   9  11
ENDBRANCH   8   9
ENDBRANCH   1   8
BRANCH   2  27
HETATM   27  C10 UNL     1     -13.775 -11.870  12.933  1.00  0.00     0.313 C 
BRANCH  27  28
HETATM   28  O5  UNL     1     -12.575 -11.373  12.494  1.00  0.00    -0.365 OA
ATOM     29  H5  UNL     1     -11.934 -11.267  13.187  1.00  0.00     0.213 HD
ENDBRANCH  27  28
BRANCH  27  30
HETATM   30  O6  UNL     1     -13.545 -12.730  14.042  1.00  0.00    -0.365 OA
ATOM     31  H6  UNL     1     -13.220 -12.180  14.745  1.00  0.00     0.213 HD
ENDBRANCH  27  30
ENDBRANCH   2  27
BRANCH   5  32
HETATM   32  O10 UNL     1     -16.380 -14.978   9.157  1.00  0.00    -0.355 OA
ATOM     33  H10 UNL     1     -16.216 -14.941   8.222  1.00  0.00     0.218 HD
ENDBRANCH   5  32
BRANCH   4  34
HETATM   34  C12 UNL     1     -14.392 -16.239  10.973  1.00  0.00     0.315 C 
BRANCH  34  35
HETATM   35  O8  UNL     1     -13.895 -16.479  12.300  1.00  0.00    -0.365 OA
ATOM     36  H8  UNL     1     -12.966 -16.282  12.258  1.00  0.00     0.213 HD
ENDBRANCH  34  35
BRANCH  34  37
HETATM   37  O9  UNL     1     -15.510 -17.023  10.844  1.00  0.00    -0.365 OA
ATOM     38  H9  UNL     1     -16.278 -16.527  11.101  1.00  0.00     0.213 HD
ENDBRANCH  34  37
ENDBRANCH   4  34
TORSDOF 12
ENDMDL
MODEL 4
REMARK VINA RESULT: -8.050951629      1.159      2.696
REMARK  12 active torsions:
REMARK  status: ('A' for Active; 'I' for Inactive)
REMARK    1  A    between atoms: C4_7  and  O4_8 
REMARK    2  A    between atoms: C6_11  and  N1_12 
REMARK    3  A    between atoms: N1_12  and  C7_14 
REMARK    4  A    between atoms: C7_14  and  C8_15 
REMARK    5  A    between atoms: C9_16  and  C10_17 
REMARK    6  A    between atoms: C10_17  and  O5_18 
REMARK    7  A    between atoms: C10_17  and  O6_20 
REMARK    8  A    between atoms: C11_23  and  C12_24 
REMARK    9  A    between atoms: C12_24  and  O8_25 
REMARK   10  A    between atoms: C12_24  and  O9_27 
REMARK   11  A    between atoms: C13_29  and  O10_30 
REMARK   12  A    between atoms: C15_34  and  O12_35 
ROOT
HETATM    1  C8  UNL     1     -14.041  -5.865  11.827  1.00  0.00     0.067 A 
HETATM    2  C9  UNL     1     -14.898  -4.850  12.279  1.00  0.00     0.123 A 
HETATM    3  O7  UNL     1     -14.552  -3.589  12.167  1.00  0.00    -0.305 OA
HETATM    4  C11 UNL     1     -13.442  -3.130  11.659  1.00  0.00     0.144 A 
HETATM    5  C13 UNL     1     -12.541  -4.041  11.191  1.00  0.00     0.152 A 
HETATM    6  C14 UNL     1     -12.868  -5.431  11.288  1.00  0.00     0.221 A 
HETATM    7  O11 UNL     1     -12.012  -6.226  10.846  1.00  0.00    -0.284 OA
ENDROOT
BRANCH   1   8
HETATM    8  C7  UNL     1     -14.479  -7.235  11.949  1.00  0.00     0.106 C 
BRANCH   8   9
HETATM    9  N1  UNL     1     -14.570  -8.067  10.782  1.00  0.00    -0.363 N 
ATOM     10  H1  UNL     1     -14.634  -7.685   9.838  1.00  0.00     0.165 HD
BRANCH   9  11
HETATM   11  C6  UNL     1     -14.565  -9.492  11.049  1.00  0.00     0.071 A 
HETATM   12  C5  UNL     1     -13.914 -10.031  12.135  1.00  0.00     0.070 A 
HETATM   13  C4  UNL     1     -13.915 -11.396  12.387  1.00  0.00     0.087 A 
HETATM   14  C3  UNL     1     -14.579 -12.246  11.537  1.00  0.00     0.110 A 
HETATM   15  C2  UNL     1     -14.622 -13.619  11.728  1.00  0.00     0.308 A 
HETATM   16  C16 UNL     1     -15.232 -11.711  10.450  1.00  0.00     0.136 A 
HETATM   17  O2  UNL     1     -15.272 -14.381  10.883  1.00  0.00    -0.216 OA
HETATM   18  O3  UNL     1     -14.027 -14.080  12.714  1.00  0.00    -0.258 OA
HETATM   19  C1  UNL     1     -15.880 -13.831   9.861  1.00  0.00     0.419 A 
HETATM   20  O1  UNL     1     -16.487 -14.623   9.087  1.00  0.00    -0.229 OA
HETATM   21  O13 UNL     1     -15.859 -12.533   9.651  1.00  0.00    -0.251 OA
HETATM   22  C15 UNL     1     -15.220 -10.330  10.211  1.00  0.00     0.128 A 
BRANCH  13  23
HETATM   23  O4  UNL     1     -13.260 -11.938  13.479  1.00  0.00    -0.359 OA
ATOM     24  H4  UNL     1     -12.610 -11.407  13.923  1.00  0.00     0.217 HD
ENDBRANCH  13  23
BRANCH  22  25
HETATM   25  O12 UNL     1     -15.906  -9.927   9.098  1.00  0.00    -0.356 OA
ATOM     26  H12 UNL     1     -15.535  -9.395   8.404  1.00  0.00     0.218 HD
ENDBRANCH  22  25
ENDBRANCH   9  11
ENDBRANCH   8   9
ENDBRANCH   1   8
BRANCH   2  27
HETATM   27  C10 UNL     1     -16.198  -5.216  12.883  1.00  0.00     0.313 C 
BRANCH  27  28
HETATM   28  O5  UNL     1     -17.241  -5.181  11.995  1.00  0.00    -0.365 OA
ATOM     29  H5  UNL     1     -17.690  -6.014  11.906  1.00  0.00     0.213 HD
ENDBRANCH  27  28
BRANCH  27  30
HETATM   30  O6  UNL     1     -16.438  -4.274  13.920  1.00  0.00    -0.365 OA
ATOM     31  H6  UNL     1     -17.261  -4.523  14.324  1.00  0.00     0.213 HD
ENDBRANCH  27  30
ENDBRANCH   2  27
BRANCH   5  32
HETATM   32  O10 UNL     1     -11.351  -3.749  10.632  1.00  0.00    -0.355 OA
ATOM     33  H10 UNL     1     -10.837  -4.336  10.090  1.00  0.00     0.218 HD
ENDBRANCH   5  32
BRANCH   4  34
HETATM   34  C12 UNL     1     -13.206  -1.645  11.617  1.00  0.00     0.315 C 
BRANCH  34  35
HETATM   35  O8  UNL     1     -13.770  -1.139  12.839  1.00  0.00    -0.365 OA
ATOM     36  H8  UNL     1     -13.043  -0.739  13.301  1.00  0.00     0.213 HD
ENDBRANCH  34  35
BRANCH  34  37
HETATM   37  O9  UNL     1     -11.860  -1.391  11.691  1.00  0.00    -0.365 OA
ATOM     38  H9  UNL     1     -11.720  -0.523  12.052  1.00  0.00     0.213 HD
ENDBRANCH  34  37
ENDBRANCH   4  34
TORSDOF 12
ENDMDL
MODEL 5
REMARK VINA RESULT: -8.008506792      1.475      2.162
REMARK  12 active torsions:
REMARK  status: ('A' for Active; 'I' for Inactive)
REMARK    1  A    between atoms: C4_7  and  O4_8 
REMARK    2  A    between atoms: C6_11  and  N1_12 
REMARK    3  A    between atoms: N1_12  and  C7_14 
REMARK    4  A    between atoms: C7_14  and  C8_15 
REMARK    5  A    between atoms: C9_16  and  C10_17 
REMARK    6  A    between atoms: C10_17  and  O5_18 
REMARK    7  A    between atoms: C10_17  and  O6_20 
REMARK    8  A    between atoms: C11_23  and  C12_24 
REMARK    9  A    between atoms: C12_24  and  O8_25 
REMARK   10  A    between atoms: C12_24  and  O9_27 
REMARK   11  A    between atoms: C13_29  and  O10_30 
REMARK   12  A    between atoms: C15_34  and  O12_35 
ROOT
HETATM    1  C8  UNL     1     -14.523  -6.592  11.961  1.00  0.00     0.067 A 
HETATM    2  C9  UNL     1     -13.288  -6.452  11.311  1.00  0.00     0.123 A 
HETATM    3  O7  UNL     1     -12.732  -5.269  11.186  1.00  0.00    -0.305 OA
HETATM    4  C11 UNL     1     -13.214  -4.136  11.617  1.00  0.00     0.144 A 
HETATM    5  C13 UNL     1     -14.414  -4.168  12.264  1.00  0.00     0.152 A 
HETATM    6  C14 UNL     1     -15.064  -5.433  12.428  1.00  0.00     0.221 A 
HETATM    7  O11 UNL     1     -16.160  -5.410  13.027  1.00  0.00    -0.284 OA
ENDROOT
BRANCH   1   8
HETATM    8  C7  UNL     1     -15.080  -7.917  12.094  1.00  0.00     0.106 C 
BRANCH   8   9
HETATM    9  N1  UNL     1     -15.389  -8.688  10.922  1.00  0.00    -0.363 N 
ATOM     10  H1  UNL     1     -15.730  -8.263  10.059  1.00  0.00     0.165 HD
BRANCH   9  11
HETATM   11  C6  UNL     1     -15.178 -10.115  11.059  1.00  0.00     0.071 A 
HETATM   12  C5  UNL     1     -14.405 -10.648  12.065  1.00  0.00     0.070 A 
HETATM   13  C4  UNL     1     -14.208 -12.016  12.194  1.00  0.00     0.087 A 
HETATM   14  C3  UNL     1     -14.795 -12.875  11.298  1.00  0.00     0.110 A 
HETATM   15  C2  UNL     1     -14.642 -14.253  11.366  1.00  0.00     0.308 A 
HETATM   16  C16 UNL     1     -15.569 -12.348  10.290  1.00  0.00     0.136 A 
HETATM   17  O2  UNL     1     -15.226 -15.024  10.483  1.00  0.00    -0.216 OA
HETATM   18  O3  UNL     1     -13.940 -14.707  12.282  1.00  0.00    -0.258 OA
HETATM   19  C1  UNL     1     -15.955 -14.481   9.540  1.00  0.00     0.419 A 
HETATM   20  O1  UNL     1     -16.489 -15.282   8.722  1.00  0.00    -0.229 OA
HETATM   21  O13 UNL     1     -16.121 -13.179   9.446  1.00  0.00    -0.251 OA
HETATM   22  C15 UNL     1     -15.756 -10.963  10.176  1.00  0.00     0.128 A 
BRANCH  13  23
HETATM   23  O4  UNL     1     -13.430 -12.551  13.205  1.00  0.00    -0.359 OA
ATOM     24  H4  UNL     1     -12.954 -11.954  13.771  1.00  0.00     0.217 HD
ENDBRANCH  13  23
BRANCH  22  25
HETATM   25  O12 UNL     1     -16.547 -10.568   9.133  1.00  0.00    -0.356 OA
ATOM     26  H12 UNL     1     -16.401  -9.783   8.618  1.00  0.00     0.218 HD
ENDBRANCH  22  25
ENDBRANCH   9  11
ENDBRANCH   8   9
ENDBRANCH   1   8
BRANCH   2  27
HETATM   27  C10 UNL     1     -12.617  -7.652  10.765  1.00  0.00     0.313 C 
BRANCH  27  28
HETATM   28  O5  UNL     1     -11.258  -7.646  10.946  1.00  0.00    -0.365 OA
ATOM     29  H5  UNL     1     -10.768  -7.754  10.139  1.00  0.00     0.213 HD
ENDBRANCH  27  28
BRANCH  27  30
HETATM   30  O6  UNL     1     -12.900  -7.673   9.373  1.00  0.00    -0.365 OA
ATOM     31  H6  UNL     1     -12.062  -7.630   8.927  1.00  0.00     0.213 HD
ENDBRANCH  27  30
ENDBRANCH   2  27
BRANCH   5  32
HETATM   32  O10 UNL     1     -15.056  -3.101  12.777  1.00  0.00    -0.355 OA
ATOM     33  H10 UNL     1     -15.092  -2.869  13.698  1.00  0.00     0.218 HD
ENDBRANCH   5  32
BRANCH   4  34
HETATM   34  C12 UNL     1     -12.442  -2.867  11.380  1.00  0.00     0.315 C 
BRANCH  34  35
HETATM   35  O8  UNL     1     -11.719  -3.088  10.157  1.00  0.00    -0.365 OA
ATOM     36  H8  UNL     1     -10.810  -2.912  10.369  1.00  0.00     0.213 HD
ENDBRANCH  34  35
BRANCH  34  37
HETATM   37  O9  UNL     1     -13.314  -1.840  11.120  1.00  0.00    -0.365 OA
ATOM     38  H9  UNL     1     -13.184  -1.530  10.231  1.00  0.00     0.213 HD
ENDBRANCH  34  37
ENDBRANCH   4  34
TORSDOF 12
ENDMDL
