MODEL 1
REMARK VINA RESULT: -7.881315232      0.000      0.000
REMARK  7 active torsions:
REMARK  status: ('A' for Active; 'I' for Inactive)
REMARK    1  A    between atoms: C3_3  and  C4_4 
REMARK    2  A    between atoms: C5_6  and  C6_7 
REMARK    3  A    between atoms: C7_10  and  N2_11 
REMARK    4  A    between atoms: N2_11  and  C8_13 
REMARK    5  A    between atoms: C11_19  and  C12_20 
REMARK    6  A    between atoms: C13_21  and  C14_22 
REMARK    7  A    between atoms: C14_22  and  N4_23 
ROOT
HETATM    1  C1  UNL     1     -34.287 -74.506  -1.132  1.00  0.00     0.112 C 
HETATM    2  C2  UNL     1     -35.140 -74.208   0.010  1.00  0.00    -0.105 C 
HETATM    3  C3  UNL     1     -35.858 -73.979   0.976  1.00  0.00    -0.060 C 
ENDROOT
BRANCH   3   4
HETATM    4  C4  UNL     1     -36.674 -73.685   2.095  1.00  0.00     0.066 C 
HETATM    5 BR1  UNL     1     -37.595 -71.994   2.100  1.00  0.00    -0.041 Br
HETATM    6  C5  UNL     1     -36.820 -74.507   3.101  1.00  0.00     0.060 C 
BRANCH   6   7
HETATM    7  C6  UNL     1     -36.191 -75.798   3.232  1.00  0.00     0.075 A 
HETATM    8  N1  UNL     1     -35.903 -76.567   2.154  1.00  0.00    -0.190 N 
HETATM    9  C7  UNL     1     -35.343 -77.781   2.281  1.00  0.00     0.681 A 
ATOM     10  H1  UNL     1     -36.116 -76.214   1.221  1.00  0.00     0.184 HD
HETATM   11  N3  UNL     1     -35.042 -78.291   3.485  1.00  0.00    -0.155 N 
HETATM   12  C10 UNL     1     -35.307 -77.572   4.604  1.00  0.00     0.280 A 
ATOM     13  H3  UNL     1     -34.615 -79.215   3.559  1.00  0.00     0.187 HD
HETATM   14  O1  UNL     1     -35.045 -78.006   5.750  1.00  0.00    -0.266 OA
HETATM   15  C11 UNL     1     -35.894 -76.304   4.463  1.00  0.00     0.113 A 
BRANCH   9  16
HETATM   16  N2  UNL     1     -35.092 -78.488   1.237  1.00  0.00    -0.226 N 
ATOM     17  H2  UNL     1     -35.872 -78.914   0.736  1.00  0.00     0.177 HD
BRANCH  16  18
HETATM   18  C8  UNL     1     -33.763 -78.706   0.745  1.00  0.00     0.133 C 
HETATM   19  C9  UNL     1     -33.517 -77.917  -0.540  1.00  0.00     0.027 C 
ENDBRANCH  16  18
ENDBRANCH   9  16
BRANCH  15  20
HETATM   20  C12 UNL     1     -36.242 -75.572   5.663  1.00  0.00    -0.057 C 
HETATM   21  C13 UNL     1     -36.541 -74.988   6.692  1.00  0.00    -0.071 C 
BRANCH  21  22
HETATM   22  C14 UNL     1     -36.918 -74.315   7.934  1.00  0.00     0.365 C 
BRANCH  22  23
HETATM   23  N4  UNL     1     -35.789 -73.546   8.378  1.00  0.00     0.090 N 
HETATM   24  C15 UNL     1     -36.099 -73.101   9.750  1.00  0.00     0.310 C 
HETATM   25  C16 UNL     1     -34.645 -74.468   8.493  1.00  0.00     0.310 C 
ENDBRANCH  22  23
ENDBRANCH  21  22
ENDBRANCH  15  20
ENDBRANCH   6   7
ENDBRANCH   3   4
TORSDOF 7
ENDMDL
MODEL 2
REMARK VINA RESULT: -7.766191440      3.009      7.164
REMARK  7 active torsions:
REMARK  status: ('A' for Active; 'I' for Inactive)
REMARK    1  A    between atoms: C3_3  and  C4_4 
REMARK    2  A    between atoms: C5_6  and  C6_7 
REMARK    3  A    between atoms: C7_10  and  N2_11 
REMARK    4  A    between atoms: N2_11  and  C8_13 
REMARK    5  A    between atoms: C11_19  and  C12_20 
REMARK    6  A    between atoms: C13_21  and  C14_22 
REMARK    7  A    between atoms: C14_22  and  N4_23 
ROOT
HETATM    1  C1  UNL     1     -35.317 -78.244   6.408  1.00  0.00     0.112 C 
HETATM    2  C2  UNL     1     -35.338 -78.008   4.970  1.00  0.00    -0.105 C 
HETATM    3  C3  UNL     1     -35.337 -77.822   3.760  1.00  0.00    -0.060 C 
ENDROOT
BRANCH   3   4
HETATM    4  C4  UNL     1     -35.369 -77.603   2.361  1.00  0.00     0.066 C 
HETATM    5 BR1  UNL     1     -34.756 -79.031   1.226  1.00  0.00    -0.041 Br
HETATM    6  C5  UNL     1     -35.793 -76.487   1.829  1.00  0.00     0.060 C 
BRANCH   6   7
HETATM    7  C6  UNL     1     -36.276 -75.337   2.555  1.00  0.00     0.075 A 
HETATM    8  N1  UNL     1     -36.829 -75.448   3.787  1.00  0.00    -0.190 N 
HETATM    9  C7  UNL     1     -37.303 -74.380   4.447  1.00  0.00     0.681 A 
ATOM     10  H1  UNL     1     -36.887 -76.368   4.224  1.00  0.00     0.184 HD
HETATM   11  N3  UNL     1     -37.250 -73.147   3.918  1.00  0.00    -0.155 N 
HETATM   12  C10 UNL     1     -36.710 -72.970   2.686  1.00  0.00     0.280 A 
ATOM     13  H3  UNL     1     -37.614 -72.350   4.438  1.00  0.00     0.187 HD
HETATM   14  O1  UNL     1     -36.640 -71.840   2.150  1.00  0.00    -0.266 OA
HETATM   15  C11 UNL     1     -36.218 -74.092   2.002  1.00  0.00     0.113 A 
BRANCH   9  16
HETATM   16  N2  UNL     1     -37.830 -74.523   5.612  1.00  0.00    -0.226 N 
ATOM     17  H2  UNL     1     -38.760 -74.137   5.777  1.00  0.00     0.177 HD
BRANCH  16  18
HETATM   18  C8  UNL     1     -37.169 -75.199   6.689  1.00  0.00     0.133 C 
HETATM   19  C9  UNL     1     -36.295 -74.236   7.489  1.00  0.00     0.027 C 
ENDBRANCH  16  18
ENDBRANCH   9  16
BRANCH  15  20
HETATM   20  C12 UNL     1     -35.710 -73.907   0.657  1.00  0.00    -0.057 C 
HETATM   21  C13 UNL     1     -35.248 -73.742  -0.460  1.00  0.00    -0.071 C 
BRANCH  21  22
HETATM   22  C14 UNL     1     -34.673 -73.523  -1.786  1.00  0.00     0.365 C 
BRANCH  22  23
HETATM   23  N4  UNL     1     -33.498 -74.341  -1.898  1.00  0.00     0.090 N 
HETATM   24  C15 UNL     1     -33.197 -74.447  -3.338  1.00  0.00     0.310 C 
HETATM   25  C16 UNL     1     -32.380 -73.593  -1.298  1.00  0.00     0.310 C 
ENDBRANCH  22  23
ENDBRANCH  21  22
ENDBRANCH  15  20
ENDBRANCH   6   7
ENDBRANCH   3   4
TORSDOF 7
ENDMDL
MODEL 3
REMARK VINA RESULT: -7.176983352      2.258      6.561
REMARK  7 active torsions:
REMARK  status: ('A' for Active; 'I' for Inactive)
REMARK    1  A    between atoms: C3_3  and  C4_4 
REMARK    2  A    between atoms: C5_6  and  C6_7 
REMARK    3  A    between atoms: C7_10  and  N2_11 
REMARK    4  A    between atoms: N2_11  and  C8_13 
REMARK    5  A    between atoms: C11_19  and  C12_20 
REMARK    6  A    between atoms: C13_21  and  C14_22 
REMARK    7  A    between atoms: C14_22  and  N4_23 
ROOT
HETATM    1  C1  UNL     1     -36.652 -73.672   6.318  1.00  0.00     0.112 C 
HETATM    2  C2  UNL     1     -36.653 -73.765   4.864  1.00  0.00    -0.105 C 
HETATM    3  C3  UNL     1     -36.649 -73.866   3.643  1.00  0.00    -0.060 C 
ENDROOT
BRANCH   3   4
HETATM    4  C4  UNL     1     -36.666 -73.957   2.231  1.00  0.00     0.066 C 
HETATM    5 BR1  UNL     1     -37.233 -72.401   1.248  1.00  0.00    -0.041 Br
HETATM    6  C5  UNL     1     -36.316 -75.040   1.587  1.00  0.00     0.060 C 
BRANCH   6   7
HETATM    7  C6  UNL     1     -35.876 -76.274   2.190  1.00  0.00     0.075 A 
HETATM    8  N1  UNL     1     -36.296 -76.659   3.420  1.00  0.00    -0.190 N 
HETATM    9  C7  UNL     1     -35.863 -77.795   3.990  1.00  0.00     0.681 A 
ATOM     10  H1  UNL     1     -36.958 -76.071   3.925  1.00  0.00     0.184 HD
HETATM   11  N3  UNL     1     -34.992 -78.605   3.368  1.00  0.00    -0.155 N 
HETATM   12  C10 UNL     1     -34.532 -78.274   2.135  1.00  0.00     0.280 A 
ATOM     13  H3  UNL     1     -34.678 -79.464   3.819  1.00  0.00     0.187 HD
HETATM   14  O1  UNL     1     -33.718 -78.997   1.515  1.00  0.00    -0.266 OA
HETATM   15  C11 UNL     1     -34.988 -77.084   1.546  1.00  0.00     0.113 A 
BRANCH   9  16
HETATM   16  N2  UNL     1     -36.274 -78.126   5.163  1.00  0.00    -0.226 N 
ATOM     17  H2  UNL     1     -37.265 -78.329   5.293  1.00  0.00     0.177 HD
BRANCH  16  18
HETATM   18  C8  UNL     1     -35.402 -78.221   6.297  1.00  0.00     0.133 C 
HETATM   19  C9  UNL     1     -34.752 -76.874   6.605  1.00  0.00     0.027 C 
ENDBRANCH  16  18
ENDBRANCH   9  16
BRANCH  15  20
HETATM   20  C12 UNL     1     -34.439 -76.699   0.262  1.00  0.00    -0.057 C 
HETATM   21  C13 UNL     1     -33.941 -76.378  -0.804  1.00  0.00    -0.071 C 
BRANCH  21  22
HETATM   22  C14 UNL     1     -33.318 -75.981  -2.066  1.00  0.00     0.365 C 
BRANCH  22  23
HETATM   23  N4  UNL     1     -32.585 -77.108  -2.570  1.00  0.00     0.090 N 
HETATM   24  C15 UNL     1     -32.236 -76.790  -3.967  1.00  0.00     0.310 C 
HETATM   25  C16 UNL     1     -31.312 -77.173  -1.831  1.00  0.00     0.310 C 
ENDBRANCH  22  23
ENDBRANCH  21  22
ENDBRANCH  15  20
ENDBRANCH   6   7
ENDBRANCH   3   4
TORSDOF 7
ENDMDL
MODEL 4
REMARK VINA RESULT: -6.648796474      3.772      7.795
REMARK  7 active torsions:
REMARK  status: ('A' for Active; 'I' for Inactive)
REMARK    1  A    between atoms: C3_3  and  C4_4 
REMARK    2  A    between atoms: C5_6  and  C6_7 
REMARK    3  A    between atoms: C7_10  and  N2_11 
REMARK    4  A    between atoms: N2_11  and  C8_13 
REMARK    5  A    between atoms: C11_19  and  C12_20 
REMARK    6  A    between atoms: C13_21  and  C14_22 
REMARK    7  A    between atoms: C14_22  and  N4_23 
ROOT
HETATM    1  C1  UNL     1     -36.904 -73.704   5.547  1.00  0.00     0.112 C 
HETATM    2  C2  UNL     1     -36.517 -74.540   4.417  1.00  0.00    -0.105 C 
HETATM    3  C3  UNL     1     -36.190 -75.223   3.455  1.00  0.00    -0.060 C 
ENDROOT
BRANCH   3   4
HETATM    4  C4  UNL     1     -35.800 -76.036   2.364  1.00  0.00     0.066 C 
HETATM    5 BR1  UNL     1     -35.401 -77.883   2.732  1.00  0.00    -0.041 Br
HETATM    6  C5  UNL     1     -35.705 -75.582   1.142  1.00  0.00     0.060 C 
BRANCH   6   7
HETATM    7  C6  UNL     1     -35.968 -74.227   0.723  1.00  0.00     0.075 A 
HETATM    8  N1  UNL     1     -36.939 -73.476   1.298  1.00  0.00    -0.190 N 
HETATM    9  C7  UNL     1     -37.200 -72.225   0.887  1.00  0.00     0.681 A 
ATOM     10  H1  UNL     1     -37.485 -73.871   2.063  1.00  0.00     0.184 HD
HETATM   11  N3  UNL     1     -36.511 -71.657  -0.115  1.00  0.00    -0.155 N 
HETATM   12  C10 UNL     1     -35.528 -72.358  -0.733  1.00  0.00     0.280 A 
ATOM     13  H3  UNL     1     -36.725 -70.704  -0.410  1.00  0.00     0.187 HD
HETATM   14  O1  UNL     1     -34.857 -71.872  -1.674  1.00  0.00    -0.266 OA
HETATM   15  C11 UNL     1     -35.261 -73.666  -0.299  1.00  0.00     0.113 A 
BRANCH   9  16
HETATM   16  N2  UNL     1     -38.135 -71.543   1.448  1.00  0.00    -0.226 N 
ATOM     17  H2  UNL     1     -38.701 -71.992   2.168  1.00  0.00     0.177 HD
BRANCH  16  18
HETATM   18  C8  UNL     1     -38.417 -70.179   1.108  1.00  0.00     0.133 C 
HETATM   19  C9  UNL     1     -39.700 -70.073   0.286  1.00  0.00     0.027 C 
ENDBRANCH  16  18
ENDBRANCH   9  16
BRANCH  15  20
HETATM   20  C12 UNL     1     -34.260 -74.435  -1.010  1.00  0.00    -0.057 C 
HETATM   21  C13 UNL     1     -33.424 -75.112  -1.585  1.00  0.00    -0.071 C 
BRANCH  21  22
HETATM   22  C14 UNL     1     -32.416 -75.939  -2.246  1.00  0.00     0.365 C 
BRANCH  22  23
HETATM   23  N4  UNL     1     -31.991 -76.945  -1.314  1.00  0.00     0.090 N 
HETATM   24  C15 UNL     1     -33.165 -77.798  -1.053  1.00  0.00     0.310 C 
HETATM   25  C16 UNL     1     -31.007 -77.798  -2.004  1.00  0.00     0.310 C 
ENDBRANCH  22  23
ENDBRANCH  21  22
ENDBRANCH  15  20
ENDBRANCH   6   7
ENDBRANCH   3   4
TORSDOF 7
ENDMDL
MODEL 5
REMARK VINA RESULT: -6.547920640      1.630      2.489
REMARK  7 active torsions:
REMARK  status: ('A' for Active; 'I' for Inactive)
REMARK    1  A    between atoms: C3_3  and  C4_4 
REMARK    2  A    between atoms: C5_6  and  C6_7 
REMARK    3  A    between atoms: C7_10  and  N2_11 
REMARK    4  A    between atoms: N2_11  and  C8_13 
REMARK    5  A    between atoms: C11_19  and  C12_20 
REMARK    6  A    between atoms: C13_21  and  C14_22 
REMARK    7  A    between atoms: C14_22  and  N4_23 
ROOT
HETATM    1  C1  UNL     1     -31.990 -74.013  -1.947  1.00  0.00     0.112 C 
HETATM    2  C2  UNL     1     -33.245 -73.815  -1.234  1.00  0.00    -0.105 C 
HETATM    3  C3  UNL     1     -34.312 -73.654  -0.655  1.00  0.00    -0.060 C 
ENDROOT
BRANCH   3   4
HETATM    4  C4  UNL     1     -35.530 -73.476   0.045  1.00  0.00     0.066 C 
HETATM    5 BR1  UNL     1     -36.454 -71.804  -0.196  1.00  0.00    -0.041 Br
HETATM    6  C5  UNL     1     -36.036 -74.391   0.829  1.00  0.00     0.060 C 
BRANCH   6   7
HETATM    7  C6  UNL     1     -35.453 -75.682   1.105  1.00  0.00     0.075 A 
HETATM    8  N1  UNL     1     -34.811 -76.395   0.149  1.00  0.00    -0.190 N 
HETATM    9  C7  UNL     1     -34.295 -77.609   0.401  1.00  0.00     0.681 A 
ATOM     10  H1  UNL     1     -34.716 -76.000  -0.787  1.00  0.00     0.184 HD
HETATM   11  N3  UNL     1     -34.390 -78.173   1.615  1.00  0.00    -0.155 N 
HETATM   12  C10 UNL     1     -35.024 -77.510   2.614  1.00  0.00     0.280 A 
ATOM     13  H3  UNL     1     -33.989 -79.095   1.785  1.00  0.00     0.187 HD
HETATM   14  O1  UNL     1     -35.140 -77.997   3.763  1.00  0.00    -0.266 OA
HETATM   15  C11 UNL     1     -35.562 -76.243   2.342  1.00  0.00     0.113 A 
BRANCH   9  16
HETATM   16  N2  UNL     1     -33.699 -78.263  -0.533  1.00  0.00    -0.226 N 
ATOM     17  H2  UNL     1     -33.843 -79.271  -0.590  1.00  0.00     0.177 HD
BRANCH  16  18
HETATM   18  C8  UNL     1     -32.839 -77.639  -1.496  1.00  0.00     0.133 C 
HETATM   19  C9  UNL     1     -31.409 -77.537  -0.970  1.00  0.00     0.027 C 
ENDBRANCH  16  18
ENDBRANCH   9  16
BRANCH  15  20
HETATM   20  C12 UNL     1     -36.301 -75.572   3.392  1.00  0.00    -0.057 C 
HETATM   21  C13 UNL     1     -36.904 -75.026   4.302  1.00  0.00    -0.071 C 
BRANCH  21  22
HETATM   22  C14 UNL     1     -37.621 -74.400   5.411  1.00  0.00     0.365 C 
BRANCH  22  23
HETATM   23  N4  UNL     1     -37.284 -75.111   6.613  1.00  0.00     0.090 N 
HETATM   24  C15 UNL     1     -36.620 -76.358   6.189  1.00  0.00     0.310 C 
HETATM   25  C16 UNL     1     -36.263 -74.320   7.321  1.00  0.00     0.310 C 
ENDBRANCH  22  23
ENDBRANCH  21  22
ENDBRANCH  15  20
ENDBRANCH   6   7
ENDBRANCH   3   4
TORSDOF 7
ENDMDL
