MODEL 1
REMARK VINA RESULT: -6.378184423      0.000      0.000
REMARK  3 active torsions:
REMARK  status: ('A' for Active; 'I' for Inactive)
REMARK    1  A    between atoms: C2_2  and  C3_3 
REMARK    2  A    between atoms: C3_3  and  C4_4 
REMARK    3  A    between atoms: C4_4  and  C5_5 
ROOT
HETATM    1  C4  UNL     1     -39.745 -69.202  -0.759  1.00  0.00     0.076 C 
HETATM    2  C6  UNL     1     -38.891 -69.834  -1.836  1.00  0.00     0.131 C 
HETATM    3 BR1  UNL     1     -39.155 -68.904  -3.512  1.00  0.00    -0.086 Br
HETATM    4  C7  UNL     1     -39.366 -71.255  -2.058  1.00  0.00     0.343 C 
HETATM    5  N1  UNL     1     -38.458 -72.008  -2.887  1.00  0.00    -0.311 N 
ATOM      6  H1  UNL     1     -37.482 -72.071  -2.598  1.00  0.00     0.166 HD
HETATM    7  C8  UNL     1     -38.843 -72.663  -4.074  1.00  0.00     0.321 C 
HETATM    8  O3  UNL     1     -38.059 -73.290  -4.830  1.00  0.00    -0.247 OA
HETATM    9  N2  UNL     1     -40.235 -72.598  -4.424  1.00  0.00    -0.312 N 
HETATM   10  C9  UNL     1     -40.689 -72.857  -5.777  1.00  0.00     0.156 C 
HETATM   11  C10 UNL     1     -41.140 -72.256  -3.338  1.00  0.00     0.404 C 
HETATM   12  N3  UNL     1     -40.672 -71.098  -2.654  1.00  0.00     0.130 N 
HETATM   13  C11 UNL     1     -41.566 -70.729  -1.583  1.00  0.00     0.287 C 
HETATM   14  C12 UNL     1     -41.194 -69.417  -0.941  1.00  0.00    -0.002 C 
HETATM   15  C13 UNL     1     -41.851 -69.484   0.453  1.00  0.00     0.018 C 
HETATM   16  C14 UNL     1     -41.966 -68.346  -1.663  1.00  0.00     0.018 C 
ENDROOT
BRANCH   1  17
HETATM   17  C3  UNL     1     -39.338 -69.774   0.612  1.00  0.00     0.049 C 
BRANCH  17  18
HETATM   18  C2  UNL     1     -37.915 -69.600   0.935  1.00  0.00    -0.035 C 
HETATM   19  C1  UNL     1     -37.173 -70.574   1.447  1.00  0.00     0.007 C 
ENDBRANCH  17  18
ENDBRANCH   1  17
BRANCH   1  20
HETATM   20  C5  UNL     1     -39.361 -67.780  -0.699  1.00  0.00     0.184 C 
HETATM   21  O1  UNL     1     -38.465 -67.256  -1.390  1.00  0.00    -0.647 OA
HETATM   22  O2  UNL     1     -40.037 -66.952   0.185  1.00  0.00    -0.647 OA
ENDBRANCH   1  20
TORSDOF 3
ENDMDL
MODEL 2
REMARK VINA RESULT: -5.788699801      3.037      4.314
REMARK  3 active torsions:
REMARK  status: ('A' for Active; 'I' for Inactive)
REMARK    1  A    between atoms: C2_2  and  C3_3 
REMARK    2  A    between atoms: C3_3  and  C4_4 
REMARK    3  A    between atoms: C4_4  and  C5_5 
ROOT
HETATM    1  C4  UNL     1     -39.307 -71.030  -1.716  1.00  0.00     0.076 C 
HETATM    2  C6  UNL     1     -40.583 -70.878  -2.515  1.00  0.00     0.131 C 
HETATM    3 BR1  UNL     1     -40.751 -72.344  -3.766  1.00  0.00    -0.086 Br
HETATM    4  C7  UNL     1     -40.484 -69.616  -3.347  1.00  0.00     0.343 C 
HETATM    5  N1  UNL     1     -41.745 -69.263  -3.950  1.00  0.00    -0.311 N 
ATOM      6  H1  UNL     1     -42.554 -69.145  -3.339  1.00  0.00     0.166 HD
HETATM    7  C8  UNL     1     -41.924 -69.071  -5.335  1.00  0.00     0.321 C 
HETATM    8  O3  UNL     1     -43.023 -68.803  -5.882  1.00  0.00    -0.247 OA
HETATM    9  N2  UNL     1     -40.754 -69.195  -6.159  1.00  0.00    -0.312 N 
HETATM   10  C9  UNL     1     -40.855 -69.428  -7.587  1.00  0.00     0.156 C 
HETATM   11  C10 UNL     1     -39.482 -69.072  -5.466  1.00  0.00     0.404 C 
HETATM   12  N3  UNL     1     -39.461 -69.919  -4.322  1.00  0.00     0.130 N 
HETATM   13  C11 UNL     1     -38.199 -69.827  -3.627  1.00  0.00     0.287 C 
HETATM   14  C12 UNL     1     -38.077 -70.828  -2.508  1.00  0.00    -0.002 C 
HETATM   15  C13 UNL     1     -37.001 -70.224  -1.582  1.00  0.00     0.018 C 
HETATM   16  C14 UNL     1     -37.421 -72.052  -3.088  1.00  0.00     0.018 C 
ENDROOT
BRANCH   1  17
HETATM   17  C3  UNL     1     -39.310 -70.015  -0.557  1.00  0.00     0.049 C 
BRANCH  17  18
HETATM   18  C2  UNL     1     -40.636 -69.780   0.029  1.00  0.00    -0.035 C 
HETATM   19  C1  UNL     1     -41.089 -68.564   0.310  1.00  0.00     0.007 C 
ENDBRANCH  17  18
ENDBRANCH   1  17
BRANCH   1  20
HETATM   20  C5  UNL     1     -39.377 -72.347  -1.058  1.00  0.00     0.184 C 
HETATM   21  O1  UNL     1     -40.135 -73.276  -1.406  1.00  0.00    -0.647 OA
HETATM   22  O2  UNL     1     -38.547 -72.588   0.026  1.00  0.00    -0.647 OA
ENDBRANCH   1  20
TORSDOF 3
ENDMDL
MODEL 3
REMARK VINA RESULT: -5.776504260      2.903      4.287
REMARK  3 active torsions:
REMARK  status: ('A' for Active; 'I' for Inactive)
REMARK    1  A    between atoms: C2_2  and  C3_3 
REMARK    2  A    between atoms: C3_3  and  C4_4 
REMARK    3  A    between atoms: C4_4  and  C5_5 
ROOT
HETATM    1  C4  UNL     1     -36.609 -71.923  -0.107  1.00  0.00     0.076 C 
HETATM    2  C6  UNL     1     -37.381 -72.586  -1.227  1.00  0.00     0.131 C 
HETATM    3 BR1  UNL     1     -36.879 -71.801  -2.922  1.00  0.00    -0.086 Br
HETATM    4  C7  UNL     1     -38.855 -72.289  -1.038  1.00  0.00     0.343 C 
HETATM    5  N1  UNL     1     -39.684 -73.079  -1.914  1.00  0.00    -0.311 N 
ATOM      6  H1  UNL     1     -39.586 -74.093  -1.883  1.00  0.00     0.166 HD
HETATM    7  C8  UNL     1     -40.622 -72.528  -2.811  1.00  0.00     0.321 C 
HETATM    8  O3  UNL     1     -41.324 -73.198  -3.609  1.00  0.00    -0.247 OA
HETATM    9  N2  UNL     1     -40.770 -71.099  -2.792  1.00  0.00    -0.312 N 
HETATM   10  C9  UNL     1     -41.367 -70.386  -3.904  1.00  0.00     0.156 C 
HETATM   11  C10 UNL     1     -40.281 -70.433  -1.595  1.00  0.00     0.404 C 
HETATM   12  N3  UNL     1     -38.960 -70.870  -1.293  1.00  0.00     0.130 N 
HETATM   13  C11 UNL     1     -38.448 -70.208  -0.118  1.00  0.00     0.287 C 
HETATM   14  C12 UNL     1     -36.996 -70.520   0.139  1.00  0.00    -0.002 C 
HETATM   15  C13 UNL     1     -36.812 -70.225   1.642  1.00  0.00     0.018 C 
HETATM   16  C14 UNL     1     -36.193 -69.451  -0.549  1.00  0.00     0.018 C 
ENDROOT
BRANCH   1  17
HETATM   17  C3  UNL     1     -36.818 -72.721   1.195  1.00  0.00     0.049 C 
BRANCH  17  18
HETATM   18  C2  UNL     1     -36.270 -74.083   1.156  1.00  0.00    -0.035 C 
HETATM   19  C1  UNL     1     -36.344 -74.913   2.189  1.00  0.00     0.007 C 
ENDBRANCH  17  18
ENDBRANCH   1  17
BRANCH   1  20
HETATM   20  C5  UNL     1     -35.179 -72.095  -0.424  1.00  0.00     0.184 C 
HETATM   21  O1  UNL     1     -34.249 -71.472   0.127  1.00  0.00    -0.647 OA
HETATM   22  O2  UNL     1     -34.826 -73.011  -1.404  1.00  0.00    -0.647 OA
ENDBRANCH   1  20
TORSDOF 3
ENDMDL
MODEL 4
REMARK VINA RESULT: -5.740923456      2.992      5.122
REMARK  3 active torsions:
REMARK  status: ('A' for Active; 'I' for Inactive)
REMARK    1  A    between atoms: C2_2  and  C3_3 
REMARK    2  A    between atoms: C3_3  and  C4_4 
REMARK    3  A    between atoms: C4_4  and  C5_5 
ROOT
HETATM    1  C4  UNL     1     -40.044 -70.514  -3.610  1.00  0.00     0.076 C 
HETATM    2  C6  UNL     1     -40.008 -71.393  -2.379  1.00  0.00     0.131 C 
HETATM    3 BR1  UNL     1     -40.804 -70.459  -0.883  1.00  0.00    -0.086 Br
HETATM    4  C7  UNL     1     -38.561 -71.642  -2.006  1.00  0.00     0.343 C 
HETATM    5  N1  UNL     1     -38.430 -72.664  -0.998  1.00  0.00    -0.311 N 
ATOM      6  H1  UNL     1     -38.843 -73.578  -1.182  1.00  0.00     0.166 HD
HETATM    7  C8  UNL     1     -37.761 -72.472   0.228  1.00  0.00     0.321 C 
HETATM    8  O3  UNL     1     -37.670 -73.337   1.135  1.00  0.00    -0.247 OA
HETATM    9  N2  UNL     1     -37.146 -71.189   0.433  1.00  0.00    -0.312 N 
HETATM   10  C9  UNL     1     -36.797 -70.720   1.760  1.00  0.00     0.156 C 
HETATM   11  C10 UNL     1     -36.906 -70.409  -0.771  1.00  0.00     0.404 C 
HETATM   12  N3  UNL     1     -38.088 -70.351  -1.563  1.00  0.00     0.130 N 
HETATM   13  C11 UNL     1     -37.877 -69.566  -2.755  1.00  0.00     0.287 C 
HETATM   14  C12 UNL     1     -39.147 -69.344  -3.537  1.00  0.00    -0.002 C 
HETATM   15  C13 UNL     1     -38.656 -69.023  -4.964  1.00  0.00     0.018 C 
HETATM   16  C14 UNL     1     -39.738 -68.050  -3.049  1.00  0.00     0.018 C 
ENDROOT
BRANCH   1  17
HETATM   17  C3  UNL     1     -39.652 -71.351  -4.843  1.00  0.00     0.049 C 
BRANCH  17  18
HETATM   18  C2  UNL     1     -40.401 -72.607  -4.976  1.00  0.00    -0.035 C 
HETATM   19  C1  UNL     1     -40.486 -73.272  -6.122  1.00  0.00     0.007 C 
ENDBRANCH  17  18
ENDBRANCH   1  17
BRANCH   1  20
HETATM   20  C5  UNL     1     -41.459 -70.161  -3.833  1.00  0.00     0.184 C 
HETATM   21  O1  UNL     1     -42.379 -70.360  -3.014  1.00  0.00    -0.647 OA
HETATM   22  O2  UNL     1     -41.807 -69.563  -5.035  1.00  0.00    -0.647 OA
ENDBRANCH   1  20
TORSDOF 3
ENDMDL
MODEL 5
REMARK VINA RESULT: -5.673679372      3.102      4.205
REMARK  3 active torsions:
REMARK  status: ('A' for Active; 'I' for Inactive)
REMARK    1  A    between atoms: C2_2  and  C3_3 
REMARK    2  A    between atoms: C3_3  and  C4_4 
REMARK    3  A    between atoms: C4_4  and  C5_5 
ROOT
HETATM    1  C4  UNL     1     -40.812 -70.283  -2.068  1.00  0.00     0.076 C 
HETATM    2  C6  UNL     1     -40.359 -70.160  -3.506  1.00  0.00     0.131 C 
HETATM    3 BR1  UNL     1     -38.912 -68.882  -3.629  1.00  0.00    -0.086 Br
HETATM    4  C7  UNL     1     -41.500 -69.593  -4.325  1.00  0.00     0.343 C 
HETATM    5  N1  UNL     1     -41.242 -69.671  -5.742  1.00  0.00    -0.311 N 
ATOM      6  H1  UNL     1     -41.023 -70.583  -6.142  1.00  0.00     0.166 HD
HETATM    7  C8  UNL     1     -41.275 -68.557  -6.605  1.00  0.00     0.321 C 
HETATM    8  O3  UNL     1     -41.014 -68.598  -7.834  1.00  0.00    -0.247 OA
HETATM    9  N2  UNL     1     -41.636 -67.296  -6.018  1.00  0.00    -0.312 N 
HETATM   10  C9  UNL     1     -41.319 -66.039  -6.668  1.00  0.00     0.156 C 
HETATM   11  C10 UNL     1     -42.331 -67.374  -4.742  1.00  0.00     0.404 C 
HETATM   12  N3  UNL     1     -41.628 -68.234  -3.851  1.00  0.00     0.130 N 
HETATM   13  C11 UNL     1     -42.291 -68.312  -2.571  1.00  0.00     0.287 C 
HETATM   14  C12 UNL     1     -41.493 -69.080  -1.549  1.00  0.00    -0.002 C 
HETATM   15  C13 UNL     1     -42.546 -69.529  -0.515  1.00  0.00     0.018 C 
HETATM   16  C14 UNL     1     -40.652 -68.076  -0.809  1.00  0.00     0.018 C 
ENDROOT
BRANCH   1  17
HETATM   17  C3  UNL     1     -41.775 -71.479  -1.940  1.00  0.00     0.049 C 
BRANCH  17  18
HETATM   18  C2  UNL     1     -41.423 -72.624  -2.790  1.00  0.00    -0.035 C 
HETATM   19  C1  UNL     1     -41.228 -73.844  -2.302  1.00  0.00     0.007 C 
ENDBRANCH  17  18
ENDBRANCH   1  17
BRANCH   1  20
HETATM   20  C5  UNL     1     -39.626 -70.675  -1.285  1.00  0.00     0.184 C 
HETATM   21  O1  UNL     1     -38.459 -70.696  -1.725  1.00  0.00    -0.647 OA
HETATM   22  O2  UNL     1     -39.803 -71.048   0.039  1.00  0.00    -0.647 OA
ENDBRANCH   1  20
TORSDOF 3
ENDMDL
