MODEL 1
REMARK VINA RESULT: -4.906947752      0.000      0.000
REMARK  1 active torsions:
REMARK  status: ('A' for Active; 'I' for Inactive)
REMARK    1  A    between atoms: C5_10  and  C6_11 
ROOT
HETATM    1  N1  UNL     1      11.932   2.699 -14.587  1.00  0.00    -0.190 NA
HETATM    2  C1  UNL     1      12.593   2.446 -13.648  1.00  0.00     0.115 C 
HETATM    3  C2  UNL     1      13.416   2.143 -12.513  1.00  0.00     0.113 C 
HETATM    4  N2  UNL     1      14.541   2.773 -12.310  1.00  0.00    -0.296 N 
ATOM      5  H2  UNL     1      14.914   3.504 -12.916  1.00  0.00     0.183 HD
HETATM    6  N3  UNL     1      15.156   2.315 -11.164  1.00  0.00    -0.120 NA
HETATM    7  C3  UNL     1      14.135   1.655 -10.353  1.00  0.00     0.220 C 
HETATM    8  C4  UNL     1      13.479   2.635  -9.527  1.00  0.00     0.083 C 
HETATM    9  N4  UNL     1      12.967   3.441  -8.833  1.00  0.00    -0.195 NA
HETATM   10  C5  UNL     1      13.209   1.168 -11.445  1.00  0.00     0.115 C 
ENDROOT
BRANCH  10  11
HETATM   11  C6  UNL     1      11.847   1.096 -10.909  1.00  0.00    -0.045 A 
HETATM   12  C7  UNL     1      10.860   2.024 -11.116  1.00  0.00     0.008 A 
HETATM   13  C8  UNL     1       9.594   1.912 -10.582  1.00  0.00     0.001 A 
HETATM   14  C9  UNL     1       9.302   0.817  -9.800  1.00  0.00     0.000 A 
HETATM   15  C10 UNL     1      10.288  -0.124  -9.584  1.00  0.00     0.001 A 
HETATM   16  C11 UNL     1      11.555  -0.019 -10.114  1.00  0.00     0.008 A 
ENDBRANCH  10  11
TORSDOF 1
ENDMDL
MODEL 2
REMARK VINA RESULT: -4.807588649      1.873      2.115
REMARK  1 active torsions:
REMARK  status: ('A' for Active; 'I' for Inactive)
REMARK    1  A    between atoms: C5_10  and  C6_11 
ROOT
HETATM    1  N1  UNL     1       9.347   4.972 -12.433  1.00  0.00    -0.190 NA
HETATM    2  C1  UNL     1      10.436   4.647 -12.135  1.00  0.00     0.115 C 
HETATM    3  C2  UNL     1      11.773   4.267 -11.779  1.00  0.00     0.113 C 
HETATM    4  N2  UNL     1      12.679   5.167 -11.508  1.00  0.00    -0.296 N 
ATOM      5  H2  UNL     1      12.519   6.174 -11.526  1.00  0.00     0.183 HD
HETATM    6  N3  UNL     1      13.882   4.569 -11.195  1.00  0.00    -0.120 NA
HETATM    7  C3  UNL     1      13.597   3.186 -10.817  1.00  0.00     0.220 C 
HETATM    8  C4  UNL     1      13.283   3.133  -9.413  1.00  0.00     0.083 C 
HETATM    9  N4  UNL     1      13.055   3.095  -8.256  1.00  0.00    -0.195 NA
HETATM   10  C5  UNL     1      12.362   2.936 -11.652  1.00  0.00     0.115 C 
ENDROOT
BRANCH  10  11
HETATM   11  C6  UNL     1      11.530   1.938 -10.975  1.00  0.00    -0.045 A 
HETATM   12  C7  UNL     1      10.295   2.169 -10.429  1.00  0.00     0.008 A 
HETATM   13  C8  UNL     1       9.556   1.194  -9.794  1.00  0.00     0.001 A 
HETATM   14  C9  UNL     1      10.079  -0.076  -9.702  1.00  0.00     0.000 A 
HETATM   15  C10 UNL     1      11.322  -0.321 -10.249  1.00  0.00     0.001 A 
HETATM   16  C11 UNL     1      12.067   0.647 -10.884  1.00  0.00     0.008 A 
ENDBRANCH  10  11
TORSDOF 1
ENDMDL
MODEL 3
REMARK VINA RESULT: -4.782358335      2.563      4.167
REMARK  1 active torsions:
REMARK  status: ('A' for Active; 'I' for Inactive)
REMARK    1  A    between atoms: C5_10  and  C6_11 
ROOT
HETATM    1  N1  UNL     1      10.953   5.348 -11.765  1.00  0.00    -0.190 NA
HETATM    2  C1  UNL     1      11.732   4.638 -11.246  1.00  0.00     0.115 C 
HETATM    3  C2  UNL     1      12.679   3.778 -10.595  1.00  0.00     0.113 C 
HETATM    4  N2  UNL     1      12.478   3.358  -9.375  1.00  0.00    -0.296 N 
ATOM      5  H2  UNL     1      11.665   3.596  -8.806  1.00  0.00     0.183 HD
HETATM    6  N3  UNL     1      13.515   2.549  -8.961  1.00  0.00    -0.120 NA
HETATM    7  C3  UNL     1      14.204   2.074 -10.159  1.00  0.00     0.220 C 
HETATM    8  C4  UNL     1      13.556   0.881 -10.637  1.00  0.00     0.083 C 
HETATM    9  N4  UNL     1      13.036  -0.112 -11.005  1.00  0.00    -0.195 NA
HETATM   10  C5  UNL     1      13.942   3.237 -11.090  1.00  0.00     0.115 C 
ENDROOT
BRANCH  10  11
HETATM   11  C6  UNL     1      13.921   2.740 -12.468  1.00  0.00    -0.045 A 
HETATM   12  C7  UNL     1      12.841   2.175 -13.094  1.00  0.00     0.008 A 
HETATM   13  C8  UNL     1      12.877   1.716 -14.394  1.00  0.00     0.001 A 
HETATM   14  C9  UNL     1      14.052   1.829 -15.102  1.00  0.00     0.000 A 
HETATM   15  C10 UNL     1      15.146   2.397 -14.481  1.00  0.00     0.001 A 
HETATM   16  C11 UNL     1      15.119   2.857 -13.184  1.00  0.00     0.008 A 
ENDBRANCH  10  11
TORSDOF 1
ENDMDL
MODEL 4
REMARK VINA RESULT: -4.756794738      1.933      4.132
REMARK  1 active torsions:
REMARK  status: ('A' for Active; 'I' for Inactive)
REMARK    1  A    between atoms: C5_10  and  C6_11 
ROOT
HETATM    1  N1  UNL     1      10.898  -0.565  -9.544  1.00  0.00    -0.190 NA
HETATM    2  C1  UNL     1      11.237   0.506  -9.890  1.00  0.00     0.115 C 
HETATM    3  C2  UNL     1      11.645   1.821 -10.295  1.00  0.00     0.113 C 
HETATM    4  N2  UNL     1      12.134   2.669  -9.431  1.00  0.00    -0.296 N 
ATOM      5  H2  UNL     1      12.261   2.476  -8.437  1.00  0.00     0.183 HD
HETATM    6  N3  UNL     1      12.454   3.861 -10.045  1.00  0.00    -0.120 NA
HETATM    7  C3  UNL     1      12.581   3.594 -11.477  1.00  0.00     0.220 C 
HETATM    8  C4  UNL     1      13.925   3.166 -11.762  1.00  0.00     0.083 C 
HETATM    9  N4  UNL     1      15.037   2.843 -11.990  1.00  0.00    -0.195 NA
HETATM   10  C5  UNL     1      11.610   2.443 -11.616  1.00  0.00     0.115 C 
ENDROOT
BRANCH  10  11
HETATM   11  C6  UNL     1      12.045   1.593 -12.727  1.00  0.00    -0.045 A 
HETATM   12  C7  UNL     1      12.558   0.328 -12.609  1.00  0.00     0.008 A 
HETATM   13  C8  UNL     1      12.960  -0.428 -13.689  1.00  0.00     0.001 A 
HETATM   14  C9  UNL     1      12.842   0.108 -14.951  1.00  0.00     0.000 A 
HETATM   15  C10 UNL     1      12.325   1.382 -15.083  1.00  0.00     0.001 A 
HETATM   16  C11 UNL     1      11.923   2.143 -14.009  1.00  0.00     0.008 A 
ENDBRANCH  10  11
TORSDOF 1
ENDMDL
MODEL 5
REMARK VINA RESULT: -4.683403035      1.883      4.696
REMARK  1 active torsions:
REMARK  status: ('A' for Active; 'I' for Inactive)
REMARK    1  A    between atoms: C5_10  and  C6_11 
ROOT
HETATM    1  N1  UNL     1      14.730   3.095  -9.019  1.00  0.00    -0.190 NA
HETATM    2  C1  UNL     1      13.775   2.656  -9.547  1.00  0.00     0.115 C 
HETATM    3  C2  UNL     1      12.601   2.119 -10.173  1.00  0.00     0.113 C 
HETATM    4  N2  UNL     1      11.417   2.313  -9.659  1.00  0.00    -0.296 N 
ATOM      5  H2  UNL     1      11.234   2.840  -8.805  1.00  0.00     0.183 HD
HETATM    6  N3  UNL     1      10.447   1.706 -10.429  1.00  0.00    -0.120 NA
HETATM    7  C3  UNL     1      11.017   1.484 -11.756  1.00  0.00     0.220 C 
HETATM    8  C4  UNL     1      10.821   2.662 -12.559  1.00  0.00     0.083 C 
HETATM    9  N4  UNL     1      10.630   3.622 -13.220  1.00  0.00    -0.195 NA
HETATM   10  C5  UNL     1      12.475   1.321 -11.390  1.00  0.00     0.115 C 
ENDROOT
BRANCH  10  11
HETATM   11  C6  UNL     1      13.296   1.760 -12.522  1.00  0.00    -0.045 A 
HETATM   12  C7  UNL     1      14.136   2.843 -12.524  1.00  0.00     0.008 A 
HETATM   13  C8  UNL     1      14.882   3.218 -13.621  1.00  0.00     0.001 A 
HETATM   14  C9  UNL     1      14.783   2.471 -14.773  1.00  0.00     0.000 A 
HETATM   15  C10 UNL     1      13.940   1.378 -14.783  1.00  0.00     0.001 A 
HETATM   16  C11 UNL     1      13.192   0.997 -13.692  1.00  0.00     0.008 A 
ENDBRANCH  10  11
TORSDOF 1
ENDMDL
