MODEL 1
REMARK VINA RESULT: -4.580685235      0.000      0.000
REMARK  1 active torsions:
REMARK  status: ('A' for Active; 'I' for Inactive)
REMARK    1  A    between atoms: O1_2  and  C2_3 
ROOT
HETATM    1  C2  UNL     1      12.729   2.012 -14.380  1.00  0.00     0.120 C 
HETATM    2  C3  UNL     1      11.619   2.799 -13.738  1.00  0.00     0.032 C 
HETATM    3  C4  UNL     1      11.164   2.074 -12.518  1.00  0.00     0.005 C 
HETATM    4  C5  UNL     1      12.204   1.749 -11.531  1.00  0.00     0.033 C 
HETATM    5  C6  UNL     1      13.274   2.771 -11.330  1.00  0.00     0.055 C 
HETATM    6  C7  UNL     1      14.069   3.085 -12.544  1.00  0.00     0.036 C 
HETATM    7  C8  UNL     1      14.006   2.023 -13.609  1.00  0.00     0.034 C 
HETATM    8  C9  UNL     1      12.736   4.073 -10.753  1.00  0.00     0.209 C 
HETATM    9  O2  UNL     1      12.776   3.775  -9.372  1.00  0.00    -0.322 OA
HETATM   10  C10 UNL     1      13.806   2.892  -9.142  1.00  0.00     0.228 C 
HETATM   11  N1  UNL     1      14.457   2.657  -7.854  1.00  0.00    -0.056 NA
HETATM   12  N2  UNL     1      14.099   2.316 -10.241  1.00  0.00    -0.347 N 
ATOM     13  H2  UNL     1      14.834   1.615 -10.337  1.00  0.00     0.163 HD
ENDROOT
BRANCH   1  14
HETATM   14  O1  UNL     1      12.277   0.694 -14.507  1.00  0.00    -0.391 OA
HETATM   15  C1  UNL     1      13.338  -0.186 -14.603  1.00  0.00     0.202 C 
ENDBRANCH   1  14
TORSDOF 1
ENDMDL
MODEL 2
REMARK VINA RESULT: -4.368438048      1.804      2.745
REMARK  1 active torsions:
REMARK  status: ('A' for Active; 'I' for Inactive)
REMARK    1  A    between atoms: O1_2  and  C2_3 
ROOT
HETATM    1  C2  UNL     1      12.376   3.717 -14.206  1.00  0.00     0.120 C 
HETATM    2  C3  UNL     1      12.851   2.290 -14.152  1.00  0.00     0.032 C 
HETATM    3  C4  UNL     1      14.220   2.265 -13.563  1.00  0.00     0.005 C 
HETATM    4  C5  UNL     1      14.374   2.911 -12.251  1.00  0.00     0.033 C 
HETATM    5  C6  UNL     1      13.241   2.748 -11.292  1.00  0.00     0.055 C 
HETATM    6  C7  UNL     1      11.942   3.289 -11.767  1.00  0.00     0.036 C 
HETATM    7  C8  UNL     1      12.069   4.305 -12.870  1.00  0.00     0.034 C 
HETATM    8  C9  UNL     1      13.037   1.299 -10.871  1.00  0.00     0.209 C 
HETATM    9  O2  UNL     1      13.948   1.216  -9.793  1.00  0.00    -0.322 OA
HETATM   10  C10 UNL     1      14.048   2.457  -9.207  1.00  0.00     0.228 C 
HETATM   11  N1  UNL     1      14.527   2.724  -7.851  1.00  0.00    -0.056 NA
HETATM   12  N2  UNL     1      13.652   3.334 -10.043  1.00  0.00    -0.347 N 
ATOM     13  H2  UNL     1      13.628   4.335  -9.849  1.00  0.00     0.163 HD
ENDROOT
BRANCH   1  14
HETATM   14  O1  UNL     1      13.388   4.464 -14.818  1.00  0.00    -0.391 OA
HETATM   15  C1  UNL     1      13.320   5.792 -14.444  1.00  0.00     0.202 C 
ENDBRANCH   1  14
TORSDOF 1
ENDMDL
MODEL 3
REMARK VINA RESULT: -4.364211278      0.972      1.019
REMARK  1 active torsions:
REMARK  status: ('A' for Active; 'I' for Inactive)
REMARK    1  A    between atoms: O1_2  and  C2_3 
ROOT
HETATM    1  C2  UNL     1      12.010   1.026 -13.690  1.00  0.00     0.120 C 
HETATM    2  C3  UNL     1      10.952   1.830 -12.985  1.00  0.00     0.032 C 
HETATM    3  C4  UNL     1      10.754   1.266 -11.621  1.00  0.00     0.005 C 
HETATM    4  C5  UNL     1      11.959   1.151 -10.785  1.00  0.00     0.033 C 
HETATM    5  C6  UNL     1      12.959   2.254 -10.903  1.00  0.00     0.055 C 
HETATM    6  C7  UNL     1      13.526   2.434 -12.264  1.00  0.00     0.036 C 
HETATM    7  C8  UNL     1      13.386   1.226 -13.150  1.00  0.00     0.034 C 
HETATM    8  C9  UNL     1      12.411   3.592 -10.426  1.00  0.00     0.209 C 
HETATM    9  O2  UNL     1      12.689   3.503  -9.043  1.00  0.00    -0.322 OA
HETATM   10  C10 UNL     1      13.812   2.727  -8.871  1.00  0.00     0.228 C 
HETATM   11  N1  UNL     1      14.673   2.721  -7.689  1.00  0.00    -0.056 NA
HETATM   12  N2  UNL     1      13.977   2.014  -9.915  1.00  0.00    -0.347 N 
ATOM     13  H2  UNL     1      14.743   1.352 -10.036  1.00  0.00     0.163 HD
ENDROOT
BRANCH   1  14
HETATM   14  O1  UNL     1      11.655  -0.322 -13.562  1.00  0.00    -0.391 OA
HETATM   15  C1  UNL     1      12.763  -1.139 -13.674  1.00  0.00     0.202 C 
ENDBRANCH   1  14
TORSDOF 1
ENDMDL
MODEL 4
REMARK VINA RESULT: -4.342479492      2.319      3.376
REMARK  1 active torsions:
REMARK  status: ('A' for Active; 'I' for Inactive)
REMARK    1  A    between atoms: O1_2  and  C2_3 
ROOT
HETATM    1  C2  UNL     1       9.761   3.117 -12.483  1.00  0.00     0.120 C 
HETATM    2  C3  UNL     1      11.055   3.493 -13.152  1.00  0.00     0.032 C 
HETATM    3  C4  UNL     1      11.727   4.542 -12.335  1.00  0.00     0.005 C 
HETATM    4  C5  UNL     1      11.954   4.215 -10.919  1.00  0.00     0.033 C 
HETATM    5  C6  UNL     1      12.327   2.801 -10.614  1.00  0.00     0.055 C 
HETATM    6  C7  UNL     1      11.316   1.791 -11.021  1.00  0.00     0.036 C 
HETATM    7  C8  UNL     1       9.933   2.352 -11.214  1.00  0.00     0.034 C 
HETATM    8  C9  UNL     1      13.671   2.409 -11.213  1.00  0.00     0.209 C 
HETATM    9  O2  UNL     1      14.542   2.849 -10.190  1.00  0.00    -0.322 OA
HETATM   10  C10 UNL     1      13.884   2.761  -8.984  1.00  0.00     0.228 C 
HETATM   11  N1  UNL     1      14.518   2.707  -7.668  1.00  0.00    -0.056 NA
HETATM   12  N2  UNL     1      12.629   2.734  -9.208  1.00  0.00    -0.347 N 
ATOM     13  H2  UNL     1      11.922   2.671  -8.476  1.00  0.00     0.163 HD
ENDROOT
BRANCH   1  14
HETATM   14  O1  UNL     1       9.075   4.308 -12.215  1.00  0.00    -0.391 OA
HETATM   15  C1  UNL     1       7.712   4.096 -12.171  1.00  0.00     0.202 C 
ENDBRANCH   1  14
TORSDOF 1
ENDMDL
MODEL 5
REMARK VINA RESULT: -4.237917347      2.713      3.986
REMARK  1 active torsions:
REMARK  status: ('A' for Active; 'I' for Inactive)
REMARK    1  A    between atoms: O1_2  and  C2_3 
ROOT
HETATM    1  C2  UNL     1      13.594   3.476 -12.526  1.00  0.00     0.120 C 
HETATM    2  C3  UNL     1      14.354   2.578 -11.588  1.00  0.00     0.032 C 
HETATM    3  C4  UNL     1      13.788   2.731 -10.218  1.00  0.00     0.005 C 
HETATM    4  C5  UNL     1      12.340   2.509 -10.086  1.00  0.00     0.033 C 
HETATM    5  C6  UNL     1      11.754   1.421 -10.923  1.00  0.00     0.055 C 
HETATM    6  C7  UNL     1      11.919   1.606 -12.388  1.00  0.00     0.036 C 
HETATM    7  C8  UNL     1      12.197   3.028 -12.797  1.00  0.00     0.034 C 
HETATM    8  C9  UNL     1      12.285   0.044 -10.547  1.00  0.00     0.209 C 
HETATM    9  O2  UNL     1      11.395  -0.295  -9.502  1.00  0.00    -0.322 OA
HETATM   10  C10 UNL     1      10.185   0.315  -9.741  1.00  0.00     0.228 C 
HETATM   11  N1  UNL     1       8.900  -0.088  -9.171  1.00  0.00    -0.056 NA
HETATM   12  N2  UNL     1      10.372   1.287 -10.543  1.00  0.00    -0.347 N 
ATOM     13  H2  UNL     1       9.628   1.900 -10.878  1.00  0.00     0.163 HD
ENDROOT
BRANCH   1  14
HETATM   14  O1  UNL     1      13.566   4.749 -11.945  1.00  0.00    -0.391 OA
HETATM   15  C1  UNL     1      12.782   5.614 -12.683  1.00  0.00     0.202 C 
ENDBRANCH   1  14
TORSDOF 1
ENDMDL
