MODEL 1
REMARK VINA RESULT: -4.018089513      0.000      0.000
REMARK  4 active torsions:
REMARK  status: ('A' for Active; 'I' for Inactive)
REMARK    1  A    between atoms: C2_3  and  S1_4 
REMARK    2  A    between atoms: S1_4  and  C3_5 
REMARK    3  A    between atoms: C3_5  and  N3_10 
REMARK    4  A    between atoms: N2_6  and  O1_8 
ROOT
HETATM    1  N1  UNL     1      13.223   0.122 -10.305  1.00  0.00    -0.197 NA
HETATM    2  C1  UNL     1      12.235   0.755 -10.319  1.00  0.00     0.069 C 
HETATM    3  C2  UNL     1      11.004   1.545 -10.345  1.00  0.00     0.206 C 
ENDROOT
BRANCH   3   4
HETATM    4  S1  UNL     1      11.008   2.579 -11.822  1.00  0.00    -0.078 SA
BRANCH   4   5
HETATM    5  C3  UNL     1      12.481   3.581 -11.813  1.00  0.00     0.163 C 
HETATM    6  N2  UNL     1      12.734   4.284 -10.764  1.00  0.00    -0.247 N 
ATOM      7  H2  UNL     1      12.098   4.257  -9.967  1.00  0.00     0.196 HD
BRANCH   6   8
HETATM    8  O1  UNL     1      13.855   5.067 -10.719  1.00  0.00    -0.288 OA
ATOM      9  H1  UNL     1      13.780   6.010 -10.812  1.00  0.00     0.244 HD
ENDBRANCH   6   8
BRANCH   5  10
HETATM   10  N3  UNL     1      13.371   3.624 -12.914  1.00  0.00    -0.360 N 
HETATM   11  C4  UNL     1      14.515   2.752 -12.911  1.00  0.00     0.125 C 
HETATM   12  C5  UNL     1      14.840   2.514 -14.394  1.00  0.00     0.020 C 
HETATM   13  C6  UNL     1      15.372   3.837 -14.898  1.00  0.00     0.003 C 
HETATM   14  C7  UNL     1      14.346   4.917 -14.763  1.00  0.00     0.020 C 
HETATM   15  C8  UNL     1      13.127   4.511 -13.989  1.00  0.00     0.125 C 
ENDBRANCH   5  10
ENDBRANCH   4   5
ENDBRANCH   3   4
TORSDOF 4
ENDMDL
MODEL 2
REMARK VINA RESULT: -3.908139057      1.968      4.224
REMARK  4 active torsions:
REMARK  status: ('A' for Active; 'I' for Inactive)
REMARK    1  A    between atoms: C2_3  and  S1_4 
REMARK    2  A    between atoms: S1_4  and  C3_5 
REMARK    3  A    between atoms: C3_5  and  N3_10 
REMARK    4  A    between atoms: N2_6  and  O1_8 
ROOT
HETATM    1  N1  UNL     1      16.907   3.399 -13.664  1.00  0.00    -0.197 NA
HETATM    2  C1  UNL     1      15.842   3.357 -14.155  1.00  0.00     0.069 C 
HETATM    3  C2  UNL     1      14.513   3.312 -14.766  1.00  0.00     0.206 C 
ENDROOT
BRANCH   3   4
HETATM    4  S1  UNL     1      13.505   4.631 -14.062  1.00  0.00    -0.078 SA
BRANCH   4   5
HETATM    5  C3  UNL     1      13.088   4.197 -12.386  1.00  0.00     0.163 C 
HETATM    6  N2  UNL     1      12.797   5.146 -11.565  1.00  0.00    -0.247 N 
ATOM      7  H2  UNL     1      12.808   6.115 -11.882  1.00  0.00     0.196 HD
BRANCH   6   8
HETATM    8  O1  UNL     1      12.472   4.853 -10.269  1.00  0.00    -0.288 OA
ATOM      9  H1  UNL     1      13.021   4.266  -9.762  1.00  0.00     0.244 HD
ENDBRANCH   6   8
BRANCH   5  10
HETATM   10  N3  UNL     1      13.068   2.855 -11.936  1.00  0.00    -0.360 N 
HETATM   11  C4  UNL     1      11.936   2.032 -12.270  1.00  0.00     0.125 C 
HETATM   12  C5  UNL     1      12.479   0.594 -12.289  1.00  0.00     0.020 C 
HETATM   13  C6  UNL     1      12.774   0.265 -10.842  1.00  0.00     0.003 C 
HETATM   14  C7  UNL     1      13.800   1.195 -10.277  1.00  0.00     0.020 C 
HETATM   15  C8  UNL     1      14.148   2.344 -11.176  1.00  0.00     0.125 C 
ENDBRANCH   5  10
ENDBRANCH   4   5
ENDBRANCH   3   4
TORSDOF 4
ENDMDL
MODEL 3
REMARK VINA RESULT: -3.839605168      2.092      5.053
REMARK  4 active torsions:
REMARK  status: ('A' for Active; 'I' for Inactive)
REMARK    1  A    between atoms: C2_3  and  S1_4 
REMARK    2  A    between atoms: S1_4  and  C3_5 
REMARK    3  A    between atoms: C3_5  and  N3_10 
REMARK    4  A    between atoms: N2_6  and  O1_8 
ROOT
HETATM    1  N1  UNL     1      13.204   5.445 -12.874  1.00  0.00    -0.197 NA
HETATM    2  C1  UNL     1      13.435   4.303 -13.019  1.00  0.00     0.069 C 
HETATM    3  C2  UNL     1      13.724   2.879 -13.191  1.00  0.00     0.206 C 
ENDROOT
BRANCH   3   4
HETATM    4  S1  UNL     1      14.613   2.286 -11.739  1.00  0.00    -0.078 SA
BRANCH   4   5
HETATM    5  C3  UNL     1      13.521   2.356 -10.334  1.00  0.00     0.163 C 
HETATM    6  N2  UNL     1      13.941   2.935  -9.263  1.00  0.00    -0.247 N 
ATOM      7  H2  UNL     1      14.876   3.340  -9.237  1.00  0.00     0.196 HD
BRANCH   6   8
HETATM    8  O1  UNL     1      13.132   3.008  -8.162  1.00  0.00    -0.288 OA
ATOM      9  H1  UNL     1      13.460   2.736  -7.313  1.00  0.00     0.244 HD
ENDBRANCH   6   8
BRANCH   5  10
HETATM   10  N3  UNL     1      12.220   1.798 -10.361  1.00  0.00    -0.360 N 
HETATM   11  C4  UNL     1      11.094   2.679 -10.516  1.00  0.00     0.125 C 
HETATM   12  C5  UNL     1      10.006   1.824 -11.185  1.00  0.00     0.020 C 
HETATM   13  C6  UNL     1       9.571   0.838 -10.124  1.00  0.00     0.003 C 
HETATM   14  C7  UNL     1      10.713  -0.026  -9.692  1.00  0.00     0.020 C 
HETATM   15  C8  UNL     1      12.044   0.398 -10.238  1.00  0.00     0.125 C 
ENDBRANCH   5  10
ENDBRANCH   4   5
ENDBRANCH   3   4
TORSDOF 4
ENDMDL
MODEL 4
REMARK VINA RESULT: -3.827964373      0.338      1.418
REMARK  4 active torsions:
REMARK  status: ('A' for Active; 'I' for Inactive)
REMARK    1  A    between atoms: C2_3  and  S1_4 
REMARK    2  A    between atoms: S1_4  and  C3_5 
REMARK    3  A    between atoms: C3_5  and  N3_10 
REMARK    4  A    between atoms: N2_6  and  O1_8 
ROOT
HETATM    1  N1  UNL     1      13.209   0.159 -10.311  1.00  0.00    -0.197 NA
HETATM    2  C1  UNL     1      12.281   0.878 -10.263  1.00  0.00     0.069 C 
HETATM    3  C2  UNL     1      11.126   1.773 -10.213  1.00  0.00     0.206 C 
ENDROOT
BRANCH   3   4
HETATM    4  S1  UNL     1      11.016   2.670 -11.773  1.00  0.00    -0.078 SA
BRANCH   4   5
HETATM    5  C3  UNL     1      12.413   3.768 -11.899  1.00  0.00     0.163 C 
HETATM    6  N2  UNL     1      12.645   4.574 -10.923  1.00  0.00    -0.247 N 
ATOM      7  H2  UNL     1      12.037   4.572 -10.104  1.00  0.00     0.196 HD
BRANCH   6   8
HETATM    8  O1  UNL     1      13.708   5.433 -10.983  1.00  0.00    -0.288 OA
ATOM      9  H1  UNL     1      13.634   6.307 -10.616  1.00  0.00     0.244 HD
ENDBRANCH   6   8
BRANCH   5  10
HETATM   10  N3  UNL     1      13.265   3.778 -13.030  1.00  0.00    -0.360 N 
HETATM   11  C4  UNL     1      12.956   4.663 -14.120  1.00  0.00     0.125 C 
HETATM   12  C5  UNL     1      14.307   4.961 -14.790  1.00  0.00     0.020 C 
HETATM   13  C6  UNL     1      14.710   3.665 -15.458  1.00  0.00     0.003 C 
HETATM   14  C7  UNL     1      14.863   2.567 -14.454  1.00  0.00     0.020 C 
HETATM   15  C8  UNL     1      14.397   2.927 -13.074  1.00  0.00     0.125 C 
ENDBRANCH   5  10
ENDBRANCH   4   5
ENDBRANCH   3   4
TORSDOF 4
ENDMDL
MODEL 5
REMARK VINA RESULT: -3.793261287      3.307      4.459
REMARK  4 active torsions:
REMARK  status: ('A' for Active; 'I' for Inactive)
REMARK    1  A    between atoms: C2_3  and  S1_4 
REMARK    2  A    between atoms: S1_4  and  C3_5 
REMARK    3  A    between atoms: C3_5  and  N3_10 
REMARK    4  A    between atoms: N2_6  and  O1_8 
ROOT
HETATM    1  N1  UNL     1      14.096   2.724  -8.402  1.00  0.00    -0.197 NA
HETATM    2  C1  UNL     1      13.790   3.212  -9.424  1.00  0.00     0.069 C 
HETATM    3  C2  UNL     1      13.400   3.820 -10.697  1.00  0.00     0.206 C 
ENDROOT
BRANCH   3   4
HETATM    4  S1  UNL     1      11.696   3.360 -11.063  1.00  0.00    -0.078 SA
BRANCH   4   5
HETATM    5  C3  UNL     1      11.511   1.607 -10.806  1.00  0.00     0.163 C 
HETATM    6  N2  UNL     1      11.366   1.180  -9.600  1.00  0.00    -0.247 N 
ATOM      7  H2  UNL     1      11.357   1.840  -8.823  1.00  0.00     0.196 HD
BRANCH   6   8
HETATM    8  O1  UNL     1      11.221  -0.160  -9.361  1.00  0.00    -0.288 OA
ATOM      9  H1  UNL     1      11.855  -0.617  -8.820  1.00  0.00     0.244 HD
ENDBRANCH   6   8
BRANCH   5  10
HETATM   10  N3  UNL     1      11.519   0.682 -11.878  1.00  0.00    -0.360 N 
HETATM   11  C4  UNL     1      10.262   0.203 -12.385  1.00  0.00     0.125 C 
HETATM   12  C5  UNL     1      10.535  -0.159 -13.854  1.00  0.00     0.020 C 
HETATM   13  C6  UNL     1      11.415  -1.388 -13.800  1.00  0.00     0.003 C 
HETATM   14  C7  UNL     1      12.701  -1.099 -13.093  1.00  0.00     0.020 C 
HETATM   15  C8  UNL     1      12.748   0.246 -12.431  1.00  0.00     0.125 C 
ENDBRANCH   5  10
ENDBRANCH   4   5
ENDBRANCH   3   4
TORSDOF 4
ENDMDL
