MODEL 1
REMARK VINA RESULT: -5.920366418      0.000      0.000
REMARK  9 active torsions:
REMARK  status: ('A' for Active; 'I' for Inactive)
REMARK    1  A    between atoms: C1_4  and  N2_5 
REMARK    2  A    between atoms: C1_4  and  O1_11 
REMARK    3  A    between atoms: N2_5  and  N3_7 
REMARK    4  A    between atoms: N3_7  and  N4_8 
REMARK    5  A    between atoms: O1_11  and  C2_12 
REMARK    6  A    between atoms: C2_12  and  C3_13 
REMARK    7  A    between atoms: C3_13  and  C4_15 
REMARK    8  A    between atoms: N6_21  and  O3_22 
REMARK    9  A    between atoms: C9_24  and  C10_25 
ROOT
HETATM    1  C4  UNL     1      28.839  28.652  37.527  1.00  0.00     0.014 C 
HETATM    2  C5  UNL     1      28.921  29.161  36.247  1.00  0.00     0.017 C 
HETATM    3  C6  UNL     1      29.025  30.469  35.825  1.00  0.00     0.030 C 
HETATM    4  C7  UNL     1      28.953  31.658  36.561  1.00  0.00     0.077 C 
HETATM    5  N5  UNL     1      29.036  32.876  35.849  1.00  0.00    -0.100 NA
HETATM    6  C8  UNL     1      28.809  31.827  37.920  1.00  0.00     0.115 A 
HETATM    7  N6  UNL     1      28.814  32.977  38.612  1.00  0.00    -0.201 N 
HETATM    8  C9  UNL     1      28.642  32.690  39.932  1.00  0.00     0.169 A 
HETATM    9  N8  UNL     1      28.527  31.353  40.077  1.00  0.00    -0.336 N 
ATOM     10  H8  UNL     1      28.390  30.871  40.966  1.00  0.00     0.168 HD
HETATM   11  C11 UNL     1      28.619  30.755  38.890  1.00  0.00     0.066 A 
HETATM   12  C12 UNL     1      28.545  29.379  38.657  1.00  0.00     0.047 C 
ENDROOT
BRANCH   1  13
HETATM   13  C3  UNL     1      29.071  27.253  37.750  1.00  0.00     0.183 C 
HETATM   14  O2  UNL     1      28.159  26.427  37.568  1.00  0.00    -0.290 OA
BRANCH  13  15
HETATM   15  C2  UNL     1      30.390  26.793  38.195  1.00  0.00     0.262 C 
BRANCH  15  16
HETATM   16  O1  UNL     1      30.956  25.824  37.335  1.00  0.00    -0.314 OA
BRANCH  16  17
HETATM   17  C1  UNL     1      31.065  24.504  37.681  1.00  0.00     0.230 C 
HETATM   18  N1  UNL     1      32.242  23.966  37.685  1.00  0.00    -0.364 N 
ATOM     19  H12 UNL     1      32.323  22.982  37.943  1.00  0.00     0.159 HD
ATOM     20  H11 UNL     1      33.090  24.478  37.440  1.00  0.00     0.159 HD
BRANCH  17  21
HETATM   21  N2  UNL     1      29.888  23.791  38.020  1.00  0.00    -0.250 N 
ATOM     22  H2  UNL     1      29.537  23.837  38.977  1.00  0.00     0.188 HD
BRANCH  21  23
HETATM   23  N3  UNL     1      29.194  23.023  37.074  1.00  0.00    -0.027 NA
BRANCH  23  24
HETATM   24  N4  UNL     1      28.558  23.919  36.205  1.00  0.00    -0.329 N 
ATOM     25  H42 UNL     1      28.391  24.909  36.388  1.00  0.00     0.174 HD
ATOM     26  H41 UNL     1      28.302  23.394  35.369  1.00  0.00     0.174 HD
ENDBRANCH  23  24
ENDBRANCH  21  23
ENDBRANCH  17  21
ENDBRANCH  16  17
ENDBRANCH  15  16
ENDBRANCH  13  15
ENDBRANCH   1  13
BRANCH   7  27
HETATM   27  O3  UNL     1      28.969  34.213  38.047  1.00  0.00    -0.281 OA
ATOM     28  H3  UNL     1      29.618  34.849  38.323  1.00  0.00     0.245 HD
ENDBRANCH   7  27
BRANCH   8  29
HETATM   29  C10 UNL     1      28.600  33.732  40.955  1.00  0.00     0.159 C 
HETATM   30  N7  UNL     1      28.139  35.043  40.665  1.00  0.00    -0.086 NA
HETATM   31  S1  UNL     1      29.096  33.378  42.469  1.00  0.00    -0.060 SA
ENDBRANCH   8  29
TORSDOF 9
ENDMDL
MODEL 2
REMARK VINA RESULT: -5.807598452      3.142      7.825
REMARK  9 active torsions:
REMARK  status: ('A' for Active; 'I' for Inactive)
REMARK    1  A    between atoms: C1_4  and  N2_5 
REMARK    2  A    between atoms: C1_4  and  O1_11 
REMARK    3  A    between atoms: N2_5  and  N3_7 
REMARK    4  A    between atoms: N3_7  and  N4_8 
REMARK    5  A    between atoms: O1_11  and  C2_12 
REMARK    6  A    between atoms: C2_12  and  C3_13 
REMARK    7  A    between atoms: C3_13  and  C4_15 
REMARK    8  A    between atoms: N6_21  and  O3_22 
REMARK    9  A    between atoms: C9_24  and  C10_25 
ROOT
HETATM    1  C4  UNL     1      28.981  29.084  38.378  1.00  0.00     0.014 C 
HETATM    2  C5  UNL     1      28.783  29.511  37.081  1.00  0.00     0.017 C 
HETATM    3  C6  UNL     1      28.867  28.804  35.900  1.00  0.00     0.030 C 
HETATM    4  C7  UNL     1      29.293  27.491  35.668  1.00  0.00     0.077 C 
HETATM    5  N5  UNL     1      29.330  27.040  34.329  1.00  0.00    -0.100 NA
HETATM    6  C8  UNL     1      29.696  26.539  36.577  1.00  0.00     0.115 A 
HETATM    7  N6  UNL     1      30.034  25.262  36.338  1.00  0.00    -0.201 N 
HETATM    8  C9  UNL     1      30.369  24.673  37.519  1.00  0.00     0.169 A 
HETATM    9  N8  UNL     1      30.244  25.579  38.511  1.00  0.00    -0.336 N 
ATOM     10  H8  UNL     1      30.434  25.398  39.497  1.00  0.00     0.168 HD
HETATM   11  C11 UNL     1      29.836  26.746  38.014  1.00  0.00     0.066 A 
HETATM   12  C12 UNL     1      29.599  27.913  38.748  1.00  0.00     0.047 C 
ENDROOT
BRANCH   1  13
HETATM   13  C3  UNL     1      28.522  29.897  39.469  1.00  0.00     0.183 C 
HETATM   14  O2  UNL     1      27.305  30.041  39.678  1.00  0.00    -0.290 OA
BRANCH  13  15
HETATM   15  C2  UNL     1      29.494  30.562  40.343  1.00  0.00     0.262 C 
BRANCH  15  16
HETATM   16  O1  UNL     1      29.353  31.970  40.355  1.00  0.00    -0.314 OA
BRANCH  16  17
HETATM   17  C1  UNL     1      28.672  32.634  41.340  1.00  0.00     0.230 C 
HETATM   18  N1  UNL     1      28.499  32.038  42.475  1.00  0.00    -0.364 N 
ATOM     19  H12 UNL     1      27.992  32.533  43.209  1.00  0.00     0.159 HD
ATOM     20  H11 UNL     1      28.845  31.098  42.669  1.00  0.00     0.159 HD
BRANCH  17  21
HETATM   21  N2  UNL     1      28.192  33.940  41.071  1.00  0.00    -0.250 N 
ATOM     22  H2  UNL     1      28.353  34.679  41.755  1.00  0.00     0.188 HD
BRANCH  21  23
HETATM   23  N3  UNL     1      27.500  34.242  39.890  1.00  0.00    -0.027 NA
BRANCH  23  24
HETATM   24  N4  UNL     1      26.685  33.140  39.599  1.00  0.00    -0.329 N 
ATOM     25  H42 UNL     1      26.907  32.393  38.941  1.00  0.00     0.174 HD
ATOM     26  H41 UNL     1      25.842  33.233  40.166  1.00  0.00     0.174 HD
ENDBRANCH  23  24
ENDBRANCH  21  23
ENDBRANCH  17  21
ENDBRANCH  16  17
ENDBRANCH  15  16
ENDBRANCH  13  15
ENDBRANCH   1  13
BRANCH   7  27
HETATM   27  O3  UNL     1      30.029  24.686  35.097  1.00  0.00    -0.281 OA
ATOM     28  H3  UNL     1      30.378  23.823  34.908  1.00  0.00     0.245 HD
ENDBRANCH   7  27
BRANCH   8  29
HETATM   29  C10 UNL     1      30.787  23.276  37.599  1.00  0.00     0.159 C 
HETATM   30  N7  UNL     1      29.948  22.220  37.155  1.00  0.00    -0.086 NA
HETATM   31  S1  UNL     1      32.255  22.920  38.216  1.00  0.00    -0.060 SA
ENDBRANCH   8  29
TORSDOF 9
ENDMDL
MODEL 3
REMARK VINA RESULT: -5.789767065      2.507      3.084
REMARK  9 active torsions:
REMARK  status: ('A' for Active; 'I' for Inactive)
REMARK    1  A    between atoms: C1_4  and  N2_5 
REMARK    2  A    between atoms: C1_4  and  O1_11 
REMARK    3  A    between atoms: N2_5  and  N3_7 
REMARK    4  A    between atoms: N3_7  and  N4_8 
REMARK    5  A    between atoms: O1_11  and  C2_12 
REMARK    6  A    between atoms: C2_12  and  C3_13 
REMARK    7  A    between atoms: C3_13  and  C4_15 
REMARK    8  A    between atoms: N6_21  and  O3_22 
REMARK    9  A    between atoms: C9_24  and  C10_25 
ROOT
HETATM    1  C4  UNL     1      29.468  28.500  37.979  1.00  0.00     0.014 C 
HETATM    2  C5  UNL     1      30.825  28.488  37.735  1.00  0.00     0.017 C 
HETATM    3  C6  UNL     1      31.848  29.115  38.416  1.00  0.00     0.030 C 
HETATM    4  C7  UNL     1      31.792  30.035  39.470  1.00  0.00     0.077 C 
HETATM    5  N5  UNL     1      33.014  30.565  39.943  1.00  0.00    -0.100 NA
HETATM    6  C8  UNL     1      30.690  30.519  40.138  1.00  0.00     0.115 A 
HETATM    7  N6  UNL     1      30.666  31.348  41.194  1.00  0.00    -0.201 N 
HETATM    8  C9  UNL     1      29.368  31.571  41.541  1.00  0.00     0.169 A 
HETATM    9  N8  UNL     1      28.567  30.881  40.702  1.00  0.00    -0.336 N 
ATOM     10  H8  UNL     1      27.547  30.874  40.741  1.00  0.00     0.168 HD
HETATM   11  C11 UNL     1      29.302  30.212  39.815  1.00  0.00     0.066 A 
HETATM   12  C12 UNL     1      28.811  29.391  38.795  1.00  0.00     0.047 C 
ENDROOT
BRANCH   1  13
HETATM   13  C3  UNL     1      28.626  27.521  37.351  1.00  0.00     0.183 C 
HETATM   14  O2  UNL     1      27.822  26.856  38.027  1.00  0.00    -0.290 OA
BRANCH  13  15
HETATM   15  C2  UNL     1      28.716  27.301  35.904  1.00  0.00     0.262 C 
BRANCH  15  16
HETATM   16  O1  UNL     1      29.396  26.107  35.568  1.00  0.00    -0.314 OA
BRANCH  16  17
HETATM   17  C1  UNL     1      28.739  24.949  35.250  1.00  0.00     0.230 C 
HETATM   18  N1  UNL     1      28.571  24.664  33.998  1.00  0.00    -0.364 N 
ATOM     19  H12 UNL     1      28.081  23.801  33.761  1.00  0.00     0.159 HD
ATOM     20  H11 UNL     1      28.903  25.261  33.241  1.00  0.00     0.159 HD
BRANCH  17  21
HETATM   21  N2  UNL     1      28.276  24.119  36.301  1.00  0.00    -0.250 N 
ATOM     22  H2  UNL     1      27.278  24.091  36.510  1.00  0.00     0.188 HD
BRANCH  21  23
HETATM   23  N3  UNL     1      29.155  23.336  37.063  1.00  0.00    -0.027 NA
BRANCH  23  24
HETATM   24  N4  UNL     1      29.805  24.199  37.955  1.00  0.00    -0.329 N 
ATOM     25  H42 UNL     1      29.504  24.408  38.907  1.00  0.00     0.174 HD
ATOM     26  H41 UNL     1      30.623  24.569  37.470  1.00  0.00     0.174 HD
ENDBRANCH  23  24
ENDBRANCH  21  23
ENDBRANCH  17  21
ENDBRANCH  16  17
ENDBRANCH  15  16
ENDBRANCH  13  15
ENDBRANCH   1  13
BRANCH   7  27
HETATM   27  O3  UNL     1      31.783  31.862  41.793  1.00  0.00    -0.281 OA
ATOM     28  H3  UNL     1      31.822  32.716  42.206  1.00  0.00     0.245 HD
ENDBRANCH   7  27
BRANCH   8  29
HETATM   29  C10 UNL     1      29.000  32.437  42.658  1.00  0.00     0.159 C 
HETATM   30  N7  UNL     1      28.729  31.912  43.949  1.00  0.00    -0.086 NA
HETATM   31  S1  UNL     1      28.899  34.047  42.415  1.00  0.00    -0.060 SA
ENDBRANCH   8  29
TORSDOF 9
ENDMDL
MODEL 4
REMARK VINA RESULT: -5.748404991      1.141      1.608
REMARK  9 active torsions:
REMARK  status: ('A' for Active; 'I' for Inactive)
REMARK    1  A    between atoms: C1_4  and  N2_5 
REMARK    2  A    between atoms: C1_4  and  O1_11 
REMARK    3  A    between atoms: N2_5  and  N3_7 
REMARK    4  A    between atoms: N3_7  and  N4_8 
REMARK    5  A    between atoms: O1_11  and  C2_12 
REMARK    6  A    between atoms: C2_12  and  C3_13 
REMARK    7  A    between atoms: C3_13  and  C4_15 
REMARK    8  A    between atoms: N6_21  and  O3_22 
REMARK    9  A    between atoms: C9_24  and  C10_25 
ROOT
HETATM    1  C4  UNL     1      28.871  28.636  37.110  1.00  0.00     0.014 C 
HETATM    2  C5  UNL     1      28.909  29.338  35.923  1.00  0.00     0.017 C 
HETATM    3  C6  UNL     1      28.985  30.697  35.706  1.00  0.00     0.030 C 
HETATM    4  C7  UNL     1      28.924  31.757  36.620  1.00  0.00     0.077 C 
HETATM    5  N5  UNL     1      28.971  33.071  36.103  1.00  0.00    -0.100 NA
HETATM    6  C8  UNL     1      28.820  31.710  37.991  1.00  0.00     0.115 A 
HETATM    7  N6  UNL     1      28.833  32.739  38.853  1.00  0.00    -0.201 N 
HETATM    8  C9  UNL     1      28.704  32.249  40.117  1.00  0.00     0.169 A 
HETATM    9  N8  UNL     1      28.609  30.904  40.056  1.00  0.00    -0.336 N 
ATOM     10  H8  UNL     1      28.504  30.288  40.863  1.00  0.00     0.168 HD
HETATM   11  C11 UNL     1      28.671  30.499  38.789  1.00  0.00     0.066 A 
HETATM   12  C12 UNL     1      28.605  29.174  38.347  1.00  0.00     0.047 C 
ENDROOT
BRANCH   1  13
HETATM   13  C3  UNL     1      29.125  27.223  37.106  1.00  0.00     0.183 C 
HETATM   14  O2  UNL     1      28.774  26.518  38.068  1.00  0.00    -0.290 OA
BRANCH  13  15
HETATM   15  C2  UNL     1      29.802  26.605  35.961  1.00  0.00     0.262 C 
BRANCH  15  16
HETATM   16  O1  UNL     1      28.929  25.849  35.145  1.00  0.00    -0.314 OA
BRANCH  16  17
HETATM   17  C1  UNL     1      28.872  24.482  35.195  1.00  0.00     0.230 C 
HETATM   18  N1  UNL     1      29.173  23.816  34.127  1.00  0.00    -0.364 N 
ATOM     19  H12 UNL     1      29.130  22.797  34.164  1.00  0.00     0.159 HD
ATOM     20  H11 UNL     1      29.448  24.262  33.252  1.00  0.00     0.159 HD
BRANCH  17  21
HETATM   21  N2  UNL     1      28.489  23.862  36.411  1.00  0.00    -0.250 N 
ATOM     22  H2  UNL     1      27.569  24.063  36.803  1.00  0.00     0.188 HD
BRANCH  21  23
HETATM   23  N3  UNL     1      29.342  22.979  37.088  1.00  0.00    -0.027 NA
BRANCH  23  24
HETATM   24  N4  UNL     1      30.054  23.736  38.027  1.00  0.00    -0.329 N 
ATOM     25  H42 UNL     1      30.897  23.437  38.516  1.00  0.00     0.174 HD
ATOM     26  H41 UNL     1      29.569  24.628  38.121  1.00  0.00     0.174 HD
ENDBRANCH  23  24
ENDBRANCH  21  23
ENDBRANCH  17  21
ENDBRANCH  16  17
ENDBRANCH  15  16
ENDBRANCH  13  15
ENDBRANCH   1  13
BRANCH   7  27
HETATM   27  O3  UNL     1      28.958  34.051  38.483  1.00  0.00    -0.281 OA
ATOM     28  H3  UNL     1      29.766  34.546  38.536  1.00  0.00     0.245 HD
ENDBRANCH   7  27
BRANCH   8  29
HETATM   29  C10 UNL     1      28.683  33.119  41.290  1.00  0.00     0.159 C 
HETATM   30  N7  UNL     1      28.295  34.482  41.200  1.00  0.00    -0.086 NA
HETATM   31  S1  UNL     1      29.116  32.508  42.740  1.00  0.00    -0.060 SA
ENDBRANCH   8  29
TORSDOF 9
ENDMDL
MODEL 5
REMARK VINA RESULT: -5.652658415      1.388      1.584
REMARK  9 active torsions:
REMARK  status: ('A' for Active; 'I' for Inactive)
REMARK    1  A    between atoms: C1_4  and  N2_5 
REMARK    2  A    between atoms: C1_4  and  O1_11 
REMARK    3  A    between atoms: N2_5  and  N3_7 
REMARK    4  A    between atoms: N3_7  and  N4_8 
REMARK    5  A    between atoms: O1_11  and  C2_12 
REMARK    6  A    between atoms: C2_12  and  C3_13 
REMARK    7  A    between atoms: C3_13  and  C4_15 
REMARK    8  A    between atoms: N6_21  and  O3_22 
REMARK    9  A    between atoms: C9_24  and  C10_25 
ROOT
HETATM    1  C4  UNL     1      28.474  29.584  38.559  1.00  0.00     0.014 C 
HETATM    2  C5  UNL     1      28.722  30.192  37.346  1.00  0.00     0.017 C 
HETATM    3  C6  UNL     1      29.077  31.496  37.070  1.00  0.00     0.030 C 
HETATM    4  C7  UNL     1      29.167  32.601  37.925  1.00  0.00     0.077 C 
HETATM    5  N5  UNL     1      29.503  33.848  37.352  1.00  0.00    -0.100 NA
HETATM    6  C8  UNL     1      28.972  32.659  39.287  1.00  0.00     0.115 A 
HETATM    7  N6  UNL     1      29.133  33.717  40.097  1.00  0.00    -0.201 N 
HETATM    8  C9  UNL     1      28.832  33.339  41.370  1.00  0.00     0.169 A 
HETATM    9  N8  UNL     1      28.479  32.036  41.367  1.00  0.00    -0.336 N 
ATOM     10  H8  UNL     1      28.206  31.502  42.193  1.00  0.00     0.168 HD
HETATM   11  C11 UNL     1      28.539  31.550  40.128  1.00  0.00     0.066 A 
HETATM   12  C12 UNL     1      28.242  30.238  39.746  1.00  0.00     0.047 C 
ENDROOT
BRANCH   1  13
HETATM   13  C3  UNL     1      28.446  28.151  38.641  1.00  0.00     0.183 C 
HETATM   14  O2  UNL     1      27.361  27.545  38.684  1.00  0.00    -0.290 OA
BRANCH  13  15
HETATM   15  C2  UNL     1      29.703  27.397  38.676  1.00  0.00     0.262 C 
BRANCH  15  16
HETATM   16  O1  UNL     1      29.508  25.997  38.606  1.00  0.00    -0.314 OA
BRANCH  16  17
HETATM   17  C1  UNL     1      30.311  25.178  37.859  1.00  0.00     0.230 C 
HETATM   18  N1  UNL     1      31.222  25.721  37.116  1.00  0.00    -0.364 N 
ATOM     19  H12 UNL     1      31.820  25.110  36.560  1.00  0.00     0.159 HD
ATOM     20  H11 UNL     1      31.366  26.729  37.061  1.00  0.00     0.159 HD
BRANCH  17  21
HETATM   21  N2  UNL     1      30.111  23.777  37.935  1.00  0.00    -0.250 N 
ATOM     22  H2  UNL     1      30.627  23.237  38.630  1.00  0.00     0.188 HD
BRANCH  21  23
HETATM   23  N3  UNL     1      29.221  23.113  37.079  1.00  0.00    -0.027 NA
BRANCH  23  24
HETATM   24  N4  UNL     1      28.506  24.099  36.386  1.00  0.00    -0.329 N 
ATOM     25  H42 UNL     1      28.071  24.922  36.802  1.00  0.00     0.174 HD
ATOM     26  H41 UNL     1      28.507  23.832  35.402  1.00  0.00     0.174 HD
ENDBRANCH  23  24
ENDBRANCH  21  23
ENDBRANCH  17  21
ENDBRANCH  16  17
ENDBRANCH  15  16
ENDBRANCH  13  15
ENDBRANCH   1  13
BRANCH   7  27
HETATM   27  O3  UNL     1      29.535  34.955  39.674  1.00  0.00    -0.281 OA
ATOM     28  H3  UNL     1      29.924  35.129  38.826  1.00  0.00     0.245 HD
ENDBRANCH   7  27
BRANCH   8  29
HETATM   29  C10 UNL     1      28.909  34.267  42.496  1.00  0.00     0.159 C 
HETATM   30  N7  UNL     1      27.753  34.652  43.225  1.00  0.00    -0.086 NA
HETATM   31  S1  UNL     1      30.361  34.875  42.925  1.00  0.00    -0.060 SA
ENDBRANCH   8  29
TORSDOF 9
ENDMDL
