MODEL 1
REMARK VINA RESULT: -5.463125365      0.000      0.000
REMARK  7 active torsions:
REMARK  status: ('A' for Active; 'I' for Inactive)
REMARK    1  A    between atoms: C4_8  and  N3_9 
REMARK    2  A    between atoms: C5_12  and  N4_13 
REMARK    3  A    between atoms: N5_16  and  N6_17 
REMARK    4  A    between atoms: N7_19  and  N8_21 
REMARK    5  A    between atoms: C8_23  and  C9_24 
REMARK       I    between atoms: C9_24  and  N9_26 
REMARK    6  A    between atoms: N9_26  and  N10_28 
REMARK    7  A    between atoms: N11_32  and  N12_34 
ROOT
HETATM    1  N4  UNL     1      29.882  31.339  40.608  1.00  0.00    -0.369 N 
HETATM    2  C6  UNL     1      30.044  32.623  39.974  1.00  0.00     0.145 C 
HETATM    3  C7  UNL     1      30.923  33.578  40.864  1.00  0.00     0.172 C 
HETATM    4  N5  UNL     1      30.103  33.885  41.993  1.00  0.00    -0.260 N 
HETATM    5  C10 UNL     1      29.318  32.795  42.444  1.00  0.00     0.131 C 
HETATM    6  N11 UNL     1      28.250  32.962  43.137  1.00  0.00    -0.293 N 
ATOM      7  H11 UNL     1      27.701  32.163  43.452  1.00  0.00     0.187 HD
HETATM    8  C11 UNL     1      29.848  31.434  42.042  1.00  0.00     0.202 C 
ENDROOT
BRANCH   4   9
HETATM    9  N6  UNL     1      30.027  35.118  42.636  1.00  0.00    -0.225 N 
HETATM   10  N7  UNL     1      30.207  36.172  41.979  1.00  0.00    -0.228 N 
ATOM     11  H7  UNL     1      30.404  36.072  40.983  1.00  0.00     0.210 HD
ATOM     12  H6  UNL     1      29.827  35.164  43.635  1.00  0.00     0.210 HD
BRANCH  10  13
HETATM   13  N8  UNL     1      30.162  37.453  42.484  1.00  0.00    -0.291 N 
HETATM   14  C8  UNL     1      31.186  38.163  42.779  1.00  0.00     0.184 C 
ATOM     15  H8  UNL     1      29.243  37.868  42.634  1.00  0.00     0.187 HD
BRANCH  14  16
HETATM   16  C9  UNL     1      32.525  37.628  42.589  1.00  0.00     0.276 C 
HETATM   17  O1  UNL     1      32.805  36.498  43.055  1.00  0.00    -0.265 OA
HETATM   18  N9  UNL     1      33.519  38.360  41.884  1.00  0.00    -0.272 N 
ATOM     19  H9  UNL     1      33.298  39.279  41.501  1.00  0.00     0.189 HD
BRANCH  18  20
HETATM   20  N10 UNL     1      34.793  37.825  41.716  1.00  0.00    -0.342 N 
ATOM     21 2H10 UNL     1      34.902  36.811  41.679  1.00  0.00     0.176 HD
ATOM     22 1H10 UNL     1      35.601  38.442  41.632  1.00  0.00     0.176 HD
ENDBRANCH  18  20
ENDBRANCH  14  16
ENDBRANCH  10  13
ENDBRANCH   4   9
BRANCH   6  23
HETATM   23  N12 UNL     1      27.861  34.256  43.448  1.00  0.00    -0.344 N 
ATOM     24 2H12 UNL     1      28.267  35.043  42.943  1.00  0.00     0.176 HD
ATOM     25 1H12 UNL     1      27.168  34.392  44.184  1.00  0.00     0.176 HD
ENDBRANCH   6  23
BRANCH   1  26
HETATM   26  C5  UNL     1      29.705  30.158  39.842  1.00  0.00     0.083 A 
HETATM   27  C2  UNL     1      28.493  29.664  39.416  1.00  0.00    -0.015 A 
HETATM   28  C1  UNL     1      27.225  30.202  39.879  1.00  0.00     0.052 C 
HETATM   29  C3  UNL     1      28.525  28.554  38.555  1.00  0.00     0.116 A 
HETATM   30  N1  UNL     1      29.680  28.001  38.167  1.00  0.00    -0.310 N 
HETATM   31  N2  UNL     1      30.826  28.492  38.589  1.00  0.00    -0.284 N 
ATOM     32  H1  UNL     1      29.672  27.196  37.542  1.00  0.00     0.186 HD
HETATM   33  C4  UNL     1      30.900  29.545  39.408  1.00  0.00     0.141 A 
ATOM     34  H2  UNL     1      31.691  28.051  38.278  1.00  0.00     0.188 HD
BRANCH  33  35
HETATM   35  N3  UNL     1      32.019  29.983  39.748  1.00  0.00    -0.383 N 
ATOM     36  H32 UNL     1      32.477  29.669  40.603  1.00  0.00     0.157 HD
ATOM     37  H31 UNL     1      32.478  30.690  39.173  1.00  0.00     0.157 HD
ENDBRANCH  33  35
ENDBRANCH   1  26
TORSDOF 7
ENDMDL
MODEL 2
REMARK VINA RESULT: -5.411581388      3.355      8.571
REMARK  7 active torsions:
REMARK  status: ('A' for Active; 'I' for Inactive)
REMARK    1  A    between atoms: C4_8  and  N3_9 
REMARK    2  A    between atoms: C5_12  and  N4_13 
REMARK    3  A    between atoms: N5_16  and  N6_17 
REMARK    4  A    between atoms: N7_19  and  N8_21 
REMARK    5  A    between atoms: C8_23  and  C9_24 
REMARK       I    between atoms: C9_24  and  N9_26 
REMARK    6  A    between atoms: N9_26  and  N10_28 
REMARK    7  A    between atoms: N11_32  and  N12_34 
ROOT
HETATM    1  N4  UNL     1      29.218  31.776  40.280  1.00  0.00    -0.369 N 
HETATM    2  C6  UNL     1      28.043  31.540  39.482  1.00  0.00     0.145 C 
HETATM    3  C7  UNL     1      27.770  29.998  39.331  1.00  0.00     0.172 C 
HETATM    4  N5  UNL     1      28.822  29.519  38.493  1.00  0.00    -0.260 N 
HETATM    5  C10 UNL     1      30.075  30.135  38.738  1.00  0.00     0.131 C 
HETATM    6  N11 UNL     1      31.008  30.161  37.856  1.00  0.00    -0.293 N 
ATOM      7  H11 UNL     1      31.902  30.610  38.054  1.00  0.00     0.187 HD
HETATM    8  C11 UNL     1      30.211  30.750  40.115  1.00  0.00     0.202 C 
ENDROOT
BRANCH   4   9
HETATM    9  N6  UNL     1      28.701  28.545  37.506  1.00  0.00    -0.225 N 
HETATM   10  N7  UNL     1      28.292  27.398  37.813  1.00  0.00    -0.228 N 
ATOM     11  H7  UNL     1      28.064  27.233  38.793  1.00  0.00     0.210 HD
ATOM     12  H6  UNL     1      28.942  28.761  36.539  1.00  0.00     0.210 HD
BRANCH  10  13
HETATM   13  N8  UNL     1      28.125  26.343  36.943  1.00  0.00    -0.291 N 
HETATM   14  C8  UNL     1      28.994  25.431  36.718  1.00  0.00     0.184 C 
ATOM     15  H8  UNL     1      27.240  26.285  36.438  1.00  0.00     0.187 HD
BRANCH  14  16
HETATM   16  C9  UNL     1      30.276  25.459  37.405  1.00  0.00     0.276 C 
HETATM   17  O1  UNL     1      30.980  26.496  37.346  1.00  0.00    -0.265 OA
HETATM   18  N9  UNL     1      30.744  24.336  38.140  1.00  0.00    -0.272 N 
ATOM     19  H9  UNL     1      30.177  23.490  38.193  1.00  0.00     0.189 HD
BRANCH  18  20
HETATM   20  N10 UNL     1      31.975  24.390  38.788  1.00  0.00    -0.342 N 
ATOM     21 2H10 UNL     1      32.169  25.169  39.417  1.00  0.00     0.176 HD
ATOM     22 1H10 UNL     1      32.668  23.658  38.631  1.00  0.00     0.176 HD
ENDBRANCH  18  20
ENDBRANCH  14  16
ENDBRANCH  10  13
ENDBRANCH   4   9
BRANCH   6  23
HETATM   23  N12 UNL     1      30.772  29.563  36.628  1.00  0.00    -0.344 N 
ATOM     24 2H12 UNL     1      30.784  28.547  36.548  1.00  0.00     0.176 HD
ATOM     25 1H12 UNL     1      30.589  30.162  35.823  1.00  0.00     0.176 HD
ENDBRANCH   6  23
BRANCH   1  26
HETATM   26  C5  UNL     1      29.350  32.952  41.065  1.00  0.00     0.083 A 
HETATM   27  C2  UNL     1      29.775  34.174  40.597  1.00  0.00    -0.015 A 
HETATM   28  C1  UNL     1      30.332  34.349  39.267  1.00  0.00     0.052 C 
HETATM   29  C3  UNL     1      29.715  35.255  41.493  1.00  0.00     0.116 A 
HETATM   30  N1  UNL     1      29.267  35.104  42.744  1.00  0.00    -0.310 N 
HETATM   31  N2  UNL     1      28.866  33.924  43.168  1.00  0.00    -0.284 N 
ATOM     32  H1  UNL     1      29.235  35.906  43.372  1.00  0.00     0.186 HD
HETATM   33  C4  UNL     1      28.883  32.836  42.393  1.00  0.00     0.141 A 
ATOM     34  H2  UNL     1      28.529  33.837  44.127  1.00  0.00     0.188 HD
BRANCH  33  35
HETATM   35  N3  UNL     1      28.461  31.752  42.844  1.00  0.00    -0.383 N 
ATOM     36  H32 UNL     1      27.463  31.578  42.967  1.00  0.00     0.157 HD
ATOM     37  H31 UNL     1      29.125  31.029  43.120  1.00  0.00     0.157 HD
ENDBRANCH  33  35
ENDBRANCH   1  26
TORSDOF 7
ENDMDL
MODEL 3
REMARK VINA RESULT: -5.407715858      0.819      1.698
REMARK  7 active torsions:
REMARK  status: ('A' for Active; 'I' for Inactive)
REMARK    1  A    between atoms: C4_8  and  N3_9 
REMARK    2  A    between atoms: C5_12  and  N4_13 
REMARK    3  A    between atoms: N5_16  and  N6_17 
REMARK    4  A    between atoms: N7_19  and  N8_21 
REMARK    5  A    between atoms: C8_23  and  C9_24 
REMARK       I    between atoms: C9_24  and  N9_26 
REMARK    6  A    between atoms: N9_26  and  N10_28 
REMARK    7  A    between atoms: N11_32  and  N12_34 
ROOT
HETATM    1  N4  UNL     1      29.845  31.349  40.535  1.00  0.00    -0.369 N 
HETATM    2  C6  UNL     1      29.978  32.644  39.919  1.00  0.00     0.145 C 
HETATM    3  C7  UNL     1      30.868  33.595  40.803  1.00  0.00     0.172 C 
HETATM    4  N5  UNL     1      30.073  33.874  41.956  1.00  0.00    -0.260 N 
HETATM    5  C10 UNL     1      29.311  32.767  42.408  1.00  0.00     0.131 C 
HETATM    6  N11 UNL     1      28.258  32.912  43.130  1.00  0.00    -0.293 N 
ATOM      7  H11 UNL     1      27.725  32.101  43.444  1.00  0.00     0.187 HD
HETATM    8  C11 UNL     1      29.845  31.420  41.970  1.00  0.00     0.202 C 
ENDROOT
BRANCH   4   9
HETATM    9  N6  UNL     1      30.000  35.095  42.621  1.00  0.00    -0.225 N 
HETATM   10  N7  UNL     1      30.188  36.160  41.985  1.00  0.00    -0.228 N 
ATOM     11  H7  UNL     1      30.390  36.077  40.988  1.00  0.00     0.210 HD
ATOM     12  H6  UNL     1      29.794  35.124  43.620  1.00  0.00     0.210 HD
BRANCH  10  13
HETATM   13  N8  UNL     1      30.147  37.432  42.513  1.00  0.00    -0.291 N 
HETATM   14  C8  UNL     1      31.173  38.142  42.800  1.00  0.00     0.184 C 
ATOM     15  H8  UNL     1      29.229  37.839  42.689  1.00  0.00     0.187 HD
BRANCH  14  16
HETATM   16  C9  UNL     1      32.511  37.617  42.574  1.00  0.00     0.276 C 
HETATM   17  O1  UNL     1      32.804  36.478  43.011  1.00  0.00    -0.265 OA
HETATM   18  N9  UNL     1      33.489  38.369  41.869  1.00  0.00    -0.272 N 
ATOM     19  H9  UNL     1      33.257  39.295  41.510  1.00  0.00     0.189 HD
BRANCH  18  20
HETATM   20  N10 UNL     1      34.762  37.843  41.666  1.00  0.00    -0.342 N 
ATOM     21 2H10 UNL     1      34.903  37.167  40.916  1.00  0.00     0.176 HD
ATOM     22 1H10 UNL     1      35.536  38.134  42.263  1.00  0.00     0.176 HD
ENDBRANCH  18  20
ENDBRANCH  14  16
ENDBRANCH  10  13
ENDBRANCH   4   9
BRANCH   6  23
HETATM   23  N12 UNL     1      27.863  34.196  43.471  1.00  0.00    -0.344 N 
ATOM     24 2H12 UNL     1      26.977  34.563  43.126  1.00  0.00     0.176 HD
ATOM     25 1H12 UNL     1      28.477  34.750  44.068  1.00  0.00     0.176 HD
ENDBRANCH   6  23
BRANCH   1  26
HETATM   26  C5  UNL     1      29.661  30.178  39.753  1.00  0.00     0.083 A 
HETATM   27  C2  UNL     1      30.668  29.334  39.343  1.00  0.00    -0.015 A 
HETATM   28  C1  UNL     1      32.074  29.661  39.504  1.00  0.00     0.052 C 
HETATM   29  C3  UNL     1      30.281  28.153  38.687  1.00  0.00     0.116 A 
HETATM   30  N1  UNL     1      28.993  27.862  38.470  1.00  0.00    -0.310 N 
HETATM   31  N2  UNL     1      28.049  28.687  38.872  1.00  0.00    -0.284 N 
ATOM     32  H1  UNL     1      28.742  26.998  37.991  1.00  0.00     0.186 HD
HETATM   33  C4  UNL     1      28.316  29.833  39.504  1.00  0.00     0.141 A 
ATOM     34  H2  UNL     1      27.076  28.441  38.692  1.00  0.00     0.188 HD
BRANCH  33  35
HETATM   35  N3  UNL     1      27.374  30.558  39.888  1.00  0.00    -0.383 N 
ATOM     36  H32 UNL     1      26.406  30.344  39.649  1.00  0.00     0.157 HD
ATOM     37  H31 UNL     1      27.575  31.397  40.432  1.00  0.00     0.157 HD
ENDBRANCH  33  35
ENDBRANCH   1  26
TORSDOF 7
ENDMDL
MODEL 4
REMARK VINA RESULT: -5.393979085      3.821      7.343
REMARK  7 active torsions:
REMARK  status: ('A' for Active; 'I' for Inactive)
REMARK    1  A    between atoms: C4_8  and  N3_9 
REMARK    2  A    between atoms: C5_12  and  N4_13 
REMARK    3  A    between atoms: N5_16  and  N6_17 
REMARK    4  A    between atoms: N7_19  and  N8_21 
REMARK    5  A    between atoms: C8_23  and  C9_24 
REMARK       I    between atoms: C9_24  and  N9_26 
REMARK    6  A    between atoms: N9_26  and  N10_28 
REMARK    7  A    between atoms: N11_32  and  N12_34 
ROOT
HETATM    1  N4  UNL     1      31.348  35.515  42.054  1.00  0.00    -0.369 N 
HETATM    2  C6  UNL     1      31.176  34.872  40.776  1.00  0.00     0.145 C 
HETATM    3  C7  UNL     1      29.688  35.003  40.280  1.00  0.00     0.172 C 
HETATM    4  N5  UNL     1      28.934  34.167  41.159  1.00  0.00    -0.260 N 
HETATM    5  C10 UNL     1      29.382  34.197  42.503  1.00  0.00     0.131 C 
HETATM    6  N11 UNL     1      29.131  33.245  43.328  1.00  0.00    -0.293 N 
ATOM      7  H11 UNL     1      29.464  33.287  44.291  1.00  0.00     0.187 HD
HETATM    8  C11 UNL     1      30.170  35.436  42.873  1.00  0.00     0.202 C 
ENDROOT
BRANCH   4   9
HETATM    9  N6  UNL     1      27.852  33.368  40.797  1.00  0.00    -0.225 N 
HETATM   10  N7  UNL     1      27.191  33.649  39.768  1.00  0.00    -0.228 N 
ATOM     11  H7  UNL     1      27.485  34.468  39.235  1.00  0.00     0.210 HD
ATOM     12  H6  UNL     1      27.599  32.560  41.365  1.00  0.00     0.210 HD
BRANCH  10  13
HETATM   13  N8  UNL     1      26.102  32.950  39.295  1.00  0.00    -0.291 N 
HETATM   14  C8  UNL     1      25.266  33.389  38.429  1.00  0.00     0.184 C 
ATOM     15  H8  UNL     1      25.949  32.011  39.663  1.00  0.00     0.187 HD
BRANCH  14  16
HETATM   16  C9  UNL     1      25.428  34.721  37.869  1.00  0.00     0.276 C 
HETATM   17  O1  UNL     1      25.640  35.688  38.639  1.00  0.00    -0.265 OA
HETATM   18  N9  UNL     1      25.350  34.945  36.467  1.00  0.00    -0.272 N 
ATOM     19  H9  UNL     1      25.179  34.164  35.835  1.00  0.00     0.189 HD
BRANCH  18  20
HETATM   20  N10 UNL     1      25.508  36.231  35.957  1.00  0.00    -0.342 N 
ATOM     21 2H10 UNL     1      25.265  36.409  34.982  1.00  0.00     0.176 HD
ATOM     22 1H10 UNL     1      25.862  36.979  36.553  1.00  0.00     0.176 HD
ENDBRANCH  18  20
ENDBRANCH  14  16
ENDBRANCH  10  13
ENDBRANCH   4   9
BRANCH   6  23
HETATM   23  N12 UNL     1      28.399  32.158  42.879  1.00  0.00    -0.344 N 
ATOM     24 2H12 UNL     1      27.765  31.675  43.515  1.00  0.00     0.176 HD
ATOM     25 1H12 UNL     1      28.512  31.862  41.909  1.00  0.00     0.176 HD
ENDBRANCH   6  23
BRANCH   1  26
HETATM   26  C5  UNL     1      32.594  36.081  42.430  1.00  0.00     0.083 A 
HETATM   27  C2  UNL     1      33.589  35.422  43.115  1.00  0.00    -0.015 A 
HETATM   28  C1  UNL     1      33.390  34.111  43.710  1.00  0.00     0.052 C 
HETATM   29  C3  UNL     1      34.806  36.104  43.283  1.00  0.00     0.116 A 
HETATM   30  N1  UNL     1      34.990  37.338  42.801  1.00  0.00    -0.310 N 
HETATM   31  N2  UNL     1      34.022  37.947  42.149  1.00  0.00    -0.284 N 
ATOM     32  H1  UNL     1      35.884  37.809  42.938  1.00  0.00     0.186 HD
HETATM   33  C4  UNL     1      32.831  37.383  41.937  1.00  0.00     0.141 A 
ATOM     34  H2  UNL     1      34.190  38.888  41.792  1.00  0.00     0.188 HD
BRANCH  33  35
HETATM   35  N3  UNL     1      31.964  38.000  41.284  1.00  0.00    -0.383 N 
ATOM     36  H32 UNL     1      31.935  37.961  40.265  1.00  0.00     0.157 HD
ATOM     37  H31 UNL     1      31.282  38.578  41.775  1.00  0.00     0.157 HD
ENDBRANCH  33  35
ENDBRANCH   1  26
TORSDOF 7
ENDMDL
MODEL 5
REMARK VINA RESULT: -5.343448393      1.811      2.413
REMARK  7 active torsions:
REMARK  status: ('A' for Active; 'I' for Inactive)
REMARK    1  A    between atoms: C4_8  and  N3_9 
REMARK    2  A    between atoms: C5_12  and  N4_13 
REMARK    3  A    between atoms: N5_16  and  N6_17 
REMARK    4  A    between atoms: N7_19  and  N8_21 
REMARK    5  A    between atoms: C8_23  and  C9_24 
REMARK       I    between atoms: C9_24  and  N9_26 
REMARK    6  A    between atoms: N9_26  and  N10_28 
REMARK    7  A    between atoms: N11_32  and  N12_34 
ROOT
HETATM    1  N4  UNL     1      29.776  31.100  40.450  1.00  0.00    -0.369 N 
HETATM    2  C6  UNL     1      30.055  32.373  39.837  1.00  0.00     0.145 C 
HETATM    3  C7  UNL     1      31.049  33.215  40.721  1.00  0.00     0.172 C 
HETATM    4  N5  UNL     1      30.292  33.580  41.876  1.00  0.00    -0.260 N 
HETATM    5  C10 UNL     1      29.410  32.566  42.328  1.00  0.00     0.131 C 
HETATM    6  N11 UNL     1      28.382  32.828  43.051  1.00  0.00    -0.293 N 
ATOM      7  H11 UNL     1      27.761  32.082  43.365  1.00  0.00     0.187 HD
HETATM    8  C11 UNL     1      29.787  31.167  41.886  1.00  0.00     0.202 C 
ENDROOT
BRANCH   4   9
HETATM    9  N6  UNL     1      30.360  34.800  42.544  1.00  0.00    -0.225 N 
HETATM   10  N7  UNL     1      31.429  35.140  43.107  1.00  0.00    -0.228 N 
ATOM     11  H7  UNL     1      32.214  34.491  43.046  1.00  0.00     0.210 HD
ATOM     12  H6  UNL     1      29.545  35.414  42.576  1.00  0.00     0.210 HD
BRANCH  10  13
HETATM   13  N8  UNL     1      31.636  36.312  43.801  1.00  0.00    -0.291 N 
HETATM   14  C8  UNL     1      32.667  36.571  44.515  1.00  0.00     0.184 C 
ATOM     15  H8  UNL     1      30.913  37.029  43.741  1.00  0.00     0.187 HD
BRANCH  14  16
HETATM   16  C9  UNL     1      33.732  35.589  44.643  1.00  0.00     0.276 C 
HETATM   17  O1  UNL     1      33.442  34.407  44.944  1.00  0.00    -0.265 OA
HETATM   18  N9  UNL     1      35.092  35.945  44.431  1.00  0.00    -0.272 N 
ATOM     19  H9  UNL     1      35.334  36.905  44.184  1.00  0.00     0.189 HD
BRANCH  18  20
HETATM   20  N10 UNL     1      36.092  34.985  44.559  1.00  0.00    -0.342 N 
ATOM     21 2H10 UNL     1      36.395  34.709  45.493  1.00  0.00     0.176 HD
ATOM     22 1H10 UNL     1      36.512  34.570  43.728  1.00  0.00     0.176 HD
ENDBRANCH  18  20
ENDBRANCH  14  16
ENDBRANCH  10  13
ENDBRANCH   4   9
BRANCH   6  23
HETATM   23  N12 UNL     1      28.136  34.148  43.396  1.00  0.00    -0.344 N 
ATOM     24 2H12 UNL     1      27.187  34.516  43.347  1.00  0.00     0.176 HD
ATOM     25 1H12 UNL     1      28.921  34.726  43.695  1.00  0.00     0.176 HD
ENDBRANCH   6  23
BRANCH   1  26
HETATM   26  C5  UNL     1      29.460  29.960  39.667  1.00  0.00     0.083 A 
HETATM   27  C2  UNL     1      30.371  29.031  39.216  1.00  0.00    -0.015 A 
HETATM   28  C1  UNL     1      31.806  29.225  39.332  1.00  0.00     0.052 C 
HETATM   29  C3  UNL     1      29.855  27.898  38.566  1.00  0.00     0.116 A 
HETATM   30  N1  UNL     1      28.539  27.729  38.389  1.00  0.00    -0.310 N 
HETATM   31  N2  UNL     1      27.689  28.633  38.829  1.00  0.00    -0.284 N 
ATOM     32  H1  UNL     1      28.193  26.897  37.913  1.00  0.00     0.186 HD
HETATM   33  C4  UNL     1      28.081  29.743  39.460  1.00  0.00     0.141 A 
ATOM     34  H2  UNL     1      26.692  28.480  38.681  1.00  0.00     0.188 HD
BRANCH  33  35
HETATM   35  N3  UNL     1      27.224  30.547  39.881  1.00  0.00    -0.383 N 
ATOM     36  H32 UNL     1      27.060  31.442  39.418  1.00  0.00     0.157 HD
ATOM     37  H31 UNL     1      26.690  30.321  40.720  1.00  0.00     0.157 HD
ENDBRANCH  33  35
ENDBRANCH   1  26
TORSDOF 7
ENDMDL
