MODEL 1
REMARK VINA RESULT: -5.311491166      0.000      0.000
REMARK  7 active torsions:
REMARK  status: ('A' for Active; 'I' for Inactive)
REMARK    1  A    between atoms: O1_2  and  C2_3 
REMARK    2  A    between atoms: C5_6  and  C6_7 
REMARK    3  A    between atoms: C6_7  and  N1_8 
REMARK    4  A    between atoms: C9_22  and  O3_23 
REMARK    5  A    between atoms: C9_22  and  C11_25 
REMARK       I    between atoms: C11_25  and  N6_27 
REMARK    6  A    between atoms: N6_27  and  N7_29 
REMARK    7  A    between atoms: N7_29  and  N8_30 
ROOT
HETATM    1  C2  UNL     1      29.555  31.682  40.196  1.00  0.00     0.185 C 
HETATM    2  C3  UNL     1      31.040  31.403  40.111  1.00  0.00     0.070 C 
HETATM    3  C4  UNL     1      31.832  31.678  41.335  1.00  0.00     0.060 C 
HETATM    4  C5  UNL     1      31.634  33.074  41.883  1.00  0.00     0.132 C 
HETATM    5  N2  UNL     1      30.653  32.859  42.982  1.00  0.00    -0.337 N 
ATOM      6  H2  UNL     1      30.876  33.202  43.917  1.00  0.00     0.164 HD
HETATM    7  C7  UNL     1      29.513  32.245  42.790  1.00  0.00     0.188 C 
HETATM    8  N3  UNL     1      28.672  32.101  43.927  1.00  0.00    -0.064 NA
HETATM    9  N4  UNL     1      29.047  31.728  41.546  1.00  0.00    -0.330 N 
ATOM     10  H4  UNL     1      28.133  31.283  41.630  1.00  0.00     0.165 HD
HETATM   11  N5  UNL     1      31.164  34.028  40.922  1.00  0.00    -0.330 N 
ATOM     12  H5  UNL     1      31.403  34.991  41.162  1.00  0.00     0.165 HD
HETATM   13  C8  UNL     1      30.438  33.920  39.715  1.00  0.00     0.269 C 
HETATM   14  O2  UNL     1      30.699  34.677  38.782  1.00  0.00    -0.269 OA
HETATM   15  C9  UNL     1      29.323  32.947  39.392  1.00  0.00     0.273 C 
ENDROOT
BRANCH  15  16
HETATM   16  O3  UNL     1      29.181  32.772  38.048  1.00  0.00    -0.363 OA
HETATM   17  C10 UNL     1      30.154  32.441  37.221  1.00  0.00     0.204 C 
ENDBRANCH  15  16
BRANCH  15  18
HETATM   18  C11 UNL     1      28.064  33.589  39.804  1.00  0.00     0.284 C 
HETATM   19  O4  UNL     1      27.976  34.356  40.753  1.00  0.00    -0.268 OA
HETATM   20  N6  UNL     1      26.883  33.313  39.060  1.00  0.00    -0.251 N 
ATOM     21  H6  UNL     1      26.942  32.677  38.265  1.00  0.00     0.187 HD
BRANCH  20  22
HETATM   22  N7  UNL     1      25.642  33.880  39.378  1.00  0.00    -0.027 NA
BRANCH  22  23
HETATM   23  N8  UNL     1      25.056  34.302  38.181  1.00  0.00    -0.329 N 
ATOM     24  H82 UNL     1      25.556  34.686  37.379  1.00  0.00     0.174 HD
ATOM     25  H81 UNL     1      24.050  34.155  38.264  1.00  0.00     0.174 HD
ENDBRANCH  22  23
ENDBRANCH  20  22
ENDBRANCH  15  18
BRANCH   1  26
HETATM   26  O1  UNL     1      28.787  30.701  39.529  1.00  0.00    -0.361 OA
HETATM   27  C1  UNL     1      29.366  29.485  39.403  1.00  0.00     0.205 C 
ENDBRANCH   1  26
BRANCH   4  28
HETATM   28  C6  UNL     1      32.896  33.580  42.539  1.00  0.00     0.283 C 
BRANCH  28  29
HETATM   29  N1  UNL     1      32.683  34.296  43.751  1.00  0.00    -0.075 N 
ATOM     30  H13 UNL     1      31.711  34.597  43.821  1.00  0.00     0.274 HD
ATOM     31  H12 UNL     1      32.728  33.664  44.550  1.00  0.00     0.274 HD
ATOM     32  H11 UNL     1      33.312  35.088  43.889  1.00  0.00     0.274 HD
ENDBRANCH  28  29
ENDBRANCH   4  28
TORSDOF 7
ENDMDL
MODEL 2
REMARK VINA RESULT: -5.288023659      2.308      4.793
REMARK  7 active torsions:
REMARK  status: ('A' for Active; 'I' for Inactive)
REMARK    1  A    between atoms: O1_2  and  C2_3 
REMARK    2  A    between atoms: C5_6  and  C6_7 
REMARK    3  A    between atoms: C6_7  and  N1_8 
REMARK    4  A    between atoms: C9_22  and  O3_23 
REMARK    5  A    between atoms: C9_22  and  C11_25 
REMARK       I    between atoms: C11_25  and  N6_27 
REMARK    6  A    between atoms: N6_27  and  N7_29 
REMARK    7  A    between atoms: N7_29  and  N8_30 
ROOT
HETATM    1  C2  UNL     1      30.226  32.874  40.437  1.00  0.00     0.185 C 
HETATM    2  C3  UNL     1      30.449  31.398  40.187  1.00  0.00     0.070 C 
HETATM    3  C4  UNL     1      29.342  30.670  39.519  1.00  0.00     0.060 C 
HETATM    4  C5  UNL     1      28.004  30.847  40.200  1.00  0.00     0.132 C 
HETATM    5  N2  UNL     1      27.351  31.899  39.372  1.00  0.00    -0.337 N 
ATOM      6  H2  UNL     1      26.424  31.719  38.986  1.00  0.00     0.164 HD
HETATM    7  C7  UNL     1      27.927  33.048  39.123  1.00  0.00     0.188 C 
HETATM    8  N3  UNL     1      27.196  33.960  38.313  1.00  0.00    -0.064 NA
HETATM    9  N4  UNL     1      29.203  33.459  39.604  1.00  0.00    -0.330 N 
ATOM     10  H4  UNL     1      29.456  34.393  39.280  1.00  0.00     0.165 HD
HETATM   11  N5  UNL     1      28.084  31.224  41.581  1.00  0.00    -0.330 N 
ATOM     12  H5  UNL     1      27.256  30.962  42.117  1.00  0.00     0.165 HD
HETATM   13  C8  UNL     1      29.065  31.880  42.356  1.00  0.00     0.269 C 
HETATM   14  O2  UNL     1      29.244  31.537  43.524  1.00  0.00    -0.269 OA
HETATM   15  C9  UNL     1      29.978  33.011  41.928  1.00  0.00     0.273 C 
ENDROOT
BRANCH  15  16
HETATM   16  O3  UNL     1      31.094  33.079  42.706  1.00  0.00    -0.363 OA
HETATM   17  C10 UNL     1      31.547  34.174  43.285  1.00  0.00     0.204 C 
ENDBRANCH  15  16
BRANCH  15  18
HETATM   18  C11 UNL     1      29.265  34.267  42.213  1.00  0.00     0.284 C 
HETATM   19  O4  UNL     1      29.510  35.325  41.649  1.00  0.00    -0.268 OA
HETATM   20  N6  UNL     1      28.231  34.258  43.190  1.00  0.00    -0.251 N 
ATOM     21  H6  UNL     1      28.015  33.382  43.666  1.00  0.00     0.187 HD
BRANCH  20  22
HETATM   22  N7  UNL     1      27.499  35.404  43.524  1.00  0.00    -0.027 NA
BRANCH  22  23
HETATM   23  N8  UNL     1      26.389  34.990  44.267  1.00  0.00    -0.329 N 
ATOM     24  H82 UNL     1      26.421  34.573  45.197  1.00  0.00     0.174 HD
ATOM     25  H81 UNL     1      25.558  35.183  43.707  1.00  0.00     0.174 HD
ENDBRANCH  22  23
ENDBRANCH  20  22
ENDBRANCH  15  18
BRANCH   1  26
HETATM   26  O1  UNL     1      31.393  33.638  40.209  1.00  0.00    -0.361 OA
HETATM   27  C1  UNL     1      31.519  34.163  38.968  1.00  0.00     0.205 C 
ENDBRANCH   1  26
BRANCH   4  28
HETATM   28  C6  UNL     1      27.155  29.608  40.051  1.00  0.00     0.283 C 
BRANCH  28  29
HETATM   29  N1  UNL     1      27.654  28.661  39.110  1.00  0.00    -0.075 N 
ATOM     30  H13 UNL     1      27.462  28.972  38.157  1.00  0.00     0.274 HD
ATOM     31  H12 UNL     1      28.673  28.677  39.097  1.00  0.00     0.274 HD
ATOM     32  H11 UNL     1      27.315  27.709  39.249  1.00  0.00     0.274 HD
ENDBRANCH  28  29
ENDBRANCH   4  28
TORSDOF 7
ENDMDL
MODEL 3
REMARK VINA RESULT: -5.159228827      2.806      4.959
REMARK  7 active torsions:
REMARK  status: ('A' for Active; 'I' for Inactive)
REMARK    1  A    between atoms: O1_2  and  C2_3 
REMARK    2  A    between atoms: C5_6  and  C6_7 
REMARK    3  A    between atoms: C6_7  and  N1_8 
REMARK    4  A    between atoms: C9_22  and  O3_23 
REMARK    5  A    between atoms: C9_22  and  C11_25 
REMARK       I    between atoms: C11_25  and  N6_27 
REMARK    6  A    between atoms: N6_27  and  N7_29 
REMARK    7  A    between atoms: N7_29  and  N8_30 
ROOT
HETATM    1  C2  UNL     1      30.131  31.657  39.342  1.00  0.00     0.185 C 
HETATM    2  C3  UNL     1      30.556  30.240  39.664  1.00  0.00     0.070 C 
HETATM    3  C4  UNL     1      30.178  29.200  38.675  1.00  0.00     0.060 C 
HETATM    4  C5  UNL     1      28.705  29.196  38.335  1.00  0.00     0.132 C 
HETATM    5  N2  UNL     1      28.663  29.944  37.048  1.00  0.00    -0.337 N 
ATOM      6  H2  UNL     1      28.208  29.514  36.242  1.00  0.00     0.164 HD
HETATM    7  C7  UNL     1      29.190  31.134  36.916  1.00  0.00     0.188 C 
HETATM    8  N3  UNL     1      29.086  31.733  35.631  1.00  0.00    -0.064 NA
HETATM    9  N4  UNL     1      29.839  31.875  37.946  1.00  0.00    -0.330 N 
ATOM     10  H4  UNL     1      30.180  32.779  37.616  1.00  0.00     0.165 HD
HETATM   11  N5  UNL     1      27.862  29.793  39.330  1.00  0.00    -0.330 N 
ATOM     12  H5  UNL     1      26.902  29.451  39.301  1.00  0.00     0.165 HD
HETATM   13  C8  UNL     1      28.080  30.754  40.342  1.00  0.00     0.269 C 
HETATM   14  O2  UNL     1      27.496  30.644  41.418  1.00  0.00    -0.269 OA
HETATM   15  C9  UNL     1      28.982  31.970  40.282  1.00  0.00     0.273 C 
ENDROOT
BRANCH  15  16
HETATM   16  O3  UNL     1      29.340  32.393  41.527  1.00  0.00    -0.363 OA
HETATM   17  C10 UNL     1      28.987  33.544  42.065  1.00  0.00     0.204 C 
ENDBRANCH  15  16
BRANCH  15  18
HETATM   18  C11 UNL     1      28.172  33.077  39.747  1.00  0.00     0.284 C 
HETATM   19  O4  UNL     1      28.654  34.073  39.224  1.00  0.00    -0.268 OA
HETATM   20  N6  UNL     1      26.755  32.989  39.833  1.00  0.00    -0.251 N 
ATOM     21  H6  UNL     1      26.341  32.163  40.264  1.00  0.00     0.187 HD
BRANCH  20  22
HETATM   22  N7  UNL     1      25.906  33.992  39.348  1.00  0.00    -0.027 NA
BRANCH  22  23
HETATM   23  N8  UNL     1      26.098  34.071  37.965  1.00  0.00    -0.329 N 
ATOM     24  H82 UNL     1      26.998  34.170  37.497  1.00  0.00     0.174 HD
ATOM     25  H81 UNL     1      25.180  34.011  37.526  1.00  0.00     0.174 HD
ENDBRANCH  22  23
ENDBRANCH  20  22
ENDBRANCH  15  18
BRANCH   1  26
HETATM   26  O1  UNL     1      31.123  32.604  39.681  1.00  0.00    -0.361 OA
HETATM   27  C1  UNL     1      31.996  32.920  38.695  1.00  0.00     0.205 C 
ENDBRANCH   1  26
BRANCH   4  28
HETATM   28  C6  UNL     1      28.227  27.798  38.025  1.00  0.00     0.283 C 
BRANCH  28  29
HETATM   29  N1  UNL     1      28.623  27.310  36.747  1.00  0.00    -0.075 N 
ATOM     30  H13 UNL     1      28.475  28.023  36.032  1.00  0.00     0.274 HD
ATOM     31  H12 UNL     1      29.638  27.222  36.699  1.00  0.00     0.274 HD
ATOM     32  H11 UNL     1      28.178  26.434  36.473  1.00  0.00     0.274 HD
ENDBRANCH  28  29
ENDBRANCH   4  28
TORSDOF 7
ENDMDL
MODEL 4
REMARK VINA RESULT: -5.087188704      1.808      2.057
REMARK  7 active torsions:
REMARK  status: ('A' for Active; 'I' for Inactive)
REMARK    1  A    between atoms: O1_2  and  C2_3 
REMARK    2  A    between atoms: C5_6  and  C6_7 
REMARK    3  A    between atoms: C6_7  and  N1_8 
REMARK    4  A    between atoms: C9_22  and  O3_23 
REMARK    5  A    between atoms: C9_22  and  C11_25 
REMARK       I    between atoms: C11_25  and  N6_27 
REMARK    6  A    between atoms: N6_27  and  N7_29 
REMARK    7  A    between atoms: N7_29  and  N8_30 
ROOT
HETATM    1  C2  UNL     1      28.660  32.154  40.149  1.00  0.00     0.185 C 
HETATM    2  C3  UNL     1      29.554  31.256  40.977  1.00  0.00     0.070 C 
HETATM    3  C4  UNL     1      30.288  31.906  42.091  1.00  0.00     0.060 C 
HETATM    4  C5  UNL     1      31.084  33.119  41.665  1.00  0.00     0.132 C 
HETATM    5  N2  UNL     1      30.193  34.248  42.051  1.00  0.00    -0.337 N 
ATOM      6  H2  UNL     1      30.567  34.991  42.642  1.00  0.00     0.164 HD
HETATM    7  C7  UNL     1      28.947  34.320  41.656  1.00  0.00     0.188 C 
HETATM    8  N3  UNL     1      28.206  35.448  42.102  1.00  0.00    -0.064 NA
HETATM    9  N4  UNL     1      28.287  33.379  40.815  1.00  0.00    -0.330 N 
ATOM     10  H4  UNL     1      27.314  33.632  40.641  1.00  0.00     0.165 HD
HETATM   11  N5  UNL     1      31.419  33.151  40.271  1.00  0.00    -0.330 N 
ATOM     12  H5  UNL     1      32.246  33.714  40.070  1.00  0.00     0.165 HD
HETATM   13  C8  UNL     1      30.847  32.569  39.118  1.00  0.00     0.269 C 
HETATM   14  O2  UNL     1      31.579  32.178  38.211  1.00  0.00    -0.269 OA
HETATM   15  C9  UNL     1      29.377  32.349  38.827  1.00  0.00     0.273 C 
ENDROOT
BRANCH  15  16
HETATM   16  O3  UNL     1      29.189  31.364  37.905  1.00  0.00    -0.363 OA
HETATM   17  C10 UNL     1      29.293  31.520  36.599  1.00  0.00     0.204 C 
ENDBRANCH  15  16
BRANCH  15  18
HETATM   18  C11 UNL     1      28.887  33.565  38.156  1.00  0.00     0.284 C 
HETATM   19  O4  UNL     1      29.569  34.569  37.998  1.00  0.00    -0.268 OA
HETATM   20  N6  UNL     1      27.555  33.579  37.658  1.00  0.00    -0.251 N 
ATOM     21  H6  UNL     1      26.977  32.749  37.781  1.00  0.00     0.187 HD
BRANCH  20  22
HETATM   22  N7  UNL     1      27.006  34.690  37.004  1.00  0.00    -0.027 NA
BRANCH  22  23
HETATM   23  N8  UNL     1      27.688  34.843  35.793  1.00  0.00    -0.329 N 
ATOM     24  H82 UNL     1      27.324  34.595  34.873  1.00  0.00     0.174 HD
ATOM     25  H81 UNL     1      28.602  35.242  36.006  1.00  0.00     0.174 HD
ENDBRANCH  22  23
ENDBRANCH  20  22
ENDBRANCH  15  18
BRANCH   1  26
HETATM   26  O1  UNL     1      27.447  31.522  39.795  1.00  0.00    -0.361 OA
HETATM   27  C1  UNL     1      27.192  30.348  40.417  1.00  0.00     0.205 C 
ENDBRANCH   1  26
BRANCH   4  28
HETATM   28  C6  UNL     1      32.334  33.264  42.500  1.00  0.00     0.283 C 
BRANCH  28  29
HETATM   29  N1  UNL     1      32.238  34.234  43.539  1.00  0.00    -0.075 N 
ATOM     30  H13 UNL     1      31.985  35.144  43.154  1.00  0.00     0.274 HD
ATOM     31  H12 UNL     1      31.417  34.055  44.118  1.00  0.00     0.274 HD
ATOM     32  H11 UNL     1      33.072  34.312  44.121  1.00  0.00     0.274 HD
ENDBRANCH  28  29
ENDBRANCH   4  28
TORSDOF 7
ENDMDL
MODEL 5
REMARK VINA RESULT: -5.061991849      2.337      4.971
REMARK  7 active torsions:
REMARK  status: ('A' for Active; 'I' for Inactive)
REMARK    1  A    between atoms: O1_2  and  C2_3 
REMARK    2  A    between atoms: C5_6  and  C6_7 
REMARK    3  A    between atoms: C6_7  and  N1_8 
REMARK    4  A    between atoms: C9_22  and  O3_23 
REMARK    5  A    between atoms: C9_22  and  C11_25 
REMARK       I    between atoms: C11_25  and  N6_27 
REMARK    6  A    between atoms: N6_27  and  N7_29 
REMARK    7  A    between atoms: N7_29  and  N8_30 
ROOT
HETATM    1  C2  UNL     1      30.023  33.172  40.584  1.00  0.00     0.185 C 
HETATM    2  C3  UNL     1      30.217  31.716  40.216  1.00  0.00     0.070 C 
HETATM    3  C4  UNL     1      29.036  31.019  39.649  1.00  0.00     0.060 C 
HETATM    4  C5  UNL     1      27.795  31.138  40.503  1.00  0.00     0.132 C 
HETATM    5  N2  UNL     1      27.039  32.232  39.831  1.00  0.00    -0.337 N 
ATOM      6  H2  UNL     1      26.071  32.066  39.555  1.00  0.00     0.164 HD
HETATM    7  C7  UNL     1      27.575  33.400  39.584  1.00  0.00     0.188 C 
HETATM    8  N3  UNL     1      26.744  34.352  38.931  1.00  0.00    -0.064 NA
HETATM    9  N4  UNL     1      28.901  33.795  39.924  1.00  0.00    -0.330 N 
ATOM     10  H4  UNL     1      29.108  34.750  39.630  1.00  0.00     0.165 HD
HETATM   11  N5  UNL     1      28.048  31.430  41.883  1.00  0.00    -0.330 N 
ATOM     12  H5  UNL     1      27.296  31.127  42.502  1.00  0.00     0.165 HD
HETATM   13  C8  UNL     1      29.118  32.048  42.568  1.00  0.00     0.269 C 
HETATM   14  O2  UNL     1      29.444  31.636  43.680  1.00  0.00    -0.269 OA
HETATM   15  C9  UNL     1      29.965  33.213  42.099  1.00  0.00     0.273 C 
ENDROOT
BRANCH  15  16
HETATM   16  O3  UNL     1      31.170  33.246  42.733  1.00  0.00    -0.363 OA
HETATM   17  C10 UNL     1      32.264  32.641  42.311  1.00  0.00     0.204 C 
ENDBRANCH  15  16
BRANCH  15  18
HETATM   18  C11 UNL     1      29.290  34.442  42.550  1.00  0.00     0.284 C 
HETATM   19  O4  UNL     1      28.094  34.499  42.806  1.00  0.00    -0.268 OA
HETATM   20  N6  UNL     1      30.062  35.626  42.705  1.00  0.00    -0.251 N 
ATOM     21  H6  UNL     1      31.059  35.591  42.497  1.00  0.00     0.187 HD
BRANCH  20  22
HETATM   22  N7  UNL     1      29.505  36.839  43.131  1.00  0.00    -0.027 NA
BRANCH  22  23
HETATM   23  N8  UNL     1      30.559  37.666  43.531  1.00  0.00    -0.329 N 
ATOM     24  H82 UNL     1      30.690  38.048  44.467  1.00  0.00     0.174 HD
ATOM     25  H81 UNL     1      31.159  37.809  42.718  1.00  0.00     0.174 HD
ENDBRANCH  22  23
ENDBRANCH  20  22
ENDBRANCH  15  18
BRANCH   1  26
HETATM   26  O1  UNL     1      31.149  33.961  40.258  1.00  0.00    -0.361 OA
HETATM   27  C1  UNL     1      31.174  34.459  39.000  1.00  0.00     0.205 C 
ENDBRANCH   1  26
BRANCH   4  28
HETATM   28  C6  UNL     1      26.938  29.901  40.385  1.00  0.00     0.283 C 
BRANCH  28  29
HETATM   29  N1  UNL     1      27.428  28.931  39.464  1.00  0.00    -0.075 N 
ATOM     30  H13 UNL     1      27.057  29.107  38.530  1.00  0.00     0.274 HD
ATOM     31  H12 UNL     1      28.421  29.078  39.288  1.00  0.00     0.274 HD
ATOM     32  H11 UNL     1      27.256  27.964  39.739  1.00  0.00     0.274 HD
ENDBRANCH  28  29
ENDBRANCH   4  28
TORSDOF 7
ENDMDL
