MODEL 1
REMARK VINA RESULT: -5.264893805      0.000      0.000
REMARK  8 active torsions:
REMARK  status: ('A' for Active; 'I' for Inactive)
REMARK    1  A    between atoms: C4_6  and  N2_7 
REMARK    2  A    between atoms: N2_7  and  C5_9 
REMARK    3  A    between atoms: C5_9  and  C6_10 
REMARK    4  A    between atoms: C5_9  and  C10_21 
REMARK    5  A    between atoms: C8_14  and  N4_15 
REMARK    6  A    between atoms: C10_21  and  O1_22 
REMARK    7  A    between atoms: C10_21  and  C11_24 
REMARK    8  A    between atoms: C12_27  and  N7_28 
ROOT
HETATM    1  C5  UNL     1      29.773  29.962  38.859  1.00  0.00     0.156 C 
ENDROOT
BRANCH   1   2
HETATM    2  N2  UNL     1      28.768  30.356  37.908  1.00  0.00    -0.364 N 
ATOM      3  H2  UNL     1      27.793  30.158  38.131  1.00  0.00     0.161 HD
BRANCH   2   4
HETATM    4  C4  UNL     1      29.054  31.009  36.667  1.00  0.00     0.135 C 
HETATM    5  N1  UNL     1      29.306  30.349  35.591  1.00  0.00    -0.349 N 
HETATM    6  C2  UNL     1      29.581  31.136  34.397  1.00  0.00     0.117 C 
ATOM      7  H1  UNL     1      29.313  29.330  35.576  1.00  0.00     0.163 HD
HETATM    8  C1  UNL     1      29.161  30.267  33.211  1.00  0.00     0.064 C 
HETATM    9  C3  UNL     1      31.062  31.383  34.278  1.00  0.00     0.064 C 
HETATM   10  N8  UNL     1      28.808  32.333  34.343  1.00  0.00    -0.271 N 
HETATM   11  O3  UNL     1      28.736  33.056  35.443  1.00  0.00    -0.241 OA
ATOM     12  H8  UNL     1      28.331  32.618  33.488  1.00  0.00     0.190 HD
HETATM   13  C12 UNL     1      29.065  32.472  36.628  1.00  0.00     0.413 C 
BRANCH  13  14
HETATM   14  N7  UNL     1      28.273  32.962  37.746  1.00  0.00    -0.043 N 
ATOM     15  H73 UNL     1      27.283  32.734  37.656  1.00  0.00     0.278 HD
ATOM     16  H72 UNL     1      28.454  32.451  38.610  1.00  0.00     0.278 HD
ATOM     17  H71 UNL     1      28.440  33.964  37.838  1.00  0.00     0.278 HD
ENDBRANCH  13  14
ENDBRANCH   2   4
ENDBRANCH   1   2
BRANCH   1  18
HETATM   18  C6  UNL     1      29.488  30.672  40.137  1.00  0.00    -0.001 A 
HETATM   19  C7  UNL     1      28.203  30.723  40.627  1.00  0.00     0.116 A 
HETATM   20  N3  UNL     1      27.951  31.370  41.790  1.00  0.00    -0.202 N 
HETATM   21  C8  UNL     1      28.908  31.972  42.495  1.00  0.00     0.675 A 
ATOM     22  H3  UNL     1      26.993  31.398  42.139  1.00  0.00     0.183 HD
HETATM   23  N5  UNL     1      30.166  31.927  42.024  1.00  0.00    -0.202 N 
HETATM   24  C9  UNL     1      30.478  31.295  40.866  1.00  0.00     0.116 A 
ATOM     25  H5  UNL     1      30.908  32.382  42.554  1.00  0.00     0.183 HD
BRANCH  21  26
HETATM   26  N4  UNL     1      28.608  32.567  43.586  1.00  0.00    -0.234 N 
ATOM     27  H42 UNL     1      27.662  32.888  43.789  1.00  0.00     0.174 HD
ATOM     28  H41 UNL     1      29.333  32.734  44.284  1.00  0.00     0.174 HD
ENDBRANCH  21  26
ENDBRANCH   1  18
BRANCH   1  29
HETATM   29  C10 UNL     1      29.686  28.487  39.088  1.00  0.00     0.234 C 
BRANCH  29  30
HETATM   30  O1  UNL     1      30.905  27.883  38.718  1.00  0.00    -0.384 OA
ATOM     31  H1  UNL     1      30.729  27.123  38.176  1.00  0.00     0.210 HD
ENDBRANCH  29  30
BRANCH  29  32
HETATM   32  C11 UNL     1      28.572  27.933  38.304  1.00  0.00     0.262 C 
HETATM   33  N6  UNL     1      28.781  27.530  36.972  1.00  0.00    -0.060 NA
HETATM   34  O2  UNL     1      27.443  27.822  38.828  1.00  0.00    -0.274 OA
ENDBRANCH  29  32
ENDBRANCH   1  29
TORSDOF 8
ENDMDL
MODEL 2
REMARK VINA RESULT: -5.183445340      2.701      6.206
REMARK  8 active torsions:
REMARK  status: ('A' for Active; 'I' for Inactive)
REMARK    1  A    between atoms: C4_6  and  N2_7 
REMARK    2  A    between atoms: N2_7  and  C5_9 
REMARK    3  A    between atoms: C5_9  and  C6_10 
REMARK    4  A    between atoms: C5_9  and  C10_21 
REMARK    5  A    between atoms: C8_14  and  N4_15 
REMARK    6  A    between atoms: C10_21  and  O1_22 
REMARK    7  A    between atoms: C10_21  and  C11_24 
REMARK    8  A    between atoms: C12_27  and  N7_28 
ROOT
HETATM    1  C5  UNL     1      29.541  31.764  38.746  1.00  0.00     0.156 C 
ENDROOT
BRANCH   1   2
HETATM    2  N2  UNL     1      28.553  32.179  39.706  1.00  0.00    -0.364 N 
ATOM      3  H2  UNL     1      27.571  32.138  39.432  1.00  0.00     0.161 HD
BRANCH   2   4
HETATM    4  C4  UNL     1      28.863  32.646  41.023  1.00  0.00     0.135 C 
HETATM    5  N1  UNL     1      29.347  33.819  41.234  1.00  0.00    -0.349 N 
HETATM    6  C2  UNL     1      29.618  34.169  42.621  1.00  0.00     0.117 C 
ATOM      7  H1  UNL     1      29.529  34.470  40.470  1.00  0.00     0.163 HD
HETATM    8  C1  UNL     1      29.492  35.691  42.708  1.00  0.00     0.064 C 
HETATM    9  C3  UNL     1      31.039  33.811  42.969  1.00  0.00     0.064 C 
HETATM   10  N8  UNL     1      28.664  33.611  43.521  1.00  0.00    -0.271 N 
HETATM   11  O3  UNL     1      28.344  32.343  43.353  1.00  0.00    -0.241 OA
ATOM     12  H8  UNL     1      28.247  34.169  44.266  1.00  0.00     0.190 HD
HETATM   13  C12 UNL     1      28.629  31.754  42.159  1.00  0.00     0.413 C 
BRANCH  13  14
HETATM   14  N7  UNL     1      27.642  30.761  41.761  1.00  0.00    -0.043 N 
ATOM     15  H73 UNL     1      26.727  31.170  41.572  1.00  0.00     0.278 HD
ATOM     16  H72 UNL     1      27.818  30.382  40.831  1.00  0.00     0.278 HD
ATOM     17  H71 UNL     1      27.610  30.039  42.481  1.00  0.00     0.278 HD
ENDBRANCH  13  14
ENDBRANCH   2   4
ENDBRANCH   1   2
BRANCH   1  18
HETATM   18  C6  UNL     1      29.668  30.282  38.841  1.00  0.00    -0.001 A 
HETATM   19  C7  UNL     1      30.883  29.711  39.140  1.00  0.00     0.116 A 
HETATM   20  N3  UNL     1      30.991  28.363  39.225  1.00  0.00    -0.202 N 
HETATM   21  C8  UNL     1      29.954  27.550  39.029  1.00  0.00     0.675 A 
ATOM     22  H3  UNL     1      31.899  27.956  39.448  1.00  0.00     0.183 HD
HETATM   23  N5  UNL     1      28.763  28.100  38.737  1.00  0.00    -0.202 N 
HETATM   24  C9  UNL     1      28.595  29.441  38.638  1.00  0.00     0.116 A 
ATOM     25  H5  UNL     1      27.961  27.488  38.585  1.00  0.00     0.183 HD
BRANCH  21  26
HETATM   26  N4  UNL     1      30.118  26.285  39.123  1.00  0.00    -0.234 N 
ATOM     27  H42 UNL     1      30.209  25.686  38.302  1.00  0.00     0.174 HD
ATOM     28  H41 UNL     1      30.159  25.850  40.044  1.00  0.00     0.174 HD
ENDBRANCH  21  26
ENDBRANCH   1  18
BRANCH   1  29
HETATM   29  C10 UNL     1      29.079  32.129  37.371  1.00  0.00     0.234 C 
BRANCH  29  30
HETATM   30  O1  UNL     1      30.130  31.924  36.455  1.00  0.00    -0.384 OA
ATOM     31  H1  UNL     1      29.796  31.472  35.688  1.00  0.00     0.210 HD
ENDBRANCH  29  30
BRANCH  29  32
HETATM   32  C11 UNL     1      28.644  33.534  37.357  1.00  0.00     0.262 C 
HETATM   33  N6  UNL     1      29.588  34.565  37.514  1.00  0.00    -0.060 NA
HETATM   34  O2  UNL     1      27.433  33.803  37.204  1.00  0.00    -0.274 OA
ENDBRANCH  29  32
ENDBRANCH   1  29
TORSDOF 8
ENDMDL
MODEL 3
REMARK VINA RESULT: -5.173012930      2.549      6.735
REMARK  8 active torsions:
REMARK  status: ('A' for Active; 'I' for Inactive)
REMARK    1  A    between atoms: C4_6  and  N2_7 
REMARK    2  A    between atoms: N2_7  and  C5_9 
REMARK    3  A    between atoms: C5_9  and  C6_10 
REMARK    4  A    between atoms: C5_9  and  C10_21 
REMARK    5  A    between atoms: C8_14  and  N4_15 
REMARK    6  A    between atoms: C10_21  and  O1_22 
REMARK    7  A    between atoms: C10_21  and  C11_24 
REMARK    8  A    between atoms: C12_27  and  N7_28 
ROOT
HETATM    1  C5  UNL     1      28.352  33.020  38.290  1.00  0.00     0.156 C 
ENDROOT
BRANCH   1   2
HETATM    2  N2  UNL     1      27.762  32.533  39.509  1.00  0.00    -0.364 N 
ATOM      3  H2  UNL     1      26.867  32.048  39.448  1.00  0.00     0.161 HD
BRANCH   2   4
HETATM    4  C4  UNL     1      28.354  32.688  40.802  1.00  0.00     0.135 C 
HETATM    5  N1  UNL     1      28.823  33.816  41.207  1.00  0.00    -0.349 N 
HETATM    6  C2  UNL     1      29.399  33.837  42.544  1.00  0.00     0.117 C 
ATOM      7  H1  UNL     1      28.792  34.652  40.623  1.00  0.00     0.163 HD
HETATM    8  C1  UNL     1      29.232  35.268  43.057  1.00  0.00     0.064 C 
HETATM    9  C3  UNL     1      30.876  33.551  42.469  1.00  0.00     0.064 C 
HETATM   10  N8  UNL     1      28.709  32.978  43.449  1.00  0.00    -0.271 N 
HETATM   11  O3  UNL     1      28.413  31.765  43.024  1.00  0.00    -0.241 OA
ATOM     12  H8  UNL     1      28.456  33.288  44.387  1.00  0.00     0.190 HD
HETATM   13  C12 UNL     1      28.434  31.523  41.684  1.00  0.00     0.413 C 
BRANCH  13  14
HETATM   14  N7  UNL     1      27.424  30.565  41.261  1.00  0.00    -0.043 N 
ATOM     15  H73 UNL     1      26.758  30.342  42.001  1.00  0.00     0.278 HD
ATOM     16  H72 UNL     1      26.762  30.959  40.594  1.00  0.00     0.278 HD
ATOM     17  H71 UNL     1      27.902  29.739  40.900  1.00  0.00     0.278 HD
ENDBRANCH  13  14
ENDBRANCH   2   4
ENDBRANCH   1   2
BRANCH   1  18
HETATM   18  C6  UNL     1      28.717  31.837  37.462  1.00  0.00    -0.001 A 
HETATM   19  C7  UNL     1      29.109  32.004  36.154  1.00  0.00     0.116 A 
HETATM   20  N3  UNL     1      29.440  30.923  35.407  1.00  0.00    -0.202 N 
HETATM   21  C8  UNL     1      29.402  29.682  35.889  1.00  0.00     0.675 A 
ATOM     22  H3  UNL     1      29.729  31.065  34.439  1.00  0.00     0.183 HD
HETATM   23  N5  UNL     1      29.020  29.510  37.166  1.00  0.00    -0.202 N 
HETATM   24  C9  UNL     1      28.678  30.553  37.961  1.00  0.00     0.116 A 
ATOM     25  H5  UNL     1      28.988  28.565  37.549  1.00  0.00     0.183 HD
BRANCH  21  26
HETATM   26  N4  UNL     1      29.725  28.702  35.135  1.00  0.00    -0.234 N 
ATOM     27  H42 UNL     1      30.194  27.870  35.495  1.00  0.00     0.174 HD
ATOM     28  H41 UNL     1      29.513  28.742  34.138  1.00  0.00     0.174 HD
ENDBRANCH  21  26
ENDBRANCH   1  18
BRANCH   1  29
HETATM   29  C10 UNL     1      27.349  33.846  37.551  1.00  0.00     0.234 C 
BRANCH  29  30
HETATM   30  O1  UNL     1      27.970  35.019  37.073  1.00  0.00    -0.384 OA
ATOM     31  H1  UNL     1      28.080  34.957  36.132  1.00  0.00     0.210 HD
ENDBRANCH  29  30
BRANCH  29  32
HETATM   32  C11 UNL     1      26.230  34.178  38.445  1.00  0.00     0.262 C 
HETATM   33  N6  UNL     1      24.968  33.590  38.241  1.00  0.00    -0.060 NA
HETATM   34  O2  UNL     1      26.408  34.982  39.385  1.00  0.00    -0.274 OA
ENDBRANCH  29  32
ENDBRANCH   1  29
TORSDOF 8
ENDMDL
MODEL 4
REMARK VINA RESULT: -5.099163180      2.685      6.219
REMARK  8 active torsions:
REMARK  status: ('A' for Active; 'I' for Inactive)
REMARK    1  A    between atoms: C4_6  and  N2_7 
REMARK    2  A    between atoms: N2_7  and  C5_9 
REMARK    3  A    between atoms: C5_9  and  C6_10 
REMARK    4  A    between atoms: C5_9  and  C10_21 
REMARK    5  A    between atoms: C8_14  and  N4_15 
REMARK    6  A    between atoms: C10_21  and  O1_22 
REMARK    7  A    between atoms: C10_21  and  C11_24 
REMARK    8  A    between atoms: C12_27  and  N7_28 
ROOT
HETATM    1  C5  UNL     1      29.517  31.948  38.706  1.00  0.00     0.156 C 
ENDROOT
BRANCH   1   2
HETATM    2  N2  UNL     1      28.533  32.305  39.693  1.00  0.00    -0.364 N 
ATOM      3  H2  UNL     1      27.549  32.260  39.427  1.00  0.00     0.161 HD
BRANCH   2   4
HETATM    4  C4  UNL     1      28.850  32.721  41.025  1.00  0.00     0.135 C 
HETATM    5  N1  UNL     1      29.319  33.892  41.281  1.00  0.00    -0.349 N 
HETATM    6  C2  UNL     1      29.599  34.186  42.679  1.00  0.00     0.117 C 
ATOM      7  H1  UNL     1      29.484  34.577  40.544  1.00  0.00     0.163 HD
HETATM    8  C1  UNL     1      29.452  35.701  42.832  1.00  0.00     0.064 C 
HETATM    9  C3  UNL     1      31.028  33.834  42.999  1.00  0.00     0.064 C 
HETATM   10  N8  UNL     1      28.662  33.577  43.564  1.00  0.00    -0.271 N 
HETATM   11  O3  UNL     1      28.358  32.313  43.345  1.00  0.00    -0.241 OA
ATOM     12  H8  UNL     1      28.244  34.097  44.335  1.00  0.00     0.190 HD
HETATM   13  C12 UNL     1      28.640  31.778  42.125  1.00  0.00     0.413 C 
BRANCH  13  14
HETATM   14  N7  UNL     1      27.663  30.790  41.694  1.00  0.00    -0.043 N 
ATOM     15  H73 UNL     1      28.070  29.863  41.569  1.00  0.00     0.278 HD
ATOM     16  H72 UNL     1      26.997  30.549  42.428  1.00  0.00     0.278 HD
ATOM     17  H71 UNL     1      27.210  31.138  40.850  1.00  0.00     0.278 HD
ENDBRANCH  13  14
ENDBRANCH   2   4
ENDBRANCH   1   2
BRANCH   1  18
HETATM   18  C6  UNL     1      29.667  30.466  38.734  1.00  0.00    -0.001 A 
HETATM   19  C7  UNL     1      28.601  29.659  38.411  1.00  0.00     0.116 A 
HETATM   20  N3  UNL     1      28.744  28.311  38.437  1.00  0.00    -0.202 N 
HETATM   21  C8  UNL     1      29.891  27.722  38.768  1.00  0.00     0.675 A 
ATOM     22  H3  UNL     1      27.944  27.728  38.195  1.00  0.00     0.183 HD
HETATM   23  N5  UNL     1      30.938  28.503  39.084  1.00  0.00    -0.202 N 
HETATM   24  C9  UNL     1      30.854  29.856  39.076  1.00  0.00     0.116 A 
ATOM     25  H5  UNL     1      31.823  28.065  39.339  1.00  0.00     0.183 HD
BRANCH  21  26
HETATM   26  N4  UNL     1      29.966  26.446  38.776  1.00  0.00    -0.234 N 
ATOM     27  H42 UNL     1      30.855  25.951  38.700  1.00  0.00     0.174 HD
ATOM     28  H41 UNL     1      29.113  25.892  38.859  1.00  0.00     0.174 HD
ENDBRANCH  21  26
ENDBRANCH   1  18
BRANCH   1  29
HETATM   29  C10 UNL     1      29.036  32.367  37.353  1.00  0.00     0.234 C 
BRANCH  29  30
HETATM   30  O1  UNL     1      30.061  32.158  36.407  1.00  0.00    -0.384 OA
ATOM     31  H1  UNL     1      30.692  31.540  36.757  1.00  0.00     0.210 HD
ENDBRANCH  29  30
BRANCH  29  32
HETATM   32  C11 UNL     1      28.643  33.784  37.389  1.00  0.00     0.262 C 
HETATM   33  N6  UNL     1      27.283  34.138  37.325  1.00  0.00    -0.060 NA
HETATM   34  O2  UNL     1      29.522  34.667  37.478  1.00  0.00    -0.274 OA
ENDBRANCH  29  32
ENDBRANCH   1  29
TORSDOF 8
ENDMDL
MODEL 5
REMARK VINA RESULT: -4.998962924      2.584      5.129
REMARK  8 active torsions:
REMARK  status: ('A' for Active; 'I' for Inactive)
REMARK    1  A    between atoms: C4_6  and  N2_7 
REMARK    2  A    between atoms: N2_7  and  C5_9 
REMARK    3  A    between atoms: C5_9  and  C6_10 
REMARK    4  A    between atoms: C5_9  and  C10_21 
REMARK    5  A    between atoms: C8_14  and  N4_15 
REMARK    6  A    between atoms: C10_21  and  O1_22 
REMARK    7  A    between atoms: C10_21  and  C11_24 
REMARK    8  A    between atoms: C12_27  and  N7_28 
ROOT
HETATM    1  C5  UNL     1      29.447  32.415  40.179  1.00  0.00     0.156 C 
ENDROOT
BRANCH   1   2
HETATM    2  N2  UNL     1      29.075  31.062  40.497  1.00  0.00    -0.364 N 
ATOM      3  H2  UNL     1      28.946  30.819  41.479  1.00  0.00     0.161 HD
BRANCH   2   4
HETATM    4  C4  UNL     1      28.875  30.035  39.520  1.00  0.00     0.135 C 
HETATM    5  N1  UNL     1      29.814  29.660  38.724  1.00  0.00    -0.349 N 
HETATM    6  C2  UNL     1      29.477  28.606  37.776  1.00  0.00     0.117 C 
ATOM      7  H1  UNL     1      30.743  30.077  38.754  1.00  0.00     0.163 HD
HETATM    8  C1  UNL     1      30.785  27.874  37.474  1.00  0.00     0.064 C 
HETATM    9  C3  UNL     1      28.988  29.215  36.488  1.00  0.00     0.064 C 
HETATM   10  N8  UNL     1      28.571  27.651  38.322  1.00  0.00    -0.271 N 
HETATM   11  O3  UNL     1      27.529  28.115  38.983  1.00  0.00    -0.241 OA
ATOM     12  H8  UNL     1      28.722  26.649  38.206  1.00  0.00     0.190 HD
HETATM   13  C12 UNL     1      27.559  29.403  39.423  1.00  0.00     0.413 C 
BRANCH  13  14
HETATM   14  N7  UNL     1      26.872  29.590  40.692  1.00  0.00    -0.043 N 
ATOM     15  H73 UNL     1      26.886  28.753  41.274  1.00  0.00     0.278 HD
ATOM     16  H72 UNL     1      27.377  30.207  41.327  1.00  0.00     0.278 HD
ATOM     17  H71 UNL     1      25.926  29.917  40.496  1.00  0.00     0.278 HD
ENDBRANCH  13  14
ENDBRANCH   2   4
ENDBRANCH   1   2
BRANCH   1  18
HETATM   18  C6  UNL     1      28.317  33.027  39.425  1.00  0.00    -0.001 A 
HETATM   19  C7  UNL     1      28.481  33.386  38.107  1.00  0.00     0.116 A 
HETATM   20  N3  UNL     1      27.448  33.942  37.427  1.00  0.00    -0.202 N 
HETATM   21  C8  UNL     1      26.260  34.161  37.987  1.00  0.00     0.675 A 
ATOM     22  H3  UNL     1      27.587  34.202  36.451  1.00  0.00     0.183 HD
HETATM   23  N5  UNL     1      26.091  33.812  39.274  1.00  0.00    -0.202 N 
HETATM   24  C9  UNL     1      27.087  33.253  40.004  1.00  0.00     0.116 A 
ATOM     25  H5  UNL     1      25.186  33.974  39.715  1.00  0.00     0.183 HD
BRANCH  21  26
HETATM   26  N4  UNL     1      25.324  34.689  37.295  1.00  0.00    -0.234 N 
ATOM     27  H42 UNL     1      25.433  34.901  36.303  1.00  0.00     0.174 HD
ATOM     28  H41 UNL     1      24.434  34.912  37.739  1.00  0.00     0.174 HD
ENDBRANCH  21  26
ENDBRANCH   1  18
BRANCH   1  29
HETATM   29  C10 UNL     1      29.663  33.180  41.445  1.00  0.00     0.234 C 
BRANCH  29  30
HETATM   30  O1  UNL     1      30.715  34.100  41.262  1.00  0.00    -0.384 OA
ATOM     31  H1  UNL     1      30.871  34.568  42.074  1.00  0.00     0.210 HD
ENDBRANCH  29  30
BRANCH  29  32
HETATM   32  C11 UNL     1      29.975  32.245  42.536  1.00  0.00     0.262 C 
HETATM   33  N6  UNL     1      29.063  32.067  43.593  1.00  0.00    -0.060 NA
HETATM   34  O2  UNL     1      31.052  31.611  42.518  1.00  0.00    -0.274 OA
ENDBRANCH  29  32
ENDBRANCH   1  29
TORSDOF 8
ENDMDL
