MODEL 1
REMARK VINA RESULT: -6.554711349      0.000      0.000
REMARK  7 active torsions:
REMARK  status: ('A' for Active; 'I' for Inactive)
REMARK    1  A    between atoms: C2_2  and  N1_3 
REMARK    2  A    between atoms: C2_2  and  C9_32 
REMARK    3  A    between atoms: N1_3  and  C3_5 
REMARK    4  A    between atoms: C4_8  and  N3_9 
REMARK    5  A    between atoms: C6_15  and  C7_16 
REMARK    6  A    between atoms: C9_32  and  N12_33 
REMARK    7  A    between atoms: C9_32  and  C10_37 
ROOT
HETATM    1  C3  UNL     1      29.094  27.301  37.682  1.00  0.00     0.681 A 
HETATM    2  N2  UNL     1      30.296  27.859  37.923  1.00  0.00    -0.175 N 
ATOM      3  H2  UNL     1      31.122  27.471  37.468  1.00  0.00     0.186 HD
HETATM    4  C4  UNL     1      30.437  28.909  38.743  1.00  0.00     0.145 A 
HETATM    5  C5  UNL     1      29.331  29.472  39.385  1.00  0.00     0.125 A 
HETATM    6  N4  UNL     1      29.424  30.523  40.216  1.00  0.00    -0.332 N 
ATOM      7  H4  UNL     1      30.336  30.942  40.396  1.00  0.00     0.168 HD
HETATM    8  C6  UNL     1      28.320  31.038  40.819  1.00  0.00     0.168 A 
HETATM    9  N9  UNL     1      27.134  30.461  40.560  1.00  0.00    -0.281 N 
ATOM     10  H9  UNL     1      26.291  30.828  41.001  1.00  0.00     0.188 HD
HETATM   11  N10 UNL     1      27.043  29.429  39.746  1.00  0.00    -0.281 N 
ATOM     12  H10 UNL     1      26.124  29.021  39.575  1.00  0.00     0.188 HD
HETATM   13  C8  UNL     1      28.111  28.892  39.130  1.00  0.00     0.166 A 
HETATM   14  N11 UNL     1      28.023  27.831  38.292  1.00  0.00    -0.173 N 
ATOM     15  H11 UNL     1      27.106  27.419  38.119  1.00  0.00     0.186 HD
ENDROOT
BRANCH   1  16
HETATM   16  N1  UNL     1      29.006  26.299  36.891  1.00  0.00    -0.219 N 
ATOM     17  H1  UNL     1      28.090  25.910  36.668  1.00  0.00     0.178 HD
BRANCH  16  18
HETATM   18  C2  UNL     1      30.179  25.719  36.318  1.00  0.00     0.134 C 
HETATM   19  C1  UNL     1      30.475  26.419  35.012  1.00  0.00     0.035 C 
BRANCH  18  20
HETATM   20  C9  UNL     1      29.975  24.253  35.977  1.00  0.00     0.294 C 
BRANCH  20  21
HETATM   21  N12 UNL     1      28.885  24.077  35.070  1.00  0.00    -0.065 N 
ATOM     22 3H12 UNL     1      28.046  24.557  35.396  1.00  0.00     0.275 HD
ATOM     23 2H12 UNL     1      29.033  24.592  34.202  1.00  0.00     0.275 HD
ATOM     24 1H12 UNL     1      28.705  23.088  34.892  1.00  0.00     0.275 HD
ENDBRANCH  20  21
BRANCH  20  25
HETATM   25  C10 UNL     1      29.828  23.409  37.176  1.00  0.00     0.263 C 
HETATM   26  N13 UNL     1      29.931  21.998  37.089  1.00  0.00    -0.060 NA
HETATM   27  O1  UNL     1      29.610  23.947  38.290  1.00  0.00    -0.274 OA
ENDBRANCH  20  25
ENDBRANCH  18  20
ENDBRANCH  16  18
ENDBRANCH   1  16
BRANCH   4  28
HETATM   28  N3  UNL     1      31.600  29.431  38.962  1.00  0.00    -0.383 N 
ATOM     29  H32 UNL     1      31.644  30.418  39.219  1.00  0.00     0.157 HD
ATOM     30  H31 UNL     1      32.449  28.873  38.879  1.00  0.00     0.157 HD
ENDBRANCH   4  28
BRANCH   8  31
HETATM   31  C7  UNL     1      28.420  32.181  41.720  1.00  0.00     0.183 A 
HETATM   32  N5  UNL     1      28.346  33.458  41.321  1.00  0.00    -0.266 N 
HETATM   33  N6  UNL     1      28.474  34.258  42.386  1.00  0.00    -0.226 N 
ATOM     34  H5  UNL     1      28.214  33.769  40.359  1.00  0.00     0.190 HD
HETATM   35  N7  UNL     1      28.628  33.501  43.451  1.00  0.00    -0.226 N 
ATOM     36  H6  UNL     1      28.456  35.278  42.373  1.00  0.00     0.210 HD
HETATM   37  N8  UNL     1      28.595  32.230  43.048  1.00  0.00    -0.266 N 
ATOM     38  H7  UNL     1      28.749  33.827  44.410  1.00  0.00     0.210 HD
ATOM     39  H8  UNL     1      28.690  31.418  43.658  1.00  0.00     0.190 HD
ENDBRANCH   8  31
TORSDOF 7
ENDMDL
MODEL 2
REMARK VINA RESULT: -6.549318744      0.982      1.009
REMARK  7 active torsions:
REMARK  status: ('A' for Active; 'I' for Inactive)
REMARK    1  A    between atoms: C2_2  and  N1_3 
REMARK    2  A    between atoms: C2_2  and  C9_32 
REMARK    3  A    between atoms: N1_3  and  C3_5 
REMARK    4  A    between atoms: C4_8  and  N3_9 
REMARK    5  A    between atoms: C6_15  and  C7_16 
REMARK    6  A    between atoms: C9_32  and  N12_33 
REMARK    7  A    between atoms: C9_32  and  C10_37 
ROOT
HETATM    1  C3  UNL     1      28.752  27.502  37.841  1.00  0.00     0.681 A 
HETATM    2  N2  UNL     1      30.026  27.914  37.986  1.00  0.00    -0.175 N 
ATOM      3  H2  UNL     1      30.765  27.431  37.476  1.00  0.00     0.186 HD
HETATM    4  C4  UNL     1      30.349  28.944  38.782  1.00  0.00     0.145 A 
HETATM    5  C5  UNL     1      29.367  29.634  39.497  1.00  0.00     0.125 A 
HETATM    6  N4  UNL     1      29.644  30.670  40.305  1.00  0.00    -0.332 N 
ATOM      7  H4  UNL     1      30.610  30.979  40.413  1.00  0.00     0.168 HD
HETATM    8  C6  UNL     1      28.656  31.313  40.982  1.00  0.00     0.168 A 
HETATM    9  N9  UNL     1      27.395  30.879  40.818  1.00  0.00    -0.281 N 
ATOM     10  H9  UNL     1      26.636  31.344  41.316  1.00  0.00     0.188 HD
HETATM   11  N10 UNL     1      27.123  29.862  40.025  1.00  0.00    -0.281 N 
ATOM     12  H10 UNL     1      26.153  29.565  39.928  1.00  0.00     0.188 HD
HETATM   13  C8  UNL     1      28.073  29.201  39.339  1.00  0.00     0.166 A 
HETATM   14  N11 UNL     1      27.799  28.155  38.522  1.00  0.00    -0.173 N 
ATOM     15  H11 UNL     1      26.830  27.853  38.422  1.00  0.00     0.186 HD
ENDROOT
BRANCH   1  16
HETATM   16  N1  UNL     1      28.489  26.514  37.071  1.00  0.00    -0.219 N 
ATOM     17  H1  UNL     1      27.722  25.882  37.303  1.00  0.00     0.178 HD
BRANCH  16  18
HETATM   18  C2  UNL     1      29.259  26.287  35.890  1.00  0.00     0.134 C 
HETATM   19  C1  UNL     1      28.363  26.466  34.687  1.00  0.00     0.035 C 
BRANCH  18  20
HETATM   20  C9  UNL     1      29.781  24.861  35.821  1.00  0.00     0.294 C 
BRANCH  20  21
HETATM   21  N12 UNL     1      28.989  24.059  34.943  1.00  0.00    -0.065 N 
ATOM     22 3H12 UNL     1      28.285  23.527  35.454  1.00  0.00     0.275 HD
ATOM     23 2H12 UNL     1      28.368  24.632  34.371  1.00  0.00     0.275 HD
ATOM     24 1H12 UNL     1      29.573  23.452  34.367  1.00  0.00     0.275 HD
ENDBRANCH  20  21
BRANCH  20  25
HETATM   25  C10 UNL     1      29.913  24.243  37.153  1.00  0.00     0.263 C 
HETATM   26  N13 UNL     1      30.926  24.663  38.051  1.00  0.00    -0.060 NA
HETATM   27  O1  UNL     1      29.117  23.335  37.497  1.00  0.00    -0.274 OA
ENDBRANCH  20  25
ENDBRANCH  18  20
ENDBRANCH  16  18
ENDBRANCH   1  16
BRANCH   4  28
HETATM   28  N3  UNL     1      31.579  29.326  38.908  1.00  0.00    -0.383 N 
ATOM     29  H32 UNL     1      32.023  29.224  39.821  1.00  0.00     0.157 HD
ATOM     30  H31 UNL     1      32.089  29.720  38.118  1.00  0.00     0.157 HD
ENDBRANCH   4  28
BRANCH   8  31
HETATM   31  C7  UNL     1      28.956  32.439  41.860  1.00  0.00     0.183 A 
HETATM   32  N5  UNL     1      29.823  33.415  41.557  1.00  0.00    -0.266 N 
HETATM   33  N6  UNL     1      29.870  34.290  42.568  1.00  0.00    -0.226 N 
ATOM     34  H5  UNL     1      30.361  33.479  40.693  1.00  0.00     0.190 HD
HETATM   35  N7  UNL     1      29.043  33.878  43.505  1.00  0.00    -0.226 N 
ATOM     36  H6  UNL     1      30.447  35.130  42.606  1.00  0.00     0.210 HD
HETATM   37  N8  UNL     1      28.482  32.746  43.075  1.00  0.00    -0.266 N 
ATOM     38  H7  UNL     1      28.863  34.339  44.397  1.00  0.00     0.210 HD
ATOM     39  H8  UNL     1      27.796  32.197  43.594  1.00  0.00     0.190 HD
ENDBRANCH   8  31
TORSDOF 7
ENDMDL
MODEL 3
REMARK VINA RESULT: -6.350431472      2.928      8.308
REMARK  7 active torsions:
REMARK  status: ('A' for Active; 'I' for Inactive)
REMARK    1  A    between atoms: C2_2  and  N1_3 
REMARK    2  A    between atoms: C2_2  and  C9_32 
REMARK    3  A    between atoms: N1_3  and  C3_5 
REMARK    4  A    between atoms: C4_8  and  N3_9 
REMARK    5  A    between atoms: C6_15  and  C7_16 
REMARK    6  A    between atoms: C9_32  and  N12_33 
REMARK    7  A    between atoms: C9_32  and  C10_37 
ROOT
HETATM    1  C3  UNL     1      30.526  31.183  40.441  1.00  0.00     0.681 A 
HETATM    2  N2  UNL     1      29.196  30.974  40.450  1.00  0.00    -0.175 N 
ATOM      3  H2  UNL     1      28.595  31.628  40.950  1.00  0.00     0.186 HD
HETATM    4  C4  UNL     1      28.640  29.929  39.820  1.00  0.00     0.145 A 
HETATM    5  C5  UNL     1      29.428  29.010  39.122  1.00  0.00     0.125 A 
HETATM    6  N4  UNL     1      28.916  27.949  38.477  1.00  0.00    -0.332 N 
ATOM      7  H4  UNL     1      27.908  27.793  38.487  1.00  0.00     0.168 HD
HETATM    8  C6  UNL     1      29.721  27.080  37.810  1.00  0.00     0.168 A 
HETATM    9  N9  UNL     1      31.044  27.314  37.819  1.00  0.00    -0.281 N 
ATOM     10  H9  UNL     1      31.669  26.676  37.327  1.00  0.00     0.188 HD
HETATM   11  N10 UNL     1      31.547  28.355  38.452  1.00  0.00    -0.281 N 
ATOM     12  H10 UNL     1      32.556  28.497  38.433  1.00  0.00     0.188 HD
HETATM   13  C8  UNL     1      30.783  29.237  39.122  1.00  0.00     0.166 A 
HETATM   14  N11 UNL     1      31.295  30.308  39.775  1.00  0.00    -0.173 N 
ATOM     15  H11 UNL     1      32.305  30.455  39.760  1.00  0.00     0.186 HD
ENDROOT
BRANCH   1  16
HETATM   16  N1  UNL     1      31.014  32.194  41.057  1.00  0.00    -0.219 N 
ATOM     17  H1  UNL     1      31.907  32.107  41.542  1.00  0.00     0.178 HD
BRANCH  16  18
HETATM   18  C2  UNL     1      30.320  33.442  41.070  1.00  0.00     0.134 C 
HETATM   19  C1  UNL     1      31.097  34.436  40.239  1.00  0.00     0.035 C 
BRANCH  18  20
HETATM   20  C9  UNL     1      30.241  34.029  42.470  1.00  0.00     0.294 C 
BRANCH  20  21
HETATM   21  N12 UNL     1      31.462  33.834  43.185  1.00  0.00    -0.065 N 
ATOM     22 3H12 UNL     1      31.550  32.875  43.521  1.00  0.00     0.275 HD
ATOM     23 2H12 UNL     1      32.269  33.856  42.560  1.00  0.00     0.275 HD
ATOM     24 1H12 UNL     1      31.559  34.507  43.945  1.00  0.00     0.275 HD
ENDBRANCH  20  21
BRANCH  20  25
HETATM   25  C10 UNL     1      29.079  33.528  43.227  1.00  0.00     0.263 C 
HETATM   26  N13 UNL     1      28.990  32.165  43.604  1.00  0.00    -0.060 NA
HETATM   27  O1  UNL     1      28.157  34.321  43.543  1.00  0.00    -0.274 OA
ENDBRANCH  20  25
ENDBRANCH  18  20
ENDBRANCH  16  18
ENDBRANCH   1  16
BRANCH   4  28
HETATM   28  N3  UNL     1      27.360  29.744  39.840  1.00  0.00    -0.383 N 
ATOM     29  H32 UNL     1      26.848  29.831  38.962  1.00  0.00     0.157 HD
ATOM     30  H31 UNL     1      26.876  29.520  40.709  1.00  0.00     0.157 HD
ENDBRANCH   4  28
BRANCH   8  31
HETATM   31  C7  UNL     1      29.165  25.928  37.109  1.00  0.00     0.183 A 
HETATM   32  N5  UNL     1      28.135  25.997  36.255  1.00  0.00    -0.266 N 
HETATM   33  N6  UNL     1      27.871  24.772  35.785  1.00  0.00    -0.226 N 
ATOM     34  H5  UNL     1      27.632  26.848  36.003  1.00  0.00     0.190 HD
HETATM   35  N7  UNL     1      28.722  23.932  36.333  1.00  0.00    -0.226 N 
ATOM     36  H6  UNL     1      27.137  24.532  35.119  1.00  0.00     0.210 HD
HETATM   37  N8  UNL     1      29.515  24.635  37.143  1.00  0.00    -0.266 N 
ATOM     38  H7  UNL     1      28.768  22.926  36.169  1.00  0.00     0.210 HD
ATOM     39  H8  UNL     1      30.274  24.247  37.705  1.00  0.00     0.190 HD
ENDBRANCH   8  31
TORSDOF 7
ENDMDL
MODEL 4
REMARK VINA RESULT: -6.090585263      0.954      1.329
REMARK  7 active torsions:
REMARK  status: ('A' for Active; 'I' for Inactive)
REMARK    1  A    between atoms: C2_2  and  N1_3 
REMARK    2  A    between atoms: C2_2  and  C9_32 
REMARK    3  A    between atoms: N1_3  and  C3_5 
REMARK    4  A    between atoms: C4_8  and  N3_9 
REMARK    5  A    between atoms: C6_15  and  C7_16 
REMARK    6  A    between atoms: C9_32  and  N12_33 
REMARK    7  A    between atoms: C9_32  and  C10_37 
ROOT
HETATM    1  C3  UNL     1      29.877  27.101  37.658  1.00  0.00     0.681 A 
HETATM    2  N2  UNL     1      31.012  27.731  38.016  1.00  0.00    -0.175 N 
ATOM      3  H2  UNL     1      31.904  27.386  37.662  1.00  0.00     0.186 HD
HETATM    4  C4  UNL     1      31.002  28.801  38.825  1.00  0.00     0.145 A 
HETATM    5  C5  UNL     1      29.802  29.307  39.330  1.00  0.00     0.125 A 
HETATM    6  N4  UNL     1      29.743  30.375  40.143  1.00  0.00    -0.332 N 
ATOM      7  H4  UNL     1      30.605  30.849  40.412  1.00  0.00     0.168 HD
HETATM    8  C6  UNL     1      28.553  30.833  40.611  1.00  0.00     0.168 A 
HETATM    9  N9  UNL     1      27.437  30.184  40.237  1.00  0.00    -0.281 N 
ATOM     10  H9  UNL     1      26.531  30.508  40.576  1.00  0.00     0.188 HD
HETATM   11  N10 UNL     1      27.494  29.136  39.440  1.00  0.00    -0.281 N 
ATOM     12  H10 UNL     1      26.624  28.673  39.180  1.00  0.00     0.188 HD
HETATM   13  C8  UNL     1      28.653  28.653  38.956  1.00  0.00     0.166 A 
HETATM   14  N11 UNL     1      28.717  27.576  38.136  1.00  0.00    -0.173 N 
ATOM     15  H11 UNL     1      27.850  27.108  37.873  1.00  0.00     0.186 HD
ENDROOT
BRANCH   1  16
HETATM   16  N1  UNL     1      29.934  26.083  36.884  1.00  0.00    -0.219 N 
ATOM     17  H1  UNL     1      29.072  25.682  36.513  1.00  0.00     0.178 HD
BRANCH  16  18
HETATM   18  C2  UNL     1      31.191  25.504  36.535  1.00  0.00     0.134 C 
HETATM   19  C1  UNL     1      31.158  25.121  35.074  1.00  0.00     0.035 C 
BRANCH  18  20
HETATM   20  C9  UNL     1      31.454  24.220  37.305  1.00  0.00     0.294 C 
BRANCH  20  21
HETATM   21  N12 UNL     1      32.554  23.497  36.749  1.00  0.00    -0.065 N 
ATOM     22 3H12 UNL     1      33.390  23.586  37.326  1.00  0.00     0.275 HD
ATOM     23 2H12 UNL     1      32.416  22.489  36.827  1.00  0.00     0.275 HD
ATOM     24 1H12 UNL     1      32.733  23.776  35.785  1.00  0.00     0.275 HD
ENDBRANCH  20  21
BRANCH  20  25
HETATM   25  C10 UNL     1      30.251  23.377  37.424  1.00  0.00     0.263 C 
HETATM   26  N13 UNL     1      30.102  22.207  36.637  1.00  0.00    -0.060 NA
HETATM   27  O1  UNL     1      29.346  23.698  38.234  1.00  0.00    -0.274 OA
ENDBRANCH  20  25
ENDBRANCH  18  20
ENDBRANCH  16  18
ENDBRANCH   1  16
BRANCH   4  28
HETATM   28  N3  UNL     1      32.103  29.394  39.157  1.00  0.00    -0.383 N 
ATOM     29  H32 UNL     1      32.696  28.948  39.858  1.00  0.00     0.157 HD
ATOM     30  H31 UNL     1      32.370  30.281  38.732  1.00  0.00     0.157 HD
ENDBRANCH   4  28
BRANCH   8  31
HETATM   31  C7  UNL     1      28.488  31.993  41.493  1.00  0.00     0.183 A 
HETATM   32  N5  UNL     1      28.625  31.929  42.825  1.00  0.00    -0.266 N 
HETATM   33  N6  UNL     1      28.514  33.161  43.337  1.00  0.00    -0.226 N 
ATOM     34  H5  UNL     1      28.787  31.078  43.362  1.00  0.00     0.190 HD
HETATM   35  N7  UNL     1      28.310  34.000  42.344  1.00  0.00    -0.226 N 
ATOM     36  H6  UNL     1      28.577  33.406  44.325  1.00  0.00     0.210 HD
HETATM   37  N8  UNL     1      28.293  33.290  41.215  1.00  0.00    -0.266 N 
ATOM     38  H7  UNL     1      28.186  35.010  42.423  1.00  0.00     0.210 HD
ATOM     39  H8  UNL     1      28.152  33.674  40.281  1.00  0.00     0.190 HD
ENDBRANCH   8  31
TORSDOF 7
ENDMDL
MODEL 5
REMARK VINA RESULT: -6.083490613      1.468      1.815
REMARK  7 active torsions:
REMARK  status: ('A' for Active; 'I' for Inactive)
REMARK    1  A    between atoms: C2_2  and  N1_3 
REMARK    2  A    between atoms: C2_2  and  C9_32 
REMARK    3  A    between atoms: N1_3  and  C3_5 
REMARK    4  A    between atoms: C4_8  and  N3_9 
REMARK    5  A    between atoms: C6_15  and  C7_16 
REMARK    6  A    between atoms: C9_32  and  N12_33 
REMARK    7  A    between atoms: C9_32  and  C10_37 
ROOT
HETATM    1  C3  UNL     1      28.908  28.411  38.485  1.00  0.00     0.681 A 
HETATM    2  N2  UNL     1      30.208  28.670  38.717  1.00  0.00    -0.175 N 
ATOM      3  H2  UNL     1      30.915  28.038  38.342  1.00  0.00     0.186 HD
HETATM    4  C4  UNL     1      30.601  29.737  39.428  1.00  0.00     0.145 A 
HETATM    5  C5  UNL     1      29.665  30.629  39.959  1.00  0.00     0.125 A 
HETATM    6  N4  UNL     1      30.012  31.710  40.677  1.00  0.00    -0.332 N 
ATOM      7  H4  UNL     1      30.998  31.903  40.851  1.00  0.00     0.168 HD
HETATM    8  C6  UNL     1      29.067  32.551  41.175  1.00  0.00     0.168 A 
HETATM    9  N9  UNL     1      27.777  32.267  40.928  1.00  0.00    -0.281 N 
ATOM     10  H9  UNL     1      27.050  32.882  41.291  1.00  0.00     0.188 HD
HETATM   11  N10 UNL     1      27.437  31.206  40.223  1.00  0.00    -0.281 N 
ATOM     12  H10 UNL     1      26.448  31.026  40.058  1.00  0.00     0.188 HD
HETATM   13  C8  UNL     1      28.342  30.350  39.714  1.00  0.00     0.166 A 
HETATM   14  N11 UNL     1      27.998  29.258  38.990  1.00  0.00    -0.173 N 
ATOM     15  H11 UNL     1      27.009  29.074  38.822  1.00  0.00     0.186 HD
ENDROOT
BRANCH   1  16
HETATM   16  N1  UNL     1      28.578  27.380  37.802  1.00  0.00    -0.219 N 
ATOM     17  H1  UNL     1      27.779  26.816  38.091  1.00  0.00     0.178 HD
BRANCH  16  18
HETATM   18  C2  UNL     1      29.320  27.011  36.638  1.00  0.00     0.134 C 
HETATM   19  C1  UNL     1      28.536  27.424  35.415  1.00  0.00     0.035 C 
BRANCH  18  20
HETATM   20  C9  UNL     1      29.501  25.505  36.538  1.00  0.00     0.294 C 
BRANCH  20  21
HETATM   21  N12 UNL     1      28.298  24.865  36.109  1.00  0.00    -0.065 N 
ATOM     22 3H12 UNL     1      28.495  24.036  35.548  1.00  0.00     0.275 HD
ATOM     23 2H12 UNL     1      27.814  24.417  36.887  1.00  0.00     0.275 HD
ATOM     24 1H12 UNL     1      27.687  25.515  35.613  1.00  0.00     0.275 HD
ENDBRANCH  20  21
BRANCH  20  25
HETATM   25  C10 UNL     1      30.018  24.914  37.785  1.00  0.00     0.263 C 
HETATM   26  N13 UNL     1      31.053  25.550  38.516  1.00  0.00    -0.060 NA
HETATM   27  O1  UNL     1      29.536  23.834  38.206  1.00  0.00    -0.274 OA
ENDBRANCH  20  25
ENDBRANCH  18  20
ENDBRANCH  16  18
ENDBRANCH   1  16
BRANCH   4  28
HETATM   28  N3  UNL     1      31.856  29.970  39.640  1.00  0.00    -0.383 N 
ATOM     29  H32 UNL     1      32.541  29.469  39.075  1.00  0.00     0.157 HD
ATOM     30  H31 UNL     1      32.151  30.636  40.354  1.00  0.00     0.157 HD
ENDBRANCH   4  28
BRANCH   8  31
HETATM   31  C7  UNL     1      29.442  33.726  41.954  1.00  0.00     0.183 A 
HETATM   32  N5  UNL     1      28.674  34.816  42.081  1.00  0.00    -0.266 N 
HETATM   33  N6  UNL     1      29.303  35.708  42.856  1.00  0.00    -0.226 N 
ATOM     34  H5  UNL     1      27.756  34.946  41.655  1.00  0.00     0.190 HD
HETATM   35  N7  UNL     1      30.458  35.193  43.218  1.00  0.00    -0.226 N 
ATOM     36  H6  UNL     1      28.948  36.628  43.119  1.00  0.00     0.210 HD
HETATM   37  N8  UNL     1      30.547  33.981  42.669  1.00  0.00    -0.266 N 
ATOM     38  H7  UNL     1      31.158  35.639  43.811  1.00  0.00     0.210 HD
ATOM     39  H8  UNL     1      31.336  33.344  42.776  1.00  0.00     0.190 HD
ENDBRANCH   8  31
TORSDOF 7
ENDMDL
