MODEL 1
REMARK VINA RESULT: -5.577107588      0.000      0.000
REMARK  9 active torsions:
REMARK  status: ('A' for Active; 'I' for Inactive)
REMARK    1  A    between atoms: C2_7  and  S1_8 
REMARK    2  A    between atoms: S1_8  and  N3_9 
REMARK    3  A    between atoms: C3_15  and  N4_16 
REMARK    4  A    between atoms: N4_16  and  C4_18 
REMARK    5  A    between atoms: C4_18  and  N5_19 
REMARK    6  A    between atoms: C4_18  and  C5_24 
REMARK    7  A    between atoms: N5_19  and  N6_21 
REMARK    8  A    between atoms: C5_24  and  O5_25 
REMARK    9  A    between atoms: C5_24  and  O6_27 
ROOT
HETATM    1  N1  UNL     1      29.557  29.531  39.598  1.00  0.00    -0.234 N 
ATOM      2  H11 UNL     1      29.433  29.152  38.659  1.00  0.00     0.174 HD
ATOM      3  H12 UNL     1      29.960  29.086  40.422  1.00  0.00     0.174 HD
HETATM    4  C1  UNL     1      29.134  30.768  39.755  1.00  0.00     0.679 A 
HETATM    5  N2  UNL     1      29.294  31.258  40.966  1.00  0.00    -0.173 N 
ATOM      6  H2  UNL     1      29.724  30.635  41.651  1.00  0.00     0.185 HD
HETATM    7  C2  UNL     1      28.962  32.464  41.399  1.00  0.00     0.208 A 
HETATM    8  S2  UNL     1      28.251  33.425  40.178  1.00  0.00    -0.022 SA
HETATM    9  C3  UNL     1      28.133  32.603  38.672  1.00  0.00     0.164 A 
HETATM   10  N7  UNL     1      28.608  31.351  38.677  1.00  0.00    -0.170 N 
ATOM     11  H7  UNL     1      28.565  30.815  37.811  1.00  0.00     0.186 HD
ENDROOT
BRANCH   9  12
HETATM   12  N4  UNL     1      27.620  33.200  37.660  1.00  0.00    -0.343 N 
ATOM     13  H4  UNL     1      26.727  32.849  37.313  1.00  0.00     0.164 HD
BRANCH  12  14
HETATM   14  C4  UNL     1      28.188  34.304  36.983  1.00  0.00     0.260 C 
BRANCH  14  15
HETATM   15  N5  UNL     1      27.088  35.194  36.574  1.00  0.00    -0.249 N 
ATOM     16  H5  UNL     1      27.203  35.777  35.745  1.00  0.00     0.189 HD
BRANCH  15  17
HETATM   17  N6  UNL     1      25.893  35.261  37.290  1.00  0.00    -0.041 N 
HETATM   18  O3  UNL     1      24.796  34.953  36.790  1.00  0.00    -0.517 OA
HETATM   19  O4  UNL     1      25.908  35.681  38.596  1.00  0.00    -0.517 OA
ENDBRANCH  15  17
ENDBRANCH  14  15
BRANCH  14  20
HETATM   20  C5  UNL     1      28.882  33.883  35.677  1.00  0.00     0.297 C 
BRANCH  20  21
HETATM   21  O5  UNL     1      28.875  32.492  35.663  1.00  0.00    -0.368 OA
ATOM     22  H5  UNL     1      29.200  32.216  36.512  1.00  0.00     0.212 HD
ENDBRANCH  20  21
BRANCH  20  23
HETATM   23  O6  UNL     1      28.184  34.371  34.600  1.00  0.00    -0.368 OA
ATOM     24  H6  UNL     1      28.603  35.160  34.276  1.00  0.00     0.212 HD
ENDBRANCH  20  23
ENDBRANCH  14  20
ENDBRANCH  12  14
ENDBRANCH   9  12
BRANCH   7  25
HETATM   25  S1  UNL     1      29.231  32.989  43.043  1.00  0.00     0.279 S 
HETATM   26  O1  UNL     1      28.921  31.842  43.984  1.00  0.00    -0.199 OA
HETATM   27  O2  UNL     1      30.617  33.499  43.249  1.00  0.00    -0.199 OA
BRANCH  25  28
HETATM   28  N3  UNL     1      28.112  34.250  43.410  1.00  0.00    -0.323 N 
ATOM     29  H32 UNL     1      27.588  34.784  42.718  1.00  0.00     0.169 HD
ATOM     30  H31 UNL     1      28.069  34.363  44.423  1.00  0.00     0.169 HD
ENDBRANCH  25  28
ENDBRANCH   7  25
TORSDOF 9
ENDMDL
MODEL 2
REMARK VINA RESULT: -5.342707289      2.704      4.423
REMARK  9 active torsions:
REMARK  status: ('A' for Active; 'I' for Inactive)
REMARK    1  A    between atoms: C2_7  and  S1_8 
REMARK    2  A    between atoms: S1_8  and  N3_9 
REMARK    3  A    between atoms: C3_15  and  N4_16 
REMARK    4  A    between atoms: N4_16  and  C4_18 
REMARK    5  A    between atoms: C4_18  and  N5_19 
REMARK    6  A    between atoms: C4_18  and  C5_24 
REMARK    7  A    between atoms: N5_19  and  N6_21 
REMARK    8  A    between atoms: C5_24  and  O5_25 
REMARK    9  A    between atoms: C5_24  and  O6_27 
ROOT
HETATM    1  N1  UNL     1      26.560  33.726  38.966  1.00  0.00    -0.234 N 
ATOM      2  H11 UNL     1      26.281  33.521  38.007  1.00  0.00     0.174 HD
ATOM      3  H12 UNL     1      26.202  34.439  39.601  1.00  0.00     0.174 HD
HETATM    4  C1  UNL     1      27.518  32.956  39.439  1.00  0.00     0.679 A 
HETATM    5  N2  UNL     1      27.879  33.219  40.677  1.00  0.00    -0.173 N 
ATOM      6  H2  UNL     1      27.386  33.985  41.137  1.00  0.00     0.185 HD
HETATM    7  C2  UNL     1      28.809  32.607  41.394  1.00  0.00     0.208 A 
HETATM    8  S2  UNL     1      29.574  31.345  40.532  1.00  0.00    -0.022 SA
HETATM    9  C3  UNL     1      28.959  31.163  38.936  1.00  0.00     0.164 A 
HETATM   10  N7  UNL     1      27.987  32.024  38.608  1.00  0.00    -0.170 N 
ATOM     11  H7  UNL     1      27.583  31.963  37.674  1.00  0.00     0.186 HD
ENDROOT
BRANCH   9  12
HETATM   12  N4  UNL     1      29.438  30.254  38.170  1.00  0.00    -0.343 N 
ATOM     13  H4  UNL     1      30.335  29.846  38.433  1.00  0.00     0.164 HD
BRANCH  12  14
HETATM   14  C4  UNL     1      28.827  29.769  36.991  1.00  0.00     0.260 C 
BRANCH  14  15
HETATM   15  N5  UNL     1      29.160  28.340  36.867  1.00  0.00    -0.249 N 
ATOM     16  H5  UNL     1      29.954  28.063  36.290  1.00  0.00     0.189 HD
BRANCH  15  17
HETATM   17  N6  UNL     1      28.419  27.354  37.519  1.00  0.00    -0.041 N 
HETATM   18  O3  UNL     1      28.387  26.174  37.128  1.00  0.00    -0.517 OA
HETATM   19  O4  UNL     1      27.691  27.681  38.635  1.00  0.00    -0.517 OA
ENDBRANCH  15  17
ENDBRANCH  14  15
BRANCH  14  20
HETATM   20  C5  UNL     1      29.401  30.435  35.730  1.00  0.00     0.297 C 
BRANCH  20  21
HETATM   21  O5  UNL     1      29.052  29.615  34.662  1.00  0.00    -0.368 OA
ATOM     22  H5  UNL     1      29.825  29.103  34.456  1.00  0.00     0.212 HD
ENDBRANCH  20  21
BRANCH  20  23
HETATM   23  O6  UNL     1      28.851  31.683  35.569  1.00  0.00    -0.368 OA
ATOM     24  H6  UNL     1      29.334  32.317  36.085  1.00  0.00     0.212 HD
ENDBRANCH  20  23
ENDBRANCH  14  20
ENDBRANCH  12  14
ENDBRANCH   9  12
BRANCH   7  25
HETATM   25  S1  UNL     1      29.190  33.061  43.036  1.00  0.00     0.279 S 
HETATM   26  O1  UNL     1      28.900  31.889  43.951  1.00  0.00    -0.199 OA
HETATM   27  O2  UNL     1      30.601  33.521  43.178  1.00  0.00    -0.199 OA
BRANCH  25  28
HETATM   28  N3  UNL     1      28.136  34.340  43.515  1.00  0.00    -0.323 N 
ATOM     29  H32 UNL     1      28.300  35.330  43.333  1.00  0.00     0.169 HD
ATOM     30  H31 UNL     1      27.335  33.938  44.002  1.00  0.00     0.169 HD
ENDBRANCH  25  28
ENDBRANCH   7  25
TORSDOF 9
ENDMDL
MODEL 3
REMARK VINA RESULT: -5.270712849      3.302      6.158
REMARK  9 active torsions:
REMARK  status: ('A' for Active; 'I' for Inactive)
REMARK    1  A    between atoms: C2_7  and  S1_8 
REMARK    2  A    between atoms: S1_8  and  N3_9 
REMARK    3  A    between atoms: C3_15  and  N4_16 
REMARK    4  A    between atoms: N4_16  and  C4_18 
REMARK    5  A    between atoms: C4_18  and  N5_19 
REMARK    6  A    between atoms: C4_18  and  C5_24 
REMARK    7  A    between atoms: N5_19  and  N6_21 
REMARK    8  A    between atoms: C5_24  and  O5_25 
REMARK    9  A    between atoms: C5_24  and  O6_27 
ROOT
HETATM    1  N1  UNL     1      28.664  33.095  36.660  1.00  0.00    -0.234 N 
ATOM      2  H11 UNL     1      28.630  34.107  36.779  1.00  0.00     0.174 HD
ATOM      3  H12 UNL     1      28.751  32.552  35.801  1.00  0.00     0.174 HD
HETATM    4  C1  UNL     1      28.584  32.404  37.778  1.00  0.00     0.679 A 
HETATM    5  N2  UNL     1      28.629  31.097  37.625  1.00  0.00    -0.173 N 
ATOM      6  H2  UNL     1      28.719  30.759  36.667  1.00  0.00     0.185 HD
HETATM    7  C2  UNL     1      28.570  30.172  38.569  1.00  0.00     0.208 A 
HETATM    8  S2  UNL     1      28.419  30.843  40.134  1.00  0.00    -0.022 SA
HETATM    9  C3  UNL     1      28.379  32.562  40.118  1.00  0.00     0.164 A 
HETATM   10  N7  UNL     1      28.471  33.114  38.901  1.00  0.00    -0.170 N 
ATOM     11  H7  UNL     1      28.453  34.131  38.829  1.00  0.00     0.186 HD
ENDROOT
BRANCH   9  12
HETATM   12  N4  UNL     1      28.268  33.207  41.220  1.00  0.00    -0.343 N 
ATOM     13  H4  UNL     1      27.499  32.948  41.838  1.00  0.00     0.164 HD
BRANCH  12  14
HETATM   14  C4  UNL     1      29.124  34.246  41.653  1.00  0.00     0.260 C 
BRANCH  14  15
HETATM   15  N5  UNL     1      30.056  33.678  42.643  1.00  0.00    -0.249 N 
ATOM     16  H5  UNL     1      30.816  34.258  42.998  1.00  0.00     0.189 HD
BRANCH  15  17
HETATM   17  N6  UNL     1      29.926  32.369  43.107  1.00  0.00    -0.041 N 
HETATM   18  O3  UNL     1      30.674  31.449  42.730  1.00  0.00    -0.517 OA
HETATM   19  O4  UNL     1      28.942  32.067  44.014  1.00  0.00    -0.517 OA
ENDBRANCH  15  17
ENDBRANCH  14  15
BRANCH  14  20
HETATM   20  C5  UNL     1      28.356  35.350  42.398  1.00  0.00     0.297 C 
BRANCH  20  21
HETATM   21  O5  UNL     1      27.594  34.708  43.368  1.00  0.00    -0.368 OA
ATOM     22  H5  UNL     1      27.283  35.388  43.955  1.00  0.00     0.212 HD
ENDBRANCH  20  21
BRANCH  20  23
HETATM   23  O6  UNL     1      29.243  36.216  42.988  1.00  0.00    -0.368 OA
ATOM     24  H6  UNL     1      29.797  35.744  43.599  1.00  0.00     0.212 HD
ENDBRANCH  20  23
ENDBRANCH  14  20
ENDBRANCH  12  14
ENDBRANCH   9  12
BRANCH   7  25
HETATM   25  S1  UNL     1      28.641  28.461  38.226  1.00  0.00     0.279 S 
HETATM   26  O1  UNL     1      27.478  27.773  38.910  1.00  0.00    -0.199 OA
HETATM   27  O2  UNL     1      28.650  28.182  36.762  1.00  0.00    -0.199 OA
BRANCH  25  28
HETATM   28  N3  UNL     1      30.081  27.817  38.925  1.00  0.00    -0.323 N 
ATOM     29  H32 UNL     1      30.972  28.311  38.984  1.00  0.00     0.169 HD
ATOM     30  H31 UNL     1      29.887  26.874  39.261  1.00  0.00     0.169 HD
ENDBRANCH  25  28
ENDBRANCH   7  25
TORSDOF 9
ENDMDL
MODEL 4
REMARK VINA RESULT: -5.260953252      5.185      6.997
REMARK  9 active torsions:
REMARK  status: ('A' for Active; 'I' for Inactive)
REMARK    1  A    between atoms: C2_7  and  S1_8 
REMARK    2  A    between atoms: S1_8  and  N3_9 
REMARK    3  A    between atoms: C3_15  and  N4_16 
REMARK    4  A    between atoms: N4_16  and  C4_18 
REMARK    5  A    between atoms: C4_18  and  N5_19 
REMARK    6  A    between atoms: C4_18  and  C5_24 
REMARK    7  A    between atoms: N5_19  and  N6_21 
REMARK    8  A    between atoms: C5_24  and  O5_25 
REMARK    9  A    between atoms: C5_24  and  O6_27 
ROOT
HETATM    1  N1  UNL     1      29.405  30.606  35.655  1.00  0.00    -0.234 N 
ATOM      2  H11 UNL     1      29.565  30.066  34.804  1.00  0.00     0.174 HD
ATOM      3  H12 UNL     1      29.522  31.607  35.811  1.00  0.00     0.174 HD
HETATM    4  C1  UNL     1      28.989  29.902  36.687  1.00  0.00     0.679 A 
HETATM    5  N2  UNL     1      28.782  30.599  37.784  1.00  0.00    -0.173 N 
ATOM      6  H2  UNL     1      28.964  31.601  37.723  1.00  0.00     0.185 HD
HETATM    7  C2  UNL     1      28.366  30.151  38.958  1.00  0.00     0.208 A 
HETATM    8  S2  UNL     1      28.092  28.464  38.955  1.00  0.00    -0.022 SA
HETATM    9  C3  UNL     1      28.420  27.741  37.429  1.00  0.00     0.164 A 
HETATM   10  N7  UNL     1      28.835  28.593  36.482  1.00  0.00    -0.170 N 
ATOM     11  H7  UNL     1      29.044  28.222  35.556  1.00  0.00     0.186 HD
ENDROOT
BRANCH   9  12
HETATM   12  N4  UNL     1      28.259  26.479  37.275  1.00  0.00    -0.343 N 
ATOM     13  H4  UNL     1      27.589  26.015  37.888  1.00  0.00     0.164 HD
BRANCH  12  14
HETATM   14  C4  UNL     1      28.932  25.676  36.326  1.00  0.00     0.260 C 
BRANCH  14  15
HETATM   15  N5  UNL     1      27.940  25.219  35.339  1.00  0.00    -0.249 N 
ATOM     16  H5  UNL     1      27.521  24.295  35.447  1.00  0.00     0.189 HD
BRANCH  15  17
HETATM   17  N6  UNL     1      27.557  26.015  34.260  1.00  0.00    -0.041 N 
HETATM   18  O3  UNL     1      28.166  27.053  33.946  1.00  0.00    -0.517 OA
HETATM   19  O4  UNL     1      26.468  25.656  33.506  1.00  0.00    -0.517 OA
ENDBRANCH  15  17
ENDBRANCH  14  15
BRANCH  14  20
HETATM   20  C5  UNL     1      29.502  24.395  36.958  1.00  0.00     0.297 C 
BRANCH  20  21
HETATM   21  O5  UNL     1      29.640  24.659  38.317  1.00  0.00    -0.368 OA
ATOM     22  H5  UNL     1      30.533  24.957  38.441  1.00  0.00     0.212 HD
ENDBRANCH  20  21
BRANCH  20  23
HETATM   23  O6  UNL     1      28.631  23.352  36.763  1.00  0.00    -0.368 OA
ATOM     24  H6  UNL     1      28.988  22.750  36.120  1.00  0.00     0.212 HD
ENDBRANCH  20  23
ENDBRANCH  14  20
ENDBRANCH  12  14
ENDBRANCH   9  12
BRANCH   7  25
HETATM   25  S1  UNL     1      28.132  31.191  40.341  1.00  0.00     0.279 S 
HETATM   26  O1  UNL     1      27.311  30.454  41.379  1.00  0.00    -0.199 OA
HETATM   27  O2  UNL     1      29.425  31.666  40.911  1.00  0.00    -0.199 OA
BRANCH  25  28
HETATM   28  N3  UNL     1      27.203  32.560  39.851  1.00  0.00    -0.323 N 
ATOM     29  H32 UNL     1      27.458  33.532  40.028  1.00  0.00     0.169 HD
ATOM     30  H31 UNL     1      26.370  32.231  39.363  1.00  0.00     0.169 HD
ENDBRANCH  25  28
ENDBRANCH   7  25
TORSDOF 9
ENDMDL
MODEL 5
REMARK VINA RESULT: -5.233404285      4.081      6.516
REMARK  9 active torsions:
REMARK  status: ('A' for Active; 'I' for Inactive)
REMARK    1  A    between atoms: C2_7  and  S1_8 
REMARK    2  A    between atoms: S1_8  and  N3_9 
REMARK    3  A    between atoms: C3_15  and  N4_16 
REMARK    4  A    between atoms: N4_16  and  C4_18 
REMARK    5  A    between atoms: C4_18  and  N5_19 
REMARK    6  A    between atoms: C4_18  and  C5_24 
REMARK    7  A    between atoms: N5_19  and  N6_21 
REMARK    8  A    between atoms: C5_24  and  O5_25 
REMARK    9  A    between atoms: C5_24  and  O6_27 
ROOT
HETATM    1  N1  UNL     1      30.451  37.877  43.221  1.00  0.00    -0.234 N 
ATOM      2  H11 UNL     1      29.644  37.924  42.600  1.00  0.00     0.174 HD
ATOM      3  H12 UNL     1      30.845  38.604  43.818  1.00  0.00     0.174 HD
HETATM    4  C1  UNL     1      31.060  36.710  43.248  1.00  0.00     0.679 A 
HETATM    5  N2  UNL     1      32.102  36.648  44.050  1.00  0.00    -0.173 N 
ATOM      6  H2  UNL     1      32.328  37.501  44.562  1.00  0.00     0.185 HD
HETATM    7  C2  UNL     1      32.891  35.608  44.269  1.00  0.00     0.208 A 
HETATM    8  S2  UNL     1      32.428  34.234  43.364  1.00  0.00    -0.022 SA
HETATM    9  C3  UNL     1      31.047  34.521  42.381  1.00  0.00     0.164 A 
HETATM   10  N7  UNL     1      30.544  35.760  42.467  1.00  0.00    -0.170 N 
ATOM     11  H7  UNL     1      29.723  35.988  41.907  1.00  0.00     0.186 HD
ENDROOT
BRANCH   9  12
HETATM   12  N4  UNL     1      30.582  33.580  41.645  1.00  0.00    -0.343 N 
ATOM     13  H4  UNL     1      30.873  33.565  40.667  1.00  0.00     0.164 HD
BRANCH  12  14
HETATM   14  C4  UNL     1      29.702  32.561  42.074  1.00  0.00     0.260 C 
BRANCH  14  15
HETATM   15  N5  UNL     1      28.486  32.640  41.246  1.00  0.00    -0.249 N 
ATOM     16  H5  UNL     1      27.829  31.860  41.253  1.00  0.00     0.189 HD
BRANCH  15  17
HETATM   17  N6  UNL     1      28.208  33.754  40.454  1.00  0.00    -0.041 N 
HETATM   18  O3  UNL     1      27.734  34.805  40.920  1.00  0.00    -0.517 OA
HETATM   19  O4  UNL     1      28.461  33.706  39.106  1.00  0.00    -0.517 OA
ENDBRANCH  15  17
ENDBRANCH  14  15
BRANCH  14  20
HETATM   20  C5  UNL     1      29.229  32.780  43.520  1.00  0.00     0.297 C 
BRANCH  20  21
HETATM   21  O5  UNL     1      28.091  33.577  43.442  1.00  0.00    -0.368 OA
ATOM     22  H5  UNL     1      28.250  34.323  44.007  1.00  0.00     0.212 HD
ENDBRANCH  20  21
BRANCH  20  23
HETATM   23  O6  UNL     1      28.923  31.573  44.099  1.00  0.00    -0.368 OA
ATOM     24  H6  UNL     1      28.884  30.897  43.433  1.00  0.00     0.212 HD
ENDBRANCH  20  23
ENDBRANCH  14  20
ENDBRANCH  12  14
ENDBRANCH   9  12
BRANCH   7  25
HETATM   25  S1  UNL     1      34.248  35.662  45.366  1.00  0.00     0.279 S 
HETATM   26  O1  UNL     1      34.013  36.755  46.388  1.00  0.00    -0.199 OA
HETATM   27  O2  UNL     1      34.489  34.347  46.026  1.00  0.00    -0.199 OA
BRANCH  25  28
HETATM   28  N3  UNL     1      35.659  36.106  44.477  1.00  0.00    -0.323 N 
ATOM     29  H32 UNL     1      36.366  36.768  44.798  1.00  0.00     0.169 HD
ATOM     30  H31 UNL     1      35.661  35.599  43.593  1.00  0.00     0.169 HD
ENDBRANCH  25  28
ENDBRANCH   7  25
TORSDOF 9
ENDMDL
