MODEL 1
REMARK VINA RESULT: -5.955263238      0.000      0.000
REMARK  6 active torsions:
REMARK  status: ('A' for Active; 'I' for Inactive)
REMARK    1  A    between atoms: C4_9  and  N4_10 
REMARK    2  A    between atoms: N5_12  and  N6_14 
REMARK    3  A    between atoms: N6_14  and  N7_16 
REMARK    4  A    between atoms: N7_16  and  C5_18 
REMARK    5  A    between atoms: C6_21  and  N9_22 
REMARK    6  A    between atoms: N9_22  and  N10_24 
ROOT
HETATM    1  N7  UNL     1      31.222  34.728  39.601  1.00  0.00    -0.269 N 
ATOM      2  H7  UNL     1      32.233  34.843  39.528  1.00  0.00     0.190 HD
ENDROOT
BRANCH   1   3
HETATM    3  N6  UNL     1      30.491  34.269  38.505  1.00  0.00    -0.227 N 
ATOM      4  H6  UNL     1      29.892  34.932  38.014  1.00  0.00     0.210 HD
BRANCH   3   5
HETATM    5  N5  UNL     1      30.532  32.957  38.044  1.00  0.00    -0.228 N 
HETATM    6  N4  UNL     1      29.446  32.337  37.895  1.00  0.00    -0.277 N 
ATOM      7  H4  UNL     1      29.459  31.375  37.557  1.00  0.00     0.189 HD
ATOM      8  H5  UNL     1      31.422  32.506  37.831  1.00  0.00     0.210 HD
BRANCH   6   9
HETATM    9  C4  UNL     1      28.223  32.951  38.187  1.00  0.00     0.159 A 
HETATM   10  C3  UNL     1      27.600  32.643  39.396  1.00  0.00     0.154 A 
HETATM   11  N2  UNL     1      26.427  33.253  39.641  1.00  0.00    -0.294 N 
HETATM   12  N3  UNL     1      28.197  31.728  40.302  1.00  0.00    -0.080 NA
HETATM   13  C2  UNL     1      25.876  34.116  38.769  1.00  0.00     0.330 A 
ATOM     14  H2  UNL     1      25.940  33.054  40.515  1.00  0.00     0.172 HD
HETATM   15  N1  UNL     1      26.454  34.431  37.596  1.00  0.00    -0.269 N 
HETATM   16  O1  UNL     1      24.772  34.672  39.030  1.00  0.00    -0.246 OA
HETATM   17  C1  UNL     1      25.841  35.368  36.666  1.00  0.00     0.164 C 
HETATM   18  C11 UNL     1      27.629  33.846  37.306  1.00  0.00     0.282 A 
HETATM   19  O3  UNL     1      28.180  34.141  36.198  1.00  0.00    -0.265 OA
ENDBRANCH   6   9
ENDBRANCH   3   5
ENDBRANCH   1   3
BRANCH   1  20
HETATM   20  C5  UNL     1      30.556  35.033  40.818  1.00  0.00     0.147 A 
HETATM   21  N8  UNL     1      29.691  34.177  41.390  1.00  0.00    -0.173 N 
HETATM   22  C6  UNL     1      29.074  34.498  42.548  1.00  0.00     0.698 A 
ATOM     23  H8  UNL     1      29.500  33.278  40.945  1.00  0.00     0.186 HD
HETATM   24  N11 UNL     1      29.318  35.679  43.142  1.00  0.00    -0.191 N 
HETATM   25  C7  UNL     1      30.171  36.571  42.616  1.00  0.00     0.062 A 
ATOM     26  H11 UNL     1      28.840  35.904  44.015  1.00  0.00     0.184 HD
HETATM   27  C8  UNL     1      30.795  36.240  41.439  1.00  0.00     0.037 A 
HETATM   28  C10 UNL     1      30.657  37.912  42.985  1.00  0.00     0.226 C 
HETATM   29  C9  UNL     1      31.666  37.359  41.070  1.00  0.00     0.212 C 
HETATM   30  O2  UNL     1      31.727  38.185  42.181  1.00  0.00    -0.381 OA
BRANCH  22  31
HETATM   31  N9  UNL     1      28.252  33.626  43.045  1.00  0.00    -0.138 N 
ATOM     32  H9  UNL     1      27.276  33.862  43.223  1.00  0.00     0.205 HD
BRANCH  31  33
HETATM   33  N10 UNL     1      28.751  32.360  43.326  1.00  0.00    -0.331 N 
ATOM     34 2H10 UNL     1      29.392  32.221  44.108  1.00  0.00     0.177 HD
ATOM     35 1H10 UNL     1      28.453  31.592  42.725  1.00  0.00     0.177 HD
ENDBRANCH  31  33
ENDBRANCH  22  31
ENDBRANCH   1  20
TORSDOF 6
ENDMDL
MODEL 2
REMARK VINA RESULT: -5.918431272      2.502      6.003
REMARK  6 active torsions:
REMARK  status: ('A' for Active; 'I' for Inactive)
REMARK    1  A    between atoms: C4_9  and  N4_10 
REMARK    2  A    between atoms: N5_12  and  N6_14 
REMARK    3  A    between atoms: N6_14  and  N7_16 
REMARK    4  A    between atoms: N7_16  and  C5_18 
REMARK    5  A    between atoms: C6_21  and  N9_22 
REMARK    6  A    between atoms: N9_22  and  N10_24 
ROOT
HETATM    1  N7  UNL     1      27.973  31.306  41.295  1.00  0.00    -0.269 N 
ATOM      2  H7  UNL     1      27.467  30.430  41.419  1.00  0.00     0.190 HD
ENDROOT
BRANCH   1   3
HETATM    3  N6  UNL     1      28.731  31.829  42.344  1.00  0.00    -0.227 N 
ATOM      4  H6  UNL     1      29.671  31.460  42.490  1.00  0.00     0.210 HD
BRANCH   3   5
HETATM    5  N5  UNL     1      28.278  32.827  43.202  1.00  0.00    -0.228 N 
HETATM    6  N4  UNL     1      28.778  33.977  43.104  1.00  0.00    -0.277 N 
ATOM      7  H4  UNL     1      28.457  34.720  43.725  1.00  0.00     0.189 HD
ATOM      8  H5  UNL     1      27.557  32.630  43.895  1.00  0.00     0.210 HD
BRANCH   6   9
HETATM    9  C4  UNL     1      29.770  34.252  42.155  1.00  0.00     0.159 A 
HETATM   10  C3  UNL     1      29.419  34.992  41.027  1.00  0.00     0.154 A 
HETATM   11  N2  UNL     1      30.399  35.236  40.139  1.00  0.00    -0.294 N 
HETATM   12  N3  UNL     1      28.088  35.451  40.850  1.00  0.00    -0.080 NA
HETATM   13  C2  UNL     1      31.655  34.791  40.322  1.00  0.00     0.330 A 
ATOM     14  H2  UNL     1      30.182  35.774  39.300  1.00  0.00     0.172 HD
HETATM   15  N1  UNL     1      32.021  34.075  41.400  1.00  0.00    -0.269 N 
HETATM   16  O1  UNL     1      32.553  35.038  39.467  1.00  0.00    -0.246 OA
HETATM   17  C1  UNL     1      33.386  33.603  41.580  1.00  0.00     0.164 C 
HETATM   18  C11 UNL     1      31.076  33.806  42.317  1.00  0.00     0.282 A 
HETATM   19  O3  UNL     1      31.417  33.129  43.339  1.00  0.00    -0.265 OA
ENDBRANCH   6   9
ENDBRANCH   3   5
ENDBRANCH   1   3
BRANCH   1  20
HETATM   20  C5  UNL     1      27.910  31.998  40.055  1.00  0.00     0.147 A 
HETATM   21  N8  UNL     1      26.814  32.677  39.675  1.00  0.00    -0.173 N 
HETATM   22  C6  UNL     1      26.786  33.325  38.490  1.00  0.00     0.698 A 
ATOM     23  H8  UNL     1      25.997  32.704  40.287  1.00  0.00     0.186 HD
HETATM   24  N11 UNL     1      27.855  33.295  37.676  1.00  0.00    -0.191 N 
HETATM   25  C7  UNL     1      28.975  32.634  38.005  1.00  0.00     0.062 A 
ATOM     26  H11 UNL     1      27.814  33.789  36.784  1.00  0.00     0.184 HD
HETATM   27  C8  UNL     1      28.998  31.978  39.210  1.00  0.00     0.037 A 
HETATM   28  C10 UNL     1      30.287  32.400  37.376  1.00  0.00     0.226 C 
HETATM   29  C9  UNL     1      30.310  31.339  39.341  1.00  0.00     0.212 C 
HETATM   30  O2  UNL     1      31.102  31.869  38.335  1.00  0.00    -0.381 OA
BRANCH  22  31
HETATM   31  N9  UNL     1      25.697  33.960  38.186  1.00  0.00    -0.138 N 
ATOM     32  H9  UNL     1      24.853  33.863  38.750  1.00  0.00     0.205 HD
BRANCH  31  33
HETATM   33  N10 UNL     1      25.724  34.779  37.063  1.00  0.00    -0.331 N 
ATOM     34 2H10 UNL     1      25.382  34.433  36.166  1.00  0.00     0.177 HD
ATOM     35 1H10 UNL     1      26.094  35.722  37.176  1.00  0.00     0.177 HD
ENDBRANCH  31  33
ENDBRANCH  22  31
ENDBRANCH   1  20
TORSDOF 6
ENDMDL
MODEL 3
REMARK VINA RESULT: -5.761100944      3.388      6.943
REMARK  6 active torsions:
REMARK  status: ('A' for Active; 'I' for Inactive)
REMARK    1  A    between atoms: C4_9  and  N4_10 
REMARK    2  A    between atoms: N5_12  and  N6_14 
REMARK    3  A    between atoms: N6_14  and  N7_16 
REMARK    4  A    between atoms: N7_16  and  C5_18 
REMARK    5  A    between atoms: C6_21  and  N9_22 
REMARK    6  A    between atoms: N9_22  and  N10_24 
ROOT
HETATM    1  N7  UNL     1      28.088  31.068  40.236  1.00  0.00    -0.269 N 
ATOM      2  H7  UNL     1      27.159  30.854  39.872  1.00  0.00     0.190 HD
ENDROOT
BRANCH   1   3
HETATM    3  N6  UNL     1      28.247  32.056  41.209  1.00  0.00    -0.227 N 
ATOM      4  H6  UNL     1      28.266  33.030  40.907  1.00  0.00     0.210 HD
BRANCH   3   5
HETATM    5  N5  UNL     1      28.381  31.788  42.567  1.00  0.00    -0.228 N 
HETATM    6  N4  UNL     1      29.069  32.573  43.271  1.00  0.00    -0.277 N 
ATOM      7  H4  UNL     1      29.176  32.391  44.268  1.00  0.00     0.189 HD
ATOM      8  H5  UNL     1      27.932  30.973  42.985  1.00  0.00     0.210 HD
BRANCH   6   9
HETATM    9  C4  UNL     1      29.688  33.692  42.702  1.00  0.00     0.159 A 
HETATM   10  C3  UNL     1      29.031  34.920  42.773  1.00  0.00     0.154 A 
HETATM   11  N2  UNL     1      29.657  35.971  42.216  1.00  0.00    -0.294 N 
HETATM   12  N3  UNL     1      27.764  35.024  43.405  1.00  0.00    -0.080 NA
HETATM   13  C2  UNL     1      30.856  35.852  41.619  1.00  0.00     0.330 A 
ATOM     14  H2  UNL     1      29.209  36.887  42.247  1.00  0.00     0.172 HD
HETATM   15  N1  UNL     1      31.513  34.681  41.536  1.00  0.00    -0.269 N 
HETATM   16  O1  UNL     1      31.419  36.861  41.106  1.00  0.00    -0.246 OA
HETATM   17  C1  UNL     1      32.811  34.574  40.886  1.00  0.00     0.164 C 
HETATM   18  C11 UNL     1      30.926  33.600  42.079  1.00  0.00     0.282 A 
HETATM   19  O3  UNL     1      31.543  32.490  42.003  1.00  0.00    -0.265 OA
ENDBRANCH   6   9
ENDBRANCH   3   5
ENDBRANCH   1   3
BRANCH   1  20
HETATM   20  C5  UNL     1      29.222  30.361  39.754  1.00  0.00     0.147 A 
HETATM   21  N8  UNL     1      30.469  30.849  39.874  1.00  0.00    -0.173 N 
HETATM   22  C6  UNL     1      31.526  30.151  39.406  1.00  0.00     0.698 A 
ATOM     23  H8  UNL     1      30.617  31.754  40.322  1.00  0.00     0.186 HD
HETATM   24  N11 UNL     1      31.343  28.959  38.813  1.00  0.00    -0.191 N 
HETATM   25  C7  UNL     1      30.121  28.423  38.667  1.00  0.00     0.062 A 
ATOM     26  H11 UNL     1      32.154  28.448  38.464  1.00  0.00     0.184 HD
HETATM   27  C8  UNL     1      29.051  29.137  39.145  1.00  0.00     0.037 A 
HETATM   28  C10 UNL     1      29.574  27.184  38.088  1.00  0.00     0.226 C 
HETATM   29  C9  UNL     1      27.841  28.356  38.872  1.00  0.00     0.212 C 
HETATM   30  O2  UNL     1      28.272  27.095  38.491  1.00  0.00    -0.381 OA
BRANCH  22  31
HETATM   31  N9  UNL     1      32.701  30.681  39.554  1.00  0.00    -0.138 N 
ATOM     32  H9  UNL     1      33.144  31.205  38.799  1.00  0.00     0.205 HD
BRANCH  31  33
HETATM   33  N10 UNL     1      33.333  30.508  40.780  1.00  0.00    -0.331 N 
ATOM     34 2H10 UNL     1      33.472  31.303  41.404  1.00  0.00     0.177 HD
ATOM     35 1H10 UNL     1      33.645  29.568  41.020  1.00  0.00     0.177 HD
ENDBRANCH  31  33
ENDBRANCH  22  31
ENDBRANCH   1  20
TORSDOF 6
ENDMDL
MODEL 4
REMARK VINA RESULT: -5.718096165      2.903      6.407
REMARK  6 active torsions:
REMARK  status: ('A' for Active; 'I' for Inactive)
REMARK    1  A    between atoms: C4_9  and  N4_10 
REMARK    2  A    between atoms: N5_12  and  N6_14 
REMARK    3  A    between atoms: N6_14  and  N7_16 
REMARK    4  A    between atoms: N7_16  and  C5_18 
REMARK    5  A    between atoms: C6_21  and  N9_22 
REMARK    6  A    between atoms: N9_22  and  N10_24 
ROOT
HETATM    1  N7  UNL     1      28.332  32.100  42.354  1.00  0.00    -0.269 N 
ATOM      2  H7  UNL     1      27.380  31.748  42.455  1.00  0.00     0.190 HD
ENDROOT
BRANCH   1   3
HETATM    3  N6  UNL     1      28.780  33.145  43.163  1.00  0.00    -0.227 N 
ATOM      4  H6  UNL     1      29.683  33.043  43.626  1.00  0.00     0.210 HD
BRANCH   3   5
HETATM    5  N5  UNL     1      28.064  34.320  43.374  1.00  0.00    -0.228 N 
HETATM    6  N4  UNL     1      28.430  35.363  42.774  1.00  0.00    -0.277 N 
ATOM      7  H4  UNL     1      27.916  36.232  42.917  1.00  0.00     0.189 HD
ATOM      8  H5  UNL     1      27.261  34.335  44.003  1.00  0.00     0.210 HD
BRANCH   6   9
HETATM    9  C4  UNL     1      29.533  35.347  41.912  1.00  0.00     0.159 A 
HETATM   10  C3  UNL     1      29.330  34.974  40.584  1.00  0.00     0.154 A 
HETATM   11  N2  UNL     1      30.413  34.972  39.787  1.00  0.00    -0.294 N 
HETATM   12  N3  UNL     1      28.035  34.618  40.125  1.00  0.00    -0.080 NA
HETATM   13  C2  UNL     1      31.633  35.311  40.241  1.00  0.00     0.330 A 
ATOM     14  H2  UNL     1      30.306  34.704  38.809  1.00  0.00     0.172 HD
HETATM   15  N1  UNL     1      31.858  35.675  41.516  1.00  0.00    -0.269 N 
HETATM   16  O1  UNL     1      32.630  35.298  39.465  1.00  0.00    -0.246 OA
HETATM   17  C1  UNL     1      33.186  36.038  41.987  1.00  0.00     0.164 C 
HETATM   18  C11 UNL     1      30.805  35.692  42.352  1.00  0.00     0.282 A 
HETATM   19  O3  UNL     1      31.012  36.037  43.559  1.00  0.00    -0.265 OA
ENDBRANCH   6   9
ENDBRANCH   3   5
ENDBRANCH   1   3
BRANCH   1  20
HETATM   20  C5  UNL     1      29.206  31.528  41.390  1.00  0.00     0.147 A 
HETATM   21  N8  UNL     1      30.517  31.820  41.357  1.00  0.00    -0.173 N 
HETATM   22  C6  UNL     1      31.321  31.258  40.428  1.00  0.00     0.698 A 
ATOM     23  H8  UNL     1      30.909  32.470  42.039  1.00  0.00     0.186 HD
HETATM   24  N11 UNL     1      30.816  30.400  39.523  1.00  0.00    -0.191 N 
HETATM   25  C7  UNL     1      29.515  30.073  39.511  1.00  0.00     0.062 A 
ATOM     26  H11 UNL     1      31.439  29.988  38.828  1.00  0.00     0.184 HD
HETATM   27  C8  UNL     1      28.703  30.647  40.457  1.00  0.00     0.037 A 
HETATM   28  C10 UNL     1      28.654  29.200  38.694  1.00  0.00     0.226 C 
HETATM   29  C9  UNL     1      27.345  30.140  40.241  1.00  0.00     0.212 C 
HETATM   30  O2  UNL     1      27.463  29.084  39.352  1.00  0.00    -0.381 OA
BRANCH  22  31
HETATM   31  N9  UNL     1      32.576  31.583  40.453  1.00  0.00    -0.138 N 
ATOM     32  H9  UNL     1      33.157  31.388  41.268  1.00  0.00     0.205 HD
BRANCH  31  33
HETATM   33  N10 UNL     1      33.100  32.207  39.327  1.00  0.00    -0.331 N 
ATOM     34 2H10 UNL     1      32.485  32.698  38.678  1.00  0.00     0.177 HD
ATOM     35 1H10 UNL     1      34.108  32.153  39.184  1.00  0.00     0.177 HD
ENDBRANCH  31  33
ENDBRANCH  22  31
ENDBRANCH   1  20
TORSDOF 6
ENDMDL
MODEL 5
REMARK VINA RESULT: -5.586093405      3.200      6.023
REMARK  6 active torsions:
REMARK  status: ('A' for Active; 'I' for Inactive)
REMARK    1  A    between atoms: C4_9  and  N4_10 
REMARK    2  A    between atoms: N5_12  and  N6_14 
REMARK    3  A    between atoms: N6_14  and  N7_16 
REMARK    4  A    between atoms: N7_16  and  C5_18 
REMARK    5  A    between atoms: C6_21  and  N9_22 
REMARK    6  A    between atoms: N9_22  and  N10_24 
ROOT
HETATM    1  N7  UNL     1      28.805  32.373  43.311  1.00  0.00    -0.269 N 
ATOM      2  H7  UNL     1      28.476  31.856  44.127  1.00  0.00     0.190 HD
ENDROOT
BRANCH   1   3
HETATM    3  N6  UNL     1      29.051  33.743  43.405  1.00  0.00    -0.227 N 
ATOM      4  H6  UNL     1      29.950  34.047  43.778  1.00  0.00     0.210 HD
BRANCH   3   5
HETATM    5  N5  UNL     1      28.139  34.720  43.017  1.00  0.00    -0.228 N 
HETATM    6  N4  UNL     1      28.525  35.627  42.234  1.00  0.00    -0.277 N 
ATOM      7  H4  UNL     1      27.869  36.350  41.940  1.00  0.00     0.189 HD
ATOM      8  H5  UNL     1      27.179  34.701  43.359  1.00  0.00     0.210 HD
BRANCH   6   9
HETATM    9  C4  UNL     1      29.843  35.657  41.763  1.00  0.00     0.159 A 
HETATM   10  C3  UNL     1      30.105  35.138  40.496  1.00  0.00     0.154 A 
HETATM   11  N2  UNL     1      31.382  35.185  40.078  1.00  0.00    -0.294 N 
HETATM   12  N3  UNL     1      29.057  34.592  39.709  1.00  0.00    -0.080 NA
HETATM   13  C2  UNL     1      32.362  35.704  40.838  1.00  0.00     0.330 A 
ATOM     14  H2  UNL     1      31.614  34.815  39.156  1.00  0.00     0.172 HD
HETATM   15  N1  UNL     1      32.139  36.211  42.064  1.00  0.00    -0.269 N 
HETATM   16  O1  UNL     1      33.553  35.734  40.416  1.00  0.00    -0.246 OA
HETATM   17  C1  UNL     1      33.213  36.769  42.871  1.00  0.00     0.164 C 
HETATM   18  C11 UNL     1      30.876  36.186  42.526  1.00  0.00     0.282 A 
HETATM   19  O3  UNL     1      30.659  36.666  43.684  1.00  0.00    -0.265 OA
ENDBRANCH   6   9
ENDBRANCH   3   5
ENDBRANCH   1   3
BRANCH   1  20
HETATM   20  C5  UNL     1      29.015  31.699  42.077  1.00  0.00     0.147 A 
HETATM   21  N8  UNL     1      28.018  31.071  41.432  1.00  0.00    -0.173 N 
HETATM   22  C6  UNL     1      28.251  30.441  40.260  1.00  0.00     0.698 A 
ATOM     23  H8  UNL     1      27.078  31.070  41.829  1.00  0.00     0.186 HD
HETATM   24  N11 UNL     1      29.486  30.433  39.727  1.00  0.00    -0.191 N 
HETATM   25  C7  UNL     1      30.517  31.045  40.328  1.00  0.00     0.062 A 
ATOM     26  H11 UNL     1      29.642  29.950  38.842  1.00  0.00     0.184 HD
HETATM   27  C8  UNL     1      30.275  31.684  41.518  1.00  0.00     0.037 A 
HETATM   28  C10 UNL     1      31.950  31.230  40.037  1.00  0.00     0.226 C 
HETATM   29  C9  UNL     1      31.540  32.267  41.973  1.00  0.00     0.212 C 
HETATM   30  O2  UNL     1      32.414  32.181  40.901  1.00  0.00    -0.381 OA
BRANCH  22  31
HETATM   31  N9  UNL     1      27.244  29.855  39.690  1.00  0.00    -0.138 N 
ATOM     32  H9  UNL     1      26.316  30.278  39.690  1.00  0.00     0.205 HD
BRANCH  31  33
HETATM   33  N10 UNL     1      27.477  28.628  39.079  1.00  0.00    -0.331 N 
ATOM     34 2H10 UNL     1      27.690  28.582  38.082  1.00  0.00     0.177 HD
ATOM     35 1H10 UNL     1      27.426  27.794  39.663  1.00  0.00     0.177 HD
ENDBRANCH  31  33
ENDBRANCH  22  31
ENDBRANCH   1  20
TORSDOF 6
ENDMDL
