MODEL 1
REMARK VINA RESULT: -5.724846488      0.000      0.000
REMARK  11 active torsions:
REMARK  status: ('A' for Active; 'I' for Inactive)
REMARK    1  A    between atoms: C2_2  and  N1_3 
REMARK    2  A    between atoms: N1_3  and  C3_6 
REMARK    3  A    between atoms: C3_6  and  C4_7 
REMARK    4  A    between atoms: C4_7  and  N2_8 
REMARK    5  A    between atoms: C6_11  and  O1_12 
REMARK    6  A    between atoms: C10_19  and  O4_20 
REMARK    7  A    between atoms: C10_19  and  O5_22 
REMARK    8  A    between atoms: C11_24  and  O6_25 
REMARK    9  A    between atoms: C12_27  and  O7_28 
REMARK   10  A    between atoms: O7_28  and  C13_29 
REMARK   11  A    between atoms: N4_31  and  O8_33 
ROOT
HETATM    1  N2  UNL     1      29.568  31.911  40.721  1.00  0.00    -0.369 N 
ATOM      2  H2  UNL     1      30.456  31.413  40.654  1.00  0.00     0.164 HD
HETATM    3  C5  UNL     1      29.446  32.811  39.877  1.00  0.00     0.072 C 
HETATM    4  C6  UNL     1      28.400  33.815  39.531  1.00  0.00     0.236 C 
HETATM    5  O2  UNL     1      29.201  34.985  39.586  1.00  0.00    -0.316 OA
HETATM    6  C7  UNL     1      30.341  34.668  38.849  1.00  0.00     0.286 C 
HETATM    7  O3  UNL     1      31.526  34.674  39.617  1.00  0.00    -0.358 OA
HETATM    8  C8  UNL     1      31.852  33.338  39.275  1.00  0.00     0.197 C 
HETATM    9  C9  UNL     1      30.472  33.157  38.858  1.00  0.00     0.133 C 
HETATM   10  C10 UNL     1      30.115  32.474  37.593  1.00  0.00     0.209 C 
HETATM   11  C11 UNL     1      28.650  32.591  37.344  1.00  0.00     0.216 C 
HETATM   12  C12 UNL     1      27.967  33.691  38.101  1.00  0.00     0.234 C 
ENDROOT
BRANCH   1  13
HETATM   13  C4  UNL     1      28.745  31.437  41.743  1.00  0.00     0.088 C 
BRANCH  13  14
HETATM   14  C3  UNL     1      29.054  32.046  43.102  1.00  0.00     0.276 C 
BRANCH  14  15
HETATM   15  N1  UNL     1      28.619  33.415  43.185  1.00  0.00    -0.071 N 
ATOM     16  H12 UNL     1      28.058  33.562  44.024  1.00  0.00     0.277 HD
ATOM     17  H11 UNL     1      27.918  33.613  42.472  1.00  0.00     0.277 HD
BRANCH  15  18
HETATM   18  C2  UNL     1      29.686  34.372  43.121  1.00  0.00     0.228 C 
HETATM   19  C1  UNL     1      29.093  35.746  42.851  1.00  0.00     0.034 C 
ENDBRANCH  15  18
ENDBRANCH  14  15
ENDBRANCH  13  14
ENDBRANCH   1  13
BRANCH   4  20
HETATM   20  O1  UNL     1      27.392  33.887  40.452  1.00  0.00    -0.359 OA
ATOM     21  H1  UNL     1      26.660  33.314  40.256  1.00  0.00     0.213 HD
ENDBRANCH   4  20
BRANCH  12  22
HETATM   22  O7  UNL     1      26.578  33.432  38.075  1.00  0.00    -0.309 OA
BRANCH  22  23
HETATM   23  C13 UNL     1      25.617  34.395  37.815  1.00  0.00     0.252 C 
HETATM   24  N3  UNL     1      24.679  34.697  38.822  1.00  0.00    -0.054 NA
HETATM   25  N4  UNL     1      25.661  34.948  36.647  1.00  0.00    -0.235 N 
ATOM     26  H4  UNL     1      26.364  34.689  35.956  1.00  0.00     0.197 HD
BRANCH  25  27
HETATM   27  O8  UNL     1      24.704  35.907  36.384  1.00  0.00    -0.287 OA
ATOM     28  H8  UNL     1      23.816  35.706  36.657  1.00  0.00     0.244 HD
ENDBRANCH  25  27
ENDBRANCH  22  23
ENDBRANCH  12  22
BRANCH  10  29
HETATM   29  O4  UNL     1      30.899  32.927  36.530  1.00  0.00    -0.362 OA
ATOM     30  H4  UNL     1      30.373  33.374  35.878  1.00  0.00     0.213 HD
ENDBRANCH  10  29
BRANCH  10  31
HETATM   31  O5  UNL     1      30.419  31.108  37.742  1.00  0.00    -0.362 OA
ATOM     32  H5  UNL     1      29.823  30.617  37.190  1.00  0.00     0.213 HD
ENDBRANCH  10  31
BRANCH  11  33
HETATM   33  O6  UNL     1      28.466  32.851  35.984  1.00  0.00    -0.387 OA
ATOM     34  H6  UNL     1      28.358  33.789  35.878  1.00  0.00     0.210 HD
ENDBRANCH  11  33
TORSDOF 11
ENDMDL
MODEL 2
REMARK VINA RESULT: -5.514381329      1.268      2.421
REMARK  11 active torsions:
REMARK  status: ('A' for Active; 'I' for Inactive)
REMARK    1  A    between atoms: C2_2  and  N1_3 
REMARK    2  A    between atoms: N1_3  and  C3_6 
REMARK    3  A    between atoms: C3_6  and  C4_7 
REMARK    4  A    between atoms: C4_7  and  N2_8 
REMARK    5  A    between atoms: C6_11  and  O1_12 
REMARK    6  A    between atoms: C10_19  and  O4_20 
REMARK    7  A    between atoms: C10_19  and  O5_22 
REMARK    8  A    between atoms: C11_24  and  O6_25 
REMARK    9  A    between atoms: C12_27  and  O7_28 
REMARK   10  A    between atoms: O7_28  and  C13_29 
REMARK   11  A    between atoms: N4_31  and  O8_33 
ROOT
HETATM    1  N2  UNL     1      29.882  32.154  40.945  1.00  0.00    -0.369 N 
ATOM      2  H2  UNL     1      30.786  31.703  40.801  1.00  0.00     0.164 HD
HETATM    3  C5  UNL     1      29.655  33.066  40.136  1.00  0.00     0.072 C 
HETATM    4  C6  UNL     1      28.538  34.023  39.893  1.00  0.00     0.236 C 
HETATM    5  O2  UNL     1      29.282  35.231  39.922  1.00  0.00    -0.316 OA
HETATM    6  C7  UNL     1      30.380  34.990  39.097  1.00  0.00     0.286 C 
HETATM    7  O3  UNL     1      31.616  35.038  39.778  1.00  0.00    -0.358 OA
HETATM    8  C8  UNL     1      31.981  33.729  39.378  1.00  0.00     0.197 C 
HETATM    9  C9  UNL     1      30.586  33.488  39.057  1.00  0.00     0.133 C 
HETATM   10  C10 UNL     1      30.172  32.817  37.802  1.00  0.00     0.209 C 
HETATM   11  C11 UNL     1      28.689  32.865  37.661  1.00  0.00     0.216 C 
HETATM   12  C12 UNL     1      28.009  33.911  38.495  1.00  0.00     0.234 C 
ENDROOT
BRANCH   1  13
HETATM   13  C4  UNL     1      29.159  31.615  42.009  1.00  0.00     0.088 C 
BRANCH  13  14
HETATM   14  C3  UNL     1      28.027  30.698  41.571  1.00  0.00     0.276 C 
BRANCH  14  15
HETATM   15  N1  UNL     1      28.323  30.042  40.324  1.00  0.00    -0.071 N 
ATOM     16  H12 UNL     1      29.186  29.504  40.399  1.00  0.00     0.277 HD
ATOM     17  H11 UNL     1      28.604  30.723  39.619  1.00  0.00     0.277 HD
BRANCH  15  18
HETATM   18  C2  UNL     1      27.258  29.218  39.830  1.00  0.00     0.228 C 
HETATM   19  C1  UNL     1      27.851  28.131  38.948  1.00  0.00     0.034 C 
ENDBRANCH  15  18
ENDBRANCH  14  15
ENDBRANCH  13  14
ENDBRANCH   1  13
BRANCH   4  20
HETATM   20  O1  UNL     1      27.597  34.022  40.885  1.00  0.00    -0.359 OA
ATOM     21  H1  UNL     1      26.818  33.524  40.666  1.00  0.00     0.213 HD
ENDBRANCH   4  20
BRANCH  12  22
HETATM   22  O7  UNL     1      26.637  33.582  38.561  1.00  0.00    -0.309 OA
BRANCH  22  23
HETATM   23  C13 UNL     1      25.623  34.394  38.078  1.00  0.00     0.252 C 
HETATM   24  N3  UNL     1      24.506  34.636  38.902  1.00  0.00    -0.054 NA
HETATM   25  N4  UNL     1      25.789  34.871  36.888  1.00  0.00    -0.235 N 
ATOM     26  H4  UNL     1      26.620  34.662  36.336  1.00  0.00     0.197 HD
BRANCH  25  27
HETATM   27  O8  UNL     1      24.780  35.680  36.404  1.00  0.00    -0.287 OA
ATOM     28  H8  UNL     1      24.359  35.397  35.601  1.00  0.00     0.244 HD
ENDBRANCH  25  27
ENDBRANCH  22  23
ENDBRANCH  12  22
BRANCH  10  29
HETATM   29  O4  UNL     1      30.853  33.334  36.699  1.00  0.00    -0.362 OA
ATOM     30  H4  UNL     1      31.686  32.897  36.569  1.00  0.00     0.213 HD
ENDBRANCH  10  29
BRANCH  10  31
HETATM   31  O5  UNL     1      30.553  31.465  37.892  1.00  0.00    -0.362 OA
ATOM     32  H5  UNL     1      31.501  31.429  37.864  1.00  0.00     0.213 HD
ENDBRANCH  10  31
BRANCH  11  33
HETATM   33  O6  UNL     1      28.394  33.147  36.326  1.00  0.00    -0.387 OA
ATOM     34  H6  UNL     1      27.555  32.749  36.122  1.00  0.00     0.210 HD
ENDBRANCH  11  33
TORSDOF 11
ENDMDL
MODEL 3
REMARK VINA RESULT: -5.362307410      2.193      4.307
REMARK  11 active torsions:
REMARK  status: ('A' for Active; 'I' for Inactive)
REMARK    1  A    between atoms: C2_2  and  N1_3 
REMARK    2  A    between atoms: N1_3  and  C3_6 
REMARK    3  A    between atoms: C3_6  and  C4_7 
REMARK    4  A    between atoms: C4_7  and  N2_8 
REMARK    5  A    between atoms: C6_11  and  O1_12 
REMARK    6  A    between atoms: C10_19  and  O4_20 
REMARK    7  A    between atoms: C10_19  and  O5_22 
REMARK    8  A    between atoms: C11_24  and  O6_25 
REMARK    9  A    between atoms: C12_27  and  O7_28 
REMARK   10  A    between atoms: O7_28  and  C13_29 
REMARK   11  A    between atoms: N4_31  and  O8_33 
ROOT
HETATM    1  N2  UNL     1      30.851  31.792  39.541  1.00  0.00    -0.369 N 
ATOM      2  H2  UNL     1      31.614  31.840  40.218  1.00  0.00     0.164 HD
HETATM    3  C5  UNL     1      29.754  32.122  40.015  1.00  0.00     0.072 C 
HETATM    4  C6  UNL     1      28.359  32.231  39.501  1.00  0.00     0.236 C 
HETATM    5  O2  UNL     1      27.709  31.427  40.474  1.00  0.00    -0.316 OA
HETATM    6  C7  UNL     1      28.195  31.889  41.696  1.00  0.00     0.286 C 
HETATM    7  O3  UNL     1      28.931  30.919  42.411  1.00  0.00    -0.358 OA
HETATM    8  C8  UNL     1      30.084  31.739  42.499  1.00  0.00     0.197 C 
HETATM    9  C9  UNL     1      29.536  32.545  41.424  1.00  0.00     0.133 C 
HETATM   10  C10 UNL     1      29.546  34.026  41.467  1.00  0.00     0.209 C 
HETATM   11  C11 UNL     1      28.766  34.577  40.322  1.00  0.00     0.216 C 
HETATM   12  C12 UNL     1      27.808  33.612  39.688  1.00  0.00     0.234 C 
ENDROOT
BRANCH   1  13
HETATM   13  C4  UNL     1      31.262  31.371  38.276  1.00  0.00     0.088 C 
BRANCH  13  14
HETATM   14  C3  UNL     1      31.336  29.858  38.136  1.00  0.00     0.276 C 
BRANCH  14  15
HETATM   15  N1  UNL     1      30.033  29.273  37.958  1.00  0.00    -0.071 N 
ATOM     16  H12 UNL     1      29.983  28.776  37.069  1.00  0.00     0.277 HD
ATOM     17  H11 UNL     1      29.335  29.997  37.791  1.00  0.00     0.277 HD
BRANCH  15  18
HETATM   18  C2  UNL     1      29.623  28.419  39.035  1.00  0.00     0.228 C 
HETATM   19  C1  UNL     1      28.113  28.260  38.985  1.00  0.00     0.034 C 
ENDBRANCH  15  18
ENDBRANCH  14  15
ENDBRANCH  13  14
ENDBRANCH   1  13
BRANCH   4  20
HETATM   20  O1  UNL     1      28.196  31.691  38.255  1.00  0.00    -0.359 OA
ATOM     21  H1  UNL     1      27.724  30.866  38.261  1.00  0.00     0.213 HD
ENDBRANCH   4  20
BRANCH  12  22
HETATM   22  O7  UNL     1      27.454  34.128  38.422  1.00  0.00    -0.309 OA
BRANCH  22  23
HETATM   23  C13 UNL     1      26.177  34.551  38.089  1.00  0.00     0.252 C 
HETATM   24  N3  UNL     1      25.194  34.579  39.099  1.00  0.00    -0.054 NA
HETATM   25  N4  UNL     1      25.988  34.891  36.857  1.00  0.00    -0.235 N 
ATOM     26  H4  UNL     1      26.739  34.850  36.167  1.00  0.00     0.197 HD
BRANCH  25  27
HETATM   27  O8  UNL     1      24.717  35.312  36.522  1.00  0.00    -0.287 OA
ATOM     28  H8  UNL     1      24.169  34.683  36.067  1.00  0.00     0.244 HD
ENDBRANCH  25  27
ENDBRANCH  22  23
ENDBRANCH  12  22
BRANCH  10  29
HETATM   29  O4  UNL     1      29.124  34.503  42.708  1.00  0.00    -0.362 OA
ATOM     30  H4  UNL     1      28.737  35.368  42.635  1.00  0.00     0.213 HD
ENDBRANCH  10  29
BRANCH  10  31
HETATM   31  O5  UNL     1      30.880  34.451  41.323  1.00  0.00    -0.362 OA
ATOM     32  H5  UNL     1      31.215  34.085  40.513  1.00  0.00     0.213 HD
ENDBRANCH  10  31
BRANCH  11  33
HETATM   33  O6  UNL     1      28.014  35.655  40.794  1.00  0.00    -0.387 OA
ATOM     34  H6  UNL     1      27.221  35.308  41.186  1.00  0.00     0.210 HD
ENDBRANCH  11  33
TORSDOF 11
ENDMDL
MODEL 4
REMARK VINA RESULT: -5.286957457      2.127      4.648
REMARK  11 active torsions:
REMARK  status: ('A' for Active; 'I' for Inactive)
REMARK    1  A    between atoms: C2_2  and  N1_3 
REMARK    2  A    between atoms: N1_3  and  C3_6 
REMARK    3  A    between atoms: C3_6  and  C4_7 
REMARK    4  A    between atoms: C4_7  and  N2_8 
REMARK    5  A    between atoms: C6_11  and  O1_12 
REMARK    6  A    between atoms: C10_19  and  O4_20 
REMARK    7  A    between atoms: C10_19  and  O5_22 
REMARK    8  A    between atoms: C11_24  and  O6_25 
REMARK    9  A    between atoms: C12_27  and  O7_28 
REMARK   10  A    between atoms: O7_28  and  C13_29 
REMARK   11  A    between atoms: N4_31  and  O8_33 
ROOT
HETATM    1  N2  UNL     1      30.534  32.566  38.314  1.00  0.00    -0.369 N 
ATOM      2  H2  UNL     1      31.338  32.256  38.862  1.00  0.00     0.164 HD
HETATM    3  C5  UNL     1      29.457  32.456  38.918  1.00  0.00     0.072 C 
HETATM    4  C6  UNL     1      28.027  32.743  38.610  1.00  0.00     0.236 C 
HETATM    5  O2  UNL     1      27.483  31.468  38.913  1.00  0.00    -0.316 OA
HETATM    6  C7  UNL     1      28.028  31.136  40.153  1.00  0.00     0.286 C 
HETATM    7  O3  UNL     1      28.855  29.992  40.115  1.00  0.00    -0.358 OA
HETATM    8  C8  UNL     1      29.971  30.680  40.653  1.00  0.00     0.197 C 
HETATM    9  C9  UNL     1      29.314  31.926  40.300  1.00  0.00     0.133 C 
HETATM   10  C10 UNL     1      29.257  33.077  41.232  1.00  0.00     0.209 C 
HETATM   11  C11 UNL     1      28.377  34.143  40.674  1.00  0.00     0.216 C 
HETATM   12  C12 UNL     1      27.425  33.684  39.610  1.00  0.00     0.234 C 
ENDROOT
BRANCH   1  13
HETATM   13  C4  UNL     1      30.878  33.026  37.042  1.00  0.00     0.088 C 
BRANCH  13  14
HETATM   14  C3  UNL     1      30.884  31.933  35.985  1.00  0.00     0.276 C 
BRANCH  14  15
HETATM   15  N1  UNL     1      29.599  31.794  35.352  1.00  0.00    -0.071 N 
ATOM     16  H12 UNL     1      29.559  32.350  34.498  1.00  0.00     0.277 HD
ATOM     17  H11 UNL     1      28.878  32.265  35.898  1.00  0.00     0.277 HD
BRANCH  15  18
HETATM   18  C2  UNL     1      29.222  30.436  35.087  1.00  0.00     0.228 C 
HETATM   19  C1  UNL     1      29.085  29.700  36.410  1.00  0.00     0.034 C 
ENDBRANCH  15  18
ENDBRANCH  14  15
ENDBRANCH  13  14
ENDBRANCH   1  13
BRANCH   4  20
HETATM   20  O1  UNL     1      27.807  33.052  37.296  1.00  0.00    -0.359 OA
ATOM     21  H1  UNL     1      27.008  33.547  37.154  1.00  0.00     0.213 HD
ENDBRANCH   4  20
BRANCH  12  22
HETATM   22  O7  UNL     1      26.963  34.829  38.924  1.00  0.00    -0.309 OA
BRANCH  22  23
HETATM   23  C13 UNL     1      25.760  34.887  38.239  1.00  0.00     0.252 C 
HETATM   24  N3  UNL     1      24.576  34.562  38.932  1.00  0.00    -0.054 NA
HETATM   25  N4  UNL     1      25.823  35.239  36.998  1.00  0.00    -0.235 N 
ATOM     26  H4  UNL     1      26.710  35.463  36.547  1.00  0.00     0.197 HD
BRANCH  25  27
HETATM   27  O8  UNL     1      24.626  35.296  36.313  1.00  0.00    -0.287 OA
ATOM     28  H8  UNL     1      24.677  35.512  35.389  1.00  0.00     0.244 HD
ENDBRANCH  25  27
ENDBRANCH  22  23
ENDBRANCH  12  22
BRANCH  10  29
HETATM   29  O4  UNL     1      28.897  32.674  42.518  1.00  0.00    -0.362 OA
ATOM     30  H4  UNL     1      28.032  32.283  42.530  1.00  0.00     0.213 HD
ENDBRANCH  10  29
BRANCH  10  31
HETATM   31  O5  UNL     1      30.557  33.605  41.341  1.00  0.00    -0.362 OA
ATOM     32  H5  UNL     1      30.878  33.406  42.213  1.00  0.00     0.213 HD
ENDBRANCH  10  31
BRANCH  11  33
HETATM   33  O6  UNL     1      27.609  34.655  41.721  1.00  0.00    -0.387 OA
ATOM     34  H6  UNL     1      26.954  35.234  41.347  1.00  0.00     0.210 HD
ENDBRANCH  11  33
TORSDOF 11
ENDMDL
MODEL 5
REMARK VINA RESULT: -5.143607445      2.196      4.454
REMARK  11 active torsions:
REMARK  status: ('A' for Active; 'I' for Inactive)
REMARK    1  A    between atoms: C2_2  and  N1_3 
REMARK    2  A    between atoms: N1_3  and  C3_6 
REMARK    3  A    between atoms: C3_6  and  C4_7 
REMARK    4  A    between atoms: C4_7  and  N2_8 
REMARK    5  A    between atoms: C6_11  and  O1_12 
REMARK    6  A    between atoms: C10_19  and  O4_20 
REMARK    7  A    between atoms: C10_19  and  O5_22 
REMARK    8  A    between atoms: C11_24  and  O6_25 
REMARK    9  A    between atoms: C12_27  and  O7_28 
REMARK   10  A    between atoms: O7_28  and  C13_29 
REMARK   11  A    between atoms: N4_31  and  O8_33 
ROOT
HETATM    1  N2  UNL     1      30.688  31.381  39.497  1.00  0.00    -0.369 N 
ATOM      2  H2  UNL     1      31.592  31.715  39.833  1.00  0.00     0.164 HD
HETATM    3  C5  UNL     1      29.732  31.796  40.168  1.00  0.00     0.072 C 
HETATM    4  C6  UNL     1      28.251  31.631  40.131  1.00  0.00     0.236 C 
HETATM    5  O2  UNL     1      28.051  31.199  41.468  1.00  0.00    -0.316 OA
HETATM    6  C7  UNL     1      28.779  32.100  42.244  1.00  0.00     0.286 C 
HETATM    7  O3  UNL     1      29.841  31.499  42.954  1.00  0.00    -0.358 OA
HETATM    8  C8  UNL     1      30.815  32.360  42.390  1.00  0.00     0.197 C 
HETATM    9  C9  UNL     1      29.856  32.688  41.351  1.00  0.00     0.133 C 
HETATM   10  C10 UNL     1      29.627  34.082  40.903  1.00  0.00     0.209 C 
HETATM   11  C11 UNL     1      28.472  34.134  39.962  1.00  0.00     0.216 C 
HETATM   12  C12 UNL     1      27.551  32.952  40.027  1.00  0.00     0.234 C 
ENDROOT
BRANCH   1  13
HETATM   13  C4  UNL     1      30.787  30.553  38.378  1.00  0.00     0.088 C 
BRANCH  13  14
HETATM   14  C3  UNL     1      30.464  31.261  37.071  1.00  0.00     0.276 C 
BRANCH  14  15
HETATM   15  N1  UNL     1      29.155  30.913  36.584  1.00  0.00    -0.071 N 
ATOM     16  H12 UNL     1      28.614  31.754  36.382  1.00  0.00     0.277 HD
ATOM     17  H11 UNL     1      28.587  30.519  37.334  1.00  0.00     0.277 HD
BRANCH  15  18
HETATM   18  C2  UNL     1      29.166  30.038  35.449  1.00  0.00     0.228 C 
HETATM   19  C1  UNL     1      28.854  28.626  35.918  1.00  0.00     0.034 C 
ENDBRANCH  15  18
ENDBRANCH  14  15
ENDBRANCH  13  14
ENDBRANCH   1  13
BRANCH   4  20
HETATM   20  O1  UNL     1      27.834  30.667  39.255  1.00  0.00    -0.359 OA
ATOM     21  H1  UNL     1      26.890  30.632  39.155  1.00  0.00     0.213 HD
ENDBRANCH   4  20
BRANCH  12  22
HETATM   22  O7  UNL     1      26.769  32.952  38.850  1.00  0.00    -0.309 OA
BRANCH  22  23
HETATM   23  C13 UNL     1      26.048  34.047  38.401  1.00  0.00     0.252 C 
HETATM   24  N3  UNL     1      24.946  34.484  39.163  1.00  0.00    -0.054 NA
HETATM   25  N4  UNL     1      26.453  34.587  37.299  1.00  0.00    -0.235 N 
ATOM     26  H4  UNL     1      27.259  34.227  36.789  1.00  0.00     0.197 HD
BRANCH  25  27
HETATM   27  O8  UNL     1      25.737  35.678  36.849  1.00  0.00    -0.287 OA
ATOM     28  H8  UNL     1      25.530  35.695  35.922  1.00  0.00     0.244 HD
ENDBRANCH  25  27
ENDBRANCH  22  23
ENDBRANCH  12  22
BRANCH  10  29
HETATM   29  O4  UNL     1      29.501  34.952  41.987  1.00  0.00    -0.362 OA
ATOM     30  H4  UNL     1      28.828  35.604  41.833  1.00  0.00     0.213 HD
ENDBRANCH  10  29
BRANCH  10  31
HETATM   31  O5  UNL     1      30.773  34.501  40.203  1.00  0.00    -0.362 OA
ATOM     32  H5  UNL     1      30.801  34.025  39.382  1.00  0.00     0.213 HD
ENDBRANCH  10  31
BRANCH  11  33
HETATM   33  O6  UNL     1      27.714  35.265  40.275  1.00  0.00    -0.387 OA
ATOM     34  H6  UNL     1      27.712  35.834  39.513  1.00  0.00     0.210 HD
ENDBRANCH  11  33
TORSDOF 11
ENDMDL
