MODEL 1
REMARK VINA RESULT: -5.958640800      0.000      0.000
REMARK  10 active torsions:
REMARK  status: ('A' for Active; 'I' for Inactive)
REMARK    1  A    between atoms: N1_1  and  C1_5 
REMARK    2  A    between atoms: C3_7  and  N2_8 
REMARK    3  A    between atoms: C4_12  and  O1_13 
REMARK    4  A    between atoms: O1_13  and  C5_14 
REMARK    5  A    between atoms: C6_16  and  O3_17 
REMARK    6  A    between atoms: C7_19  and  O4_20 
REMARK    7  A    between atoms: C9_23  and  N3_24 
REMARK    8  A    between atoms: C11_29  and  O5_30 
REMARK    9  A    between atoms: O5_30  and  C12_31 
REMARK   10  A    between atoms: C14_34  and  O7_35 
ROOT
HETATM    1  C1  UNL     1      30.036  33.568  40.493  1.00  0.00     0.214 C 
HETATM    2  C2  UNL     1      30.518  32.941  41.781  1.00  0.00     0.070 C 
HETATM    3  C3  UNL     1      29.594  31.894  42.304  1.00  0.00     0.214 C 
HETATM    4  C4  UNL     1      28.704  31.303  41.233  1.00  0.00     0.157 C 
HETATM    5  C10 UNL     1      27.910  32.339  40.506  1.00  0.00     0.068 C 
HETATM    6  C11 UNL     1      28.535  33.715  40.581  1.00  0.00     0.160 C 
ENDROOT
BRANCH   4   7
HETATM    7  O1  UNL     1      29.468  30.508  40.370  1.00  0.00    -0.352 OA
BRANCH   7   8
HETATM    8  C5  UNL     1      28.885  30.390  39.108  1.00  0.00     0.293 C 
HETATM    9  O2  UNL     1      27.849  29.475  39.088  1.00  0.00    -0.327 OA
HETATM   10  C6  UNL     1      28.207  28.180  39.275  1.00  0.00     0.288 C 
HETATM   11  C7  UNL     1      29.613  27.837  38.916  1.00  0.00     0.175 C 
HETATM   12  C8  UNL     1      30.067  28.656  37.729  1.00  0.00     0.074 C 
HETATM   13  C9  UNL     1      29.946  30.104  38.071  1.00  0.00     0.240 C 
BRANCH  10  14
HETATM   14  O3  UNL     1      27.363  27.382  38.468  1.00  0.00    -0.369 OA
ATOM     15  H3  UNL     1      27.403  27.727  37.583  1.00  0.00     0.212 HD
ENDBRANCH  10  14
BRANCH  11  16
HETATM   16  O4  UNL     1      29.653  26.497  38.523  1.00  0.00    -0.391 OA
ATOM     17  H4  UNL     1      29.045  26.379  37.802  1.00  0.00     0.210 HD
ENDBRANCH  11  16
BRANCH  13  18
HETATM   18  N3  UNL     1      29.680  30.874  36.858  1.00  0.00    -0.070 N 
ATOM     19  H33 UNL     1      28.806  30.594  36.412  1.00  0.00     0.274 HD
ATOM     20  H32 UNL     1      29.438  31.843  37.066  1.00  0.00     0.274 HD
ATOM     21  H31 UNL     1      30.474  30.807  36.222  1.00  0.00     0.274 HD
ENDBRANCH  13  18
ENDBRANCH   7   8
ENDBRANCH   4   7
BRANCH   3  22
HETATM   22  N2  UNL     1      28.786  32.340  43.400  1.00  0.00    -0.072 N 
ATOM     23  H23 UNL     1      29.270  32.197  44.287  1.00  0.00     0.274 HD
ATOM     24  H22 UNL     1      28.717  33.357  43.407  1.00  0.00     0.274 HD
ATOM     25  H21 UNL     1      27.860  31.914  43.422  1.00  0.00     0.274 HD
ENDBRANCH   3  22
BRANCH   6  26
HETATM   26  O5  UNL     1      28.040  34.504  39.565  1.00  0.00    -0.331 OA
BRANCH  26  27
HETATM   27  C12 UNL     1      26.964  33.929  38.894  1.00  0.00     0.415 C 
HETATM   28  O6  UNL     1      25.746  34.324  39.408  1.00  0.00    -0.334 OA
HETATM   29  C13 UNL     1      24.852  34.372  38.332  1.00  0.00     0.234 C 
HETATM   30  C14 UNL     1      25.774  34.772  37.200  1.00  0.00     0.286 C 
HETATM   31  O8  UNL     1      27.022  34.320  37.572  1.00  0.00    -0.306 OA
BRANCH  30  32
HETATM   32  O7  UNL     1      25.715  36.160  37.059  1.00  0.00    -0.369 OA
ATOM     33  H7  UNL     1      26.573  36.468  36.792  1.00  0.00     0.212 HD
ENDBRANCH  30  32
ENDBRANCH  26  27
ENDBRANCH   6  26
BRANCH   1  34
HETATM   34  N1  UNL     1      30.672  34.874  40.398  1.00  0.00    -0.072 N 
ATOM     35  H13 UNL     1      31.691  34.826  40.390  1.00  0.00     0.274 HD
ATOM     36  H12 UNL     1      30.557  35.311  39.483  1.00  0.00     0.274 HD
ATOM     37  H11 UNL     1      30.302  35.439  41.162  1.00  0.00     0.274 HD
ENDBRANCH   1  34
TORSDOF 10
ENDMDL
MODEL 2
REMARK VINA RESULT: -5.919735269      3.021      7.338
REMARK  10 active torsions:
REMARK  status: ('A' for Active; 'I' for Inactive)
REMARK    1  A    between atoms: N1_1  and  C1_5 
REMARK    2  A    between atoms: C3_7  and  N2_8 
REMARK    3  A    between atoms: C4_12  and  O1_13 
REMARK    4  A    between atoms: O1_13  and  C5_14 
REMARK    5  A    between atoms: C6_16  and  O3_17 
REMARK    6  A    between atoms: C7_19  and  O4_20 
REMARK    7  A    between atoms: C9_23  and  N3_24 
REMARK    8  A    between atoms: C11_29  and  O5_30 
REMARK    9  A    between atoms: O5_30  and  C12_31 
REMARK   10  A    between atoms: C14_34  and  O7_35 
ROOT
HETATM    1  C1  UNL     1      30.365  27.127  38.828  1.00  0.00     0.214 C 
HETATM    2  C2  UNL     1      31.769  27.553  39.191  1.00  0.00     0.070 C 
HETATM    3  C3  UNL     1      32.147  28.875  38.613  1.00  0.00     0.214 C 
HETATM    4  C4  UNL     1      30.951  29.734  38.271  1.00  0.00     0.157 C 
HETATM    5  C10 UNL     1      29.994  29.051  37.348  1.00  0.00     0.068 C 
HETATM    6  C11 UNL     1      30.108  27.543  37.399  1.00  0.00     0.160 C 
ENDROOT
BRANCH   4   7
HETATM    7  O1  UNL     1      30.336  30.179  39.448  1.00  0.00    -0.352 OA
BRANCH   7   8
HETATM    8  C5  UNL     1      28.988  30.479  39.257  1.00  0.00     0.293 C 
HETATM    9  O2  UNL     1      28.741  31.839  39.278  1.00  0.00    -0.327 OA
HETATM   10  C6  UNL     1      28.924  32.450  40.476  1.00  0.00     0.288 C 
HETATM   11  C7  UNL     1      28.801  31.574  41.676  1.00  0.00     0.175 C 
HETATM   12  C8  UNL     1      27.754  30.508  41.444  1.00  0.00     0.074 C 
HETATM   13  C9  UNL     1      28.140  29.710  40.244  1.00  0.00     0.240 C 
BRANCH  10  14
HETATM   14  O3  UNL     1      27.942  33.461  40.595  1.00  0.00    -0.369 OA
ATOM     15  H3  UNL     1      27.759  33.576  41.520  1.00  0.00     0.212 HD
ENDBRANCH  10  14
BRANCH  11  16
HETATM   16  O4  UNL     1      28.355  32.353  42.747  1.00  0.00    -0.391 OA
ATOM     17  H4  UNL     1      27.653  31.886  43.185  1.00  0.00     0.210 HD
ENDBRANCH  11  16
BRANCH  13  18
HETATM   18  N3  UNL     1      26.939  29.204  39.583  1.00  0.00    -0.070 N 
ATOM     19  H33 UNL     1      27.149  28.791  38.674  1.00  0.00     0.274 HD
ATOM     20  H32 UNL     1      26.570  28.373  40.044  1.00  0.00     0.274 HD
ATOM     21  H31 UNL     1      26.241  29.945  39.514  1.00  0.00     0.274 HD
ENDBRANCH  13  18
ENDBRANCH   7   8
ENDBRANCH   4   7
BRANCH   3  22
HETATM   22  N2  UNL     1      33.003  28.774  37.469  1.00  0.00    -0.072 N 
ATOM     23  H23 UNL     1      33.359  27.823  37.366  1.00  0.00     0.274 HD
ATOM     24  H22 UNL     1      32.463  28.847  36.606  1.00  0.00     0.274 HD
ATOM     25  H21 UNL     1      33.769  29.447  37.474  1.00  0.00     0.274 HD
ENDBRANCH   3  22
BRANCH   6  26
HETATM   26  O5  UNL     1      28.954  26.975  36.902  1.00  0.00    -0.331 OA
BRANCH  26  27
HETATM   27  C12 UNL     1      29.183  26.084  35.858  1.00  0.00     0.415 C 
HETATM   28  O6  UNL     1      30.474  25.596  35.849  1.00  0.00    -0.334 OA
HETATM   29  C13 UNL     1      30.405  24.283  35.369  1.00  0.00     0.234 C 
HETATM   30  C14 UNL     1      29.048  23.852  35.882  1.00  0.00     0.286 C 
HETATM   31  O8  UNL     1      28.320  25.017  36.004  1.00  0.00    -0.306 OA
BRANCH  30  32
HETATM   32  O7  UNL     1      29.230  23.192  37.099  1.00  0.00    -0.369 OA
ATOM     33  H7  UNL     1      28.550  23.477  37.697  1.00  0.00     0.212 HD
ENDBRANCH  30  32
ENDBRANCH  26  27
ENDBRANCH   6  26
BRANCH   1  34
HETATM   34  N1  UNL     1      30.320  25.677  38.953  1.00  0.00    -0.072 N 
ATOM     35  H13 UNL     1      30.172  25.361  39.911  1.00  0.00     0.274 HD
ATOM     36  H12 UNL     1      29.478  25.265  38.550  1.00  0.00     0.274 HD
ATOM     37  H11 UNL     1      31.181  25.319  38.540  1.00  0.00     0.274 HD
ENDBRANCH   1  34
TORSDOF 10
ENDMDL
MODEL 3
REMARK VINA RESULT: -5.869787987      2.733      4.021
REMARK  10 active torsions:
REMARK  status: ('A' for Active; 'I' for Inactive)
REMARK    1  A    between atoms: N1_1  and  C1_5 
REMARK    2  A    between atoms: C3_7  and  N2_8 
REMARK    3  A    between atoms: C4_12  and  O1_13 
REMARK    4  A    between atoms: O1_13  and  C5_14 
REMARK    5  A    between atoms: C6_16  and  O3_17 
REMARK    6  A    between atoms: C7_19  and  O4_20 
REMARK    7  A    between atoms: C9_23  and  N3_24 
REMARK    8  A    between atoms: C11_29  and  O5_30 
REMARK    9  A    between atoms: O5_30  and  C12_31 
REMARK   10  A    between atoms: C14_34  and  O7_35 
ROOT
HETATM    1  C1  UNL     1      28.690  32.515  39.844  1.00  0.00     0.214 C 
HETATM    2  C2  UNL     1      29.255  33.005  38.531  1.00  0.00     0.070 C 
HETATM    3  C3  UNL     1      30.592  32.425  38.217  1.00  0.00     0.214 C 
HETATM    4  C4  UNL     1      30.857  31.124  38.939  1.00  0.00     0.157 C 
HETATM    5  C10 UNL     1      30.712  31.246  40.422  1.00  0.00     0.068 C 
HETATM    6  C11 UNL     1      29.831  32.407  40.829  1.00  0.00     0.160 C 
ENDROOT
BRANCH   4   7
HETATM    7  O1  UNL     1      30.051  30.112  38.402  1.00  0.00    -0.352 OA
BRANCH   7   8
HETATM    8  C5  UNL     1      29.502  29.296  39.390  1.00  0.00     0.293 C 
HETATM    9  O2  UNL     1      30.130  28.067  39.469  1.00  0.00    -0.327 OA
HETATM   10  C6  UNL     1      29.955  27.249  38.401  1.00  0.00     0.288 C 
HETATM   11  C7  UNL     1      28.728  27.494  37.591  1.00  0.00     0.175 C 
HETATM   12  C8  UNL     1      27.591  27.944  38.481  1.00  0.00     0.074 C 
HETATM   13  C9  UNL     1      28.007  29.184  39.200  1.00  0.00     0.240 C 
BRANCH  10  14
HETATM   14  O3  UNL     1      29.878  25.923  38.885  1.00  0.00    -0.369 OA
ATOM     15  H3  UNL     1      29.397  25.411  38.246  1.00  0.00     0.212 HD
ENDBRANCH  10  14
BRANCH  11  16
HETATM   16  O4  UNL     1      28.334  26.285  37.012  1.00  0.00    -0.391 OA
ATOM     17  H4  UNL     1      27.471  26.062  37.342  1.00  0.00     0.210 HD
ENDBRANCH  11  16
BRANCH  13  18
HETATM   18  N3  UNL     1      27.332  29.251  40.494  1.00  0.00    -0.070 N 
ATOM     19  H33 UNL     1      26.350  28.982  40.428  1.00  0.00     0.274 HD
ATOM     20  H32 UNL     1      27.646  28.517  41.129  1.00  0.00     0.274 HD
ATOM     21  H31 UNL     1      27.447  30.181  40.899  1.00  0.00     0.274 HD
ENDBRANCH  13  18
ENDBRANCH   7   8
ENDBRANCH   4   7
BRANCH   3  22
HETATM   22  N2  UNL     1      31.677  33.331  38.455  1.00  0.00    -0.072 N 
ATOM     23  H23 UNL     1      32.155  33.560  37.583  1.00  0.00     0.274 HD
ATOM     24  H22 UNL     1      31.328  34.256  38.705  1.00  0.00     0.274 HD
ATOM     25  H21 UNL     1      32.341  32.994  39.152  1.00  0.00     0.274 HD
ENDBRANCH   3  22
BRANCH   6  26
HETATM   26  O5  UNL     1      29.376  32.213  42.116  1.00  0.00    -0.331 OA
BRANCH  26  27
HETATM   27  C12 UNL     1      29.729  33.240  42.987  1.00  0.00     0.415 C 
HETATM   28  O6  UNL     1      30.700  34.070  42.464  1.00  0.00    -0.334 OA
HETATM   29  C13 UNL     1      30.440  35.353  42.956  1.00  0.00     0.234 C 
HETATM   30  C14 UNL     1      28.931  35.327  43.070  1.00  0.00     0.286 C 
HETATM   31  O8  UNL     1      28.604  33.998  43.239  1.00  0.00    -0.306 OA
BRANCH  30  32
HETATM   32  O7  UNL     1      28.395  35.876  41.904  1.00  0.00    -0.369 OA
ATOM     33  H7  UNL     1      28.075  35.167  41.360  1.00  0.00     0.212 HD
ENDBRANCH  30  32
ENDBRANCH  26  27
ENDBRANCH   6  26
BRANCH   1  34
HETATM   34  N1  UNL     1      27.727  33.513  40.287  1.00  0.00    -0.072 N 
ATOM     35  H13 UNL     1      27.641  34.300  39.644  1.00  0.00     0.274 HD
ATOM     36  H12 UNL     1      26.760  33.193  40.229  1.00  0.00     0.274 HD
ATOM     37  H11 UNL     1      28.003  33.792  41.228  1.00  0.00     0.274 HD
ENDBRANCH   1  34
TORSDOF 10
ENDMDL
MODEL 4
REMARK VINA RESULT: -5.814495214      2.808      3.973
REMARK  10 active torsions:
REMARK  status: ('A' for Active; 'I' for Inactive)
REMARK    1  A    between atoms: N1_1  and  C1_5 
REMARK    2  A    between atoms: C3_7  and  N2_8 
REMARK    3  A    between atoms: C4_12  and  O1_13 
REMARK    4  A    between atoms: O1_13  and  C5_14 
REMARK    5  A    between atoms: C6_16  and  O3_17 
REMARK    6  A    between atoms: C7_19  and  O4_20 
REMARK    7  A    between atoms: C9_23  and  N3_24 
REMARK    8  A    between atoms: C11_29  and  O5_30 
REMARK    9  A    between atoms: O5_30  and  C12_31 
REMARK   10  A    between atoms: C14_34  and  O7_35 
ROOT
HETATM    1  C1  UNL     1      28.926  31.233  41.401  1.00  0.00     0.214 C 
HETATM    2  C2  UNL     1      27.823  31.106  40.375  1.00  0.00     0.070 C 
HETATM    3  C3  UNL     1      28.334  30.970  38.980  1.00  0.00     0.214 C 
HETATM    4  C4  UNL     1      29.754  30.454  38.919  1.00  0.00     0.157 C 
HETATM    5  C10 UNL     1      30.707  31.290  39.710  1.00  0.00     0.068 C 
HETATM    6  C11 UNL     1      30.022  32.084  40.801  1.00  0.00     0.160 C 
ENDROOT
BRANCH   4   7
HETATM    7  O1  UNL     1      29.784  29.105  39.293  1.00  0.00    -0.352 OA
BRANCH   7   8
HETATM    8  C5  UNL     1      29.147  28.286  38.362  1.00  0.00     0.293 C 
HETATM    9  O2  UNL     1      29.029  26.980  38.800  1.00  0.00    -0.327 OA
HETATM   10  C6  UNL     1      30.194  26.294  38.921  1.00  0.00     0.288 C 
HETATM   11  C7  UNL     1      31.322  26.778  38.075  1.00  0.00     0.175 C 
HETATM   12  C8  UNL     1      30.803  27.297  36.753  1.00  0.00     0.074 C 
HETATM   13  C9  UNL     1      29.831  28.398  37.019  1.00  0.00     0.240 C 
BRANCH  10  14
HETATM   14  O3  UNL     1      29.941  24.953  38.552  1.00  0.00    -0.369 OA
ATOM     15  H3  UNL     1      30.689  24.434  38.825  1.00  0.00     0.212 HD
ENDBRANCH  10  14
BRANCH  11  16
HETATM   16  O4  UNL     1      32.152  25.692  37.786  1.00  0.00    -0.391 OA
ATOM     17  H4  UNL     1      32.615  25.877  36.977  1.00  0.00     0.210 HD
ENDBRANCH  11  16
BRANCH  13  18
HETATM   18  N3  UNL     1      28.833  28.440  35.952  1.00  0.00    -0.070 N 
ATOM     19  H33 UNL     1      28.523  27.507  35.682  1.00  0.00     0.274 HD
ATOM     20  H32 UNL     1      27.939  28.806  36.279  1.00  0.00     0.274 HD
ATOM     21  H31 UNL     1      29.195  28.968  35.158  1.00  0.00     0.274 HD
ENDBRANCH  13  18
ENDBRANCH   7   8
ENDBRANCH   4   7
BRANCH   3  22
HETATM   22  N2  UNL     1      28.232  32.177  38.215  1.00  0.00    -0.072 N 
ATOM     23  H23 UNL     1      27.514  32.790  38.601  1.00  0.00     0.274 HD
ATOM     24  H22 UNL     1      29.053  32.765  38.358  1.00  0.00     0.274 HD
ATOM     25  H21 UNL     1      28.072  32.015  37.221  1.00  0.00     0.274 HD
ENDBRANCH   3  22
BRANCH   6  26
HETATM   26  O5  UNL     1      30.949  32.462  41.749  1.00  0.00    -0.331 OA
BRANCH  26  27
HETATM   27  C12 UNL     1      31.017  33.840  41.934  1.00  0.00     0.415 C 
HETATM   28  O6  UNL     1      30.471  34.546  40.881  1.00  0.00    -0.334 OA
HETATM   29  C13 UNL     1      29.901  35.702  41.423  1.00  0.00     0.234 C 
HETATM   30  C14 UNL     1      29.465  35.206  42.785  1.00  0.00     0.286 C 
HETATM   31  O8  UNL     1      30.312  34.158  43.077  1.00  0.00    -0.306 OA
BRANCH  30  32
HETATM   32  O7  UNL     1      28.126  34.820  42.702  1.00  0.00    -0.369 OA
ATOM     33  H7  UNL     1      27.671  35.155  43.465  1.00  0.00     0.212 HD
ENDBRANCH  30  32
ENDBRANCH  26  27
ENDBRANCH   6  26
BRANCH   1  34
HETATM   34  N1  UNL     1      28.347  31.892  42.562  1.00  0.00    -0.072 N 
ATOM     35  H13 UNL     1      28.250  32.901  42.445  1.00  0.00     0.274 HD
ATOM     36  H12 UNL     1      27.357  31.682  42.692  1.00  0.00     0.274 HD
ATOM     37  H11 UNL     1      28.922  31.634  43.364  1.00  0.00     0.274 HD
ENDBRANCH   1  34
TORSDOF 10
ENDMDL
MODEL 5
REMARK VINA RESULT: -5.753760220      3.240      7.941
REMARK  10 active torsions:
REMARK  status: ('A' for Active; 'I' for Inactive)
REMARK    1  A    between atoms: N1_1  and  C1_5 
REMARK    2  A    between atoms: C3_7  and  N2_8 
REMARK    3  A    between atoms: C4_12  and  O1_13 
REMARK    4  A    between atoms: O1_13  and  C5_14 
REMARK    5  A    between atoms: C6_16  and  O3_17 
REMARK    6  A    between atoms: C7_19  and  O4_20 
REMARK    7  A    between atoms: C9_23  and  N3_24 
REMARK    8  A    between atoms: C11_29  and  O5_30 
REMARK    9  A    between atoms: O5_30  and  C12_31 
REMARK   10  A    between atoms: C14_34  and  O7_35 
ROOT
HETATM    1  C1  UNL     1      30.047  26.614  38.207  1.00  0.00     0.214 C 
HETATM    2  C2  UNL     1      31.247  27.533  38.203  1.00  0.00     0.070 C 
HETATM    3  C3  UNL     1      31.081  28.709  37.301  1.00  0.00     0.214 C 
HETATM    4  C4  UNL     1      29.633  29.035  37.016  1.00  0.00     0.157 C 
HETATM    5  C10 UNL     1      28.879  27.874  36.452  1.00  0.00     0.068 C 
HETATM    6  C11 UNL     1      29.512  26.544  36.796  1.00  0.00     0.160 C 
ENDROOT
BRANCH   4   7
HETATM    7  O1  UNL     1      29.030  29.559  38.167  1.00  0.00    -0.352 OA
BRANCH   7   8
HETATM    8  C5  UNL     1      29.344  30.904  38.360  1.00  0.00     0.293 C 
HETATM    9  O2  UNL     1      30.254  31.092  39.384  1.00  0.00    -0.327 OA
HETATM   10  C6  UNL     1      29.803  30.801  40.630  1.00  0.00     0.288 C 
HETATM   11  C7  UNL     1      28.326  30.876  40.819  1.00  0.00     0.175 C 
HETATM   12  C8  UNL     1      27.742  31.980  39.967  1.00  0.00     0.074 C 
HETATM   13  C9  UNL     1      28.080  31.711  38.538  1.00  0.00     0.240 C 
BRANCH  10  14
HETATM   14  O3  UNL     1      30.386  31.729  41.524  1.00  0.00    -0.369 OA
ATOM     15  H3  UNL     1      30.446  32.563  41.073  1.00  0.00     0.212 HD
ENDBRANCH  10  14
BRANCH  11  16
HETATM   16  O4  UNL     1      28.069  31.213  42.150  1.00  0.00    -0.391 OA
ATOM     17  H4  UNL     1      28.331  32.117  42.286  1.00  0.00     0.210 HD
ENDBRANCH  11  16
BRANCH  13  18
HETATM   18  N3  UNL     1      28.188  32.975  37.813  1.00  0.00    -0.070 N 
ATOM     19  H33 UNL     1      27.798  32.911  36.872  1.00  0.00     0.274 HD
ATOM     20  H32 UNL     1      27.559  33.686  38.187  1.00  0.00     0.274 HD
ATOM     21  H31 UNL     1      29.158  33.290  37.805  1.00  0.00     0.274 HD
ENDBRANCH  13  18
ENDBRANCH   7   8
ENDBRANCH   4   7
BRANCH   3  22
HETATM   22  N2  UNL     1      31.793  28.584  36.063  1.00  0.00    -0.072 N 
ATOM     23  H23 UNL     1      32.509  27.860  36.130  1.00  0.00     0.274 HD
ATOM     24  H22 UNL     1      31.198  28.169  35.345  1.00  0.00     0.274 HD
ATOM     25  H21 UNL     1      32.196  29.462  35.736  1.00  0.00     0.274 HD
ENDBRANCH   3  22
BRANCH   6  26
HETATM   26  O5  UNL     1      28.580  25.538  36.654  1.00  0.00    -0.331 OA
BRANCH  26  27
HETATM   27  C12 UNL     1      29.008  24.500  35.832  1.00  0.00     0.415 C 
HETATM   28  O6  UNL     1      30.334  24.623  35.468  1.00  0.00    -0.334 OA
HETATM   29  C13 UNL     1      30.843  23.325  35.360  1.00  0.00     0.234 C 
HETATM   30  C14 UNL     1      30.033  22.600  36.414  1.00  0.00     0.286 C 
HETATM   31  O8  UNL     1      28.858  23.314  36.520  1.00  0.00    -0.306 OA
BRANCH  30  32
HETATM   32  O7  UNL     1      30.771  22.583  37.598  1.00  0.00    -0.369 OA
ATOM     33  H7  UNL     1      30.198  22.306  38.303  1.00  0.00     0.212 HD
ENDBRANCH  30  32
ENDBRANCH  26  27
ENDBRANCH   6  26
BRANCH   1  34
HETATM   34  N1  UNL     1      30.519  25.307  38.639  1.00  0.00    -0.072 N 
ATOM     35  H13 UNL     1      30.351  25.126  39.629  1.00  0.00     0.274 HD
ATOM     36  H12 UNL     1      29.961  24.536  38.271  1.00  0.00     0.274 HD
ATOM     37  H11 UNL     1      31.504  25.249  38.381  1.00  0.00     0.274 HD
ENDBRANCH   1  34
TORSDOF 10
ENDMDL
