MODEL 1
REMARK VINA RESULT: -5.690163538      0.000      0.000
REMARK  1 active torsions:
REMARK  status: ('A' for Active; 'I' for Inactive)
REMARK    1  A    between atoms: N2_6  and  C4_8 
ROOT
HETATM    1  C1  UNL     1      18.741  11.200  -0.542  1.00  0.00     0.089 C 
HETATM    2  C2  UNL     1      17.331  10.825  -0.811  1.00  0.00     0.078 A 
HETATM    3  N1  UNL     1      16.490  10.676   0.229  1.00  0.00    -0.332 N 
ATOM      4  H1  UNL     1      16.846  10.825   1.173  1.00  0.00     0.168 HD
HETATM    5  C3  UNL     1      15.200  10.339   0.069  1.00  0.00     0.110 A 
HETATM    6  N2  UNL     1      14.367  10.188   1.037  1.00  0.00    -0.372 N 
ATOM      7  H2  UNL     1      13.410   9.930   0.794  1.00  0.00     0.161 HD
HETATM    8  C7  UNL     1      14.753  10.146  -1.217  1.00  0.00     0.004 A 
HETATM    9  C8  UNL     1      13.354   9.777  -1.451  1.00  0.00     0.054 C 
HETATM   10  C9  UNL     1      15.593  10.290  -2.323  1.00  0.00     0.016 A 
HETATM   11  C10 UNL     1      15.075  10.073  -3.700  1.00  0.00     0.069 C 
HETATM   12  N3  UNL     1      16.866  10.630  -2.057  1.00  0.00    -0.349 N 
ATOM     13  H3  UNL     1      17.510  10.745  -2.840  1.00  0.00     0.167 HD
ENDROOT
BRANCH   6  14
HETATM   14  C4  UNL     1      14.665  10.350   2.424  1.00  0.00     0.075 C 
HETATM   15  C5  UNL     1      14.650   8.949   3.050  1.00  0.00     0.031 C 
HETATM   16  C6  UNL     1      13.574  11.199   3.052  1.00  0.00     0.031 C 
ENDBRANCH   6  14
TORSDOF 1
ENDMDL
MODEL 2
REMARK VINA RESULT: -5.587786569      1.362      3.046
REMARK  1 active torsions:
REMARK  status: ('A' for Active; 'I' for Inactive)
REMARK    1  A    between atoms: N2_6  and  C4_8 
ROOT
HETATM    1  C1  UNL     1      15.125  10.023  -3.403  1.00  0.00     0.089 C 
HETATM    2  C2  UNL     1      15.694  10.223  -2.047  1.00  0.00     0.078 A 
HETATM    3  N1  UNL     1      14.911   9.997  -0.976  1.00  0.00    -0.332 N 
ATOM      4  H1  UNL     1      13.948   9.694  -1.127  1.00  0.00     0.168 HD
HETATM    5  C3  UNL     1      15.351  10.155   0.283  1.00  0.00     0.110 A 
HETATM    6  N2  UNL     1      14.633   9.948   1.331  1.00  0.00    -0.372 N 
ATOM      7  H2  UNL     1      15.076  10.100   2.237  1.00  0.00     0.161 HD
HETATM    8  C7  UNL     1      16.653  10.564   0.450  1.00  0.00     0.004 A 
HETATM    9  C8  UNL     1      17.186  10.752   1.802  1.00  0.00     0.054 C 
HETATM   10  C9  UNL     1      17.497  10.809  -0.634  1.00  0.00     0.016 A 
HETATM   11  C10 UNL     1      18.900  11.251  -0.416  1.00  0.00     0.069 C 
HETATM   12  N3  UNL     1      16.963  10.622  -1.852  1.00  0.00    -0.349 N 
ATOM     13  H3  UNL     1      17.550  10.791  -2.670  1.00  0.00     0.167 HD
ENDROOT
BRANCH   6  14
HETATM   14  C4  UNL     1      13.271   9.523   1.334  1.00  0.00     0.075 C 
HETATM   15  C5  UNL     1      12.493  10.523   2.199  1.00  0.00     0.031 C 
HETATM   16  C6  UNL     1      13.201   8.144   1.967  1.00  0.00     0.031 C 
ENDBRANCH   6  14
TORSDOF 1
ENDMDL
MODEL 3
REMARK VINA RESULT: -5.433129058      1.538      3.699
REMARK  1 active torsions:
REMARK  status: ('A' for Active; 'I' for Inactive)
REMARK    1  A    between atoms: N2_6  and  C4_8 
ROOT
HETATM    1  C1  UNL     1      12.812  10.304   2.204  1.00  0.00     0.089 C 
HETATM    2  C2  UNL     1      13.683  10.236   1.006  1.00  0.00     0.078 A 
HETATM    3  N1  UNL     1      15.013  10.366   1.164  1.00  0.00    -0.332 N 
ATOM      4  H1  UNL     1      15.385  10.509   2.103  1.00  0.00     0.168 HD
HETATM    5  C3  UNL     1      15.870  10.316   0.130  1.00  0.00     0.110 A 
HETATM    6  N2  UNL     1      17.145  10.436   0.241  1.00  0.00    -0.372 N 
ATOM      7  H2  UNL     1      17.696  10.380  -0.615  1.00  0.00     0.161 HD
HETATM    8  C7  UNL     1      15.335  10.123  -1.123  1.00  0.00     0.004 A 
HETATM    9  C8  UNL     1      16.223  10.059  -2.287  1.00  0.00     0.054 C 
HETATM   10  C9  UNL     1      13.962   9.983  -1.329  1.00  0.00     0.016 A 
HETATM   11  C10 UNL     1      13.420   9.776  -2.698  1.00  0.00     0.069 C 
HETATM   12  N3  UNL     1      13.191  10.048  -0.231  1.00  0.00    -0.349 N 
ATOM     13  H3  UNL     1      12.181   9.950  -0.342  1.00  0.00     0.167 HD
ENDROOT
BRANCH   6  14
HETATM   14  C4  UNL     1      17.858  10.639   1.461  1.00  0.00     0.075 C 
HETATM   15  C5  UNL     1      18.047  12.153   1.620  1.00  0.00     0.031 C 
HETATM   16  C6  UNL     1      19.215   9.969   1.340  1.00  0.00     0.031 C 
ENDBRANCH   6  14
TORSDOF 1
ENDMDL
MODEL 4
REMARK VINA RESULT: -5.423955891      2.881      4.209
REMARK  1 active torsions:
REMARK  status: ('A' for Active; 'I' for Inactive)
REMARK    1  A    between atoms: N2_6  and  C4_8 
ROOT
HETATM    1  C1  UNL     1      17.867   9.724   3.042  1.00  0.00     0.089 C 
HETATM    2  C2  UNL     1      16.393   9.592   2.937  1.00  0.00     0.078 A 
HETATM    3  N1  UNL     1      15.675   9.426   4.063  1.00  0.00    -0.332 N 
ATOM      4  H1  UNL     1      16.165   9.396   4.958  1.00  0.00     0.168 HD
HETATM    5  C3  UNL     1      14.338   9.300   4.053  1.00  0.00     0.110 A 
HETATM    6  N2  UNL     1      13.619   9.141   5.108  1.00  0.00    -0.372 N 
ATOM      7  H2  UNL     1      12.611   9.056   4.977  1.00  0.00     0.161 HD
HETATM    8  C7  UNL     1      13.710   9.345   2.831  1.00  0.00     0.004 A 
HETATM    9  C8  UNL     1      12.252   9.212   2.760  1.00  0.00     0.054 C 
HETATM   10  C9  UNL     1      14.417   9.515   1.640  1.00  0.00     0.016 A 
HETATM   11  C10 UNL     1      13.704   9.559   0.335  1.00  0.00     0.069 C 
HETATM   12  N3  UNL     1      15.750   9.632   1.757  1.00  0.00    -0.349 N 
ATOM     13  H3  UNL     1      16.302   9.759   0.908  1.00  0.00     0.167 HD
ENDROOT
BRANCH   6  14
HETATM   14  C4  UNL     1      14.110   9.072   6.446  1.00  0.00     0.075 C 
HETATM   15  C5  UNL     1      13.546   7.786   7.064  1.00  0.00     0.031 C 
HETATM   16  C6  UNL     1      13.585  10.275   7.211  1.00  0.00     0.031 C 
ENDBRANCH   6  14
TORSDOF 1
ENDMDL
MODEL 5
REMARK VINA RESULT: -5.417351684      4.718      7.201
REMARK  1 active torsions:
REMARK  status: ('A' for Active; 'I' for Inactive)
REMARK    1  A    between atoms: N2_6  and  C4_8 
ROOT
HETATM    1  C1  UNL     1      18.188   8.643   5.436  1.00  0.00     0.089 C 
HETATM    2  C2  UNL     1      16.778   8.634   5.896  1.00  0.00     0.078 A 
HETATM    3  N1  UNL     1      15.808   8.951   5.019  1.00  0.00    -0.332 N 
ATOM      4  H1  UNL     1      16.070   9.189   4.062  1.00  0.00     0.168 HD
HETATM    5  C3  UNL     1      14.508   8.967   5.357  1.00  0.00     0.110 A 
HETATM    6  N2  UNL     1      13.554   9.264   4.546  1.00  0.00    -0.372 N 
ATOM      7  H2  UNL     1      12.604   9.242   4.916  1.00  0.00     0.161 HD
HETATM    8  C7  UNL     1      14.190   8.641   6.654  1.00  0.00     0.004 A 
HETATM    9  C8  UNL     1      12.787   8.641   7.078  1.00  0.00     0.054 C 
HETATM   10  C9  UNL     1      15.165   8.307   7.594  1.00  0.00     0.016 A 
HETATM   11  C10 UNL     1      14.784   7.960   8.990  1.00  0.00     0.069 C 
HETATM   12  N3  UNL     1      16.436   8.320   7.158  1.00  0.00    -0.349 N 
ATOM     13  H3  UNL     1      17.177   8.080   7.816  1.00  0.00     0.167 HD
ENDROOT
BRANCH   6  14
HETATM   14  C4  UNL     1      13.710   9.623   3.174  1.00  0.00     0.075 C 
HETATM   15  C5  UNL     1      13.772  11.155   3.117  1.00  0.00     0.031 C 
HETATM   16  C6  UNL     1      12.491   9.136   2.410  1.00  0.00     0.031 C 
ENDBRANCH   6  14
TORSDOF 1
ENDMDL
