MODEL 1
REMARK VINA RESULT: -4.703478661      0.000      0.000
REMARK  1 active torsions:
REMARK  status: ('A' for Active; 'I' for Inactive)
REMARK    1  A    between atoms: N1_2  and  C2_5 
ROOT
HETATM    1  C2  UNL     1      14.567   9.814   9.412  1.00  0.00     0.237 C 
HETATM    2  C3  UNL     1      13.164   9.260   9.185  1.00  0.00     0.079 C 
HETATM    3  C4  UNL     1      13.095   8.862   7.734  1.00  0.00     0.267 C 
HETATM    4  C5  UNL     1      13.655   7.450   7.508  1.00  0.00     0.119 C 
HETATM    5  S1  UNL     1      15.431   7.798   7.864  1.00  0.00    -0.123 SA
HETATM    6  C6  UNL     1      15.196   9.608   8.075  1.00  0.00     0.346 C 
HETATM    7  N2  UNL     1      14.069   9.779   7.161  1.00  0.00     0.030 N 
HETATM    8  C7  UNL     1      14.403   9.461   5.800  1.00  0.00     0.358 C 
HETATM    9  O1  UNL     1      13.537  11.004   7.228  1.00  0.00    -0.063 OA
ENDROOT
BRANCH   1  10
HETATM   10  N1  UNL     1      14.566  11.211   9.727  1.00  0.00    -0.071 N 
HETATM   11  C1  UNL     1      13.623  11.481  10.766  1.00  0.00     0.267 C 
ATOM     12  H12 UNL     1      14.400  11.788   8.902  1.00  0.00     0.277 HD
ATOM     13  H11 UNL     1      15.499  11.549   9.961  1.00  0.00     0.277 HD
ENDBRANCH   1  10
TORSDOF 1
ENDMDL
MODEL 2
REMARK VINA RESULT: -4.595367933      1.513      3.429
REMARK  1 active torsions:
REMARK  status: ('A' for Active; 'I' for Inactive)
REMARK    1  A    between atoms: N1_2  and  C2_5 
ROOT
HETATM    1  C2  UNL     1      14.162   9.129   5.590  1.00  0.00     0.237 C 
HETATM    2  C3  UNL     1      15.471   9.372   6.333  1.00  0.00     0.079 C 
HETATM    3  C4  UNL     1      15.149   9.276   7.801  1.00  0.00     0.267 C 
HETATM    4  C5  UNL     1      15.176   7.821   8.294  1.00  0.00     0.119 C 
HETATM    5  S1  UNL     1      13.689   7.199   7.396  1.00  0.00    -0.123 SA
HETATM    6  C6  UNL     1      13.222   8.840   6.712  1.00  0.00     0.346 C 
HETATM    7  N2  UNL     1      13.748   9.672   7.791  1.00  0.00     0.030 N 
HETATM    8  C7  UNL     1      13.091   9.436   9.047  1.00  0.00     0.358 C 
HETATM    9  O1  UNL     1      13.715  10.976   7.495  1.00  0.00    -0.063 OA
ENDROOT
BRANCH   1  10
HETATM   10  N1  UNL     1      13.709  10.284   4.875  1.00  0.00    -0.071 N 
HETATM   11  C1  UNL     1      14.799  10.890   4.177  1.00  0.00     0.267 C 
ATOM     12  H12 UNL     1      13.231  10.946   5.485  1.00  0.00     0.277 HD
ATOM     13  H11 UNL     1      12.932  10.066   4.253  1.00  0.00     0.277 HD
ENDBRANCH   1  10
TORSDOF 1
ENDMDL
MODEL 3
REMARK VINA RESULT: -4.552908605      3.056      4.300
REMARK  1 active torsions:
REMARK  status: ('A' for Active; 'I' for Inactive)
REMARK    1  A    between atoms: N1_2  and  C2_5 
ROOT
HETATM    1  C2  UNL     1      14.754  10.477   5.701  1.00  0.00     0.237 C 
HETATM    2  C3  UNL     1      15.827   9.394   5.651  1.00  0.00     0.079 C 
HETATM    3  C4  UNL     1      16.012   9.049   4.196  1.00  0.00     0.267 C 
HETATM    4  C5  UNL     1      16.993  10.010   3.507  1.00  0.00     0.119 C 
HETATM    5  S1  UNL     1      15.958  11.536   3.548  1.00  0.00    -0.123 SA
HETATM    6  C6  UNL     1      14.478  10.703   4.253  1.00  0.00     0.346 C 
HETATM    7  N2  UNL     1      14.693   9.378   3.676  1.00  0.00     0.030 N 
HETATM    8  C7  UNL     1      14.643   9.381   2.240  1.00  0.00     0.358 C 
HETATM    9  O1  UNL     1      13.845   8.464   4.161  1.00  0.00    -0.063 OA
ENDROOT
BRANCH   1  10
HETATM   10  N1  UNL     1      13.555  10.037   6.350  1.00  0.00    -0.071 N 
HETATM   11  C1  UNL     1      13.555  10.450   7.718  1.00  0.00     0.267 C 
ATOM     12  H12 UNL     1      13.417   9.031   6.255  1.00  0.00     0.277 HD
ATOM     13  H11 UNL     1      12.719  10.350   5.858  1.00  0.00     0.277 HD
ENDBRANCH   1  10
TORSDOF 1
ENDMDL
MODEL 4
REMARK VINA RESULT: -4.540354072      1.712      2.103
REMARK  1 active torsions:
REMARK  status: ('A' for Active; 'I' for Inactive)
REMARK    1  A    between atoms: N1_2  and  C2_5 
ROOT
HETATM    1  C2  UNL     1      13.937  11.152   8.449  1.00  0.00     0.237 C 
HETATM    2  C3  UNL     1      14.878  10.252   9.242  1.00  0.00     0.079 C 
HETATM    3  C4  UNL     1      14.794   8.888   8.608  1.00  0.00     0.267 C 
HETATM    4  C5  UNL     1      15.740   8.763   7.405  1.00  0.00     0.119 C 
HETATM    5  S1  UNL     1      14.878   9.921   6.256  1.00  0.00    -0.123 SA
HETATM    6  C6  UNL     1      13.457  10.227   7.381  1.00  0.00     0.346 C 
HETATM    7  N2  UNL     1      13.446   8.933   8.059  1.00  0.00     0.030 N 
HETATM    8  C7  UNL     1      13.168   7.841   7.169  1.00  0.00     0.358 C 
HETATM    9  O1  UNL     1      12.603   8.905   9.097  1.00  0.00    -0.063 OA
ENDROOT
BRANCH   1  10
HETATM   10  N1  UNL     1      12.821  11.604   9.223  1.00  0.00    -0.071 N 
HETATM   11  C1  UNL     1      13.247  11.964  10.539  1.00  0.00     0.267 C 
ATOM     12  H12 UNL     1      12.066  10.918   9.241  1.00  0.00     0.277 HD
ATOM     13  H11 UNL     1      12.321  12.364   8.763  1.00  0.00     0.277 HD
ENDBRANCH   1  10
TORSDOF 1
ENDMDL
MODEL 5
REMARK VINA RESULT: -4.537870768      7.565      9.385
REMARK  1 active torsions:
REMARK  status: ('A' for Active; 'I' for Inactive)
REMARK    1  A    between atoms: N1_2  and  C2_5 
ROOT
HETATM    1  C2  UNL     1      13.289   9.665  -0.257  1.00  0.00     0.237 C 
HETATM    2  C3  UNL     1      13.044  10.962  -1.021  1.00  0.00     0.079 C 
HETATM    3  C4  UNL     1      14.261  11.186  -1.879  1.00  0.00     0.267 C 
HETATM    4  C5  UNL     1      14.166  10.422  -3.208  1.00  0.00     0.119 C 
HETATM    5  S1  UNL     1      14.306   8.704  -2.549  1.00  0.00    -0.123 SA
HETATM    6  C6  UNL     1      14.603   9.227  -0.812  1.00  0.00     0.346 C 
HETATM    7  N2  UNL     1      15.272  10.497  -1.089  1.00  0.00     0.030 N 
HETATM    8  C7  UNL     1      16.513  10.329  -1.793  1.00  0.00     0.358 C 
HETATM    9  O1  UNL     1      15.466  11.225   0.016  1.00  0.00    -0.063 OA
ENDROOT
BRANCH   1  10
HETATM   10  N1  UNL     1      13.413   9.869   1.154  1.00  0.00    -0.071 N 
HETATM   11  C1  UNL     1      13.602   8.618   1.819  1.00  0.00     0.267 C 
ATOM     12  H12 UNL     1      12.622  10.388   1.535  1.00  0.00     0.277 HD
ATOM     13  H11 UNL     1      14.152  10.535   1.379  1.00  0.00     0.277 HD
ENDBRANCH   1  10
TORSDOF 1
ENDMDL
