MODEL 1
REMARK VINA RESULT: -5.661249539      0.000      0.000
REMARK  2 active torsions:
REMARK  status: ('A' for Active; 'I' for Inactive)
REMARK    1  A    between atoms: C3_3  and  N1_6 
REMARK    2  A    between atoms: N1_6  and  C6_8 
ROOT
HETATM    1  C1  UNL     1      15.238   7.645   8.179  1.00  0.00     0.015 C 
HETATM    2  C2  UNL     1      14.695   8.676   8.488  1.00  0.00    -0.086 C 
HETATM    3  C3  UNL     1      14.013   9.942   8.846  1.00  0.00     0.087 C 
HETATM    4  C4  UNL     1      12.688   9.530   9.469  1.00  0.00     0.052 C 
HETATM    5  C5  UNL     1      14.901  10.656   9.841  1.00  0.00     0.052 C 
ENDROOT
BRANCH   3   6
HETATM    6  N1  UNL     1      13.855  10.715   7.663  1.00  0.00    -0.350 N 
ATOM      7  H1  UNL     1      13.750  11.727   7.749  1.00  0.00     0.163 HD
BRANCH   6   8
HETATM    8  C6  UNL     1      13.840  10.184   6.475  1.00  0.00     0.162 A 
HETATM    9  N2  UNL     1      12.948   9.385   5.887  1.00  0.00    -0.279 N 
HETATM   10  N3  UNL     1      13.168   8.994   4.697  1.00  0.00    -0.296 N 
ATOM     11  H2  UNL     1      12.105   9.094   6.382  1.00  0.00     0.189 HD
HETATM   12  C7  UNL     1      14.263   9.376   4.058  1.00  0.00     0.066 A 
ATOM     13  H3  UNL     1      12.497   8.383   4.232  1.00  0.00     0.187 HD
HETATM   14  C8  UNL     1      14.712   9.035   2.664  1.00  0.00     0.078 C 
HETATM   15  S1  UNL     1      15.015  10.358   5.255  1.00  0.00    -0.039 SA
ENDBRANCH   6   8
ENDBRANCH   3   6
TORSDOF 2
ENDMDL
MODEL 2
REMARK VINA RESULT: -5.552895344      2.811      3.402
REMARK  2 active torsions:
REMARK  status: ('A' for Active; 'I' for Inactive)
REMARK    1  A    between atoms: C3_3  and  N1_6 
REMARK    2  A    between atoms: N1_6  and  C6_8 
ROOT
HETATM    1  C1  UNL     1      12.832   9.875   9.615  1.00  0.00     0.015 C 
HETATM    2  C2  UNL     1      13.405   9.417   8.660  1.00  0.00    -0.086 C 
HETATM    3  C3  UNL     1      14.134   8.855   7.498  1.00  0.00     0.087 C 
HETATM    4  C4  UNL     1      14.376   7.392   7.836  1.00  0.00     0.052 C 
HETATM    5  C5  UNL     1      13.231   9.010   6.294  1.00  0.00     0.052 C 
ENDROOT
BRANCH   3   6
HETATM    6  N1  UNL     1      15.338   9.592   7.326  1.00  0.00    -0.350 N 
ATOM      7  H1  UNL     1      15.458  10.464   7.842  1.00  0.00     0.163 HD
BRANCH   6   8
HETATM    8  C6  UNL     1      16.294   9.198   6.534  1.00  0.00     0.162 A 
HETATM    9  N2  UNL     1      17.227   8.258   6.693  1.00  0.00    -0.279 N 
HETATM   10  N3  UNL     1      18.063   8.063   5.754  1.00  0.00    -0.296 N 
ATOM     11  H2  UNL     1      17.269   7.707   7.549  1.00  0.00     0.189 HD
HETATM   12  C7  UNL     1      18.004   8.781   4.643  1.00  0.00     0.066 A 
ATOM     13  H3  UNL     1      18.784   7.348   5.858  1.00  0.00     0.187 HD
HETATM   14  C8  UNL     1      18.883   8.713   3.426  1.00  0.00     0.078 C 
HETATM   15  S1  UNL     1      16.658   9.798   4.982  1.00  0.00    -0.039 SA
ENDBRANCH   6   8
ENDBRANCH   3   6
TORSDOF 2
ENDMDL
MODEL 3
REMARK VINA RESULT: -5.398151486      2.334      3.268
REMARK  2 active torsions:
REMARK  status: ('A' for Active; 'I' for Inactive)
REMARK    1  A    between atoms: C3_3  and  N1_6 
REMARK    2  A    between atoms: N1_6  and  C6_8 
ROOT
HETATM    1  C1  UNL     1      13.963   7.167   7.644  1.00  0.00     0.015 C 
HETATM    2  C2  UNL     1      14.067   8.052   6.832  1.00  0.00    -0.086 C 
HETATM    3  C3  UNL     1      14.168   9.143   5.835  1.00  0.00     0.087 C 
HETATM    4  C4  UNL     1      14.065  10.435   6.630  1.00  0.00     0.052 C 
HETATM    5  C5  UNL     1      15.517   9.004   5.164  1.00  0.00     0.052 C 
ENDROOT
BRANCH   3   6
HETATM    6  N1  UNL     1      13.116   8.986   4.891  1.00  0.00    -0.350 N 
ATOM      7  H1  UNL     1      12.241   8.558   5.197  1.00  0.00     0.163 HD
BRANCH   6   8
HETATM    8  C6  UNL     1      13.224   9.367   3.651  1.00  0.00     0.162 A 
HETATM    9  N2  UNL     1      13.307  10.586   3.116  1.00  0.00    -0.279 N 
HETATM   10  N3  UNL     1      13.406  10.694   1.852  1.00  0.00    -0.296 N 
ATOM     11  H2  UNL     1      13.292  11.416   3.708  1.00  0.00     0.189 HD
HETATM   12  C7  UNL     1      13.426   9.614   1.086  1.00  0.00     0.066 A 
ATOM     13  H3  UNL     1      13.471  11.619   1.426  1.00  0.00     0.187 HD
HETATM   14  C8  UNL     1      13.536   9.517  -0.409  1.00  0.00     0.078 C 
HETATM   15  S1  UNL     1      13.293   8.372   2.270  1.00  0.00    -0.039 SA
ENDBRANCH   6   8
ENDBRANCH   3   6
TORSDOF 2
ENDMDL
MODEL 4
REMARK VINA RESULT: -5.395940054      1.162      2.121
REMARK  2 active torsions:
REMARK  status: ('A' for Active; 'I' for Inactive)
REMARK    1  A    between atoms: C3_3  and  N1_6 
REMARK    2  A    between atoms: N1_6  and  C6_8 
ROOT
HETATM    1  C1  UNL     1      14.713  10.843  10.096  1.00  0.00     0.015 C 
HETATM    2  C2  UNL     1      14.535  10.255   9.059  1.00  0.00    -0.086 C 
HETATM    3  C3  UNL     1      14.330   9.551   7.771  1.00  0.00     0.087 C 
HETATM    4  C4  UNL     1      15.604   8.754   7.534  1.00  0.00     0.052 C 
HETATM    5  C5  UNL     1      13.129   8.648   7.948  1.00  0.00     0.052 C 
ENDROOT
BRANCH   3   6
HETATM    6  N1  UNL     1      14.087  10.524   6.762  1.00  0.00    -0.350 N 
ATOM      7  H1  UNL     1      13.794  11.460   7.044  1.00  0.00     0.163 HD
BRANCH   6   8
HETATM    8  C6  UNL     1      14.222  10.266   5.493  1.00  0.00     0.162 A 
HETATM    9  N2  UNL     1      13.520   9.472   4.684  1.00  0.00    -0.279 N 
HETATM   10  N3  UNL     1      13.860   9.390   3.461  1.00  0.00    -0.296 N 
ATOM     11  H2  UNL     1      12.725   8.940   5.039  1.00  0.00     0.189 HD
HETATM   12  C7  UNL     1      14.892  10.083   3.005  1.00  0.00     0.066 A 
ATOM     13  H3  UNL     1      13.335   8.787   2.828  1.00  0.00     0.187 HD
HETATM   14  C8  UNL     1      15.457  10.132   1.613  1.00  0.00     0.078 C 
HETATM   15  S1  UNL     1      15.396  10.898   4.434  1.00  0.00    -0.039 SA
ENDBRANCH   6   8
ENDBRANCH   3   6
TORSDOF 2
ENDMDL
MODEL 5
REMARK VINA RESULT: -5.395153157      1.908      2.945
REMARK  2 active torsions:
REMARK  status: ('A' for Active; 'I' for Inactive)
REMARK    1  A    between atoms: C3_3  and  N1_6 
REMARK    2  A    between atoms: N1_6  and  C6_8 
ROOT
HETATM    1  C1  UNL     1      13.171  10.945   8.772  1.00  0.00     0.015 C 
HETATM    2  C2  UNL     1      13.647  10.267   7.896  1.00  0.00    -0.086 C 
HETATM    3  C3  UNL     1      14.242   9.456   6.808  1.00  0.00     0.087 C 
HETATM    4  C4  UNL     1      15.705   9.278   7.184  1.00  0.00     0.052 C 
HETATM    5  C5  UNL     1      13.504   8.134   6.789  1.00  0.00     0.052 C 
ENDROOT
BRANCH   3   6
HETATM    6  N1  UNL     1      14.063  10.151   5.581  1.00  0.00    -0.350 N 
ATOM      7  H1  UNL     1      13.730  11.116   5.608  1.00  0.00     0.163 HD
BRANCH   6   8
HETATM    8  C6  UNL     1      14.308   9.607   4.424  1.00  0.00     0.162 A 
HETATM    9  N2  UNL     1      15.461   9.258   3.850  1.00  0.00    -0.279 N 
HETATM   10  N3  UNL     1      15.433   8.735   2.691  1.00  0.00    -0.296 N 
ATOM     11  H2  UNL     1      16.348   9.408   4.331  1.00  0.00     0.189 HD
HETATM   12  C7  UNL     1      14.279   8.542   2.070  1.00  0.00     0.066 A 
ATOM     13  H3  UNL     1      16.304   8.463   2.236  1.00  0.00     0.187 HD
HETATM   14  C8  UNL     1      14.023   7.946   0.714  1.00  0.00     0.078 C 
HETATM   15  S1  UNL     1      13.173   9.156   3.238  1.00  0.00    -0.039 SA
ENDBRANCH   6   8
ENDBRANCH   3   6
TORSDOF 2
ENDMDL
