MODEL 1
REMARK VINA RESULT: -5.693893538      0.000      0.000
REMARK  3 active torsions:
REMARK  status: ('A' for Active; 'I' for Inactive)
REMARK    1  A    between atoms: O1_3  and  N2_4 
REMARK    2  A    between atoms: N2_4  and  C2_6 
REMARK    3  A    between atoms: C2_6  and  N3_8 
ROOT
HETATM    1  N1  UNL     1      18.379  12.556  -0.297  1.00  0.00    -0.162 NA
HETATM    2  C1  UNL     1      17.613  12.251   0.529  1.00  0.00     0.253 C 
HETATM    3  O1  UNL     1      16.725  11.904   1.517  1.00  0.00    -0.157 OA
ENDROOT
BRANCH   3   4
HETATM    4  N2  UNL     1      16.153  10.659   1.456  1.00  0.00    -0.224 N 
ATOM      5  H2  UNL     1      16.729   9.871   1.752  1.00  0.00     0.198 HD
BRANCH   4   6
HETATM    6  C2  UNL     1      14.849  10.366   1.026  1.00  0.00     0.195 C 
HETATM    7  S1  UNL     1      13.654  10.313   2.154  1.00  0.00    -0.039 SA
BRANCH   6   8
HETATM    8  N3  UNL     1      14.560  10.120  -0.343  1.00  0.00    -0.357 N 
HETATM    9  C3  UNL     1      13.271  10.440  -0.859  1.00  0.00     0.125 C 
HETATM   10  C4  UNL     1      13.180   9.953  -2.291  1.00  0.00     0.020 C 
HETATM   11  C5  UNL     1      14.342  10.363  -3.139  1.00  0.00     0.003 C 
HETATM   12  C6  UNL     1      15.679  10.093  -2.536  1.00  0.00     0.020 C 
HETATM   13  C7  UNL     1      15.629   9.546  -1.143  1.00  0.00     0.125 C 
ENDBRANCH   6   8
ENDBRANCH   4   6
ENDBRANCH   3   4
TORSDOF 3
ENDMDL
MODEL 2
REMARK VINA RESULT: -5.660885123      0.594      1.560
REMARK  3 active torsions:
REMARK  status: ('A' for Active; 'I' for Inactive)
REMARK    1  A    between atoms: O1_3  and  N2_4 
REMARK    2  A    between atoms: N2_4  and  C2_6 
REMARK    3  A    between atoms: C2_6  and  N3_8 
ROOT
HETATM    1  N1  UNL     1      18.076  12.701  -0.325  1.00  0.00    -0.162 NA
HETATM    2  C1  UNL     1      17.666  11.986   0.502  1.00  0.00     0.253 C 
HETATM    3  O1  UNL     1      17.204  11.149   1.487  1.00  0.00    -0.157 OA
ENDROOT
BRANCH   3   4
HETATM    4  N2  UNL     1      16.438  10.075   1.109  1.00  0.00    -0.224 N 
ATOM      5  H2  UNL     1      16.880   9.157   1.148  1.00  0.00     0.198 HD
BRANCH   4   6
HETATM    6  C2  UNL     1      15.105  10.121   0.674  1.00  0.00     0.195 C 
HETATM    7  S1  UNL     1      13.916  10.076   1.809  1.00  0.00    -0.039 SA
BRANCH   6   8
HETATM    8  N3  UNL     1      14.780  10.203  -0.707  1.00  0.00    -0.357 N 
HETATM    9  C3  UNL     1      15.716   9.747  -1.680  1.00  0.00     0.125 C 
HETATM   10  C4  UNL     1      15.189  10.075  -3.062  1.00  0.00     0.020 C 
HETATM   11  C5  UNL     1      13.770   9.656  -3.277  1.00  0.00     0.003 C 
HETATM   12  C6  UNL     1      12.826  10.076  -2.201  1.00  0.00     0.020 C 
HETATM   13  C7  UNL     1      13.479  10.760  -1.039  1.00  0.00     0.125 C 
ENDBRANCH   6   8
ENDBRANCH   4   6
ENDBRANCH   3   4
TORSDOF 3
ENDMDL
MODEL 3
REMARK VINA RESULT: -5.474203484      1.635      2.237
REMARK  3 active torsions:
REMARK  status: ('A' for Active; 'I' for Inactive)
REMARK    1  A    between atoms: O1_3  and  N2_4 
REMARK    2  A    between atoms: N2_4  and  C2_6 
REMARK    3  A    between atoms: C2_6  and  N3_8 
ROOT
HETATM    1  N1  UNL     1      20.524  11.952   0.424  1.00  0.00    -0.162 NA
HETATM    2  C1  UNL     1      19.559  11.375   0.109  1.00  0.00     0.253 C 
HETATM    3  O1  UNL     1      18.437  10.685  -0.278  1.00  0.00    -0.157 OA
ENDROOT
BRANCH   3   4
HETATM    4  N2  UNL     1      17.240  11.354  -0.276  1.00  0.00    -0.224 N 
ATOM      5  H2  UNL     1      17.281  12.373  -0.327  1.00  0.00     0.198 HD
BRANCH   4   6
HETATM    6  C2  UNL     1      15.965  10.773  -0.211  1.00  0.00     0.195 C 
HETATM    7  S1  UNL     1      15.415  10.269   1.254  1.00  0.00    -0.039 SA
BRANCH   6   8
HETATM    8  N3  UNL     1      15.162  10.619  -1.375  1.00  0.00    -0.357 N 
HETATM    9  C3  UNL     1      15.743  10.099  -2.567  1.00  0.00     0.125 C 
HETATM   10  C4  UNL     1      14.720  10.171  -3.683  1.00  0.00     0.020 C 
HETATM   11  C5  UNL     1      13.385   9.610  -3.310  1.00  0.00     0.003 C 
HETATM   12  C6  UNL     1      12.840  10.109  -2.015  1.00  0.00     0.020 C 
HETATM   13  C7  UNL     1      13.767  11.011  -1.261  1.00  0.00     0.125 C 
ENDBRANCH   6   8
ENDBRANCH   4   6
ENDBRANCH   3   4
TORSDOF 3
ENDMDL
MODEL 4
REMARK VINA RESULT: -5.423883418      2.194      3.657
REMARK  3 active torsions:
REMARK  status: ('A' for Active; 'I' for Inactive)
REMARK    1  A    between atoms: O1_3  and  N2_4 
REMARK    2  A    between atoms: N2_4  and  C2_6 
REMARK    3  A    between atoms: C2_6  and  N3_8 
ROOT
HETATM    1  N1  UNL     1      18.116  12.662  -0.263  1.00  0.00    -0.162 NA
HETATM    2  C1  UNL     1      17.848  11.526  -0.260  1.00  0.00     0.253 C 
HETATM    3  O1  UNL     1      17.554  10.185  -0.261  1.00  0.00    -0.157 OA
ENDROOT
BRANCH   3   4
HETATM    4  N2  UNL     1      16.372   9.787  -0.831  1.00  0.00    -0.224 N 
ATOM      5  H2  UNL     1      16.435   9.246  -1.693  1.00  0.00     0.198 HD
BRANCH   4   6
HETATM    6  C2  UNL     1      15.084  10.053  -0.340  1.00  0.00     0.195 C 
HETATM    7  S1  UNL     1      14.048  10.896  -1.298  1.00  0.00    -0.039 SA
BRANCH   6   8
HETATM    8  N3  UNL     1      14.677   9.609   0.948  1.00  0.00    -0.357 N 
HETATM    9  C3  UNL     1      14.971  10.406   2.092  1.00  0.00     0.125 C 
HETATM   10  C4  UNL     1      14.559   9.647   3.337  1.00  0.00     0.020 C 
HETATM   11  C5  UNL     1      13.174   9.089   3.269  1.00  0.00     0.003 C 
HETATM   12  C6  UNL     1      12.868   8.331   2.022  1.00  0.00     0.020 C 
HETATM   13  C7  UNL     1      13.969   8.341   1.007  1.00  0.00     0.125 C 
ENDBRANCH   6   8
ENDBRANCH   4   6
ENDBRANCH   3   4
TORSDOF 3
ENDMDL
MODEL 5
REMARK VINA RESULT: -5.402621856      2.392      3.398
REMARK  3 active torsions:
REMARK  status: ('A' for Active; 'I' for Inactive)
REMARK    1  A    between atoms: O1_3  and  N2_4 
REMARK    2  A    between atoms: N2_4  and  C2_6 
REMARK    3  A    between atoms: C2_6  and  N3_8 
ROOT
HETATM    1  N1  UNL     1      18.148  12.592  -0.159  1.00  0.00    -0.162 NA
HETATM    2  C1  UNL     1      17.878  11.556  -0.625  1.00  0.00     0.253 C 
HETATM    3  O1  UNL     1      17.583  10.332  -1.170  1.00  0.00    -0.157 OA
ENDROOT
BRANCH   3   4
HETATM    4  N2  UNL     1      16.679  10.289  -2.200  1.00  0.00    -0.224 N 
ATOM      5  H2  UNL     1      17.021  10.550  -3.125  1.00  0.00     0.198 HD
BRANCH   4   6
HETATM    6  C2  UNL     1      15.328   9.921  -2.103  1.00  0.00     0.195 C 
HETATM    7  S1  UNL     1      14.409   9.973  -3.466  1.00  0.00    -0.039 SA
BRANCH   6   8
HETATM    8  N3  UNL     1      14.759   9.513  -0.866  1.00  0.00    -0.357 N 
HETATM    9  C3  UNL     1      14.604   8.125  -0.586  1.00  0.00     0.125 C 
HETATM   10  C4  UNL     1      13.853   7.968   0.721  1.00  0.00     0.020 C 
HETATM   11  C5  UNL     1      14.405   8.799   1.834  1.00  0.00     0.003 C 
HETATM   12  C6  UNL     1      14.637  10.232   1.486  1.00  0.00     0.020 C 
HETATM   13  C7  UNL     1      14.368  10.570   0.052  1.00  0.00     0.125 C 
ENDBRANCH   6   8
ENDBRANCH   4   6
ENDBRANCH   3   4
TORSDOF 3
ENDMDL
