MODEL 1
REMARK VINA RESULT: -5.649483909      0.000      0.000
REMARK  2 active torsions:
REMARK  status: ('A' for Active; 'I' for Inactive)
REMARK    1  A    between atoms: C2_2  and  C3_3 
REMARK    2  A    between atoms: C6_8  and  N2_9 
ROOT
HETATM    1  C3  UNL     1      13.828   8.905   7.486  1.00  0.00     0.045 C 
HETATM    2  C4  UNL     1      13.734   7.418   7.371  1.00  0.00     0.040 C 
HETATM    3  C5  UNL     1      15.235   9.419   7.274  1.00  0.00     0.153 C 
HETATM    4  N1  UNL     1      15.302   9.519   5.833  1.00  0.00    -0.360 N 
ATOM      5  H1  UNL     1      16.173   9.553   5.301  1.00  0.00     0.162 HD
HETATM    6  C6  UNL     1      14.128   9.561   5.301  1.00  0.00     0.174 C 
HETATM    7  N3  UNL     1      13.152   9.491   6.351  1.00  0.00    -0.352 N 
ATOM      8  H3  UNL     1      12.179   9.793   6.304  1.00  0.00     0.163 HD
ENDROOT
BRANCH   6   9
HETATM    9  N2  UNL     1      13.793   9.659   3.921  1.00  0.00    -0.353 N 
HETATM   10  C7  UNL     1      13.205   8.581   3.119  1.00  0.00     0.126 C 
HETATM   11  C8  UNL     1      13.006   9.163   1.761  1.00  0.00     0.021 C 
HETATM   12  C9  UNL     1      12.857  10.658   2.065  1.00  0.00     0.021 C 
HETATM   13  C10 UNL     1      13.970  10.828   3.080  1.00  0.00     0.126 C 
ENDBRANCH   6   9
BRANCH   1  14
HETATM   14  C2  UNL     1      13.250   9.351   8.801  1.00  0.00     0.028 C 
HETATM   15  C1  UNL     1      13.196  10.860   8.906  1.00  0.00     0.007 C 
ENDBRANCH   1  14
TORSDOF 2
ENDMDL
MODEL 2
REMARK VINA RESULT: -5.630023115      1.128      1.392
REMARK  2 active torsions:
REMARK  status: ('A' for Active; 'I' for Inactive)
REMARK    1  A    between atoms: C2_2  and  C3_3 
REMARK    2  A    between atoms: C6_8  and  N2_9 
ROOT
HETATM    1  C3  UNL     1      14.005   9.664   7.366  1.00  0.00     0.045 C 
HETATM    2  C4  UNL     1      13.043   8.562   7.668  1.00  0.00     0.040 C 
HETATM    3  C5  UNL     1      15.426   9.172   7.207  1.00  0.00     0.153 C 
HETATM    4  N1  UNL     1      15.448   8.764   5.819  1.00  0.00    -0.360 N 
ATOM      5  H1  UNL     1      16.133   8.121   5.422  1.00  0.00     0.162 HD
HETATM    6  C6  UNL     1      14.495   9.312   5.146  1.00  0.00     0.174 C 
HETATM    7  N3  UNL     1      13.736  10.148   6.031  1.00  0.00    -0.352 N 
ATOM      8  H3  UNL     1      13.129  10.926   5.771  1.00  0.00     0.163 HD
ENDROOT
BRANCH   6   9
HETATM    9  N2  UNL     1      14.195   9.156   3.763  1.00  0.00    -0.353 N 
HETATM   10  C7  UNL     1      15.191   9.081   2.689  1.00  0.00     0.126 C 
HETATM   11  C8  UNL     1      14.407   8.886   1.435  1.00  0.00     0.021 C 
HETATM   12  C9  UNL     1      13.134   8.204   1.950  1.00  0.00     0.021 C 
HETATM   13  C10 UNL     1      12.870   9.044   3.183  1.00  0.00     0.126 C 
ENDBRANCH   6   9
BRANCH   1  14
HETATM   14  C2  UNL     1      13.889  10.741   8.410  1.00  0.00     0.028 C 
HETATM   15  C1  UNL     1      13.187  10.242   9.654  1.00  0.00     0.007 C 
ENDBRANCH   1  14
TORSDOF 2
ENDMDL
MODEL 3
REMARK VINA RESULT: -5.598005820      3.668      5.539
REMARK  2 active torsions:
REMARK  status: ('A' for Active; 'I' for Inactive)
REMARK    1  A    between atoms: C2_2  and  C3_3 
REMARK    2  A    between atoms: C6_8  and  N2_9 
ROOT
HETATM    1  C3  UNL     1      13.652   8.836   1.944  1.00  0.00     0.045 C 
HETATM    2  C4  UNL     1      13.578   7.366   1.682  1.00  0.00     0.040 C 
HETATM    3  C5  UNL     1      15.074   9.332   2.089  1.00  0.00     0.153 C 
HETATM    4  N1  UNL     1      15.457   9.550   0.711  1.00  0.00    -0.360 N 
ATOM      5  H1  UNL     1      16.423   9.607   0.388  1.00  0.00     0.162 HD
HETATM    6  C6  UNL     1      14.428   9.664  -0.058  1.00  0.00     0.174 C 
HETATM    7  N3  UNL     1      13.245   9.530   0.743  1.00  0.00    -0.352 N 
ATOM      8  H3  UNL     1      12.307   9.858   0.512  1.00  0.00     0.163 HD
ENDROOT
BRANCH   6   9
HETATM    9  N2  UNL     1      14.404   9.885  -1.464  1.00  0.00    -0.353 N 
HETATM   10  C7  UNL     1      15.591  10.017  -2.316  1.00  0.00     0.126 C 
HETATM   11  C8  UNL     1      15.067  10.201  -3.699  1.00  0.00     0.021 C 
HETATM   12  C9  UNL     1      13.705   9.500  -3.627  1.00  0.00     0.021 C 
HETATM   13  C10 UNL     1      13.218  10.017  -2.288  1.00  0.00     0.126 C 
ENDBRANCH   6   9
BRANCH   1  14
HETATM   14  C2  UNL     1      12.802   9.185   3.134  1.00  0.00     0.028 C 
HETATM   15  C1  UNL     1      13.551   8.989   4.434  1.00  0.00     0.007 C 
ENDBRANCH   1  14
TORSDOF 2
ENDMDL
MODEL 4
REMARK VINA RESULT: -5.582361290      1.144      1.311
REMARK  2 active torsions:
REMARK  status: ('A' for Active; 'I' for Inactive)
REMARK    1  A    between atoms: C2_2  and  C3_3 
REMARK    2  A    between atoms: C6_8  and  N2_9 
ROOT
HETATM    1  C3  UNL     1      13.938   9.730   7.521  1.00  0.00     0.045 C 
HETATM    2  C4  UNL     1      12.954   8.634   7.770  1.00  0.00     0.040 C 
HETATM    3  C5  UNL     1      15.368   9.238   7.504  1.00  0.00     0.153 C 
HETATM    4  N1  UNL     1      15.513   8.787   6.137  1.00  0.00    -0.360 N 
ATOM      5  H1  UNL     1      16.232   8.135   5.822  1.00  0.00     0.162 HD
HETATM    6  C6  UNL     1      14.623   9.311   5.365  1.00  0.00     0.174 C 
HETATM    7  N3  UNL     1      13.788  10.172   6.153  1.00  0.00    -0.352 N 
ATOM      8  H3  UNL     1      13.207  10.939   5.816  1.00  0.00     0.163 HD
ENDROOT
BRANCH   6   9
HETATM    9  N2  UNL     1      14.447   9.111   3.966  1.00  0.00    -0.353 N 
HETATM   10  C7  UNL     1      13.152   8.964   3.294  1.00  0.00     0.126 C 
HETATM   11  C8  UNL     1      13.473   8.812   1.846  1.00  0.00     0.021 C 
HETATM   12  C9  UNL     1      14.816   9.543   1.732  1.00  0.00     0.021 C 
HETATM   13  C10 UNL     1      15.503   9.019   2.977  1.00  0.00     0.126 C 
ENDBRANCH   6   9
BRANCH   1  14
HETATM   14  C2  UNL     1      13.730  10.839   8.516  1.00  0.00     0.028 C 
HETATM   15  C1  UNL     1      14.651  10.702   9.709  1.00  0.00     0.007 C 
ENDBRANCH   1  14
TORSDOF 2
ENDMDL
MODEL 5
REMARK VINA RESULT: -5.557350101      0.339      1.149
REMARK  2 active torsions:
REMARK  status: ('A' for Active; 'I' for Inactive)
REMARK    1  A    between atoms: C2_2  and  C3_3 
REMARK    2  A    between atoms: C6_8  and  N2_9 
ROOT
HETATM    1  C3  UNL     1      13.809   8.920   7.467  1.00  0.00     0.045 C 
HETATM    2  C4  UNL     1      13.710   7.433   7.360  1.00  0.00     0.040 C 
HETATM    3  C5  UNL     1      15.220   9.427   7.269  1.00  0.00     0.153 C 
HETATM    4  N1  UNL     1      15.307   9.518   5.828  1.00  0.00    -0.360 N 
ATOM      5  H1  UNL     1      16.184   9.545   5.308  1.00  0.00     0.162 HD
HETATM    6  C6  UNL     1      14.140   9.561   5.282  1.00  0.00     0.174 C 
HETATM    7  N3  UNL     1      13.150   9.501   6.319  1.00  0.00    -0.352 N 
ATOM      8  H3  UNL     1      12.179   9.807   6.259  1.00  0.00     0.163 HD
ENDROOT
BRANCH   6   9
HETATM    9  N2  UNL     1      13.822   9.652   3.897  1.00  0.00    -0.353 N 
HETATM   10  C7  UNL     1      14.189  10.770   3.021  1.00  0.00     0.126 C 
HETATM   11  C8  UNL     1      13.673  10.401   1.672  1.00  0.00     0.021 C 
HETATM   12  C9  UNL     1      13.665   8.869   1.734  1.00  0.00     0.021 C 
HETATM   13  C10 UNL     1      13.090   8.669   3.122  1.00  0.00     0.126 C 
ENDBRANCH   6   9
BRANCH   1  14
HETATM   14  C2  UNL     1      13.216   9.377   8.771  1.00  0.00     0.028 C 
HETATM   15  C1  UNL     1      13.171  10.887   8.867  1.00  0.00     0.007 C 
ENDBRANCH   1  14
TORSDOF 2
ENDMDL
