MODEL 1
REMARK VINA RESULT: -9.782535388      0.000      0.000
REMARK  6 active torsions:
REMARK  status: ('A' for Active; 'I' for Inactive)
REMARK    1  A    between atoms: C2_3  and  O1_4 
REMARK    2  A    between atoms: C3_6  and  C4_7 
REMARK    3  A    between atoms: N3_19  and  C10_21 
REMARK    4  A    between atoms: C10_21  and  N4_22 
REMARK    5  A    between atoms: N8_31  and  C13_32 
REMARK    6  A    between atoms: C14_36  and  N10_37 
ROOT
HETATM    1  C1  UNL     1      -1.415  24.042  15.212  1.00  0.00     0.159 C 
HETATM    2  N1  UNL     1      -1.243  24.780  16.440  1.00  0.00    -0.325 N 
HETATM    3  C2  UNL     1      -0.833  26.085  16.423  1.00  0.00     0.164 A 
HETATM    4  C3  UNL     1      -0.653  26.832  17.540  1.00  0.00     0.143 A 
HETATM    5  C5  UNL     1      -0.893  26.262  18.765  1.00  0.00     0.223 A 
HETATM    6  O4  UNL     1      -0.725  26.958  19.766  1.00  0.00    -0.285 OA
HETATM    7  C6  UNL     1      -1.306  24.961  18.854  1.00  0.00     0.140 A 
HETATM    8  C7  UNL     1      -1.477  24.227  17.656  1.00  0.00     0.137 A 
HETATM    9  C8  UNL     1      -1.893  22.927  17.738  1.00  0.00     0.289 A 
HETATM   10  O5  UNL     1      -2.060  22.233  16.739  1.00  0.00    -0.265 OA
HETATM   11  N2  UNL     1      -2.131  22.364  18.934  1.00  0.00    -0.154 N 
ATOM     12  H2  UNL     1      -2.438  21.392  18.971  1.00  0.00     0.187 HD
HETATM   13  C9  UNL     1      -1.976  23.042  20.084  1.00  0.00     0.692 A 
HETATM   14  N3  UNL     1      -2.189  22.583  21.240  1.00  0.00    -0.185 N 
ATOM     15  H3  UNL     1      -2.028  23.219  22.021  1.00  0.00     0.185 HD
HETATM   16  N8  UNL     1      -1.559  24.355  20.044  1.00  0.00    -0.123 N 
ENDROOT
BRANCH  14  17
HETATM   17  C10 UNL     1      -2.626  21.284  21.565  1.00  0.00     0.229 C 
BRANCH  17  18
HETATM   18  N4  UNL     1      -1.984  20.715  22.721  1.00  0.00    -0.198 N 
HETATM   19  N5  UNL     1      -2.571  19.848  23.536  1.00  0.00    -0.262 N 
HETATM   20  C11 UNL     1      -1.725  19.521  24.497  1.00  0.00     0.211 A 
ATOM     21  H5  UNL     1      -3.521  19.491  23.437  1.00  0.00     0.190 HD
HETATM   22  N6  UNL     1      -1.972  18.626  25.561  1.00  0.00    -0.062 NA
HETATM   23  N7  UNL     1      -0.573  20.185  24.304  1.00  0.00    -0.280 N 
HETATM   24  C12 UNL     1      -0.754  20.925  23.190  1.00  0.00     0.348 A 
ATOM     25  H7  UNL     1       0.266  20.138  24.881  1.00  0.00     0.173 HD
HETATM   26  O6  UNL     1       0.126  21.682  22.703  1.00  0.00    -0.245 OA
ENDBRANCH  17  18
ENDBRANCH  14  17
BRANCH  16  27
HETATM   27  C13 UNL     1      -1.388  25.114  21.252  1.00  0.00     0.459 C 
HETATM   28  N9  UNL     1      -2.165  24.775  22.377  1.00  0.00     0.022 N 
HETATM   29  C14 UNL     1      -0.924  24.879  23.122  1.00  0.00     0.529 C 
ATOM     30  H92 UNL     1      -2.998  25.304  22.638  1.00  0.00     0.287 HD
ATOM     31  H91 UNL     1      -2.742  23.935  22.402  1.00  0.00     0.287 HD
HETATM   32  O7  UNL     1      -0.305  24.500  21.965  1.00  0.00    -0.288 OA
BRANCH  29  33
HETATM   33  N10 UNL     1      -0.676  26.241  23.570  1.00  0.00    -0.027 N 
ATOM     34 3H10 UNL     1      -1.549  26.740  23.743  1.00  0.00     0.279 HD
ATOM     35 2H10 UNL     1      -0.293  26.257  24.516  1.00  0.00     0.279 HD
ATOM     36 1H10 UNL     1      -0.079  26.751  22.918  1.00  0.00     0.279 HD
ENDBRANCH  29  33
ENDBRANCH  16  27
BRANCH   4  37
HETATM   37  C4  UNL     1      -0.214  28.214  17.416  1.00  0.00     0.218 C 
HETATM   38  O2  UNL     1       0.835  28.497  16.817  1.00  0.00    -0.644 OA
HETATM   39  O3  UNL     1      -0.968  29.252  17.971  1.00  0.00    -0.644 OA
ENDBRANCH   4  37
BRANCH   3  40
HETATM   40  O1  UNL     1      -0.596  26.633  15.163  1.00  0.00    -0.345 OA
ATOM     41  H1  UNL     1      -0.468  27.575  15.138  1.00  0.00     0.219 HD
ENDBRANCH   3  40
TORSDOF 6
ENDMDL
MODEL 2
REMARK VINA RESULT: -9.173843269      0.987      1.311
REMARK  6 active torsions:
REMARK  status: ('A' for Active; 'I' for Inactive)
REMARK    1  A    between atoms: C2_3  and  O1_4 
REMARK    2  A    between atoms: C3_6  and  C4_7 
REMARK    3  A    between atoms: N3_19  and  C10_21 
REMARK    4  A    between atoms: C10_21  and  N4_22 
REMARK    5  A    between atoms: N8_31  and  C13_32 
REMARK    6  A    between atoms: C14_36  and  N10_37 
ROOT
HETATM    1  C1  UNL     1      -1.501  23.915  15.311  1.00  0.00     0.159 C 
HETATM    2  N1  UNL     1      -1.264  24.732  16.476  1.00  0.00    -0.325 N 
HETATM    3  C2  UNL     1      -0.897  26.044  16.351  1.00  0.00     0.164 A 
HETATM    4  C3  UNL     1      -0.662  26.863  17.406  1.00  0.00     0.143 A 
HETATM    5  C5  UNL     1      -0.795  26.363  18.676  1.00  0.00     0.223 A 
HETATM    6  O4  UNL     1      -0.576  27.123  19.620  1.00  0.00    -0.285 OA
HETATM    7  C6  UNL     1      -1.159  25.059  18.873  1.00  0.00     0.140 A 
HETATM    8  C7  UNL     1      -1.392  24.249  17.737  1.00  0.00     0.137 A 
HETATM    9  C8  UNL     1      -1.759  22.946  17.926  1.00  0.00     0.289 A 
HETATM   10  O5  UNL     1      -1.977  22.187  16.985  1.00  0.00    -0.265 OA
HETATM   11  N2  UNL     1      -1.893  22.451  19.168  1.00  0.00    -0.154 N 
ATOM     12  H2  UNL     1      -2.166  21.474  19.285  1.00  0.00     0.187 HD
HETATM   13  C9  UNL     1      -1.677  23.202  20.262  1.00  0.00     0.692 A 
HETATM   14  N3  UNL     1      -1.792  22.809  21.455  1.00  0.00    -0.185 N 
ATOM     15  H3  UNL     1      -1.595  23.496  22.183  1.00  0.00     0.185 HD
HETATM   16  N8  UNL     1      -1.306  24.521  20.112  1.00  0.00    -0.123 N 
ENDROOT
BRANCH  14  17
HETATM   17  C10 UNL     1      -2.163  21.522  21.888  1.00  0.00     0.229 C 
BRANCH  17  18
HETATM   18  N4  UNL     1      -1.377  21.015  22.982  1.00  0.00    -0.198 N 
HETATM   19  N5  UNL     1      -0.142  21.421  23.251  1.00  0.00    -0.262 N 
HETATM   20  C11 UNL     1       0.305  20.766  24.307  1.00  0.00     0.211 A 
ATOM     21  H5  UNL     1       0.377  22.125  22.727  1.00  0.00     0.190 HD
HETATM   22  N6  UNL     1       1.576  20.912  24.906  1.00  0.00    -0.062 NA
HETATM   23  N7  UNL     1      -0.651  19.922  24.730  1.00  0.00    -0.280 N 
HETATM   24  C12 UNL     1      -1.694  20.092  23.891  1.00  0.00     0.348 A 
ATOM     25  H7  UNL     1      -0.599  19.285  25.525  1.00  0.00     0.173 HD
HETATM   26  O6  UNL     1      -2.778  19.459  23.985  1.00  0.00    -0.245 OA
ENDBRANCH  17  18
ENDBRANCH  14  17
BRANCH  16  27
HETATM   27  C13 UNL     1      -1.072  25.357  21.257  1.00  0.00     0.459 C 
HETATM   28  N9  UNL     1      -2.106  25.513  22.202  1.00  0.00     0.022 N 
HETATM   29  C14 UNL     1      -1.074  25.286  23.197  1.00  0.00     0.529 C 
ATOM     30  H92 UNL     1      -2.702  26.340  22.220  1.00  0.00     0.287 HD
ATOM     31  H91 UNL     1      -2.957  24.953  22.168  1.00  0.00     0.287 HD
HETATM   32  O7  UNL     1      -0.456  24.523  22.248  1.00  0.00    -0.288 OA
BRANCH  29  33
HETATM   33  N10 UNL     1      -0.403  26.522  23.569  1.00  0.00    -0.027 N 
ATOM     34 3H10 UNL     1       0.554  26.547  23.217  1.00  0.00     0.279 HD
ATOM     35 2H10 UNL     1      -0.782  27.320  23.058  1.00  0.00     0.279 HD
ATOM     36 1H10 UNL     1      -0.433  26.679  24.577  1.00  0.00     0.279 HD
ENDBRANCH  29  33
ENDBRANCH  16  27
BRANCH   4  37
HETATM   37  C4  UNL     1      -0.276  28.246  17.168  1.00  0.00     0.218 C 
HETATM   38  O2  UNL     1       0.841  28.525  16.708  1.00  0.00    -0.644 OA
HETATM   39  O3  UNL     1      -1.162  29.289  17.453  1.00  0.00    -0.644 OA
ENDBRANCH   4  37
BRANCH   3  40
HETATM   40  O1  UNL     1      -0.769  26.520  15.047  1.00  0.00    -0.345 OA
ATOM     41  H1  UNL     1       0.085  26.865  14.813  1.00  0.00     0.219 HD
ENDBRANCH   3  40
TORSDOF 6
ENDMDL
MODEL 3
REMARK VINA RESULT: -8.333970857      2.098      4.085
REMARK  6 active torsions:
REMARK  status: ('A' for Active; 'I' for Inactive)
REMARK    1  A    between atoms: C2_3  and  O1_4 
REMARK    2  A    between atoms: C3_6  and  C4_7 
REMARK    3  A    between atoms: N3_19  and  C10_21 
REMARK    4  A    between atoms: C10_21  and  N4_22 
REMARK    5  A    between atoms: N8_31  and  C13_32 
REMARK    6  A    between atoms: C14_36  and  N10_37 
ROOT
HETATM    1  C1  UNL     1      -0.066  29.490  17.249  1.00  0.00     0.159 C 
HETATM    2  N1  UNL     1       0.160  28.099  16.941  1.00  0.00    -0.325 N 
HETATM    3  C2  UNL     1       0.672  27.722  15.730  1.00  0.00     0.164 A 
HETATM    4  C3  UNL     1       0.908  26.433  15.381  1.00  0.00     0.143 A 
HETATM    5  C5  UNL     1       0.623  25.439  16.282  1.00  0.00     0.223 A 
HETATM    6  O4  UNL     1       0.845  24.276  15.945  1.00  0.00    -0.285 OA
HETATM    7  C6  UNL     1       0.109  25.746  17.512  1.00  0.00     0.140 A 
HETATM    8  C7  UNL     1      -0.118  27.107  17.824  1.00  0.00     0.137 A 
HETATM    9  C8  UNL     1      -0.629  27.421  19.053  1.00  0.00     0.289 A 
HETATM   10  O5  UNL     1      -0.851  28.582  19.389  1.00  0.00    -0.265 OA
HETATM   11  N2  UNL     1      -0.909  26.452  19.940  1.00  0.00    -0.154 N 
ATOM     12  H2  UNL     1      -1.291  26.710  20.850  1.00  0.00     0.187 HD
HETATM   13  C9  UNL     1      -0.700  25.153  19.666  1.00  0.00     0.692 A 
HETATM   14  N3  UNL     1      -0.930  24.192  20.451  1.00  0.00    -0.185 N 
ATOM     15  H3  UNL     1      -0.720  23.257  20.102  1.00  0.00     0.185 HD
HETATM   16  N8  UNL     1      -0.186  24.796  18.438  1.00  0.00    -0.123 N 
ENDROOT
BRANCH  14  17
HETATM   17  C10 UNL     1      -1.445  24.275  21.759  1.00  0.00     0.229 C 
BRANCH  17  18
HETATM   18  N4  UNL     1      -1.397  23.039  22.494  1.00  0.00    -0.198 N 
HETATM   19  N5  UNL     1      -0.657  22.859  23.581  1.00  0.00    -0.262 N 
HETATM   20  C11 UNL     1      -0.826  21.623  24.016  1.00  0.00     0.211 A 
ATOM     21  H5  UNL     1      -0.056  23.561  24.012  1.00  0.00     0.190 HD
HETATM   22  N6  UNL     1      -0.212  21.041  25.147  1.00  0.00    -0.062 NA
HETATM   23  N7  UNL     1      -1.687  20.991  23.200  1.00  0.00    -0.280 N 
HETATM   24  C12 UNL     1      -2.032  21.891  22.256  1.00  0.00     0.348 A 
ATOM     25  H7  UNL     1      -2.014  20.028  23.280  1.00  0.00     0.173 HD
HETATM   26  O6  UNL     1      -2.833  21.647  21.315  1.00  0.00    -0.245 OA
ENDBRANCH  17  18
ENDBRANCH  14  17
BRANCH  16  27
HETATM   27  C13 UNL     1       0.056  23.418  18.110  1.00  0.00     0.459 C 
HETATM   28  N9  UNL     1       0.324  22.513  19.156  1.00  0.00     0.022 N 
HETATM   29  C14 UNL     1      -0.626  21.641  18.489  1.00  0.00     0.529 C 
ATOM     30  H92 UNL     1       1.272  22.210  19.379  1.00  0.00     0.287 HD
ATOM     31  H91 UNL     1       0.222  22.774  20.136  1.00  0.00     0.287 HD
HETATM   32  O7  UNL     1      -1.230  22.784  18.053  1.00  0.00    -0.288 OA
BRANCH  29  33
HETATM   33  N10 UNL     1       0.017  20.821  17.472  1.00  0.00    -0.027 N 
ATOM     34 3H10 UNL     1      -0.630  20.134  17.085  1.00  0.00     0.279 HD
ATOM     35 2H10 UNL     1       0.205  21.359  16.626  1.00  0.00     0.279 HD
ATOM     36 1H10 UNL     1       0.864  20.376  17.825  1.00  0.00     0.279 HD
ENDBRANCH  29  33
ENDBRANCH  16  27
BRANCH   4  37
HETATM   37  C4  UNL     1       1.456  26.136  14.066  1.00  0.00     0.218 C 
HETATM   38  O2  UNL     1       1.040  25.171  13.406  1.00  0.00    -0.644 OA
HETATM   39  O3  UNL     1       2.465  26.934  13.520  1.00  0.00    -0.644 OA
ENDBRANCH   4  37
BRANCH   3  40
HETATM   40  O1  UNL     1       0.949  28.756  14.837  1.00  0.00    -0.345 OA
ATOM     41  H1  UNL     1       1.722  28.642  14.297  1.00  0.00     0.219 HD
ENDBRANCH   3  40
TORSDOF 6
ENDMDL
MODEL 4
REMARK VINA RESULT: -8.139316930      3.779      8.437
REMARK  6 active torsions:
REMARK  status: ('A' for Active; 'I' for Inactive)
REMARK    1  A    between atoms: C2_3  and  O1_4 
REMARK    2  A    between atoms: C3_6  and  C4_7 
REMARK    3  A    between atoms: N3_19  and  C10_21 
REMARK    4  A    between atoms: C10_21  and  N4_22 
REMARK    5  A    between atoms: N8_31  and  C13_32 
REMARK    6  A    between atoms: C14_36  and  N10_37 
ROOT
HETATM    1  C1  UNL     1       0.723  22.164  18.296  1.00  0.00     0.159 C 
HETATM    2  N1  UNL     1       0.222  23.432  18.768  1.00  0.00    -0.325 N 
HETATM    3  C2  UNL     1      -0.367  23.540  19.998  1.00  0.00     0.164 A 
HETATM    4  C3  UNL     1      -0.856  24.702  20.498  1.00  0.00     0.143 A 
HETATM    5  C5  UNL     1      -0.763  25.841  19.740  1.00  0.00     0.223 A 
HETATM    6  O4  UNL     1      -1.214  26.885  20.213  1.00  0.00    -0.285 OA
HETATM    7  C6  UNL     1      -0.187  25.804  18.500  1.00  0.00     0.140 A 
HETATM    8  C7  UNL     1       0.307  24.565  18.027  1.00  0.00     0.137 A 
HETATM    9  C8  UNL     1       0.888  24.521  16.790  1.00  0.00     0.289 A 
HETATM   10  O5  UNL     1       1.336  23.480  16.318  1.00  0.00    -0.265 OA
HETATM   11  N2  UNL     1       0.983  25.634  16.044  1.00  0.00    -0.154 N 
ATOM     12  H2  UNL     1       1.418  25.577  15.123  1.00  0.00     0.187 HD
HETATM   13  C9  UNL     1       0.521  26.821  16.474  1.00  0.00     0.692 A 
HETATM   14  N3  UNL     1       0.584  27.907  15.833  1.00  0.00    -0.185 N 
ATOM     15  H3  UNL     1       0.190  28.730  16.290  1.00  0.00     0.185 HD
HETATM   16  N8  UNL     1      -0.070  26.907  17.716  1.00  0.00    -0.123 N 
ENDROOT
BRANCH  14  17
HETATM   17  C10 UNL     1       1.140  28.102  14.554  1.00  0.00     0.229 C 
BRANCH  17  18
HETATM   18  N4  UNL     1       2.126  29.148  14.491  1.00  0.00    -0.198 N 
HETATM   19  N5  UNL     1       3.347  28.978  14.000  1.00  0.00    -0.262 N 
HETATM   20  C11 UNL     1       4.008  30.119  14.087  1.00  0.00     0.211 A 
ATOM     21  H5  UNL     1       3.717  28.108  13.617  1.00  0.00     0.190 HD
HETATM   22  N6  UNL     1       5.338  30.350  13.673  1.00  0.00    -0.062 NA
HETATM   23  N7  UNL     1       3.205  31.043  14.642  1.00  0.00    -0.280 N 
HETATM   24  C12 UNL     1       2.034  30.418  14.887  1.00  0.00     0.348 A 
ATOM     25  H7  UNL     1       3.434  32.017  14.837  1.00  0.00     0.173 HD
HETATM   26  O6  UNL     1       1.037  30.981  15.409  1.00  0.00    -0.245 OA
ENDBRANCH  17  18
ENDBRANCH  14  17
BRANCH  16  27
HETATM   27  C13 UNL     1      -0.570  28.159  18.211  1.00  0.00     0.459 C 
HETATM   28  N9  UNL     1       0.155  29.334  17.931  1.00  0.00     0.022 N 
HETATM   29  C14 UNL     1      -1.131  29.908  17.584  1.00  0.00     0.529 C 
ATOM     30  H92 UNL     1       0.772  29.766  18.619  1.00  0.00     0.287 HD
ATOM     31  H91 UNL     1       0.943  29.341  17.284  1.00  0.00     0.287 HD
HETATM   32  O7  UNL     1      -1.498  28.642  17.229  1.00  0.00    -0.288 OA
BRANCH  29  33
HETATM   33  N10 UNL     1      -1.801  30.472  18.746  1.00  0.00    -0.027 N 
ATOM     34 3H10 UNL     1      -1.610  29.926  19.587  1.00  0.00     0.279 HD
ATOM     35 2H10 UNL     1      -1.375  31.355  19.029  1.00  0.00     0.279 HD
ATOM     36 1H10 UNL     1      -2.804  30.577  18.591  1.00  0.00     0.279 HD
ENDBRANCH  29  33
ENDBRANCH  16  27
BRANCH   4  37
HETATM   37  C4  UNL     1      -1.464  24.713  21.820  1.00  0.00     0.218 C 
HETATM   38  O2  UNL     1      -0.764  24.673  22.843  1.00  0.00    -0.644 OA
HETATM   39  O3  UNL     1      -2.853  24.769  21.963  1.00  0.00    -0.644 OA
ENDBRANCH   4  37
BRANCH   3  40
HETATM   40  O1  UNL     1      -0.446  22.364  20.741  1.00  0.00    -0.345 OA
ATOM     41  H1  UNL     1      -0.662  22.468  21.661  1.00  0.00     0.219 HD
ENDBRANCH   3  40
TORSDOF 6
ENDMDL
MODEL 5
REMARK VINA RESULT: -8.112642847      2.919      7.588
REMARK  6 active torsions:
REMARK  status: ('A' for Active; 'I' for Inactive)
REMARK    1  A    between atoms: C2_3  and  O1_4 
REMARK    2  A    between atoms: C3_6  and  C4_7 
REMARK    3  A    between atoms: N3_19  and  C10_21 
REMARK    4  A    between atoms: C10_21  and  N4_22 
REMARK    5  A    between atoms: N8_31  and  C13_32 
REMARK    6  A    between atoms: C14_36  and  N10_37 
ROOT
HETATM    1  C1  UNL     1      -2.059  18.292  24.611  1.00  0.00     0.159 C 
HETATM    2  N1  UNL     1      -1.337  19.529  24.442  1.00  0.00    -0.325 N 
HETATM    3  C2  UNL     1      -0.228  19.805  25.195  1.00  0.00     0.164 A 
HETATM    4  C3  UNL     1       0.493  20.947  25.083  1.00  0.00     0.143 A 
HETATM    5  C5  UNL     1       0.103  21.890  24.167  1.00  0.00     0.223 A 
HETATM    6  O4  UNL     1       0.772  22.920  24.081  1.00  0.00    -0.285 OA
HETATM    7  C6  UNL     1      -0.996  21.679  23.380  1.00  0.00     0.140 A 
HETATM    8  C7  UNL     1      -1.713  20.469  23.540  1.00  0.00     0.137 A 
HETATM    9  C8  UNL     1      -2.811  20.251  22.755  1.00  0.00     0.289 A 
HETATM   10  O5  UNL     1      -3.478  19.224  22.841  1.00  0.00    -0.265 OA
HETATM   11  N2  UNL     1      -3.197  21.170  21.854  1.00  0.00    -0.154 N 
ATOM     12  H2  UNL     1      -4.021  20.986  21.281  1.00  0.00     0.187 HD
HETATM   13  C9  UNL     1      -2.531  22.326  21.686  1.00  0.00     0.692 A 
HETATM   14  N3  UNL     1      -2.828  23.229  20.856  1.00  0.00    -0.185 N 
ATOM     15  H3  UNL     1      -2.227  24.053  20.843  1.00  0.00     0.185 HD
HETATM   16  N8  UNL     1      -1.418  22.583  22.458  1.00  0.00    -0.123 N 
ENDROOT
BRANCH  14  17
HETATM   17  C10 UNL     1      -3.904  23.219  19.947  1.00  0.00     0.229 C 
BRANCH  17  18
HETATM   18  N4  UNL     1      -3.521  23.422  18.574  1.00  0.00    -0.198 N 
HETATM   19  N5  UNL     1      -2.294  23.755  18.195  1.00  0.00    -0.262 N 
HETATM   20  C11 UNL     1      -2.269  23.871  16.879  1.00  0.00     0.211 A 
ATOM     21  H5  UNL     1      -1.499  23.898  18.817  1.00  0.00     0.190 HD
HETATM   22  N6  UNL     1      -1.147  24.213  16.090  1.00  0.00    -0.062 NA
HETATM   23  N7  UNL     1      -3.495  23.610  16.397  1.00  0.00    -0.280 N 
HETATM   24  C12 UNL     1      -4.264  23.332  17.471  1.00  0.00     0.348 A 
ATOM     25  H7  UNL     1      -3.785  23.619  15.419  1.00  0.00     0.173 HD
HETATM   26  O6  UNL     1      -5.486  23.037  17.399  1.00  0.00    -0.245 OA
ENDBRANCH  17  18
ENDBRANCH  14  17
BRANCH  16  27
HETATM   27  C13 UNL     1      -0.677  23.804  22.302  1.00  0.00     0.459 C 
HETATM   28  N9  UNL     1      -0.655  24.424  21.037  1.00  0.00     0.022 N 
HETATM   29  C14 UNL     1      -0.921  25.652  21.762  1.00  0.00     0.529 C 
ATOM     30  H92 UNL     1       0.139  24.331  20.403  1.00  0.00     0.287 HD
ATOM     31  H91 UNL     1      -1.249  24.108  20.270  1.00  0.00     0.287 HD
HETATM   32  O7  UNL     1      -1.566  24.867  22.673  1.00  0.00    -0.288 OA
BRANCH  29  33
HETATM   33  N10 UNL     1       0.307  26.289  22.213  1.00  0.00    -0.027 N 
ATOM     34 3H10 UNL     1       0.199  26.686  23.147  1.00  0.00     0.279 HD
ATOM     35 2H10 UNL     1       1.031  25.599  22.416  1.00  0.00     0.279 HD
ATOM     36 1H10 UNL     1       0.637  26.989  21.548  1.00  0.00     0.279 HD
ENDBRANCH  29  33
ENDBRANCH  16  27
BRANCH   4  37
HETATM   37  C4  UNL     1       1.659  21.145  25.932  1.00  0.00     0.218 C 
HETATM   38  O2  UNL     1       1.551  21.167  27.167  1.00  0.00    -0.644 OA
HETATM   39  O3  UNL     1       2.927  21.315  25.368  1.00  0.00    -0.644 OA
ENDBRANCH   4  37
BRANCH   3  40
HETATM   40  O1  UNL     1       0.140  18.826  26.118  1.00  0.00    -0.345 OA
ATOM     41  H1  UNL     1       0.263  19.124  27.012  1.00  0.00     0.219 HD
ENDBRANCH   3  40
TORSDOF 6
ENDMDL
