MODEL 1
REMARK VINA RESULT: -8.920777356      0.000      0.000
REMARK  10 active torsions:
REMARK  status: ('A' for Active; 'I' for Inactive)
REMARK    1  A    between atoms: O1_2  and  C2_3 
REMARK    2  A    between atoms: C2_3  and  C3_5 
REMARK    3  A    between atoms: C3_5  and  O3_6 
REMARK    4  A    between atoms: C4_9  and  O4_10 
REMARK    5  A    between atoms: C4_9  and  C5_12 
REMARK    6  A    between atoms: C5_12  and  O5_13 
REMARK    7  A    between atoms: C6_15  and  N1_16 
REMARK    8  A    between atoms: C9_25  and  N5_26 
REMARK    9  A    between atoms: C11_32  and  N7_33 
REMARK   10  A    between atoms: N8_38  and  N9_40 
ROOT
HETATM    1  C3  UNL     1      -1.540  24.865  20.287  1.00  0.00     0.241 C 
HETATM    2  S1  UNL     1      -0.888  23.241  19.734  1.00  0.00    -0.072 SA
HETATM    3  C4  UNL     1      -1.216  22.028  21.040  1.00  0.00     0.155 C 
HETATM    4  C6  UNL     1      -0.817  22.599  22.358  1.00  0.00     0.191 C 
HETATM    5  C11 UNL     1      -1.572  23.893  22.695  1.00  0.00     0.263 C 
HETATM    6  C12 UNL     1      -1.272  24.943  21.740  1.00  0.00     0.090 C 
HETATM    7  N8  UNL     1      -0.735  26.031  22.159  1.00  0.00    -0.309 N 
ATOM      8  H8  UNL     1      -0.538  26.748  21.460  1.00  0.00     0.186 HD
ENDROOT
BRANCH   4   9
HETATM    9  N1  UNL     1      -1.086  21.655  23.434  1.00  0.00    -0.247 N 
HETATM   10  N2  UNL     1      -2.249  21.122  23.759  1.00  0.00    -0.017 NA
HETATM   11  N3  UNL     1      -2.087  20.302  24.807  1.00  0.00    -0.276 N 
HETATM   12  C7  UNL     1      -0.787  20.306  25.169  1.00  0.00     0.161 A 
ATOM     13  H3  UNL     1      -2.827  19.763  25.257  1.00  0.00     0.184 HD
HETATM   14  C8  UNL     1      -0.097  19.649  26.166  1.00  0.00     0.291 A 
HETATM   15  C10 UNL     1      -0.168  21.170  24.286  1.00  0.00     0.170 A 
HETATM   16  O6  UNL     1      -0.648  18.860  26.974  1.00  0.00    -0.265 OA
HETATM   17  N4  UNL     1       1.226  19.841  26.304  1.00  0.00    -0.154 N 
HETATM   18  C9  UNL     1       1.839  20.690  25.440  1.00  0.00     0.680 A 
ATOM     19  H4  UNL     1       1.754  19.364  27.035  1.00  0.00     0.187 HD
HETATM   20  N6  UNL     1       1.169  21.333  24.465  1.00  0.00    -0.173 N 
ATOM     21  H6  UNL     1       1.679  21.961  23.844  1.00  0.00     0.186 HD
BRANCH  18  22
HETATM   22  N5  UNL     1       3.114  20.855  25.597  1.00  0.00    -0.234 N 
ATOM     23  H52 UNL     1       3.603  21.635  25.156  1.00  0.00     0.174 HD
ATOM     24  H51 UNL     1       3.594  20.169  26.178  1.00  0.00     0.174 HD
ENDBRANCH  18  22
ENDBRANCH   4   9
BRANCH   3  25
HETATM   25  O4  UNL     1      -2.551  21.660  20.961  1.00  0.00    -0.375 OA
ATOM     26  H4  UNL     1      -2.664  20.852  21.446  1.00  0.00     0.211 HD
ENDBRANCH   3  25
BRANCH   3  27
HETATM   27  C5  UNL     1      -0.312  20.840  20.772  1.00  0.00     0.216 C 
BRANCH  27  28
HETATM   28  O5  UNL     1       0.493  21.142  19.694  1.00  0.00    -0.397 OA
ATOM     29  H5  UNL     1       1.370  20.828  19.879  1.00  0.00     0.209 HD
ENDBRANCH  27  28
ENDBRANCH   3  27
BRANCH   5  30
HETATM   30  N7  UNL     1      -2.958  23.597  22.885  1.00  0.00    -0.068 N 
ATOM     31  H73 UNL     1      -3.493  23.683  22.021  1.00  0.00     0.275 HD
ATOM     32  H72 UNL     1      -3.120  22.606  23.059  1.00  0.00     0.275 HD
ATOM     33  H71 UNL     1      -3.331  24.186  23.630  1.00  0.00     0.275 HD
ENDBRANCH   5  30
BRANCH   1  34
HETATM   34  C2  UNL     1      -0.851  25.938  19.533  1.00  0.00     0.310 C 
HETATM   35  O2  UNL     1      -0.938  27.138  19.882  1.00  0.00    -0.260 OA
BRANCH  34  36
HETATM   36  O1  UNL     1      -0.087  25.645  18.417  1.00  0.00    -0.323 OA
HETATM   37  C1  UNL     1      -0.456  26.171  17.138  1.00  0.00     0.213 C 
ENDBRANCH  34  36
ENDBRANCH   1  34
BRANCH   1  38
HETATM   38  O3  UNL     1      -2.896  24.965  19.988  1.00  0.00    -0.366 OA
ATOM     39  H3  UNL     1      -3.119  24.210  19.457  1.00  0.00     0.212 HD
ENDBRANCH   1  38
BRANCH   7  40
HETATM   40  N9  UNL     1      -0.400  26.322  23.457  1.00  0.00    -0.345 N 
ATOM     41  H92 UNL     1      -0.946  25.843  24.173  1.00  0.00     0.176 HD
ATOM     42  H91 UNL     1       0.332  26.962  23.762  1.00  0.00     0.176 HD
ENDBRANCH   7  40
TORSDOF 10
ENDMDL
MODEL 2
REMARK VINA RESULT: -8.432465069      2.415      3.149
REMARK  10 active torsions:
REMARK  status: ('A' for Active; 'I' for Inactive)
REMARK    1  A    between atoms: O1_2  and  C2_3 
REMARK    2  A    between atoms: C2_3  and  C3_5 
REMARK    3  A    between atoms: C3_5  and  O3_6 
REMARK    4  A    between atoms: C4_9  and  O4_10 
REMARK    5  A    between atoms: C4_9  and  C5_12 
REMARK    6  A    between atoms: C5_12  and  O5_13 
REMARK    7  A    between atoms: C6_15  and  N1_16 
REMARK    8  A    between atoms: C9_25  and  N5_26 
REMARK    9  A    between atoms: C11_32  and  N7_33 
REMARK   10  A    between atoms: N8_38  and  N9_40 
ROOT
HETATM    1  C3  UNL     1      -0.738  25.517  17.463  1.00  0.00     0.241 C 
HETATM    2  S1  UNL     1      -0.062  23.892  16.942  1.00  0.00    -0.072 SA
HETATM    3  C4  UNL     1      -0.810  22.611  17.985  1.00  0.00     0.155 C 
HETATM    4  C6  UNL     1      -0.752  23.037  19.412  1.00  0.00     0.191 C 
HETATM    5  C11 UNL     1      -1.488  24.362  19.665  1.00  0.00     0.263 C 
HETATM    6  C12 UNL     1      -0.873  25.455  18.935  1.00  0.00     0.090 C 
HETATM    7  N8  UNL     1      -0.404  26.454  19.590  1.00  0.00    -0.309 N 
ATOM      8  H8  UNL     1       0.021  27.204  19.045  1.00  0.00     0.186 HD
ENDROOT
BRANCH   4   9
HETATM    9  N1  UNL     1      -1.364  22.038  20.277  1.00  0.00    -0.247 N 
HETATM   10  N2  UNL     1      -2.231  21.104  19.932  1.00  0.00    -0.017 NA
HETATM   11  N3  UNL     1      -2.559  20.380  21.011  1.00  0.00    -0.276 N 
HETATM   12  C7  UNL     1      -1.887  20.857  22.080  1.00  0.00     0.161 A 
ATOM     13  H3  UNL     1      -3.211  19.595  21.021  1.00  0.00     0.184 HD
HETATM   14  C8  UNL     1      -1.861  20.480  23.406  1.00  0.00     0.291 A 
HETATM   15  C10 UNL     1      -1.135  21.909  21.594  1.00  0.00     0.170 A 
HETATM   16  O6  UNL     1      -2.541  19.525  23.860  1.00  0.00    -0.265 OA
HETATM   17  N4  UNL     1      -1.083  21.147  24.277  1.00  0.00    -0.154 N 
HETATM   18  C9  UNL     1      -0.342  22.181  23.805  1.00  0.00     0.680 A 
ATOM     19  H4  UNL     1      -1.051  20.882  25.261  1.00  0.00     0.187 HD
HETATM   20  N6  UNL     1      -0.365  22.551  22.510  1.00  0.00    -0.173 N 
ATOM     21  H6  UNL     1       0.212  23.337  22.209  1.00  0.00     0.186 HD
BRANCH  18  22
HETATM   22  N5  UNL     1       0.398  22.804  24.666  1.00  0.00    -0.234 N 
ATOM     23  H52 UNL     1       1.170  22.331  25.137  1.00  0.00     0.174 HD
ATOM     24  H51 UNL     1       0.166  23.780  24.845  1.00  0.00     0.174 HD
ENDBRANCH  18  22
ENDBRANCH   4   9
BRANCH   3  25
HETATM   25  O4  UNL     1      -2.093  22.370  17.516  1.00  0.00    -0.375 OA
ATOM     26  H4  UNL     1      -2.398  23.154  17.075  1.00  0.00     0.211 HD
ENDBRANCH   3  25
BRANCH   3  27
HETATM   27  C5  UNL     1       0.056  21.374  17.849  1.00  0.00     0.216 C 
BRANCH  27  28
HETATM   28  O5  UNL     1      -0.685  20.391  17.228  1.00  0.00    -0.397 OA
ATOM     29  H5  UNL     1      -1.440  20.198  17.771  1.00  0.00     0.209 HD
ENDBRANCH  27  28
ENDBRANCH   3  27
BRANCH   5  30
HETATM   30  N7  UNL     1      -2.889  24.174  19.448  1.00  0.00    -0.068 N 
ATOM     31  H73 UNL     1      -3.425  25.023  19.630  1.00  0.00     0.275 HD
ATOM     32  H72 UNL     1      -3.115  24.069  18.459  1.00  0.00     0.275 HD
ATOM     33  H71 UNL     1      -3.215  23.385  20.004  1.00  0.00     0.275 HD
ENDBRANCH   5  30
BRANCH   1  34
HETATM   34  C2  UNL     1       0.197  26.583  17.033  1.00  0.00     0.310 C 
HETATM   35  O2  UNL     1      -0.068  27.794  17.213  1.00  0.00    -0.260 OA
BRANCH  34  36
HETATM   36  O1  UNL     1       1.396  26.270  16.417  1.00  0.00    -0.323 OA
HETATM   37  C1  UNL     1       1.754  26.900  15.183  1.00  0.00     0.213 C 
ENDBRANCH  34  36
ENDBRANCH   1  34
BRANCH   1  38
HETATM   38  O3  UNL     1      -1.951  25.759  16.825  1.00  0.00    -0.366 OA
ATOM     39  H3  UNL     1      -2.538  26.123  17.477  1.00  0.00     0.212 HD
ENDBRANCH   1  38
BRANCH   7  40
HETATM   40  N9  UNL     1      -0.420  26.609  20.952  1.00  0.00    -0.345 N 
ATOM     41  H92 UNL     1      -1.081  26.019  21.458  1.00  0.00     0.176 HD
ATOM     42  H91 UNL     1       0.160  27.251  21.493  1.00  0.00     0.176 HD
ENDBRANCH   7  40
TORSDOF 10
ENDMDL
MODEL 3
REMARK VINA RESULT: -8.300521131      4.084      8.507
REMARK  10 active torsions:
REMARK  status: ('A' for Active; 'I' for Inactive)
REMARK    1  A    between atoms: O1_2  and  C2_3 
REMARK    2  A    between atoms: C2_3  and  C3_5 
REMARK    3  A    between atoms: C3_5  and  O3_6 
REMARK    4  A    between atoms: C4_9  and  O4_10 
REMARK    5  A    between atoms: C4_9  and  C5_12 
REMARK    6  A    between atoms: C5_12  and  O5_13 
REMARK    7  A    between atoms: C6_15  and  N1_16 
REMARK    8  A    between atoms: C9_25  and  N5_26 
REMARK    9  A    between atoms: C11_32  and  N7_33 
REMARK   10  A    between atoms: N8_38  and  N9_40 
ROOT
HETATM    1  C3  UNL     1      -1.685  23.690  20.037  1.00  0.00     0.241 C 
HETATM    2  S1  UNL     1      -2.765  23.700  18.553  1.00  0.00    -0.072 SA
HETATM    3  C4  UNL     1      -1.748  24.146  17.120  1.00  0.00     0.155 C 
HETATM    4  C6  UNL     1      -0.908  25.330  17.458  1.00  0.00     0.191 C 
HETATM    5  C11 UNL     1       0.022  25.075  18.654  1.00  0.00     0.263 C 
HETATM    6  C12 UNL     1      -0.735  24.811  19.863  1.00  0.00     0.090 C 
HETATM    7  N8  UNL     1      -0.589  25.591  20.872  1.00  0.00    -0.309 N 
ATOM      8  H8  UNL     1      -1.136  25.375  21.705  1.00  0.00     0.186 HD
ENDROOT
BRANCH   4   9
HETATM    9  N1  UNL     1      -0.063  25.705  16.333  1.00  0.00    -0.247 N 
HETATM   10  N2  UNL     1       0.340  24.930  15.342  1.00  0.00    -0.017 NA
HETATM   11  N3  UNL     1       1.105  25.641  14.503  1.00  0.00    -0.276 N 
HETATM   12  C7  UNL     1       1.200  26.907  14.962  1.00  0.00     0.161 A 
ATOM     13  H3  UNL     1       1.544  25.284  13.654  1.00  0.00     0.184 HD
HETATM   14  C8  UNL     1       1.856  28.023  14.486  1.00  0.00     0.291 A 
HETATM   15  C10 UNL     1       0.453  26.927  16.124  1.00  0.00     0.170 A 
HETATM   16  O6  UNL     1       2.538  28.017  13.430  1.00  0.00    -0.265 OA
HETATM   17  N4  UNL     1       1.779  29.183  15.160  1.00  0.00    -0.154 N 
HETATM   18  C9  UNL     1       1.047  29.209  16.302  1.00  0.00     0.680 A 
ATOM     19  H4  UNL     1       2.257  30.019  14.823  1.00  0.00     0.187 HD
HETATM   20  N6  UNL     1       0.405  28.121  16.770  1.00  0.00    -0.173 N 
ATOM     21  H6  UNL     1      -0.131  28.195  17.634  1.00  0.00     0.186 HD
BRANCH  18  22
HETATM   22  N5  UNL     1       0.991  30.340  16.929  1.00  0.00    -0.234 N 
ATOM     23  H52 UNL     1       0.150  30.623  17.433  1.00  0.00     0.174 HD
ATOM     24  H51 UNL     1       1.825  30.925  16.890  1.00  0.00     0.174 HD
ENDBRANCH  18  22
ENDBRANCH   4   9
BRANCH   3  25
HETATM   25  O4  UNL     1      -1.023  23.026  16.741  1.00  0.00    -0.375 OA
ATOM     26  H4  UNL     1      -0.170  23.072  17.156  1.00  0.00     0.211 HD
ENDBRANCH   3  25
BRANCH   3  27
HETATM   27  C5  UNL     1      -2.702  24.570  16.020  1.00  0.00     0.216 C 
BRANCH  27  28
HETATM   28  O5  UNL     1      -2.456  23.791  14.909  1.00  0.00    -0.397 OA
ATOM     29  H5  UNL     1      -1.635  24.073  14.522  1.00  0.00     0.209 HD
ENDBRANCH  27  28
ENDBRANCH   3  27
BRANCH   5  30
HETATM   30  N7  UNL     1       0.994  24.090  18.296  1.00  0.00    -0.068 N 
ATOM     31  H73 UNL     1       1.714  24.465  17.679  1.00  0.00     0.275 HD
ATOM     32  H72 UNL     1       1.593  23.837  19.082  1.00  0.00     0.275 HD
ATOM     33  H71 UNL     1       0.523  23.280  17.893  1.00  0.00     0.275 HD
ENDBRANCH   5  30
BRANCH   1  34
HETATM   34  C2  UNL     1      -2.530  23.855  21.243  1.00  0.00     0.310 C 
HETATM   35  O2  UNL     1      -3.443  24.712  21.286  1.00  0.00    -0.260 OA
BRANCH  34  36
HETATM   36  O1  UNL     1      -2.333  23.064  22.362  1.00  0.00    -0.323 OA
HETATM   37  C1  UNL     1      -1.244  23.335  23.249  1.00  0.00     0.213 C 
ENDBRANCH  34  36
ENDBRANCH   1  34
BRANCH   1  38
HETATM   38  O3  UNL     1      -1.044  22.461  20.157  1.00  0.00    -0.366 OA
ATOM     39  H3  UNL     1      -1.457  21.872  19.536  1.00  0.00     0.212 HD
ENDBRANCH   1  38
BRANCH   7  40
HETATM   40  N9  UNL     1       0.233  26.687  20.936  1.00  0.00    -0.345 N 
ATOM     41  H92 UNL     1       0.616  26.900  21.857  1.00  0.00     0.176 HD
ATOM     42  H91 UNL     1       0.489  27.295  20.158  1.00  0.00     0.176 HD
ENDBRANCH   7  40
TORSDOF 10
ENDMDL
MODEL 4
REMARK VINA RESULT: -8.226980446      3.310      7.731
REMARK  10 active torsions:
REMARK  status: ('A' for Active; 'I' for Inactive)
REMARK    1  A    between atoms: O1_2  and  C2_3 
REMARK    2  A    between atoms: C2_3  and  C3_5 
REMARK    3  A    between atoms: C3_5  and  O3_6 
REMARK    4  A    between atoms: C4_9  and  O4_10 
REMARK    5  A    between atoms: C4_9  and  C5_12 
REMARK    6  A    between atoms: C5_12  and  O5_13 
REMARK    7  A    between atoms: C6_15  and  N1_16 
REMARK    8  A    between atoms: C9_25  and  N5_26 
REMARK    9  A    between atoms: C11_32  and  N7_33 
REMARK   10  A    between atoms: N8_38  and  N9_40 
ROOT
HETATM    1  C3  UNL     1      -1.580  22.449  21.784  1.00  0.00     0.241 C 
HETATM    2  S1  UNL     1      -0.988  23.869  22.786  1.00  0.00    -0.072 SA
HETATM    3  C4  UNL     1      -1.021  25.349  21.739  1.00  0.00     0.155 C 
HETATM    4  C6  UNL     1      -0.401  25.037  20.420  1.00  0.00     0.191 C 
HETATM    5  C11 UNL     1      -1.123  23.901  19.680  1.00  0.00     0.263 C 
HETATM    6  C12 UNL     1      -1.046  22.655  20.420  1.00  0.00     0.090 C 
HETATM    7  N8  UNL     1      -0.477  21.642  19.875  1.00  0.00    -0.309 N 
ATOM      8  H8  UNL     1      -0.440  20.783  20.424  1.00  0.00     0.186 HD
ENDROOT
BRANCH   4   9
HETATM    9  N1  UNL     1      -0.429  26.201  19.546  1.00  0.00    -0.247 N 
HETATM   10  N2  UNL     1      -0.807  27.427  19.857  1.00  0.00    -0.017 NA
HETATM   11  N3  UNL     1      -0.690  28.217  18.782  1.00  0.00    -0.276 N 
HETATM   12  C7  UNL     1      -0.225  27.484  17.748  1.00  0.00     0.161 A 
ATOM     13  H3  UNL     1      -0.915  29.212  18.749  1.00  0.00     0.184 HD
HETATM   14  C8  UNL     1       0.070  27.803  16.439  1.00  0.00     0.291 A 
HETATM   15  C10 UNL     1      -0.066  26.208  18.253  1.00  0.00     0.170 A 
HETATM   16  O6  UNL     1      -0.071  28.960  15.968  1.00  0.00    -0.265 OA
HETATM   17  N4  UNL     1       0.529  26.854  15.605  1.00  0.00    -0.154 N 
HETATM   18  C9  UNL     1       0.686  25.598  16.096  1.00  0.00     0.680 A 
ATOM     19  H4  UNL     1       0.752  27.071  14.634  1.00  0.00     0.187 HD
HETATM   20  N6  UNL     1       0.400  25.283  17.373  1.00  0.00    -0.173 N 
ATOM     21  H6  UNL     1       0.536  24.323  17.689  1.00  0.00     0.186 HD
BRANCH  18  22
HETATM   22  N5  UNL     1       1.130  24.706  15.270  1.00  0.00    -0.234 N 
ATOM     23  H52 UNL     1       1.933  24.896  14.669  1.00  0.00     0.174 HD
ATOM     24  H51 UNL     1       0.637  23.813  15.254  1.00  0.00     0.174 HD
ENDBRANCH  18  22
ENDBRANCH   4   9
BRANCH   3  25
HETATM   25  O4  UNL     1      -2.334  25.790  21.659  1.00  0.00    -0.375 OA
ATOM     26  H4  UNL     1      -2.321  26.732  21.539  1.00  0.00     0.211 HD
ENDBRANCH   3  25
BRANCH   3  27
HETATM   27  C5  UNL     1      -0.144  26.384  22.415  1.00  0.00     0.216 C 
BRANCH  27  28
HETATM   28  O5  UNL     1      -0.690  26.678  23.647  1.00  0.00    -0.397 OA
ATOM     29  H5  UNL     1       0.019  26.780  24.272  1.00  0.00     0.209 HD
ENDBRANCH  27  28
ENDBRANCH   3  27
BRANCH   5  30
HETATM   30  N7  UNL     1      -2.437  24.332  19.317  1.00  0.00    -0.068 N 
ATOM     31  H73 UNL     1      -3.110  24.198  20.072  1.00  0.00     0.275 HD
ATOM     32  H72 UNL     1      -2.503  25.347  19.242  1.00  0.00     0.275 HD
ATOM     33  H71 UNL     1      -2.722  23.862  18.458  1.00  0.00     0.275 HD
ENDBRANCH   5  30
BRANCH   1  34
HETATM   34  C2  UNL     1      -1.083  21.194  22.395  1.00  0.00     0.310 C 
HETATM   35  O2  UNL     1      -1.796  20.165  22.440  1.00  0.00    -0.260 OA
BRANCH  34  36
HETATM   36  O1  UNL     1       0.190  21.122  22.934  1.00  0.00    -0.323 OA
HETATM   37  C1  UNL     1       0.366  20.757  24.307  1.00  0.00     0.213 C 
ENDBRANCH  34  36
ENDBRANCH   1  34
BRANCH   1  38
HETATM   38  O3  UNL     1      -2.970  22.390  21.809  1.00  0.00    -0.366 OA
ATOM     39  H3  UNL     1      -3.288  23.160  21.352  1.00  0.00     0.212 HD
ENDBRANCH   1  38
BRANCH   7  40
HETATM   40  N9  UNL     1       0.087  21.604  18.625  1.00  0.00    -0.345 N 
ATOM     41  H92 UNL     1       1.035  21.233  18.578  1.00  0.00     0.176 HD
ATOM     42  H91 UNL     1      -0.352  21.910  17.757  1.00  0.00     0.176 HD
ENDBRANCH   7  40
TORSDOF 10
ENDMDL
MODEL 5
REMARK VINA RESULT: -8.203604319      3.419      7.990
REMARK  10 active torsions:
REMARK  status: ('A' for Active; 'I' for Inactive)
REMARK    1  A    between atoms: O1_2  and  C2_3 
REMARK    2  A    between atoms: C2_3  and  C3_5 
REMARK    3  A    between atoms: C3_5  and  O3_6 
REMARK    4  A    between atoms: C4_9  and  O4_10 
REMARK    5  A    between atoms: C4_9  and  C5_12 
REMARK    6  A    between atoms: C5_12  and  O5_13 
REMARK    7  A    between atoms: C6_15  and  N1_16 
REMARK    8  A    between atoms: C9_25  and  N5_26 
REMARK    9  A    between atoms: C11_32  and  N7_33 
REMARK   10  A    between atoms: N8_38  and  N9_40 
ROOT
HETATM    1  C3  UNL     1      -1.083  21.952  20.122  1.00  0.00     0.241 C 
HETATM    2  S1  UNL     1      -2.076  21.784  18.588  1.00  0.00    -0.072 SA
HETATM    3  C4  UNL     1      -1.432  22.960  17.368  1.00  0.00     0.155 C 
HETATM    4  C6  UNL     1      -1.247  24.291  18.012  1.00  0.00     0.191 C 
HETATM    5  C11 UNL     1      -0.276  24.244  19.202  1.00  0.00     0.263 C 
HETATM    6  C12 UNL     1      -0.784  23.394  20.263  1.00  0.00     0.090 C 
HETATM    7  N8  UNL     1      -0.999  23.907  21.420  1.00  0.00    -0.309 N 
ATOM      8  H8  UNL     1      -1.355  23.281  22.143  1.00  0.00     0.186 HD
ENDROOT
BRANCH   4   9
HETATM    9  N1  UNL     1      -0.711  25.257  17.063  1.00  0.00    -0.247 N 
HETATM   10  N2  UNL     1      -0.347  25.033  15.813  1.00  0.00    -0.017 NA
HETATM   11  N3  UNL     1       0.096  26.174  15.267  1.00  0.00    -0.276 N 
HETATM   12  C7  UNL     1       0.017  27.160  16.186  1.00  0.00     0.161 A 
ATOM     13  H3  UNL     1       0.437  26.280  14.311  1.00  0.00     0.184 HD
HETATM   14  C8  UNL     1       0.339  28.500  16.143  1.00  0.00     0.291 A 
HETATM   15  C10 UNL     1      -0.497  26.558  17.318  1.00  0.00     0.170 A 
HETATM   16  O6  UNL     1       0.806  29.059  15.118  1.00  0.00    -0.265 OA
HETATM   17  N4  UNL     1       0.154  29.268  17.230  1.00  0.00    -0.154 N 
HETATM   18  C9  UNL     1      -0.349  28.682  18.346  1.00  0.00     0.680 A 
ATOM     19  H4  UNL     1       0.386  30.262  17.217  1.00  0.00     0.187 HD
HETATM   20  N6  UNL     1      -0.665  27.374  18.391  1.00  0.00    -0.173 N 
ATOM     21  H6  UNL     1      -1.040  26.984  19.256  1.00  0.00     0.186 HD
BRANCH  18  22
HETATM   22  N5  UNL     1      -0.516  29.447  19.377  1.00  0.00    -0.234 N 
ATOM     23  H52 UNL     1      -1.070  29.141  20.177  1.00  0.00     0.174 HD
ATOM     24  H51 UNL     1      -0.069  30.363  19.342  1.00  0.00     0.174 HD
ENDBRANCH  18  22
ENDBRANCH   4   9
BRANCH   3  25
HETATM   25  O4  UNL     1      -0.273  22.425  16.825  1.00  0.00    -0.375 OA
ATOM     26  H4  UNL     1       0.194  21.971  17.517  1.00  0.00     0.211 HD
ENDBRANCH   3  25
BRANCH   3  27
HETATM   27  C5  UNL     1      -2.502  23.119  16.305  1.00  0.00     0.216 C 
BRANCH  27  28
HETATM   28  O5  UNL     1      -3.642  23.609  16.907  1.00  0.00    -0.397 OA
ATOM     29  H5  UNL     1      -3.922  22.986  17.567  1.00  0.00     0.209 HD
ENDBRANCH  27  28
ENDBRANCH   3  27
BRANCH   5  30
HETATM   30  N7  UNL     1       1.038  23.936  18.729  1.00  0.00    -0.068 N 
ATOM     31  H73 UNL     1       1.763  24.392  19.282  1.00  0.00     0.275 HD
ATOM     32  H72 UNL     1       1.298  22.968  18.917  1.00  0.00     0.275 HD
ATOM     33  H71 UNL     1       1.104  24.168  17.738  1.00  0.00     0.275 HD
ENDBRANCH   5  30
BRANCH   1  34
HETATM   34  C2  UNL     1      -1.872  21.431  21.262  1.00  0.00     0.310 C 
HETATM   35  O2  UNL     1      -3.122  21.508  21.278  1.00  0.00    -0.260 OA
BRANCH  34  36
HETATM   36  O1  UNL     1      -1.247  20.839  22.346  1.00  0.00    -0.323 OA
HETATM   37  C1  UNL     1      -2.001  20.521  23.521  1.00  0.00     0.213 C 
ENDBRANCH  34  36
ENDBRANCH   1  34
BRANCH   1  38
HETATM   38  O3  UNL     1       0.068  21.175  20.036  1.00  0.00    -0.366 OA
ATOM     39  H3  UNL     1       0.327  21.163  19.122  1.00  0.00     0.212 HD
ENDBRANCH   1  38
BRANCH   7  40
HETATM   40  N9  UNL     1      -0.795  25.215  21.778  1.00  0.00    -0.345 N 
ATOM     41  H92 UNL     1      -1.098  25.469  22.718  1.00  0.00     0.176 HD
ATOM     42  H91 UNL     1      -0.375  25.940  21.197  1.00  0.00     0.176 HD
ENDBRANCH   7  40
TORSDOF 10
ENDMDL
