MODEL 1
REMARK VINA RESULT: -7.290754255      0.000      0.000
REMARK  11 active torsions:
REMARK  status: ('A' for Active; 'I' for Inactive)
REMARK    1  A    between atoms: N1_1  and  C1_4 
REMARK    2  A    between atoms: N3_8  and  C3_9 
REMARK    3  A    between atoms: C4_10  and  O1_11 
REMARK    4  A    between atoms: C5_13  and  C6_14 
REMARK    5  A    between atoms: C6_14  and  O2_15 
REMARK    6  A    between atoms: C6_14  and  C7_17 
REMARK    7  A    between atoms: C7_17  and  O3_18 
REMARK    8  A    between atoms: C7_17  and  C8_20 
REMARK    9  A    between atoms: C8_20  and  O4_21 
REMARK   10  A    between atoms: C9_24  and  N4_25 
REMARK   11  A    between atoms: C10_26  and  N5_27 
ROOT
HETATM    1  C3  UNL     1      -1.347  25.626  19.385  1.00  0.00     0.194 C 
HETATM    2  C4  UNL     1      -0.473  25.506  20.665  1.00  0.00     0.179 C 
HETATM    3  C5  UNL     1      -0.880  24.123  21.133  1.00  0.00     0.186 C 
HETATM    4  O5  UNL     1      -2.074  23.843  20.412  1.00  0.00    -0.353 OA
HETATM    5  C9  UNL     1      -1.599  24.250  19.124  1.00  0.00     0.279 C 
ENDROOT
BRANCH   5   6
HETATM    6  N4  UNL     1      -2.460  23.714  18.178  1.00  0.00    -0.103 N 
HETATM    7  C10 UNL     1      -3.793  23.625  18.234  1.00  0.00     0.688 A 
HETATM    8  N6  UNL     1      -4.534  23.079  17.246  1.00  0.00    -0.141 N 
HETATM    9  C11 UNL     1      -3.951  22.590  16.141  1.00  0.00     0.342 A 
ATOM     10  H6  UNL     1      -5.549  23.038  17.341  1.00  0.00     0.189 HD
HETATM   11  O6  UNL     1      -4.649  22.077  15.210  1.00  0.00    -0.246 OA
HETATM   12  N7  UNL     1      -2.613  22.667  16.058  1.00  0.00    -0.259 N 
HETATM   13  C12 UNL     1      -1.902  23.204  17.033  1.00  0.00     0.347 A 
ATOM     14  H7  UNL     1      -2.139  22.306  15.231  1.00  0.00     0.175 HD
HETATM   15  O7  UNL     1      -0.644  23.245  16.891  1.00  0.00    -0.246 OA
BRANCH   7  16
HETATM   16  N5  UNL     1      -4.369  24.077  19.269  1.00  0.00    -0.234 N 
ATOM     17  H52 UNL     1      -3.981  24.893  19.744  1.00  0.00     0.174 HD
ATOM     18  H51 UNL     1      -5.212  23.600  19.588  1.00  0.00     0.174 HD
ENDBRANCH   7  16
ENDBRANCH   5   6
BRANCH   1  19
HETATM   19  N3  UNL     1      -0.642  26.478  18.515  1.00  0.00    -0.231 N 
HETATM   20  N2  UNL     1       0.012  25.901  17.498  1.00  0.00    -0.302 N 
HETATM   21  C2  UNL     1       0.717  26.561  16.596  1.00  0.00     0.155 A 
ATOM     22  H2  UNL     1      -0.037  24.886  17.414  1.00  0.00     0.186 HD
HETATM   23  C1  UNL     1       0.803  27.933  16.680  1.00  0.00     0.119 A 
HETATM   24  N8  UNL     1       0.156  28.526  17.691  1.00  0.00    -0.292 N 
HETATM   25  C13 UNL     1      -0.546  27.806  18.579  1.00  0.00     0.343 A 
ATOM     26  H8  UNL     1       0.198  29.540  17.787  1.00  0.00     0.172 HD
HETATM   27  O8  UNL     1      -1.120  28.404  19.488  1.00  0.00    -0.245 OA
BRANCH  23  28
HETATM   28  N1  UNL     1       1.478  28.635  15.826  1.00  0.00    -0.384 N 
ATOM     29  H12 UNL     1       2.324  28.260  15.396  1.00  0.00     0.157 HD
ATOM     30  H11 UNL     1       1.196  29.576  15.553  1.00  0.00     0.157 HD
ENDBRANCH  23  28
ENDBRANCH   1  19
BRANCH   2  31
HETATM   31  O1  UNL     1       0.873  25.577  20.313  1.00  0.00    -0.391 OA
ATOM     32  H1  UNL     1       1.396  25.712  21.095  1.00  0.00     0.210 HD
ENDBRANCH   2  31
BRANCH   3  33
HETATM   33  C6  UNL     1      -1.149  24.043  22.615  1.00  0.00     0.180 C 
BRANCH  33  34
HETATM   34  O2  UNL     1      -2.538  24.224  22.751  1.00  0.00    -0.390 OA
ATOM     35  H2  UNL     1      -2.740  25.008  22.254  1.00  0.00     0.210 HD
ENDBRANCH  33  34
BRANCH  33  36
HETATM   36  C7  UNL     1      -0.853  22.646  23.095  1.00  0.00     0.173 C 
BRANCH  36  37
HETATM   37  O3  UNL     1      -0.185  21.965  22.090  1.00  0.00    -0.391 OA
ATOM     38  H3  UNL     1      -0.334  21.034  22.204  1.00  0.00     0.210 HD
ENDBRANCH  36  37
BRANCH  36  39
HETATM   39  C8  UNL     1      -0.046  22.655  24.380  1.00  0.00     0.198 C 
BRANCH  39  40
HETATM   40  O4  UNL     1       1.155  21.979  24.116  1.00  0.00    -0.398 OA
ATOM     41  H4  UNL     1       1.817  22.641  23.954  1.00  0.00     0.209 HD
ENDBRANCH  39  40
ENDBRANCH  36  39
ENDBRANCH  33  36
ENDBRANCH   3  33
TORSDOF 11
ENDMDL
MODEL 2
REMARK VINA RESULT: -6.983210926      2.575      3.567
REMARK  11 active torsions:
REMARK  status: ('A' for Active; 'I' for Inactive)
REMARK    1  A    between atoms: N1_1  and  C1_4 
REMARK    2  A    between atoms: N3_8  and  C3_9 
REMARK    3  A    between atoms: C4_10  and  O1_11 
REMARK    4  A    between atoms: C5_13  and  C6_14 
REMARK    5  A    between atoms: C6_14  and  O2_15 
REMARK    6  A    between atoms: C6_14  and  C7_17 
REMARK    7  A    between atoms: C7_17  and  O3_18 
REMARK    8  A    between atoms: C7_17  and  C8_20 
REMARK    9  A    between atoms: C8_20  and  O4_21 
REMARK   10  A    between atoms: C9_24  and  N4_25 
REMARK   11  A    between atoms: C10_26  and  N5_27 
ROOT
HETATM    1  C3  UNL     1      -1.853  23.713  21.646  1.00  0.00     0.194 C 
HETATM    2  C4  UNL     1      -1.435  22.907  22.908  1.00  0.00     0.179 C 
HETATM    3  C5  UNL     1      -1.710  21.498  22.422  1.00  0.00     0.186 C 
HETATM    4  O5  UNL     1      -2.534  21.674  21.275  1.00  0.00    -0.353 OA
HETATM    5  C9  UNL     1      -1.750  22.698  20.654  1.00  0.00     0.279 C 
ENDROOT
BRANCH   5   6
HETATM    6  N4  UNL     1      -2.144  22.772  19.326  1.00  0.00    -0.103 N 
HETATM    7  C10 UNL     1      -3.263  23.309  18.828  1.00  0.00     0.688 A 
HETATM    8  N6  UNL     1      -3.543  23.324  17.507  1.00  0.00    -0.141 N 
HETATM    9  C11 UNL     1      -2.693  22.789  16.618  1.00  0.00     0.342 A 
ATOM     10  H6  UNL     1      -4.412  23.748  17.181  1.00  0.00     0.189 HD
HETATM   11  O6  UNL     1      -2.957  22.804  15.374  1.00  0.00    -0.246 OA
HETATM   12  N7  UNL     1      -1.560  22.243  17.092  1.00  0.00    -0.259 N 
HETATM   13  C12 UNL     1      -1.300  22.236  18.387  1.00  0.00     0.347 A 
ATOM     14  H7  UNL     1      -0.892  21.829  16.443  1.00  0.00     0.175 HD
HETATM   15  O7  UNL     1      -0.214  21.705  18.766  1.00  0.00    -0.246 OA
BRANCH   7  16
HETATM   16  N5  UNL     1      -4.085  23.820  19.646  1.00  0.00    -0.234 N 
ATOM     17  H52 UNL     1      -4.356  24.798  19.542  1.00  0.00     0.174 HD
ATOM     18  H51 UNL     1      -4.448  23.221  20.387  1.00  0.00     0.174 HD
ENDBRANCH   7  16
ENDBRANCH   5   6
BRANCH   1  19
HETATM   19  N3  UNL     1      -1.072  24.885  21.661  1.00  0.00    -0.231 N 
HETATM   20  N2  UNL     1      -0.918  25.496  22.843  1.00  0.00    -0.302 N 
HETATM   21  C2  UNL     1      -0.215  26.601  23.023  1.00  0.00     0.155 A 
ATOM     22  H2  UNL     1      -1.371  25.082  23.657  1.00  0.00     0.186 HD
HETATM   23  C1  UNL     1       0.411  27.185  21.944  1.00  0.00     0.119 A 
HETATM   24  N8  UNL     1       0.266  26.587  20.755  1.00  0.00    -0.292 N 
HETATM   25  C13 UNL     1      -0.460  25.465  20.629  1.00  0.00     0.343 A 
ATOM     26  H8  UNL     1       0.713  26.991  19.933  1.00  0.00     0.172 HD
HETATM   27  O8  UNL     1      -0.558  24.960  19.512  1.00  0.00    -0.245 OA
BRANCH  23  28
HETATM   28  N1  UNL     1       1.113  28.268  22.057  1.00  0.00    -0.384 N 
ATOM     29  H12 UNL     1       0.720  29.099  22.499  1.00  0.00     0.157 HD
ATOM     30  H11 UNL     1       2.071  28.332  21.716  1.00  0.00     0.157 HD
ENDBRANCH  23  28
ENDBRANCH   1  19
BRANCH   2  31
HETATM   31  O1  UNL     1      -0.085  23.127  23.170  1.00  0.00    -0.391 OA
ATOM     32  H1  UNL     1       0.026  23.992  23.548  1.00  0.00     0.210 HD
ENDBRANCH   2  31
BRANCH   3  33
HETATM   33  C6  UNL     1      -2.426  20.640  23.435  1.00  0.00     0.180 C 
BRANCH  33  34
HETATM   34  O2  UNL     1      -3.251  19.783  22.683  1.00  0.00    -0.390 OA
ATOM     35  H2  UNL     1      -3.719  19.259  23.322  1.00  0.00     0.210 HD
ENDBRANCH  33  34
BRANCH  33  36
HETATM   36  C7  UNL     1      -1.422  19.759  24.133  1.00  0.00     0.173 C 
BRANCH  36  37
HETATM   37  O3  UNL     1      -0.457  20.564  24.715  1.00  0.00    -0.391 OA
ATOM     38  H3  UNL     1      -0.302  21.311  24.148  1.00  0.00     0.210 HD
ENDBRANCH  36  37
BRANCH  36  39
HETATM   39  C8  UNL     1      -2.084  18.864  25.164  1.00  0.00     0.198 C 
BRANCH  39  40
HETATM   40  O4  UNL     1      -2.684  17.806  24.466  1.00  0.00    -0.398 OA
ATOM     41  H4  UNL     1      -3.202  17.316  25.094  1.00  0.00     0.209 HD
ENDBRANCH  39  40
ENDBRANCH  36  39
ENDBRANCH  33  36
ENDBRANCH   3  33
TORSDOF 11
ENDMDL
MODEL 3
REMARK VINA RESULT: -6.909781004      2.603      5.634
REMARK  11 active torsions:
REMARK  status: ('A' for Active; 'I' for Inactive)
REMARK    1  A    between atoms: N1_1  and  C1_4 
REMARK    2  A    between atoms: N3_8  and  C3_9 
REMARK    3  A    between atoms: C4_10  and  O1_11 
REMARK    4  A    between atoms: C5_13  and  C6_14 
REMARK    5  A    between atoms: C6_14  and  O2_15 
REMARK    6  A    between atoms: C6_14  and  C7_17 
REMARK    7  A    between atoms: C7_17  and  O3_18 
REMARK    8  A    between atoms: C7_17  and  C8_20 
REMARK    9  A    between atoms: C8_20  and  O4_21 
REMARK   10  A    between atoms: C9_24  and  N4_25 
REMARK   11  A    between atoms: C10_26  and  N5_27 
ROOT
HETATM    1  C3  UNL     1      -0.984  22.539  20.838  1.00  0.00     0.194 C 
HETATM    2  C4  UNL     1      -1.399  21.227  21.561  1.00  0.00     0.179 C 
HETATM    3  C5  UNL     1      -1.053  21.593  22.990  1.00  0.00     0.186 C 
HETATM    4  O5  UNL     1      -0.210  22.733  22.869  1.00  0.00    -0.353 OA
HETATM    5  C9  UNL     1      -1.020  23.450  21.931  1.00  0.00     0.279 C 
ENDROOT
BRANCH   5   6
HETATM    6  N4  UNL     1      -0.597  24.770  21.944  1.00  0.00    -0.103 N 
HETATM    7  C10 UNL     1      -0.471  25.585  22.998  1.00  0.00     0.688 A 
HETATM    8  N6  UNL     1      -0.046  26.862  22.891  1.00  0.00    -0.141 N 
HETATM    9  C11 UNL     1       0.275  27.381  21.696  1.00  0.00     0.342 A 
ATOM     10  H6  UNL     1       0.032  27.439  23.728  1.00  0.00     0.189 HD
HETATM   11  O6  UNL     1       0.676  28.583  21.595  1.00  0.00    -0.246 OA
HETATM   12  N7  UNL     1       0.159  26.584  20.621  1.00  0.00    -0.259 N 
HETATM   13  C12 UNL     1      -0.259  25.337  20.742  1.00  0.00     0.347 A 
ATOM     14  H7  UNL     1       0.396  26.947  19.698  1.00  0.00     0.175 HD
HETATM   15  O7  UNL     1      -0.346  24.640  19.687  1.00  0.00    -0.246 OA
BRANCH   7  16
HETATM   16  N5  UNL     1      -0.770  25.120  24.139  1.00  0.00    -0.234 N 
ATOM     17  H52 UNL     1      -1.264  24.230  24.204  1.00  0.00     0.174 HD
ATOM     18  H51 UNL     1      -0.499  25.664  24.957  1.00  0.00     0.174 HD
ENDBRANCH   7  16
ENDBRANCH   5   6
BRANCH   1  19
HETATM   19  N3  UNL     1      -1.813  22.634  19.704  1.00  0.00    -0.231 N 
HETATM   20  N2  UNL     1      -2.969  23.295  19.850  1.00  0.00    -0.302 N 
HETATM   21  C2  UNL     1      -3.852  23.473  18.884  1.00  0.00     0.155 A 
ATOM     22  H2  UNL     1      -3.180  23.688  20.768  1.00  0.00     0.186 HD
HETATM   23  C1  UNL     1      -3.597  22.956  17.634  1.00  0.00     0.119 A 
HETATM   24  N8  UNL     1      -2.447  22.291  17.470  1.00  0.00    -0.292 N 
HETATM   25  C13 UNL     1      -1.584  22.140  18.487  1.00  0.00     0.343 A 
ATOM     26  H8  UNL     1      -2.223  21.892  16.559  1.00  0.00     0.172 HD
HETATM   27  O8  UNL     1      -0.543  21.520  18.279  1.00  0.00    -0.245 OA
BRANCH  23  28
HETATM   28  N1  UNL     1      -4.424  23.097  16.647  1.00  0.00    -0.384 N 
ATOM     29  H12 UNL     1      -4.797  22.281  16.160  1.00  0.00     0.157 HD
ATOM     30  H11 UNL     1      -4.731  24.013  16.322  1.00  0.00     0.157 HD
ENDBRANCH  23  28
ENDBRANCH   1  19
BRANCH   2  31
HETATM   31  O1  UNL     1      -2.763  21.012  21.380  1.00  0.00    -0.391 OA
ATOM     32  H1  UNL     1      -3.030  20.245  21.873  1.00  0.00     0.210 HD
ENDBRANCH   2  31
BRANCH   3  33
HETATM   33  C6  UNL     1      -0.327  20.500  23.734  1.00  0.00     0.180 C 
BRANCH  33  34
HETATM   34  O2  UNL     1       0.948  21.024  24.015  1.00  0.00    -0.390 OA
ATOM     35  H2  UNL     1       1.473  20.838  23.246  1.00  0.00     0.210 HD
ENDBRANCH  33  34
BRANCH  33  36
HETATM   36  C7  UNL     1      -0.999  20.278  25.064  1.00  0.00     0.173 C 
BRANCH  36  37
HETATM   37  O3  UNL     1      -2.371  20.282  24.872  1.00  0.00    -0.391 OA
ATOM     38  H3  UNL     1      -2.663  19.386  24.751  1.00  0.00     0.210 HD
ENDBRANCH  36  37
BRANCH  36  39
HETATM   39  C8  UNL     1      -0.540  18.987  25.714  1.00  0.00     0.198 C 
BRANCH  39  40
HETATM   40  O4  UNL     1       0.539  19.307  26.550  1.00  0.00    -0.398 OA
ATOM     41  H4  UNL     1       0.964  20.071  26.178  1.00  0.00     0.209 HD
ENDBRANCH  39  40
ENDBRANCH  36  39
ENDBRANCH  33  36
ENDBRANCH   3  33
TORSDOF 11
ENDMDL
MODEL 4
REMARK VINA RESULT: -6.724754858      2.692      3.940
REMARK  11 active torsions:
REMARK  status: ('A' for Active; 'I' for Inactive)
REMARK    1  A    between atoms: N1_1  and  C1_4 
REMARK    2  A    between atoms: N3_8  and  C3_9 
REMARK    3  A    between atoms: C4_10  and  O1_11 
REMARK    4  A    between atoms: C5_13  and  C6_14 
REMARK    5  A    between atoms: C6_14  and  O2_15 
REMARK    6  A    between atoms: C6_14  and  C7_17 
REMARK    7  A    between atoms: C7_17  and  O3_18 
REMARK    8  A    between atoms: C7_17  and  C8_20 
REMARK    9  A    between atoms: C8_20  and  O4_21 
REMARK   10  A    between atoms: C9_24  and  N4_25 
REMARK   11  A    between atoms: C10_26  and  N5_27 
ROOT
HETATM    1  C3  UNL     1      -1.743  23.564  21.701  1.00  0.00     0.194 C 
HETATM    2  C4  UNL     1      -1.404  22.832  23.030  1.00  0.00     0.179 C 
HETATM    3  C5  UNL     1      -1.595  21.393  22.594  1.00  0.00     0.186 C 
HETATM    4  O5  UNL     1      -2.328  21.486  21.378  1.00  0.00    -0.353 OA
HETATM    5  C9  UNL     1      -1.529  22.508  20.771  1.00  0.00     0.279 C 
ENDROOT
BRANCH   5   6
HETATM    6  N4  UNL     1      -1.816  22.506  19.415  1.00  0.00    -0.103 N 
HETATM    7  C10 UNL     1      -1.060  22.041  18.413  1.00  0.00     0.688 A 
HETATM    8  N6  UNL     1      -1.445  22.092  17.120  1.00  0.00    -0.141 N 
HETATM    9  C11 UNL     1      -2.628  22.623  16.776  1.00  0.00     0.342 A 
ATOM     10  H6  UNL     1      -0.829  21.722  16.396  1.00  0.00     0.189 HD
HETATM   11  O6  UNL     1      -2.991  22.671  15.558  1.00  0.00    -0.246 OA
HETATM   12  N7  UNL     1      -3.407  23.097  17.763  1.00  0.00    -0.259 N 
HETATM   13  C12 UNL     1      -3.017  23.040  19.023  1.00  0.00     0.347 A 
ATOM     14  H7  UNL     1      -4.313  23.506  17.535  1.00  0.00     0.175 HD
HETATM   15  O7  UNL     1      -3.800  23.505  19.904  1.00  0.00    -0.246 OA
BRANCH   7  16
HETATM   16  N5  UNL     1       0.064  21.536  18.711  1.00  0.00    -0.234 N 
ATOM     17  H52 UNL     1       0.157  20.987  19.566  1.00  0.00     0.174 HD
ATOM     18  H51 UNL     1       0.840  21.701  18.071  1.00  0.00     0.174 HD
ENDBRANCH   7  16
ENDBRANCH   5   6
BRANCH   1  19
HETATM   19  N3  UNL     1      -1.003  24.761  21.720  1.00  0.00    -0.231 N 
HETATM   20  N2  UNL     1      -0.916  25.403  22.893  1.00  0.00    -0.302 N 
HETATM   21  C2  UNL     1      -0.259  26.534  23.075  1.00  0.00     0.155 A 
ATOM     22  H2  UNL     1      -1.388  24.990  23.698  1.00  0.00     0.186 HD
HETATM   23  C1  UNL     1       0.390  27.117  22.010  1.00  0.00     0.119 A 
HETATM   24  N8  UNL     1       0.312  26.489  20.830  1.00  0.00    -0.292 N 
HETATM   25  C13 UNL     1      -0.370  25.340  20.700  1.00  0.00     0.343 A 
ATOM     26  H8  UNL     1       0.778  26.890  20.016  1.00  0.00     0.172 HD
HETATM   27  O8  UNL     1      -0.407  24.808  19.592  1.00  0.00    -0.245 OA
BRANCH  23  28
HETATM   28  N1  UNL     1       1.050  28.224  22.126  1.00  0.00    -0.384 N 
ATOM     29  H12 UNL     1       0.808  28.901  22.849  1.00  0.00     0.157 HD
ATOM     30  H11 UNL     1       1.827  28.460  21.509  1.00  0.00     0.157 HD
ENDBRANCH  23  28
ENDBRANCH   1  19
BRANCH   2  31
HETATM   31  O1  UNL     1      -0.088  23.111  23.388  1.00  0.00    -0.391 OA
ATOM     32  H1  UNL     1       0.500  22.567  22.877  1.00  0.00     0.210 HD
ENDBRANCH   2  31
BRANCH   3  33
HETATM   33  C6  UNL     1      -2.364  20.559  23.589  1.00  0.00     0.180 C 
BRANCH  33  34
HETATM   34  O2  UNL     1      -3.161  19.696  22.814  1.00  0.00    -0.390 OA
ATOM     35  H2  UNL     1      -3.977  19.608  23.293  1.00  0.00     0.210 HD
ENDBRANCH  33  34
BRANCH  33  36
HETATM   36  C7  UNL     1      -1.401  19.683  24.346  1.00  0.00     0.173 C 
BRANCH  36  37
HETATM   37  O3  UNL     1      -0.508  20.494  25.028  1.00  0.00    -0.391 OA
ATOM     38  H3  UNL     1      -0.595  21.382  24.702  1.00  0.00     0.210 HD
ENDBRANCH  36  37
BRANCH  36  39
HETATM   39  C8  UNL     1      -2.124  18.747  25.296  1.00  0.00     0.198 C 
BRANCH  39  40
HETATM   40  O4  UNL     1      -2.559  17.648  24.540  1.00  0.00    -0.398 OA
ATOM     41  H4  UNL     1      -1.843  17.023  24.518  1.00  0.00     0.209 HD
ENDBRANCH  39  40
ENDBRANCH  36  39
ENDBRANCH  33  36
ENDBRANCH   3  33
TORSDOF 11
ENDMDL
MODEL 5
REMARK VINA RESULT: -6.641188014      2.610      5.935
REMARK  11 active torsions:
REMARK  status: ('A' for Active; 'I' for Inactive)
REMARK    1  A    between atoms: N1_1  and  C1_4 
REMARK    2  A    between atoms: N3_8  and  C3_9 
REMARK    3  A    between atoms: C4_10  and  O1_11 
REMARK    4  A    between atoms: C5_13  and  C6_14 
REMARK    5  A    between atoms: C6_14  and  O2_15 
REMARK    6  A    between atoms: C6_14  and  C7_17 
REMARK    7  A    between atoms: C7_17  and  O3_18 
REMARK    8  A    between atoms: C7_17  and  C8_20 
REMARK    9  A    between atoms: C8_20  and  O4_21 
REMARK   10  A    between atoms: C9_24  and  N4_25 
REMARK   11  A    between atoms: C10_26  and  N5_27 
ROOT
HETATM    1  C3  UNL     1      -0.621  23.639  18.742  1.00  0.00     0.194 C 
HETATM    2  C4  UNL     1       0.413  24.800  18.740  1.00  0.00     0.179 C 
HETATM    3  C5  UNL     1      -0.153  25.654  17.623  1.00  0.00     0.186 C 
HETATM    4  O5  UNL     1      -1.055  24.791  16.940  1.00  0.00    -0.353 OA
HETATM    5  C9  UNL     1      -1.719  24.279  18.101  1.00  0.00     0.279 C 
ENDROOT
BRANCH   5   6
HETATM    6  N4  UNL     1      -2.904  23.698  17.676  1.00  0.00    -0.103 N 
HETATM    7  C10 UNL     1      -3.163  23.121  16.498  1.00  0.00     0.688 A 
HETATM    8  N6  UNL     1      -4.364  22.584  16.192  1.00  0.00    -0.141 N 
HETATM    9  C11 UNL     1      -5.371  22.607  17.078  1.00  0.00     0.342 A 
ATOM     10  H6  UNL     1      -4.506  22.156  15.278  1.00  0.00     0.189 HD
HETATM   11  O6  UNL     1      -6.502  22.101  16.791  1.00  0.00    -0.246 OA
HETATM   12  N7  UNL     1      -5.138  23.180  18.270  1.00  0.00    -0.259 N 
HETATM   13  C12 UNL     1      -3.958  23.701  18.554  1.00  0.00     0.347 A 
ATOM     14  H7  UNL     1      -5.882  23.213  18.967  1.00  0.00     0.175 HD
HETATM   15  O7  UNL     1      -3.806  24.226  19.697  1.00  0.00    -0.246 OA
BRANCH   7  16
HETATM   16  N5  UNL     1      -2.229  23.088  15.642  1.00  0.00    -0.234 N 
ATOM     17  H52 UNL     1      -1.565  22.313  15.653  1.00  0.00     0.174 HD
ATOM     18  H51 UNL     1      -2.179  23.851  14.966  1.00  0.00     0.174 HD
ENDBRANCH   7  16
ENDBRANCH   5   6
BRANCH   1  19
HETATM   19  N3  UNL     1      -0.652  23.152  20.062  1.00  0.00    -0.231 N 
HETATM   20  N2  UNL     1      -1.203  23.947  20.989  1.00  0.00    -0.302 N 
HETATM   21  C2  UNL     1      -1.310  23.635  22.268  1.00  0.00     0.155 A 
ATOM     22  H2  UNL     1      -1.565  24.852  20.687  1.00  0.00     0.186 HD
HETATM   23  C1  UNL     1      -0.832  22.421  22.709  1.00  0.00     0.119 A 
HETATM   24  N8  UNL     1      -0.277  21.615  21.795  1.00  0.00    -0.292 N 
HETATM   25  C13 UNL     1      -0.195  21.982  20.507  1.00  0.00     0.343 A 
ATOM     26  H8  UNL     1       0.089  20.707  22.083  1.00  0.00     0.172 HD
HETATM   27  O8  UNL     1       0.325  21.201  19.713  1.00  0.00    -0.245 OA
BRANCH  23  28
HETATM   28  N1  UNL     1      -0.908  22.058  23.950  1.00  0.00    -0.384 N 
ATOM     29  H12 UNL     1      -0.967  21.072  24.201  1.00  0.00     0.157 HD
ATOM     30  H11 UNL     1      -0.912  22.734  24.713  1.00  0.00     0.157 HD
ENDBRANCH  23  28
ENDBRANCH   1  19
BRANCH   2  31
HETATM   31  O1  UNL     1       0.383  25.446  19.973  1.00  0.00    -0.391 OA
ATOM     32  H1  UNL     1       1.126  26.036  20.038  1.00  0.00     0.210 HD
ENDBRANCH   2  31
BRANCH   3  33
HETATM   33  C6  UNL     1       0.893  26.160  16.662  1.00  0.00     0.180 C 
BRANCH  33  34
HETATM   34  O2  UNL     1       1.913  25.190  16.677  1.00  0.00    -0.390 OA
ATOM     35  H2  UNL     1       2.541  25.476  16.024  1.00  0.00     0.210 HD
ENDBRANCH  33  34
BRANCH  33  36
HETATM   36  C7  UNL     1       0.325  26.157  15.267  1.00  0.00     0.173 C 
BRANCH  36  37
HETATM   37  O3  UNL     1      -0.645  27.144  15.182  1.00  0.00    -0.391 OA
ATOM     38  H3  UNL     1      -0.548  27.594  14.351  1.00  0.00     0.210 HD
ENDBRANCH  36  37
BRANCH  36  39
HETATM   39  C8  UNL     1       1.405  26.360  14.221  1.00  0.00     0.198 C 
BRANCH  39  40
HETATM   40  O4  UNL     1       1.476  25.179  13.468  1.00  0.00    -0.398 OA
ATOM     41  H4  UNL     1       1.839  25.410  12.621  1.00  0.00     0.209 HD
ENDBRANCH  39  40
ENDBRANCH  36  39
ENDBRANCH  33  36
ENDBRANCH   3  33
TORSDOF 11
ENDMDL
