MODEL 1
REMARK VINA RESULT: -8.890052197      0.000      0.000
REMARK  11 active torsions:
REMARK  status: ('A' for Active; 'I' for Inactive)
REMARK    1  A    between atoms: C1_2  and  C2_4 
REMARK    2  A    between atoms: C2_4  and  O2_5 
REMARK    3  A    between atoms: C6_12  and  C7_13 
REMARK    4  A    between atoms: C7_13  and  C8_14 
REMARK    5  A    between atoms: C8_14  and  N2_15 
REMARK    6  A    between atoms: C8_14  and  O4_19 
REMARK    7  A    between atoms: C9_21  and  O5_22 
REMARK    8  A    between atoms: C10_24  and  O6_25 
REMARK    9  A    between atoms: C12_29  and  O8_30 
REMARK   10  A    between atoms: C12_29  and  O9_32 
REMARK   11  A    between atoms: C13_34  and  O10_35 
ROOT
HETATM    1  C2  UNL     1       0.839  20.821  24.627  1.00  0.00     0.146 C 
HETATM    2  C3  UNL     1      -0.338  21.230  24.150  1.00  0.00     0.053 A 
HETATM    3  S1  UNL     1      -2.116  21.302  24.314  1.00  0.00    -0.097 SA
HETATM    4  C4  UNL     1      -1.106  21.959  23.084  1.00  0.00     0.173 A 
HETATM    5  C5  UNL     1      -1.111  21.387  21.723  1.00  0.00     0.166 C 
HETATM    6  O3  UNL     1      -1.780  20.404  21.508  1.00  0.00    -0.295 OA
HETATM    7  C6  UNL     1      -0.303  22.025  20.667  1.00  0.00     0.103 C 
HETATM    8  C9  UNL     1      -0.628  23.477  20.474  1.00  0.00     0.145 C 
HETATM    9  C10 UNL     1      -1.778  23.725  19.534  1.00  0.00     0.232 C 
HETATM   10  C11 UNL     1      -2.946  24.073  20.413  1.00  0.00     0.223 C 
HETATM   11  O7  UNL     1      -4.111  23.878  20.121  1.00  0.00    -0.289 OA
HETATM   12  C12 UNL     1      -2.397  24.675  21.651  1.00  0.00     0.268 C 
HETATM   13  C13 UNL     1      -0.963  24.192  21.740  1.00  0.00     0.219 C 
HETATM   14  C14 UNL     1      -0.835  23.419  22.975  1.00  0.00     0.202 C 
HETATM   15  O11 UNL     1      -0.485  23.984  23.995  1.00  0.00    -0.292 OA
ENDROOT
BRANCH   1  16
HETATM   16  C1  UNL     1       0.905  20.061  25.856  1.00  0.00     0.288 C 
HETATM   17  N1  UNL     1       0.107  18.915  26.061  1.00  0.00    -0.055 NA
HETATM   18  O1  UNL     1       1.682  20.400  26.783  1.00  0.00    -0.269 OA
ENDBRANCH   1  16
BRANCH   1  19
HETATM   19  O2  UNL     1       2.006  21.120  23.956  1.00  0.00    -0.355 OA
ATOM     20  H2  UNL     1       2.051  20.979  23.018  1.00  0.00     0.218 HD
ENDBRANCH   1  19
BRANCH   7  21
HETATM   21  C7  UNL     1      -0.386  21.192  19.446  1.00  0.00     0.076 C 
BRANCH  21  22
HETATM   22  C8  UNL     1      -0.038  21.857  18.158  1.00  0.00     0.316 C 
BRANCH  22  23
HETATM   23  N2  UNL     1       1.404  21.991  18.085  1.00  0.00    -0.053 N 
ATOM     24  H23 UNL     1       1.861  21.798  18.976  1.00  0.00     0.277 HD
ATOM     25  H22 UNL     1       1.840  21.247  17.541  1.00  0.00     0.277 HD
ATOM     26  H21 UNL     1       1.624  22.920  17.724  1.00  0.00     0.277 HD
ENDBRANCH  22  23
BRANCH  22  27
HETATM   27  O4  UNL     1      -0.383  20.949  17.129  1.00  0.00    -0.370 OA
ATOM     28  H4  UNL     1      -0.907  21.434  16.503  1.00  0.00     0.212 HD
ENDBRANCH  22  27
ENDBRANCH  21  22
ENDBRANCH   7  21
BRANCH  13  29
HETATM   29  O10 UNL     1      -0.186  25.367  21.889  1.00  0.00    -0.374 OA
ATOM     30  H10 UNL     1      -0.095  25.827  21.064  1.00  0.00     0.211 HD
ENDBRANCH  13  29
BRANCH   8  31
HETATM   31  O5  UNL     1       0.497  24.094  19.927  1.00  0.00    -0.382 OA
ATOM     32  H5  UNL     1       0.805  24.739  20.552  1.00  0.00     0.210 HD
ENDBRANCH   8  31
BRANCH  12  33
HETATM   33  O8  UNL     1      -2.494  26.056  21.511  1.00  0.00    -0.357 OA
ATOM     34  H8  UNL     1      -1.724  26.342  21.033  1.00  0.00     0.213 HD
ENDBRANCH  12  33
BRANCH  12  35
HETATM   35  O9  UNL     1      -3.127  24.329  22.779  1.00  0.00    -0.357 OA
ATOM     36  H9  UNL     1      -3.061  23.405  22.986  1.00  0.00     0.213 HD
ENDBRANCH  12  35
BRANCH   9  37
HETATM   37  O6  UNL     1      -1.555  24.840  18.704  1.00  0.00    -0.385 OA
ATOM     38  H6  UNL     1      -2.327  25.388  18.625  1.00  0.00     0.210 HD
ENDBRANCH   9  37
TORSDOF 11
ENDMDL
MODEL 2
REMARK VINA RESULT: -7.940933334      2.679      4.170
REMARK  11 active torsions:
REMARK  status: ('A' for Active; 'I' for Inactive)
REMARK    1  A    between atoms: C1_2  and  C2_4 
REMARK    2  A    between atoms: C2_4  and  O2_5 
REMARK    3  A    between atoms: C6_12  and  C7_13 
REMARK    4  A    between atoms: C7_13  and  C8_14 
REMARK    5  A    between atoms: C8_14  and  N2_15 
REMARK    6  A    between atoms: C8_14  and  O4_19 
REMARK    7  A    between atoms: C9_21  and  O5_22 
REMARK    8  A    between atoms: C10_24  and  O6_25 
REMARK    9  A    between atoms: C12_29  and  O8_30 
REMARK   10  A    between atoms: C12_29  and  O9_32 
REMARK   11  A    between atoms: C13_34  and  O10_35 
ROOT
HETATM    1  C2  UNL     1      -2.127  20.745  22.311  1.00  0.00     0.146 C 
HETATM    2  C3  UNL     1      -1.777  21.972  21.925  1.00  0.00     0.053 A 
HETATM    3  S1  UNL     1      -1.321  23.644  22.362  1.00  0.00    -0.097 SA
HETATM    4  C4  UNL     1      -1.488  22.931  20.804  1.00  0.00     0.173 A 
HETATM    5  C5  UNL     1      -2.605  23.315  19.919  1.00  0.00     0.166 C 
HETATM    6  O3  UNL     1      -3.440  24.082  20.337  1.00  0.00    -0.295 OA
HETATM    7  C6  UNL     1      -2.674  22.755  18.556  1.00  0.00     0.103 C 
HETATM    8  C9  UNL     1      -1.437  23.018  17.749  1.00  0.00     0.145 C 
HETATM    9  C10 UNL     1      -1.443  24.347  17.040  1.00  0.00     0.232 C 
HETATM   10  C11 UNL     1      -0.530  25.232  17.841  1.00  0.00     0.223 C 
HETATM   11  O7  UNL     1      -0.624  26.444  17.904  1.00  0.00    -0.289 OA
HETATM   12  C12 UNL     1       0.460  24.351  18.506  1.00  0.00     0.268 C 
HETATM   13  C13 UNL     1      -0.177  22.977  18.548  1.00  0.00     0.219 C 
HETATM   14  C14 UNL     1      -0.312  22.597  19.953  1.00  0.00     0.202 C 
HETATM   15  O11 UNL     1       0.581  21.966  20.487  1.00  0.00    -0.292 OA
ENDROOT
BRANCH   1  16
HETATM   16  C1  UNL     1      -2.243  20.425  23.717  1.00  0.00     0.288 C 
HETATM   17  N1  UNL     1      -3.015  19.332  24.165  1.00  0.00    -0.055 NA
HETATM   18  O1  UNL     1      -1.654  21.115  24.586  1.00  0.00    -0.269 OA
ENDBRANCH   1  16
BRANCH   1  19
HETATM   19  O2  UNL     1      -2.381  19.765  21.374  1.00  0.00    -0.355 OA
ATOM     20  H2  UNL     1      -2.254  19.959  20.453  1.00  0.00     0.218 HD
ENDBRANCH   1  19
BRANCH   7  21
HETATM   21  C7  UNL     1      -3.942  23.197  17.932  1.00  0.00     0.076 C 
BRANCH  21  22
HETATM   22  C8  UNL     1      -4.527  22.295  16.898  1.00  0.00     0.316 C 
BRANCH  22  23
HETATM   23  N2  UNL     1      -5.961  22.508  16.863  1.00  0.00    -0.053 N 
ATOM     24  H23 UNL     1      -6.217  23.481  17.030  1.00  0.00     0.277 HD
ATOM     25  H22 UNL     1      -6.348  22.422  15.923  1.00  0.00     0.277 HD
ATOM     26  H21 UNL     1      -6.399  21.868  17.527  1.00  0.00     0.277 HD
ENDBRANCH  22  23
BRANCH  22  27
HETATM   27  O4  UNL     1      -4.050  22.752  15.647  1.00  0.00    -0.370 OA
ATOM     28  H4  UNL     1      -4.784  22.713  15.045  1.00  0.00     0.212 HD
ENDBRANCH  22  27
ENDBRANCH  21  22
ENDBRANCH   7  21
BRANCH  13  29
HETATM   29  O10 UNL     1       0.776  22.109  17.961  1.00  0.00    -0.374 OA
ATOM     30  H10 UNL     1       1.394  21.789  18.607  1.00  0.00     0.211 HD
ENDBRANCH  13  29
BRANCH   8  31
HETATM   31  O5  UNL     1      -1.349  22.027  16.772  1.00  0.00    -0.382 OA
ATOM     32  H5  UNL     1      -0.963  21.258  17.174  1.00  0.00     0.210 HD
ENDBRANCH   8  31
BRANCH  12  33
HETATM   33  O8  UNL     1       1.619  24.385  17.735  1.00  0.00    -0.357 OA
ATOM     34  H8  UNL     1       2.134  25.123  18.039  1.00  0.00     0.213 HD
ENDBRANCH  12  33
BRANCH  12  35
HETATM   35  O9  UNL     1       0.803  24.798  19.774  1.00  0.00    -0.357 OA
ATOM     36  H9  UNL     1       1.742  24.893  19.885  1.00  0.00     0.213 HD
ENDBRANCH  12  35
BRANCH   9  37
HETATM   37  O6  UNL     1      -0.888  24.263  15.749  1.00  0.00    -0.385 OA
ATOM     38  H6  UNL     1      -0.176  24.880  15.624  1.00  0.00     0.210 HD
ENDBRANCH   9  37
TORSDOF 11
ENDMDL
MODEL 3
REMARK VINA RESULT: -7.776492365      2.069      4.122
REMARK  11 active torsions:
REMARK  status: ('A' for Active; 'I' for Inactive)
REMARK    1  A    between atoms: C1_2  and  C2_4 
REMARK    2  A    between atoms: C2_4  and  O2_5 
REMARK    3  A    between atoms: C6_12  and  C7_13 
REMARK    4  A    between atoms: C7_13  and  C8_14 
REMARK    5  A    between atoms: C8_14  and  N2_15 
REMARK    6  A    between atoms: C8_14  and  O4_19 
REMARK    7  A    between atoms: C9_21  and  O5_22 
REMARK    8  A    between atoms: C10_24  and  O6_25 
REMARK    9  A    between atoms: C12_29  and  O8_30 
REMARK   10  A    between atoms: C12_29  and  O9_32 
REMARK   11  A    between atoms: C13_34  and  O10_35 
ROOT
HETATM    1  C2  UNL     1      -1.706  20.586  25.602  1.00  0.00     0.146 C 
HETATM    2  C3  UNL     1      -0.854  20.917  24.631  1.00  0.00     0.053 A 
HETATM    3  S1  UNL     1       0.811  20.892  23.981  1.00  0.00    -0.097 SA
HETATM    4  C4  UNL     1      -0.615  21.580  23.304  1.00  0.00     0.173 A 
HETATM    5  C5  UNL     1      -0.778  23.045  23.225  1.00  0.00     0.166 C 
HETATM    6  O3  UNL     1       0.074  23.751  23.711  1.00  0.00    -0.295 OA
HETATM    7  C6  UNL     1      -1.969  23.606  22.560  1.00  0.00     0.103 C 
HETATM    8  C9  UNL     1      -2.136  23.124  21.149  1.00  0.00     0.145 C 
HETATM    9  C10 UNL     1      -1.375  23.935  20.134  1.00  0.00     0.232 C 
HETATM   10  C11 UNL     1      -0.179  23.100  19.770  1.00  0.00     0.223 C 
HETATM   11  O7  UNL     1       0.884  23.548  19.383  1.00  0.00    -0.289 OA
HETATM   12  C12 UNL     1      -0.559  21.681  19.975  1.00  0.00     0.268 C 
HETATM   13  C13 UNL     1      -1.723  21.705  20.944  1.00  0.00     0.219 C 
HETATM   14  C14 UNL     1      -1.316  20.969  22.140  1.00  0.00     0.202 C 
HETATM   15  O11 UNL     1      -1.553  19.778  22.214  1.00  0.00    -0.292 OA
ENDROOT
BRANCH   1  16
HETATM   16  C1  UNL     1      -1.247  19.855  26.762  1.00  0.00     0.288 C 
HETATM   17  N1  UNL     1      -0.436  18.707  26.639  1.00  0.00    -0.055 NA
HETATM   18  O1  UNL     1      -1.557  20.225  27.922  1.00  0.00    -0.269 OA
ENDBRANCH   1  16
BRANCH   1  19
HETATM   19  O2  UNL     1      -3.037  20.936  25.510  1.00  0.00    -0.355 OA
ATOM     20  H2  UNL     1      -3.445  20.989  24.654  1.00  0.00     0.218 HD
ENDBRANCH   1  19
BRANCH   7  21
HETATM   21  C7  UNL     1      -1.950  25.077  22.728  1.00  0.00     0.076 C 
BRANCH  21  22
HETATM   22  C8  UNL     1      -0.608  25.722  22.812  1.00  0.00     0.316 C 
BRANCH  22  23
HETATM   23  N2  UNL     1      -0.365  26.440  21.576  1.00  0.00    -0.053 N 
ATOM     24  H23 UNL     1      -0.328  25.822  20.766  1.00  0.00     0.277 HD
ATOM     25  H22 UNL     1      -1.165  27.003  21.285  1.00  0.00     0.277 HD
ATOM     26  H21 UNL     1       0.485  26.994  21.686  1.00  0.00     0.277 HD
ENDBRANCH  22  23
BRANCH  22  27
HETATM   27  O4  UNL     1      -0.703  26.719  23.812  1.00  0.00    -0.370 OA
ATOM     28  H4  UNL     1      -1.363  27.336  23.519  1.00  0.00     0.212 HD
ENDBRANCH  22  27
ENDBRANCH  21  22
ENDBRANCH   7  21
BRANCH  13  29
HETATM   29  O10 UNL     1      -2.747  20.958  20.311  1.00  0.00    -0.374 OA
ATOM     30  H10 UNL     1      -2.734  21.084  19.370  1.00  0.00     0.211 HD
ENDBRANCH  13  29
BRANCH   8  31
HETATM   31  O5  UNL     1      -3.489  23.221  20.826  1.00  0.00    -0.382 OA
ATOM     32  H5  UNL     1      -3.948  22.532  21.294  1.00  0.00     0.210 HD
ENDBRANCH   8  31
BRANCH  12  33
HETATM   33  O8  UNL     1      -0.904  21.167  18.728  1.00  0.00    -0.357 OA
ATOM     34  H8  UNL     1      -0.630  20.257  18.716  1.00  0.00     0.213 HD
ENDBRANCH  12  33
BRANCH  12  35
HETATM   35  O9  UNL     1       0.493  20.913  20.454  1.00  0.00    -0.357 OA
ATOM     36  H9  UNL     1       0.831  21.235  21.281  1.00  0.00     0.213 HD
ENDBRANCH  12  35
BRANCH   9  37
HETATM   37  O6  UNL     1      -2.107  24.124  18.947  1.00  0.00    -0.385 OA
ATOM     38  H6  UNL     1      -2.346  25.034  18.814  1.00  0.00     0.210 HD
ENDBRANCH   9  37
TORSDOF 11
ENDMDL
MODEL 4
REMARK VINA RESULT: -7.773871649      4.114      7.206
REMARK  11 active torsions:
REMARK  status: ('A' for Active; 'I' for Inactive)
REMARK    1  A    between atoms: C1_2  and  C2_4 
REMARK    2  A    between atoms: C2_4  and  O2_5 
REMARK    3  A    between atoms: C6_12  and  C7_13 
REMARK    4  A    between atoms: C7_13  and  C8_14 
REMARK    5  A    between atoms: C8_14  and  N2_15 
REMARK    6  A    between atoms: C8_14  and  O4_19 
REMARK    7  A    between atoms: C9_21  and  O5_22 
REMARK    8  A    between atoms: C10_24  and  O6_25 
REMARK    9  A    between atoms: C12_29  and  O8_30 
REMARK   10  A    between atoms: C12_29  and  O9_32 
REMARK   11  A    between atoms: C13_34  and  O10_35 
ROOT
HETATM    1  C2  UNL     1      -1.067  27.122  15.631  1.00  0.00     0.146 C 
HETATM    2  C3  UNL     1      -0.478  26.172  16.359  1.00  0.00     0.053 A 
HETATM    3  S1  UNL     1       0.981  25.209  16.729  1.00  0.00    -0.097 SA
HETATM    4  C4  UNL     1      -0.579  25.149  17.455  1.00  0.00     0.173 A 
HETATM    5  C5  UNL     1      -1.464  23.988  17.237  1.00  0.00     0.166 C 
HETATM    6  O3  UNL     1      -1.104  23.117  16.481  1.00  0.00    -0.295 OA
HETATM    7  C6  UNL     1      -2.758  23.922  17.943  1.00  0.00     0.103 C 
HETATM    8  C9  UNL     1      -2.621  24.026  19.433  1.00  0.00     0.145 C 
HETATM    9  C10 UNL     1      -2.355  22.709  20.114  1.00  0.00     0.232 C 
HETATM   10  C11 UNL     1      -0.892  22.726  20.459  1.00  0.00     0.223 C 
HETATM   11  O7  UNL     1      -0.197  21.732  20.566  1.00  0.00    -0.289 OA
HETATM   12  C12 UNL     1      -0.499  24.145  20.631  1.00  0.00     0.268 C 
HETATM   13  C13 UNL     1      -1.537  24.950  19.875  1.00  0.00     0.219 C 
HETATM   14  C14 UNL     1      -0.840  25.685  18.820  1.00  0.00     0.202 C 
HETATM   15  O11 UNL     1      -0.438  26.811  19.046  1.00  0.00    -0.292 OA
ENDROOT
BRANCH   1  16
HETATM   16  C1  UNL     1      -0.327  27.817  14.601  1.00  0.00     0.288 C 
HETATM   17  N1  UNL     1      -0.809  29.011  14.023  1.00  0.00    -0.055 NA
HETATM   18  O1  UNL     1       0.774  27.377  14.188  1.00  0.00    -0.269 OA
ENDBRANCH   1  16
BRANCH   1  19
HETATM   19  O2  UNL     1      -2.387  27.453  15.853  1.00  0.00    -0.355 OA
ATOM     20  H2  UNL     1      -2.592  28.193  16.412  1.00  0.00     0.218 HD
ENDBRANCH   1  19
BRANCH   7  21
HETATM   21  C7  UNL     1      -3.496  22.734  17.457  1.00  0.00     0.076 C 
BRANCH  21  22
HETATM   22  C8  UNL     1      -4.548  22.976  16.428  1.00  0.00     0.316 C 
BRANCH  22  23
HETATM   23  N2  UNL     1      -4.112  22.383  15.178  1.00  0.00    -0.053 N 
ATOM     24  H23 UNL     1      -4.861  21.881  14.702  1.00  0.00     0.277 HD
ATOM     25  H22 UNL     1      -3.930  23.080  14.456  1.00  0.00     0.277 HD
ATOM     26  H21 UNL     1      -3.302  21.793  15.366  1.00  0.00     0.277 HD
ENDBRANCH  22  23
BRANCH  22  27
HETATM   27  O4  UNL     1      -5.680  22.225  16.824  1.00  0.00    -0.370 OA
ATOM     28  H4  UNL     1      -6.320  22.849  17.146  1.00  0.00     0.212 HD
ENDBRANCH  22  27
ENDBRANCH  21  22
ENDBRANCH   7  21
BRANCH  13  29
HETATM   29  O10 UNL     1      -2.019  25.900  20.809  1.00  0.00    -0.374 OA
ATOM     30  H10 UNL     1      -1.826  26.787  20.530  1.00  0.00     0.211 HD
ENDBRANCH  13  29
BRANCH   8  31
HETATM   31  O5  UNL     1      -3.825  24.517  19.936  1.00  0.00    -0.382 OA
ATOM     32  H5  UNL     1      -3.641  24.939  20.767  1.00  0.00     0.210 HD
ENDBRANCH   8  31
BRANCH  12  33
HETATM   33  O8  UNL     1      -0.503  24.406  21.998  1.00  0.00    -0.357 OA
ATOM     34  H8  UNL     1      -1.201  25.030  22.160  1.00  0.00     0.213 HD
ENDBRANCH  12  33
BRANCH  12  35
HETATM   35  O9  UNL     1       0.785  24.400  20.172  1.00  0.00    -0.357 OA
ATOM     36  H9  UNL     1       1.162  25.180  20.562  1.00  0.00     0.213 HD
ENDBRANCH  12  35
BRANCH   9  37
HETATM   37  O6  UNL     1      -3.052  22.590  21.331  1.00  0.00    -0.385 OA
ATOM     38  H6  UNL     1      -3.095  23.414  21.803  1.00  0.00     0.210 HD
ENDBRANCH   9  37
TORSDOF 11
ENDMDL
MODEL 5
REMARK VINA RESULT: -7.484230067      3.898      6.539
REMARK  11 active torsions:
REMARK  status: ('A' for Active; 'I' for Inactive)
REMARK    1  A    between atoms: C1_2  and  C2_4 
REMARK    2  A    between atoms: C2_4  and  O2_5 
REMARK    3  A    between atoms: C6_12  and  C7_13 
REMARK    4  A    between atoms: C7_13  and  C8_14 
REMARK    5  A    between atoms: C8_14  and  N2_15 
REMARK    6  A    between atoms: C8_14  and  O4_19 
REMARK    7  A    between atoms: C9_21  and  O5_22 
REMARK    8  A    between atoms: C10_24  and  O6_25 
REMARK    9  A    between atoms: C12_29  and  O8_30 
REMARK   10  A    between atoms: C12_29  and  O9_32 
REMARK   11  A    between atoms: C13_34  and  O10_35 
ROOT
HETATM    1  C2  UNL     1       0.142  26.109  16.087  1.00  0.00     0.146 C 
HETATM    2  C3  UNL     1       0.299  25.123  16.972  1.00  0.00     0.053 A 
HETATM    3  S1  UNL     1       1.364  23.912  17.743  1.00  0.00    -0.097 SA
HETATM    4  C4  UNL     1      -0.302  24.240  18.029  1.00  0.00     0.173 A 
HETATM    5  C5  UNL     1      -1.339  23.275  17.615  1.00  0.00     0.166 C 
HETATM    6  O3  UNL     1      -1.003  22.287  17.006  1.00  0.00    -0.295 OA
HETATM    7  C6  UNL     1      -2.751  23.541  17.952  1.00  0.00     0.103 C 
HETATM    8  C9  UNL     1      -2.977  23.740  19.422  1.00  0.00     0.145 C 
HETATM    9  C10 UNL     1      -3.193  22.460  20.185  1.00  0.00     0.232 C 
HETATM   10  C11 UNL     1      -1.900  22.200  20.906  1.00  0.00     0.223 C 
HETATM   11  O7  UNL     1      -1.495  21.096  21.221  1.00  0.00    -0.289 OA
HETATM   12  C12 UNL     1      -1.257  23.516  21.137  1.00  0.00     0.268 C 
HETATM   13  C13 UNL     1      -1.862  24.453  20.111  1.00  0.00     0.219 C 
HETATM   14  C14 UNL     1      -0.774  24.934  19.259  1.00  0.00     0.202 C 
HETATM   15  O11 UNL     1      -0.201  25.966  19.554  1.00  0.00    -0.292 OA
ENDROOT
BRANCH   1  16
HETATM   16  C1  UNL     1       1.255  26.545  15.273  1.00  0.00     0.288 C 
HETATM   17  N1  UNL     1       1.737  25.764  14.200  1.00  0.00    -0.055 NA
HETATM   18  O1  UNL     1       1.828  27.640  15.496  1.00  0.00    -0.269 OA
ENDBRANCH   1  16
BRANCH   1  19
HETATM   19  O2  UNL     1      -1.083  26.725  15.941  1.00  0.00    -0.355 OA
ATOM     20  H2  UNL     1      -1.368  27.352  16.595  1.00  0.00     0.218 HD
ENDBRANCH   1  19
BRANCH   7  21
HETATM   21  C7  UNL     1      -3.588  22.496  17.320  1.00  0.00     0.076 C 
BRANCH  21  22
HETATM   22  C8  UNL     1      -4.342  22.893  16.097  1.00  0.00     0.316 C 
BRANCH  22  23
HETATM   23  N2  UNL     1      -3.460  22.769  14.953  1.00  0.00    -0.053 N 
ATOM     24  H23 UNL     1      -3.255  23.667  14.517  1.00  0.00     0.277 HD
ATOM     25  H22 UNL     1      -2.506  22.522  15.218  1.00  0.00     0.277 HD
ATOM     26  H21 UNL     1      -3.871  22.101  14.300  1.00  0.00     0.277 HD
ENDBRANCH  22  23
BRANCH  22  27
HETATM   27  O4  UNL     1      -5.345  21.913  15.906  1.00  0.00    -0.370 OA
ATOM     28  H4  UNL     1      -5.632  21.991  15.003  1.00  0.00     0.212 HD
ENDBRANCH  22  27
ENDBRANCH  21  22
ENDBRANCH   7  21
BRANCH  13  29
HETATM   29  O10 UNL     1      -2.340  25.558  20.856  1.00  0.00    -0.374 OA
ATOM     30  H10 UNL     1      -3.289  25.593  20.851  1.00  0.00     0.211 HD
ENDBRANCH  13  29
BRANCH   8  31
HETATM   31  O5  UNL     1      -4.128  24.513  19.572  1.00  0.00    -0.382 OA
ATOM     32  H5  UNL     1      -3.936  25.197  20.203  1.00  0.00     0.210 HD
ENDBRANCH   8  31
BRANCH  12  33
HETATM   33  O8  UNL     1      -1.549  23.888  22.446  1.00  0.00    -0.357 OA
ATOM     34  H8  UNL     1      -2.495  23.885  22.532  1.00  0.00     0.213 HD
ENDBRANCH  12  33
BRANCH  12  35
HETATM   35  O9  UNL     1       0.125  23.458  21.030  1.00  0.00    -0.357 OA
ATOM     36  H9  UNL     1       0.446  23.870  20.235  1.00  0.00     0.213 HD
ENDBRANCH  12  35
BRANCH   9  37
HETATM   37  O6  UNL     1      -4.184  22.592  21.175  1.00  0.00    -0.385 OA
ATOM     38  H6  UNL     1      -5.028  22.266  20.884  1.00  0.00     0.210 HD
ENDBRANCH   9  37
TORSDOF 11
ENDMDL
