MODEL 1
REMARK VINA RESULT: -9.549794076      0.000      0.000
REMARK  11 active torsions:
REMARK  status: ('A' for Active; 'I' for Inactive)
REMARK       I    between atoms: C1_4  and  N2_5 
REMARK       I    between atoms: C1_4  and  N7_36 
REMARK    1  A    between atoms: C2_7  and  C3_8 
REMARK    2  A    between atoms: N3_10  and  C5_11 
REMARK    3  A    between atoms: C6_13  and  C7_14 
REMARK    4  A    between atoms: C7_14  and  O2_15 
REMARK    5  A    between atoms: C8_17  and  O3_18 
REMARK    6  A    between atoms: C8_17  and  C9_20 
REMARK    7  A    between atoms: C9_20  and  O4_21 
REMARK    8  A    between atoms: C10_23  and  O5_24 
REMARK    9  A    between atoms: N7_36  and  N8_38 
REMARK   10  A    between atoms: N8_38  and  N9_39 
REMARK   11  A    between atoms: N8_38  and  O8_42 
ROOT
HETATM    1  C3  UNL     1       0.973  20.753  25.450  1.00  0.00     0.067 A 
HETATM    2  C4  UNL     1       0.696  21.636  24.396  1.00  0.00     0.130 A 
HETATM    3  N3  UNL     1      -0.442  21.544  23.686  1.00  0.00    -0.160 N 
HETATM    4  C11 UNL     1      -1.307  20.571  24.022  1.00  0.00     0.715 A 
HETATM    5  N4  UNL     1      -2.504  20.218  23.521  1.00  0.00    -0.138 N 
ATOM      6  H4  UNL     1      -2.973  20.678  22.742  1.00  0.00     0.189 HD
HETATM    7  C12 UNL     1      -2.984  19.175  24.198  1.00  0.00     0.354 A 
HETATM    8  O6  UNL     1      -4.076  18.553  24.033  1.00  0.00    -0.245 OA
HETATM    9  N5  UNL     1      -2.074  18.865  25.138  1.00  0.00    -0.227 N 
ATOM     10  H5  UNL     1      -2.152  18.109  25.818  1.00  0.00     0.193 HD
HETATM   11  N6  UNL     1      -1.064  19.707  25.032  1.00  0.00    -0.043 N 
HETATM   12  C13 UNL     1       0.061  19.766  25.767  1.00  0.00     0.295 A 
HETATM   13  O7  UNL     1       0.279  18.969  26.695  1.00  0.00    -0.265 OA
ENDROOT
BRANCH   1  14
HETATM   14  C2  UNL     1       2.207  20.867  26.209  1.00  0.00     0.124 C 
HETATM   15  N2  UNL     1       2.872  19.796  26.462  1.00  0.00    -0.200 N 
HETATM   16  C1  UNL     1       4.090  19.905  27.210  1.00  0.00     0.689 C 
ATOM     17  H2  UNL     1       2.540  18.887  26.137  1.00  0.00     0.183 HD
HETATM   18  N1  UNL     1       4.124  20.808  28.128  1.00  0.00    -0.234 N 
HETATM   19  N7  UNL     1       5.204  19.059  26.948  1.00  0.00    -0.110 N 
ATOM     20  H12 UNL     1       3.326  21.414  28.315  1.00  0.00     0.174 HD
ATOM     21  H11 UNL     1       4.990  20.886  28.660  1.00  0.00     0.174 HD
ATOM     22  H7  UNL     1       5.864  19.273  26.201  1.00  0.00     0.203 HD
BRANCH  19  23
HETATM   23  N8  UNL     1       5.363  17.931  27.745  1.00  0.00     0.004 NA
BRANCH  23  24
HETATM   24  N9  UNL     1       6.268  18.113  28.779  1.00  0.00    -0.322 NA
ATOM     25  H92 UNL     1       7.007  17.409  28.774  1.00  0.00     0.175 HD
ATOM     26  H91 UNL     1       5.824  18.212  29.692  1.00  0.00     0.175 HD
ENDBRANCH  23  24
BRANCH  23  27
HETATM   27  O8  UNL     1       4.185  17.425  28.178  1.00  0.00    -0.276 OA
ATOM     28  H8  UNL     1       4.295  16.751  28.839  1.00  0.00     0.241 HD
ENDBRANCH  23  27
ENDBRANCH  19  23
ENDBRANCH   1  14
BRANCH   3  29
HETATM   29  C5  UNL     1      -0.723  22.454  22.603  1.00  0.00     0.277 C 
HETATM   30  O1  UNL     1      -2.019  22.884  22.608  1.00  0.00    -0.352 OA
HETATM   31  C6  UNL     1      -2.594  22.678  21.381  1.00  0.00     0.187 C 
HETATM   32  C8  UNL     1      -1.462  22.635  20.410  1.00  0.00     0.137 C 
HETATM   33  C10 UNL     1      -0.441  21.847  21.245  1.00  0.00     0.207 C 
BRANCH  31  34
HETATM   34  C7  UNL     1      -3.602  23.768  21.083  1.00  0.00     0.199 C 
BRANCH  34  35
HETATM   35  O2  UNL     1      -3.128  25.035  21.404  1.00  0.00    -0.398 OA
ATOM     36  H2  UNL     1      -3.633  25.727  20.995  1.00  0.00     0.209 HD
ENDBRANCH  34  35
ENDBRANCH  31  34
BRANCH  32  37
HETATM   37  O3  UNL     1      -1.007  23.906  20.154  1.00  0.00    -0.382 OA
ATOM     38  H3  UNL     1      -0.978  24.063  19.218  1.00  0.00     0.210 HD
ENDBRANCH  32  37
BRANCH  32  39
HETATM   39  C9  UNL     1      -1.768  21.915  19.123  1.00  0.00     0.207 C 
BRANCH  39  40
HETATM   40  O4  UNL     1      -0.644  21.346  18.558  1.00  0.00    -0.398 OA
ATOM     41  H4  UNL     1      -0.663  21.373  17.608  1.00  0.00     0.209 HD
ENDBRANCH  39  40
ENDBRANCH  32  39
BRANCH  33  42
HETATM   42  O5  UNL     1      -0.827  20.508  21.251  1.00  0.00    -0.388 OA
ATOM     43  H5  UNL     1      -1.492  20.371  20.587  1.00  0.00     0.210 HD
ENDBRANCH  33  42
ENDBRANCH   3  29
TORSDOF 11
ENDMDL
MODEL 2
REMARK VINA RESULT: -9.294905879      1.087      1.942
REMARK  11 active torsions:
REMARK  status: ('A' for Active; 'I' for Inactive)
REMARK       I    between atoms: C1_4  and  N2_5 
REMARK       I    between atoms: C1_4  and  N7_36 
REMARK    1  A    between atoms: C2_7  and  C3_8 
REMARK    2  A    between atoms: N3_10  and  C5_11 
REMARK    3  A    between atoms: C6_13  and  C7_14 
REMARK    4  A    between atoms: C7_14  and  O2_15 
REMARK    5  A    between atoms: C8_17  and  O3_18 
REMARK    6  A    between atoms: C8_17  and  C9_20 
REMARK    7  A    between atoms: C9_20  and  O4_21 
REMARK    8  A    between atoms: C10_23  and  O5_24 
REMARK    9  A    between atoms: N7_36  and  N8_38 
REMARK   10  A    between atoms: N8_38  and  N9_39 
REMARK   11  A    between atoms: N8_38  and  O8_42 
ROOT
HETATM    1  C3  UNL     1       0.703  20.481  24.889  1.00  0.00     0.067 A 
HETATM    2  C4  UNL     1       0.357  21.079  23.667  1.00  0.00     0.130 A 
HETATM    3  N3  UNL     1      -0.830  20.841  23.082  1.00  0.00    -0.160 N 
HETATM    4  C11 UNL     1      -1.677  20.006  23.711  1.00  0.00     0.715 A 
HETATM    5  N4  UNL     1      -2.909  19.570  23.399  1.00  0.00    -0.138 N 
ATOM      6  H4  UNL     1      -3.430  19.832  22.563  1.00  0.00     0.189 HD
HETATM    7  C12 UNL     1      -3.348  18.744  24.348  1.00  0.00     0.354 A 
HETATM    8  O6  UNL     1      -4.454  18.128  24.421  1.00  0.00    -0.245 OA
HETATM    9  N5  UNL     1      -2.374  18.656  25.272  1.00  0.00    -0.227 N 
ATOM     10  H5  UNL     1      -2.408  18.097  26.124  1.00  0.00     0.193 HD
HETATM   11  N6  UNL     1      -1.368  19.418  24.888  1.00  0.00    -0.043 N 
HETATM   12  C13 UNL     1      -0.192  19.630  25.506  1.00  0.00     0.295 A 
HETATM   13  O7  UNL     1       0.086  19.086  26.587  1.00  0.00    -0.265 OA
ENDROOT
BRANCH   1  14
HETATM   14  C2  UNL     1       1.989  20.750  25.508  1.00  0.00     0.124 C 
HETATM   15  N2  UNL     1       2.538  19.822  26.209  1.00  0.00    -0.200 N 
HETATM   16  C1  UNL     1       3.807  20.085  26.821  1.00  0.00     0.689 C 
ATOM     17  H2  UNL     1       2.079  18.918  26.327  1.00  0.00     0.183 HD
HETATM   18  N1  UNL     1       4.009  21.286  27.238  1.00  0.00    -0.234 N 
HETATM   19  N7  UNL     1       4.793  19.067  26.958  1.00  0.00    -0.110 N 
ATOM     20  H12 UNL     1       3.303  22.015  27.140  1.00  0.00     0.174 HD
ATOM     21  H11 UNL     1       4.912  21.473  27.673  1.00  0.00     0.174 HD
ATOM     22  H7  UNL     1       5.423  18.837  26.189  1.00  0.00     0.203 HD
BRANCH  19  23
HETATM   23  N8  UNL     1       4.870  18.398  28.174  1.00  0.00     0.004 NA
BRANCH  23  24
HETATM   24  N9  UNL     1       6.166  18.270  28.649  1.00  0.00    -0.322 NA
ATOM     25  H92 UNL     1       6.806  17.918  27.937  1.00  0.00     0.175 HD
ATOM     26  H91 UNL     1       6.225  17.751  29.525  1.00  0.00     0.175 HD
ENDBRANCH  23  24
BRANCH  23  27
HETATM   27  O8  UNL     1       4.030  18.905  29.105  1.00  0.00    -0.276 OA
ATOM     28  H8  UNL     1       3.616  19.713  28.826  1.00  0.00     0.241 HD
ENDBRANCH  23  27
ENDBRANCH  19  23
ENDBRANCH   1  14
BRANCH   3  29
HETATM   29  C5  UNL     1      -1.183  21.457  21.827  1.00  0.00     0.277 C 
HETATM   30  O1  UNL     1      -0.228  22.328  21.389  1.00  0.00    -0.352 OA
HETATM   31  C6  UNL     1      -0.790  23.546  21.106  1.00  0.00     0.187 C 
HETATM   32  C8  UNL     1      -2.228  23.268  20.820  1.00  0.00     0.137 C 
HETATM   33  C10 UNL     1      -2.498  22.203  21.894  1.00  0.00     0.207 C 
BRANCH  31  34
HETATM   34  C7  UNL     1      -0.064  24.206  19.953  1.00  0.00     0.199 C 
BRANCH  34  35
HETATM   35  O2  UNL     1       0.315  25.513  20.238  1.00  0.00    -0.398 OA
ATOM     36  H2  UNL     1      -0.363  26.143  20.027  1.00  0.00     0.209 HD
ENDBRANCH  34  35
ENDBRANCH  31  34
BRANCH  32  37
HETATM   37  O3  UNL     1      -2.368  22.739  19.561  1.00  0.00    -0.382 OA
ATOM     38  H3  UNL     1      -2.813  21.901  19.604  1.00  0.00     0.210 HD
ENDBRANCH  32  37
BRANCH  32  39
HETATM   39  C9  UNL     1      -3.143  24.451  21.000  1.00  0.00     0.207 C 
BRANCH  39  40
HETATM   40  O4  UNL     1      -2.538  25.486  21.684  1.00  0.00    -0.398 OA
ATOM     41  H4  UNL     1      -1.793  25.195  22.198  1.00  0.00     0.209 HD
ENDBRANCH  39  40
ENDBRANCH  32  39
BRANCH  33  42
HETATM   42  O5  UNL     1      -2.599  22.845  23.126  1.00  0.00    -0.388 OA
ATOM     43  H5  UNL     1      -2.106  22.356  23.774  1.00  0.00     0.210 HD
ENDBRANCH  33  42
ENDBRANCH   3  29
TORSDOF 11
ENDMDL
MODEL 3
REMARK VINA RESULT: -8.861259664      3.847      5.301
REMARK  11 active torsions:
REMARK  status: ('A' for Active; 'I' for Inactive)
REMARK       I    between atoms: C1_4  and  N2_5 
REMARK       I    between atoms: C1_4  and  N7_36 
REMARK    1  A    between atoms: C2_7  and  C3_8 
REMARK    2  A    between atoms: N3_10  and  C5_11 
REMARK    3  A    between atoms: C6_13  and  C7_14 
REMARK    4  A    between atoms: C7_14  and  O2_15 
REMARK    5  A    between atoms: C8_17  and  O3_18 
REMARK    6  A    between atoms: C8_17  and  C9_20 
REMARK    7  A    between atoms: C9_20  and  O4_21 
REMARK    8  A    between atoms: C10_23  and  O5_24 
REMARK    9  A    between atoms: N7_36  and  N8_38 
REMARK   10  A    between atoms: N8_38  and  N9_39 
REMARK   11  A    between atoms: N8_38  and  O8_42 
ROOT
HETATM    1  C3  UNL     1      -1.579  20.836  23.040  1.00  0.00     0.067 A 
HETATM    2  C4  UNL     1      -1.549  20.855  21.638  1.00  0.00     0.130 A 
HETATM    3  N3  UNL     1      -1.287  21.986  20.959  1.00  0.00    -0.160 N 
HETATM    4  C11 UNL     1      -1.054  23.100  21.673  1.00  0.00     0.715 A 
HETATM    5  N4  UNL     1      -0.769  24.362  21.307  1.00  0.00    -0.138 N 
ATOM      6  H4  UNL     1      -0.680  24.688  20.345  1.00  0.00     0.189 HD
HETATM    7  C12 UNL     1      -0.620  25.122  22.391  1.00  0.00     0.354 A 
HETATM    8  O6  UNL     1      -0.348  26.359  22.466  1.00  0.00    -0.245 OA
HETATM    9  N5  UNL     1      -0.816  24.327  23.457  1.00  0.00    -0.227 N 
ATOM     10  H5  UNL     1      -0.770  24.616  24.435  1.00  0.00     0.193 HD
HETATM   11  N6  UNL     1      -1.076  23.109  23.024  1.00  0.00    -0.043 N 
HETATM   12  C13 UNL     1      -1.334  22.000  23.741  1.00  0.00     0.295 A 
HETATM   13  O7  UNL     1      -1.354  22.014  24.983  1.00  0.00    -0.265 OA
ENDROOT
BRANCH   1  14
HETATM   14  C2  UNL     1      -1.863  19.606  23.759  1.00  0.00     0.124 C 
HETATM   15  N2  UNL     1      -1.991  19.659  25.038  1.00  0.00    -0.200 N 
HETATM   16  C1  UNL     1      -2.272  18.447  25.750  1.00  0.00     0.689 C 
ATOM     17  H2  UNL     1      -1.895  20.545  25.535  1.00  0.00     0.183 HD
HETATM   18  N1  UNL     1      -1.734  17.371  25.292  1.00  0.00    -0.234 N 
HETATM   19  N7  UNL     1      -3.105  18.436  26.904  1.00  0.00    -0.110 N 
ATOM     20  H12 UNL     1      -1.137  17.378  24.465  1.00  0.00     0.174 HD
ATOM     21  H11 UNL     1      -1.933  16.508  25.798  1.00  0.00     0.174 HD
ATOM     22  H7  UNL     1      -4.121  18.401  26.820  1.00  0.00     0.203 HD
BRANCH  19  23
HETATM   23  N8  UNL     1      -2.489  18.476  28.149  1.00  0.00     0.004 NA
BRANCH  23  24
HETATM   24  N9  UNL     1      -1.594  17.437  28.352  1.00  0.00    -0.322 NA
ATOM     25  H92 UNL     1      -1.472  16.864  27.516  1.00  0.00     0.175 HD
ATOM     26  H91 UNL     1      -1.799  16.884  29.184  1.00  0.00     0.175 HD
ENDBRANCH  23  24
BRANCH  23  27
HETATM   27  O8  UNL     1      -1.943  19.683  28.426  1.00  0.00    -0.276 OA
ATOM     28  H8  UNL     1      -1.070  19.616  28.794  1.00  0.00     0.241 HD
ENDBRANCH  23  27
ENDBRANCH  19  23
ENDBRANCH   1  14
BRANCH   3  29
HETATM   29  C5  UNL     1      -1.257  22.002  19.517  1.00  0.00     0.277 C 
HETATM   30  O1  UNL     1      -0.299  22.841  19.025  1.00  0.00    -0.352 OA
HETATM   31  C6  UNL     1      -0.849  23.712  18.120  1.00  0.00     0.187 C 
HETATM   32  C8  UNL     1      -2.075  23.035  17.605  1.00  0.00     0.137 C 
HETATM   33  C10 UNL     1      -2.584  22.407  18.912  1.00  0.00     0.207 C 
BRANCH  31  34
HETATM   34  C7  UNL     1       0.154  24.046  17.036  1.00  0.00     0.199 C 
BRANCH  34  35
HETATM   35  O2  UNL     1       1.425  24.294  17.543  1.00  0.00    -0.398 OA
ATOM     36  H2  UNL     1       2.080  24.375  16.861  1.00  0.00     0.209 HD
ENDBRANCH  34  35
ENDBRANCH  31  34
BRANCH  32  37
HETATM   37  O3  UNL     1      -1.735  22.063  16.697  1.00  0.00    -0.382 OA
ATOM     38  H3  UNL     1      -1.730  22.421  15.817  1.00  0.00     0.210 HD
ENDBRANCH  32  37
BRANCH  32  39
HETATM   39  C9  UNL     1      -3.106  23.964  17.023  1.00  0.00     0.207 C 
BRANCH  39  40
HETATM   40  O4  UNL     1      -4.382  23.441  17.085  1.00  0.00    -0.398 OA
ATOM     41  H4  UNL     1      -4.964  23.825  16.440  1.00  0.00     0.209 HD
ENDBRANCH  39  40
ENDBRANCH  32  39
BRANCH  33  42
HETATM   42  O5  UNL     1      -3.152  23.416  19.686  1.00  0.00    -0.388 OA
ATOM     43  H5  UNL     1      -3.593  23.027  20.432  1.00  0.00     0.210 HD
ENDBRANCH  33  42
ENDBRANCH   3  29
TORSDOF 11
ENDMDL
MODEL 4
REMARK VINA RESULT: -8.500648634      4.013      5.619
REMARK  11 active torsions:
REMARK  status: ('A' for Active; 'I' for Inactive)
REMARK       I    between atoms: C1_4  and  N2_5 
REMARK       I    between atoms: C1_4  and  N7_36 
REMARK    1  A    between atoms: C2_7  and  C3_8 
REMARK    2  A    between atoms: N3_10  and  C5_11 
REMARK    3  A    between atoms: C6_13  and  C7_14 
REMARK    4  A    between atoms: C7_14  and  O2_15 
REMARK    5  A    between atoms: C8_17  and  O3_18 
REMARK    6  A    between atoms: C8_17  and  C9_20 
REMARK    7  A    between atoms: C9_20  and  O4_21 
REMARK    8  A    between atoms: C10_23  and  O5_24 
REMARK    9  A    between atoms: N7_36  and  N8_38 
REMARK   10  A    between atoms: N8_38  and  N9_39 
REMARK   11  A    between atoms: N8_38  and  O8_42 
ROOT
HETATM    1  C3  UNL     1      -1.943  21.994  22.733  1.00  0.00     0.067 A 
HETATM    2  C4  UNL     1      -2.354  22.424  21.462  1.00  0.00     0.130 A 
HETATM    3  N3  UNL     1      -2.083  23.664  21.021  1.00  0.00    -0.160 N 
HETATM    4  C11 UNL     1      -1.402  24.482  21.843  1.00  0.00     0.715 A 
HETATM    5  N4  UNL     1      -0.983  25.752  21.706  1.00  0.00    -0.138 N 
ATOM      6  H4  UNL     1      -1.136  26.335  20.883  1.00  0.00     0.189 HD
HETATM    7  C12 UNL     1      -0.340  26.134  22.808  1.00  0.00     0.354 A 
HETATM    8  O6  UNL     1       0.201  27.251  23.069  1.00  0.00    -0.245 OA
HETATM    9  N5  UNL     1      -0.355  25.088  23.653  1.00  0.00    -0.227 N 
ATOM     10  H5  UNL     1       0.059  25.068  24.586  1.00  0.00     0.193 HD
HETATM   11  N6  UNL     1      -0.995  24.093  23.071  1.00  0.00    -0.043 N 
HETATM   12  C13 UNL     1      -1.245  22.861  23.550  1.00  0.00     0.295 A 
HETATM   13  O7  UNL     1      -0.868  22.509  24.680  1.00  0.00    -0.265 OA
ENDROOT
BRANCH   1  14
HETATM   14  C2  UNL     1      -2.243  20.650  23.194  1.00  0.00     0.124 C 
HETATM   15  N2  UNL     1      -2.290  20.433  24.461  1.00  0.00    -0.200 N 
HETATM   16  C1  UNL     1      -2.586  19.107  24.920  1.00  0.00     0.689 C 
ATOM     17  H2  UNL     1      -2.119  21.188  25.126  1.00  0.00     0.183 HD
HETATM   18  N1  UNL     1      -2.130  18.136  24.209  1.00  0.00    -0.234 N 
HETATM   19  N7  UNL     1      -3.346  18.880  26.101  1.00  0.00    -0.110 N 
ATOM     20  H12 UNL     1      -1.585  18.298  23.362  1.00  0.00     0.174 HD
ATOM     21  H11 UNL     1      -2.341  17.192  24.534  1.00  0.00     0.174 HD
ATOM     22  H7  UNL     1      -4.366  18.899  26.084  1.00  0.00     0.203 HD
BRANCH  19  23
HETATM   23  N8  UNL     1      -2.654  18.631  27.281  1.00  0.00     0.004 NA
BRANCH  23  24
HETATM   24  N9  UNL     1      -1.933  17.447  27.254  1.00  0.00    -0.322 NA
ATOM     25  H92 UNL     1      -1.525  17.223  28.162  1.00  0.00     0.175 HD
ATOM     26  H91 UNL     1      -1.254  17.405  26.494  1.00  0.00     0.175 HD
ENDBRANCH  23  24
BRANCH  23  27
HETATM   27  O8  UNL     1      -1.899  19.681  27.677  1.00  0.00    -0.276 OA
ATOM     28  H8  UNL     1      -1.906  19.805  28.619  1.00  0.00     0.241 HD
ENDBRANCH  23  27
ENDBRANCH  19  23
ENDBRANCH   1  14
BRANCH   3  29
HETATM   29  C5  UNL     1      -2.508  24.103  19.714  1.00  0.00     0.277 C 
HETATM   30  O1  UNL     1      -3.431  23.265  19.158  1.00  0.00    -0.352 OA
HETATM   31  C6  UNL     1      -3.033  22.883  17.903  1.00  0.00     0.187 C 
HETATM   32  C8  UNL     1      -2.109  23.956  17.432  1.00  0.00     0.137 C 
HETATM   33  C10 UNL     1      -1.355  24.234  18.741  1.00  0.00     0.207 C 
BRANCH  31  34
HETATM   34  C7  UNL     1      -4.236  22.688  17.006  1.00  0.00     0.199 C 
BRANCH  34  35
HETATM   35  O2  UNL     1      -5.318  23.476  17.385  1.00  0.00    -0.398 OA
ATOM     36  H2  UNL     1      -5.746  23.154  18.169  1.00  0.00     0.209 HD
ENDBRANCH  34  35
ENDBRANCH  31  34
BRANCH  32  37
HETATM   37  O3  UNL     1      -2.825  25.059  17.036  1.00  0.00    -0.382 OA
ATOM     38  H3  UNL     1      -3.757  24.885  17.097  1.00  0.00     0.210 HD
ENDBRANCH  32  37
BRANCH  32  39
HETATM   39  C9  UNL     1      -1.155  23.529  16.348  1.00  0.00     0.207 C 
BRANCH  39  40
HETATM   40  O4  UNL     1      -1.276  24.297  15.208  1.00  0.00    -0.398 OA
ATOM     41  H4  UNL     1      -1.800  25.076  15.349  1.00  0.00     0.209 HD
ENDBRANCH  39  40
ENDBRANCH  32  39
BRANCH  33  42
HETATM   42  O5  UNL     1      -0.455  23.193  18.954  1.00  0.00    -0.388 OA
ATOM     43  H5  UNL     1      -0.486  22.934  19.867  1.00  0.00     0.210 HD
ENDBRANCH  33  42
ENDBRANCH   3  29
TORSDOF 11
ENDMDL
MODEL 5
REMARK VINA RESULT: -8.483880887      3.150      5.520
REMARK  11 active torsions:
REMARK  status: ('A' for Active; 'I' for Inactive)
REMARK       I    between atoms: C1_4  and  N2_5 
REMARK       I    between atoms: C1_4  and  N7_36 
REMARK    1  A    between atoms: C2_7  and  C3_8 
REMARK    2  A    between atoms: N3_10  and  C5_11 
REMARK    3  A    between atoms: C6_13  and  C7_14 
REMARK    4  A    between atoms: C7_14  and  O2_15 
REMARK    5  A    between atoms: C8_17  and  O3_18 
REMARK    6  A    between atoms: C8_17  and  C9_20 
REMARK    7  A    between atoms: C9_20  and  O4_21 
REMARK    8  A    between atoms: C10_23  and  O5_24 
REMARK    9  A    between atoms: N7_36  and  N8_38 
REMARK   10  A    between atoms: N8_38  and  N9_39 
REMARK   11  A    between atoms: N8_38  and  O8_42 
ROOT
HETATM    1  C3  UNL     1      -0.825  22.983  22.489  1.00  0.00     0.067 A 
HETATM    2  C4  UNL     1      -1.084  22.580  21.170  1.00  0.00     0.130 A 
HETATM    3  N3  UNL     1      -1.076  23.461  20.154  1.00  0.00    -0.160 N 
HETATM    4  C11 UNL     1      -0.812  24.746  20.448  1.00  0.00     0.715 A 
HETATM    5  N4  UNL     1      -0.731  25.847  19.681  1.00  0.00    -0.138 N 
ATOM      6  H4  UNL     1      -0.873  25.871  18.672  1.00  0.00     0.189 HD
HETATM    7  C12 UNL     1      -0.439  26.903  20.439  1.00  0.00     0.354 A 
HETATM    8  O6  UNL     1      -0.279  28.113  20.094  1.00  0.00    -0.245 OA
HETATM    9  N5  UNL     1      -0.335  26.460  21.705  1.00  0.00    -0.227 N 
ATOM     10  H5  UNL     1      -0.119  27.031  22.522  1.00  0.00     0.193 HD
HETATM   11  N6  UNL     1      -0.559  25.160  21.709  1.00  0.00    -0.043 N 
HETATM   12  C13 UNL     1      -0.557  24.311  22.752  1.00  0.00     0.295 A 
HETATM   13  O7  UNL     1      -0.324  24.698  23.910  1.00  0.00    -0.265 OA
ENDROOT
BRANCH   1  14
HETATM   14  C2  UNL     1      -0.836  22.018  23.574  1.00  0.00     0.124 C 
HETATM   15  N2  UNL     1       0.222  21.895  24.296  1.00  0.00    -0.200 N 
HETATM   16  C1  UNL     1       0.214  20.944  25.368  1.00  0.00     0.689 C 
ATOM     17  H2  UNL     1       1.049  22.463  24.108  1.00  0.00     0.183 HD
HETATM   18  N1  UNL     1      -0.451  19.859  25.173  1.00  0.00    -0.234 N 
HETATM   19  N7  UNL     1       0.906  21.190  26.587  1.00  0.00    -0.110 N 
ATOM     20  H12 UNL     1      -0.947  19.683  24.299  1.00  0.00     0.174 HD
ATOM     21  H11 UNL     1      -0.457  19.182  25.935  1.00  0.00     0.174 HD
ATOM     22  H7  UNL     1       0.485  21.748  27.329  1.00  0.00     0.203 HD
BRANCH  19  23
HETATM   23  N8  UNL     1       2.177  20.644  26.733  1.00  0.00     0.004 NA
BRANCH  23  24
HETATM   24  N9  UNL     1       2.166  19.269  26.904  1.00  0.00    -0.322 NA
ATOM     25  H92 UNL     1       2.724  18.788  26.198  1.00  0.00     0.175 HD
ATOM     26  H91 UNL     1       1.228  18.880  26.997  1.00  0.00     0.175 HD
ENDBRANCH  23  24
BRANCH  23  27
HETATM   27  O8  UNL     1       3.030  21.033  25.758  1.00  0.00    -0.276 OA
ATOM     28  H8  UNL     1       3.941  20.917  25.998  1.00  0.00     0.241 HD
ENDBRANCH  23  27
ENDBRANCH  19  23
ENDBRANCH   1  14
BRANCH   3  29
HETATM   29  C5  UNL     1      -1.343  23.043  18.800  1.00  0.00     0.277 C 
HETATM   30  O1  UNL     1      -1.235  24.071  17.907  1.00  0.00    -0.352 OA
HETATM   31  C6  UNL     1      -2.370  24.157  17.142  1.00  0.00     0.187 C 
HETATM   32  C8  UNL     1      -2.976  22.794  17.169  1.00  0.00     0.137 C 
HETATM   33  C10 UNL     1      -2.718  22.431  18.640  1.00  0.00     0.207 C 
BRANCH  31  34
HETATM   34  C7  UNL     1      -2.027  24.635  15.747  1.00  0.00     0.199 C 
BRANCH  34  35
HETATM   35  O2  UNL     1      -2.794  25.727  15.355  1.00  0.00    -0.398 OA
ATOM     36  H2  UNL     1      -2.928  25.759  14.415  1.00  0.00     0.209 HD
ENDBRANCH  34  35
ENDBRANCH  31  34
BRANCH  32  37
HETATM   37  O3  UNL     1      -2.289  21.951  16.330  1.00  0.00    -0.382 OA
ATOM     38  H3  UNL     1      -2.568  22.081  15.432  1.00  0.00     0.210 HD
ENDBRANCH  32  37
BRANCH  32  39
HETATM   39  C9  UNL     1      -4.450  22.758  16.862  1.00  0.00     0.207 C 
BRANCH  39  40
HETATM   40  O4  UNL     1      -5.109  23.885  17.309  1.00  0.00    -0.398 OA
ATOM     41  H4  UNL     1      -5.948  23.682  17.705  1.00  0.00     0.209 HD
ENDBRANCH  39  40
ENDBRANCH  32  39
BRANCH  33  42
HETATM   42  O5  UNL     1      -3.628  23.135  19.426  1.00  0.00    -0.388 OA
ATOM     43  H5  UNL     1      -4.485  22.733  19.349  1.00  0.00     0.210 HD
ENDBRANCH  33  42
ENDBRANCH   3  29
TORSDOF 11
ENDMDL
