MODEL 1
REMARK VINA RESULT: -9.022353325      0.000      0.000
REMARK  11 active torsions:
REMARK  status: ('A' for Active; 'I' for Inactive)
REMARK    1  A    between atoms: C3_5  and  N2_6 
REMARK    2  A    between atoms: N2_6  and  N3_8 
REMARK    3  A    between atoms: C4_13  and  N5_14 
REMARK    4  A    between atoms: N5_14  and  C5_16 
REMARK    5  A    between atoms: C6_23  and  N9_24 
REMARK    6  A    between atoms: C7_29  and  N10_30 
REMARK    7  A    between atoms: N11_32  and  O2_34 
REMARK    8  A    between atoms: O2_34  and  C8_35 
REMARK    9  A    between atoms: C8_35  and  C9_37 
REMARK   10  A    between atoms: C12_42  and  C13_43 
REMARK   11  A    between atoms: C13_43  and  O6_44 
ROOT
HETATM    1  C1  UNL     1      -3.961  23.892  20.606  1.00  0.00     0.071 C 
HETATM    2  C2  UNL     1      -2.745  23.758  21.488  1.00  0.00     0.054 A 
HETATM    3  N1  UNL     1      -2.275  24.865  22.110  1.00  0.00    -0.192 N 
ATOM      4  H1  UNL     1      -2.735  25.767  21.984  1.00  0.00     0.184 HD
HETATM    5  C3  UNL     1      -1.193  24.754  22.895  1.00  0.00     0.698 A 
HETATM    6  N4  UNL     1      -0.576  23.568  23.070  1.00  0.00    -0.173 N 
ATOM      7  H4  UNL     1       0.243  23.532  23.676  1.00  0.00     0.186 HD
HETATM    8  C4  UNL     1      -0.990  22.430  22.483  1.00  0.00     0.150 A 
HETATM    9  C7  UNL     1      -2.121  22.550  21.663  1.00  0.00     0.117 A 
ENDROOT
BRANCH   9  10
HETATM   10  N10 UNL     1      -2.596  21.378  21.021  1.00  0.00    -0.275 N 
HETATM   11  N11 UNL     1      -2.272  21.031  19.855  1.00  0.00    -0.198 N 
ATOM     12  H11 UNL     1      -2.672  20.167  19.489  1.00  0.00     0.216 HD
ATOM     13  H10 UNL     1      -3.240  20.778  21.537  1.00  0.00     0.189 HD
BRANCH  11  14
HETATM   14  O2  UNL     1      -1.420  21.732  19.042  1.00  0.00    -0.184 OA
BRANCH  14  15
HETATM   15  C8  UNL     1      -1.902  22.523  18.008  1.00  0.00     0.290 C 
HETATM   16  O3  UNL     1      -3.134  22.403  17.730  1.00  0.00    -0.263 OA
BRANCH  15  17
HETATM   17  C9  UNL     1      -1.045  23.470  17.250  1.00  0.00     0.128 C 
HETATM   18  C10 UNL     1       0.258  23.699  18.019  1.00  0.00     0.128 C 
HETATM   19  C11 UNL     1      -0.165  24.694  19.024  1.00  0.00     0.260 C 
HETATM   20  O4  UNL     1       0.226  24.828  20.232  1.00  0.00    -0.265 OA
HETATM   21  O5  UNL     1      -1.106  25.496  18.398  1.00  0.00    -0.313 OA
HETATM   22  C12 UNL     1      -1.666  24.829  17.285  1.00  0.00     0.169 C 
BRANCH  22  23
HETATM   23  C13 UNL     1      -1.398  25.623  16.013  1.00  0.00     0.197 C 
BRANCH  23  24
HETATM   24  O6  UNL     1      -2.582  25.811  15.331  1.00  0.00    -0.398 OA
ATOM     25  H6  UNL     1      -3.153  26.377  15.839  1.00  0.00     0.209 HD
ENDBRANCH  23  24
ENDBRANCH  22  23
ENDBRANCH  15  17
ENDBRANCH  14  15
ENDBRANCH  11  14
ENDBRANCH   9  10
BRANCH   8  26
HETATM   26  N5  UNL     1      -0.421  21.279  22.631  1.00  0.00    -0.330 N 
ATOM     27  H5  UNL     1      -0.021  20.805  21.821  1.00  0.00     0.165 HD
BRANCH  26  28
HETATM   28  C5  UNL     1      -0.348  20.659  23.930  1.00  0.00     0.351 C 
HETATM   29  N6  UNL     1      -1.670  20.167  24.311  1.00  0.00    -0.276 N 
HETATM   30  N7  UNL     1      -2.067  20.141  25.503  1.00  0.00    -0.244 N 
ATOM     31  H6  UNL     1      -2.297  19.831  23.580  1.00  0.00     0.186 HD
HETATM   32  N8  UNL     1      -1.204  20.605  26.500  1.00  0.00    -0.270 N 
ATOM     33  H7  UNL     1      -2.996  19.790  25.737  1.00  0.00     0.207 HD
HETATM   34  C6  UNL     1       0.154  20.927  26.108  1.00  0.00     0.445 C 
ATOM     35  H8  UNL     1      -1.517  20.713  27.464  1.00  0.00     0.186 HD
HETATM   36  O1  UNL     1       0.128  21.562  24.893  1.00  0.00    -0.298 OA
BRANCH  34  37
HETATM   37  N9  UNL     1       0.888  19.683  26.039  1.00  0.00    -0.033 N 
ATOM     38  H93 UNL     1       0.865  19.157  26.913  1.00  0.00     0.279 HD
ATOM     39  H92 UNL     1       0.433  18.984  25.452  1.00  0.00     0.279 HD
ATOM     40  H91 UNL     1       1.835  19.906  25.732  1.00  0.00     0.279 HD
ENDBRANCH  34  37
ENDBRANCH  26  28
ENDBRANCH   8  26
BRANCH   5  41
HETATM   41  N2  UNL     1      -0.756  25.809  23.480  1.00  0.00    -0.138 N 
ATOM     42  H2  UNL     1      -0.982  25.941  24.466  1.00  0.00     0.205 HD
BRANCH  41  43
HETATM   43  N3  UNL     1       0.008  26.784  22.846  1.00  0.00    -0.331 N 
ATOM     44  H32 UNL     1      -0.174  26.944  21.856  1.00  0.00     0.177 HD
ATOM     45  H31 UNL     1       0.727  27.334  23.315  1.00  0.00     0.177 HD
ENDBRANCH  41  43
ENDBRANCH   5  41
TORSDOF 11
ENDMDL
MODEL 2
REMARK VINA RESULT: -8.927929660      0.745      1.212
REMARK  11 active torsions:
REMARK  status: ('A' for Active; 'I' for Inactive)
REMARK    1  A    between atoms: C3_5  and  N2_6 
REMARK    2  A    between atoms: N2_6  and  N3_8 
REMARK    3  A    between atoms: C4_13  and  N5_14 
REMARK    4  A    between atoms: N5_14  and  C5_16 
REMARK    5  A    between atoms: C6_23  and  N9_24 
REMARK    6  A    between atoms: C7_29  and  N10_30 
REMARK    7  A    between atoms: N11_32  and  O2_34 
REMARK    8  A    between atoms: O2_34  and  C8_35 
REMARK    9  A    between atoms: C8_35  and  C9_37 
REMARK   10  A    between atoms: C12_42  and  C13_43 
REMARK   11  A    between atoms: C13_43  and  O6_44 
ROOT
HETATM    1  C1  UNL     1      -3.971  24.035  20.646  1.00  0.00     0.071 C 
HETATM    2  C2  UNL     1      -2.762  23.963  21.545  1.00  0.00     0.054 A 
HETATM    3  N1  UNL     1      -2.282  25.115  22.072  1.00  0.00    -0.192 N 
ATOM      4  H1  UNL     1      -2.731  26.007  21.865  1.00  0.00     0.184 HD
HETATM    5  C3  UNL     1      -1.207  25.059  22.872  1.00  0.00     0.698 A 
HETATM    6  N4  UNL     1      -0.606  23.886  23.154  1.00  0.00    -0.173 N 
ATOM      7  H4  UNL     1       0.209  23.893  23.767  1.00  0.00     0.186 HD
HETATM    8  C4  UNL     1      -1.029  22.706  22.665  1.00  0.00     0.150 A 
HETATM    9  C7  UNL     1      -2.153  22.768  21.829  1.00  0.00     0.117 A 
ENDROOT
BRANCH   9  10
HETATM   10  N10 UNL     1      -2.639  21.550  21.288  1.00  0.00    -0.275 N 
HETATM   11  N11 UNL     1      -2.312  21.100  20.158  1.00  0.00    -0.198 N 
ATOM     12  H11 UNL     1      -2.720  20.212  19.865  1.00  0.00     0.216 HD
ATOM     13  H10 UNL     1      -3.293  21.004  21.849  1.00  0.00     0.189 HD
BRANCH  11  14
HETATM   14  O2  UNL     1      -1.448  21.719  19.293  1.00  0.00    -0.184 OA
BRANCH  14  15
HETATM   15  C8  UNL     1      -1.916  22.455  18.214  1.00  0.00     0.290 C 
HETATM   16  O3  UNL     1      -3.153  22.350  17.949  1.00  0.00    -0.263 OA
BRANCH  15  17
HETATM   17  C9  UNL     1      -1.039  23.329  17.393  1.00  0.00     0.128 C 
HETATM   18  C10 UNL     1       0.254  23.612  18.161  1.00  0.00     0.128 C 
HETATM   19  C11 UNL     1      -0.176  24.690  19.074  1.00  0.00     0.260 C 
HETATM   20  O4  UNL     1       0.199  24.920  20.272  1.00  0.00    -0.265 OA
HETATM   21  O5  UNL     1      -1.100  25.445  18.368  1.00  0.00    -0.313 OA
HETATM   22  C12 UNL     1      -1.649  24.692  17.306  1.00  0.00     0.169 C 
BRANCH  22  23
HETATM   23  C13 UNL     1      -1.356  25.375  15.977  1.00  0.00     0.197 C 
BRANCH  23  24
HETATM   24  O6  UNL     1      -2.542  25.738  15.375  1.00  0.00    -0.398 OA
ATOM     25  H6  UNL     1      -2.725  25.148  14.653  1.00  0.00     0.209 HD
ENDBRANCH  23  24
ENDBRANCH  22  23
ENDBRANCH  15  17
ENDBRANCH  14  15
ENDBRANCH  11  14
ENDBRANCH   9  10
BRANCH   8  26
HETATM   26  N5  UNL     1      -0.476  21.566  22.916  1.00  0.00    -0.330 N 
ATOM     27  H5  UNL     1      -0.243  20.938  22.147  1.00  0.00     0.165 HD
BRANCH  26  28
HETATM   28  C5  UNL     1      -0.186  21.175  24.272  1.00  0.00     0.351 C 
HETATM   29  N6  UNL     1       1.256  21.252  24.504  1.00  0.00    -0.276 N 
HETATM   30  N7  UNL     1       1.861  20.472  25.280  1.00  0.00    -0.244 N 
ATOM     31  H6  UNL     1       1.792  21.969  24.015  1.00  0.00     0.186 HD
HETATM   32  N8  UNL     1       1.120  19.491  25.945  1.00  0.00    -0.270 N 
ATOM     33  H7  UNL     1       2.869  20.553  25.422  1.00  0.00     0.207 HD
HETATM   34  C6  UNL     1      -0.323  19.548  25.823  1.00  0.00     0.445 C 
ATOM     35  H8  UNL     1       1.577  18.763  26.495  1.00  0.00     0.186 HD
HETATM   36  O1  UNL     1      -0.647  19.875  24.531  1.00  0.00    -0.298 OA
BRANCH  34  37
HETATM   37  N9  UNL     1      -0.794  20.548  26.755  1.00  0.00    -0.033 N 
ATOM     38  H93 UNL     1      -0.759  20.236  27.726  1.00  0.00     0.279 HD
ATOM     39  H92 UNL     1      -0.156  21.339  26.847  1.00  0.00     0.279 HD
ATOM     40  H91 UNL     1      -1.730  20.823  26.458  1.00  0.00     0.279 HD
ENDBRANCH  34  37
ENDBRANCH  26  28
ENDBRANCH   8  26
BRANCH   5  41
HETATM   41  N2  UNL     1      -0.761  26.156  23.366  1.00  0.00    -0.138 N 
ATOM     42  H2  UNL     1      -1.174  26.495  24.236  1.00  0.00     0.205 HD
BRANCH  41  43
HETATM   43  N3  UNL     1       0.254  26.910  22.785  1.00  0.00    -0.331 N 
ATOM     44  H32 UNL     1       0.836  26.445  22.090  1.00  0.00     0.177 HD
ATOM     45  H31 UNL     1       0.439  27.886  23.016  1.00  0.00     0.177 HD
ENDBRANCH  41  43
ENDBRANCH   5  41
TORSDOF 11
ENDMDL
MODEL 3
REMARK VINA RESULT: -8.892212972      1.266      1.882
REMARK  11 active torsions:
REMARK  status: ('A' for Active; 'I' for Inactive)
REMARK    1  A    between atoms: C3_5  and  N2_6 
REMARK    2  A    between atoms: N2_6  and  N3_8 
REMARK    3  A    between atoms: C4_13  and  N5_14 
REMARK    4  A    between atoms: N5_14  and  C5_16 
REMARK    5  A    between atoms: C6_23  and  N9_24 
REMARK    6  A    between atoms: C7_29  and  N10_30 
REMARK    7  A    between atoms: N11_32  and  O2_34 
REMARK    8  A    between atoms: O2_34  and  C8_35 
REMARK    9  A    between atoms: C8_35  and  C9_37 
REMARK   10  A    between atoms: C12_42  and  C13_43 
REMARK   11  A    between atoms: C13_43  and  O6_44 
ROOT
HETATM    1  C1  UNL     1      -3.907  24.189  20.675  1.00  0.00     0.071 C 
HETATM    2  C2  UNL     1      -2.762  23.842  21.593  1.00  0.00     0.054 A 
HETATM    3  N1  UNL     1      -2.218  24.829  22.344  1.00  0.00    -0.192 N 
ATOM      4  H1  UNL     1      -2.577  25.782  22.289  1.00  0.00     0.184 HD
HETATM    5  C3  UNL     1      -1.198  24.528  23.163  1.00  0.00     0.698 A 
HETATM    6  N4  UNL     1      -0.715  23.273  23.245  1.00  0.00    -0.173 N 
ATOM      7  H4  UNL     1       0.061  23.092  23.882  1.00  0.00     0.186 HD
HETATM    8  C4  UNL     1      -1.208  22.246  22.528  1.00  0.00     0.150 A 
HETATM    9  C7  UNL     1      -2.273  22.564  21.674  1.00  0.00     0.117 A 
ENDROOT
BRANCH   9  10
HETATM   10  N10 UNL     1      -2.828  21.516  20.896  1.00  0.00    -0.275 N 
HETATM   11  N11 UNL     1      -2.447  21.223  19.731  1.00  0.00    -0.198 N 
ATOM     12  H11 UNL     1      -2.915  20.449  19.260  1.00  0.00     0.216 HD
ATOM     13  H10 UNL     1      -3.582  20.964  21.305  1.00  0.00     0.189 HD
BRANCH  11  14
HETATM   14  O2  UNL     1      -1.450  21.872  19.052  1.00  0.00    -0.184 OA
BRANCH  14  15
HETATM   15  C8  UNL     1      -1.741  22.773  18.037  1.00  0.00     0.290 C 
HETATM   16  O3  UNL     1      -2.573  22.388  17.159  1.00  0.00    -0.263 OA
BRANCH  15  17
HETATM   17  C9  UNL     1      -1.127  24.123  17.956  1.00  0.00     0.128 C 
HETATM   18  C10 UNL     1       0.018  24.097  16.940  1.00  0.00     0.128 C 
HETATM   19  C11 UNL     1       1.110  23.513  17.744  1.00  0.00     0.260 C 
HETATM   20  O4  UNL     1       2.046  22.729  17.372  1.00  0.00    -0.265 OA
HETATM   21  O5  UNL     1       0.934  23.988  19.034  1.00  0.00    -0.313 OA
HETATM   22  C12 UNL     1      -0.401  24.409  19.231  1.00  0.00     0.169 C 
BRANCH  22  23
HETATM   23  C13 UNL     1      -0.433  25.887  19.598  1.00  0.00     0.197 C 
BRANCH  23  24
HETATM   24  O6  UNL     1       0.367  26.103  20.701  1.00  0.00    -0.398 OA
ATOM     25  H6  UNL     1       0.007  25.639  21.448  1.00  0.00     0.209 HD
ENDBRANCH  23  24
ENDBRANCH  22  23
ENDBRANCH  15  17
ENDBRANCH  14  15
ENDBRANCH  11  14
ENDBRANCH   9  10
BRANCH   8  26
HETATM   26  N5  UNL     1      -0.768  21.033  22.585  1.00  0.00    -0.330 N 
ATOM     27  H5  UNL     1      -0.232  20.653  21.804  1.00  0.00     0.165 HD
BRANCH  26  28
HETATM   28  C5  UNL     1      -1.028  20.211  23.740  1.00  0.00     0.351 C 
HETATM   29  N6  UNL     1      -2.220  19.399  23.503  1.00  0.00    -0.276 N 
HETATM   30  N7  UNL     1      -3.014  19.074  24.421  1.00  0.00    -0.244 N 
ATOM     31  H6  UNL     1      -2.416  19.084  22.553  1.00  0.00     0.186 HD
HETATM   32  N8  UNL     1      -2.740  19.511  25.720  1.00  0.00    -0.270 N 
ATOM     33  H7  UNL     1      -3.837  18.504  24.223  1.00  0.00     0.207 HD
HETATM   34  C6  UNL     1      -1.468  20.169  25.947  1.00  0.00     0.445 C 
ATOM     35  H8  UNL     1      -3.408  19.373  26.478  1.00  0.00     0.186 HD
HETATM   36  O1  UNL     1      -1.201  20.999  24.889  1.00  0.00    -0.298 OA
BRANCH  34  37
HETATM   37  N9  UNL     1      -0.466  19.135  26.075  1.00  0.00    -0.033 N 
ATOM     38  H93 UNL     1      -0.833  18.270  26.475  1.00  0.00     0.279 HD
ATOM     39  H92 UNL     1      -0.172  18.751  25.177  1.00  0.00     0.279 HD
ATOM     40  H91 UNL     1       0.307  19.526  26.613  1.00  0.00     0.279 HD
ENDBRANCH  34  37
ENDBRANCH  26  28
ENDBRANCH   8  26
BRANCH   5  41
HETATM   41  N2  UNL     1      -0.690  25.470  23.871  1.00  0.00    -0.138 N 
ATOM     42  H2  UNL     1      -0.448  25.266  24.841  1.00  0.00     0.205 HD
BRANCH  41  43
HETATM   43  N3  UNL     1      -0.450  26.754  23.392  1.00  0.00    -0.331 N 
ATOM     44  H32 UNL     1      -1.235  27.243  22.963  1.00  0.00     0.177 HD
ATOM     45  H31 UNL     1       0.456  27.220  23.447  1.00  0.00     0.177 HD
ENDBRANCH  41  43
ENDBRANCH   5  41
TORSDOF 11
ENDMDL
MODEL 4
REMARK VINA RESULT: -8.829322613      2.878      7.403
REMARK  11 active torsions:
REMARK  status: ('A' for Active; 'I' for Inactive)
REMARK    1  A    between atoms: C3_5  and  N2_6 
REMARK    2  A    between atoms: N2_6  and  N3_8 
REMARK    3  A    between atoms: C4_13  and  N5_14 
REMARK    4  A    between atoms: N5_14  and  C5_16 
REMARK    5  A    between atoms: C6_23  and  N9_24 
REMARK    6  A    between atoms: C7_29  and  N10_30 
REMARK    7  A    between atoms: N11_32  and  O2_34 
REMARK    8  A    between atoms: O2_34  and  C8_35 
REMARK    9  A    between atoms: C8_35  and  C9_37 
REMARK   10  A    between atoms: C12_42  and  C13_43 
REMARK   11  A    between atoms: C13_43  and  O6_44 
ROOT
HETATM    1  C1  UNL     1      -2.587  23.934  22.694  1.00  0.00     0.071 C 
HETATM    2  C2  UNL     1      -1.607  24.427  21.660  1.00  0.00     0.054 A 
HETATM    3  N1  UNL     1      -1.117  25.684  21.784  1.00  0.00    -0.192 N 
ATOM      4  H1  UNL     1      -1.405  26.279  22.561  1.00  0.00     0.184 HD
HETATM    5  C3  UNL     1      -0.244  26.130  20.868  1.00  0.00     0.698 A 
HETATM    6  N4  UNL     1       0.145  25.352  19.838  1.00  0.00    -0.173 N 
ATOM      7  H4  UNL     1       0.811  25.734  19.166  1.00  0.00     0.186 HD
HETATM    8  C4  UNL     1      -0.301  24.096  19.654  1.00  0.00     0.150 A 
HETATM    9  C7  UNL     1      -1.213  23.634  20.614  1.00  0.00     0.117 A 
ENDROOT
BRANCH   9  10
HETATM   10  N10 UNL     1      -1.714  22.315  20.464  1.00  0.00    -0.275 N 
HETATM   11  N11 UNL     1      -1.334  21.333  21.155  1.00  0.00    -0.198 N 
ATOM     12  H11 UNL     1      -1.761  20.426  20.965  1.00  0.00     0.216 HD
ATOM     13  H10 UNL     1      -2.426  22.152  19.752  1.00  0.00     0.189 HD
BRANCH  11  14
HETATM   14  O2  UNL     1      -0.389  21.396  22.144  1.00  0.00    -0.184 OA
BRANCH  14  15
HETATM   15  C8  UNL     1      -0.629  20.865  23.403  1.00  0.00     0.290 C 
HETATM   16  O3  UNL     1      -1.832  20.889  23.808  1.00  0.00    -0.263 OA
BRANCH  15  17
HETATM   17  C9  UNL     1       0.444  20.289  24.255  1.00  0.00     0.128 C 
HETATM   18  C10 UNL     1      -0.191  19.502  25.403  1.00  0.00     0.128 C 
HETATM   19  C11 UNL     1      -0.532  20.583  26.348  1.00  0.00     0.260 C 
HETATM   20  O4  UNL     1      -1.533  20.671  27.136  1.00  0.00    -0.265 OA
HETATM   21  O5  UNL     1       0.472  21.531  26.227  1.00  0.00    -0.313 OA
HETATM   22  C12 UNL     1       1.135  21.395  24.986  1.00  0.00     0.169 C 
BRANCH  22  23
HETATM   23  C13 UNL     1       2.613  21.105  25.214  1.00  0.00     0.197 C 
BRANCH  23  24
HETATM   24  O6  UNL     1       2.893  21.181  26.562  1.00  0.00    -0.398 OA
ATOM     25  H6  UNL     1       3.525  20.510  26.792  1.00  0.00     0.209 HD
ENDBRANCH  23  24
ENDBRANCH  22  23
ENDBRANCH  15  17
ENDBRANCH  14  15
ENDBRANCH  11  14
ENDBRANCH   9  10
BRANCH   8  26
HETATM   26  N5  UNL     1       0.053  23.326  18.679  1.00  0.00    -0.330 N 
ATOM     27  H5  UNL     1       0.536  22.450  18.877  1.00  0.00     0.165 HD
BRANCH  26  28
HETATM   28  C5  UNL     1      -0.229  23.694  17.315  1.00  0.00     0.351 C 
HETATM   29  N6  UNL     1       1.005  24.125  16.660  1.00  0.00    -0.276 N 
HETATM   30  N7  UNL     1       1.028  25.011  15.770  1.00  0.00    -0.244 N 
ATOM     31  H6  UNL     1       1.884  23.688  16.938  1.00  0.00     0.186 HD
HETATM   32  N8  UNL     1      -0.180  25.607  15.396  1.00  0.00    -0.270 N 
ATOM     33  H7  UNL     1       1.907  25.289  15.332  1.00  0.00     0.207 HD
HETATM   34  C6  UNL     1      -1.398  25.042  15.941  1.00  0.00     0.445 C 
ATOM     35  H8  UNL     1      -0.203  26.408  14.764  1.00  0.00     0.186 HD
HETATM   36  O1  UNL     1      -1.188  24.718  17.257  1.00  0.00    -0.298 OA
BRANCH  34  37
HETATM   37  N9  UNL     1      -1.720  23.874  15.153  1.00  0.00    -0.033 N 
ATOM     38  H93 UNL     1      -2.365  24.073  14.388  1.00  0.00     0.279 HD
ATOM     39  H92 UNL     1      -0.938  23.548  14.584  1.00  0.00     0.279 HD
ATOM     40  H91 UNL     1      -2.070  23.162  15.794  1.00  0.00     0.279 HD
ENDBRANCH  34  37
ENDBRANCH  26  28
ENDBRANCH   8  26
BRANCH   5  41
HETATM   41  N2  UNL     1       0.214  27.321  20.996  1.00  0.00    -0.138 N 
ATOM     42  H2  UNL     1       0.013  27.996  20.257  1.00  0.00     0.205 HD
BRANCH  41  43
HETATM   43  N3  UNL     1       0.970  27.747  22.083  1.00  0.00    -0.331 N 
ATOM     44  H32 UNL     1       1.642  27.083  22.469  1.00  0.00     0.177 HD
ATOM     45  H31 UNL     1       0.887  28.671  22.505  1.00  0.00     0.177 HD
ENDBRANCH  41  43
ENDBRANCH   5  41
TORSDOF 11
ENDMDL
MODEL 5
REMARK VINA RESULT: -8.766921123      2.799      7.289
REMARK  11 active torsions:
REMARK  status: ('A' for Active; 'I' for Inactive)
REMARK    1  A    between atoms: C3_5  and  N2_6 
REMARK    2  A    between atoms: N2_6  and  N3_8 
REMARK    3  A    between atoms: C4_13  and  N5_14 
REMARK    4  A    between atoms: N5_14  and  C5_16 
REMARK    5  A    between atoms: C6_23  and  N9_24 
REMARK    6  A    between atoms: C7_29  and  N10_30 
REMARK    7  A    between atoms: N11_32  and  O2_34 
REMARK    8  A    between atoms: O2_34  and  C8_35 
REMARK    9  A    between atoms: C8_35  and  C9_37 
REMARK   10  A    between atoms: C12_42  and  C13_43 
REMARK   11  A    between atoms: C13_43  and  O6_44 
ROOT
HETATM    1  C1  UNL     1      -2.288  23.893  23.184  1.00  0.00     0.071 C 
HETATM    2  C2  UNL     1      -1.589  24.286  21.906  1.00  0.00     0.054 A 
HETATM    3  N1  UNL     1      -1.095  25.543  21.803  1.00  0.00    -0.192 N 
ATOM      4  H1  UNL     1      -1.195  26.205  22.572  1.00  0.00     0.184 HD
HETATM    5  C3  UNL     1      -0.472  25.899  20.669  1.00  0.00     0.698 A 
HETATM    6  N4  UNL     1      -0.333  25.033  19.646  1.00  0.00    -0.173 N 
ATOM      7  H4  UNL     1       0.148  25.350  18.804  1.00  0.00     0.186 HD
HETATM    8  C4  UNL     1      -0.799  23.771  19.682  1.00  0.00     0.150 A 
HETATM    9  C7  UNL     1      -1.450  23.402  20.868  1.00  0.00     0.117 A 
ENDROOT
BRANCH   9  10
HETATM   10  N10 UNL     1      -1.959  22.081  20.955  1.00  0.00    -0.275 N 
HETATM   11  N11 UNL     1      -1.339  21.118  21.478  1.00  0.00    -0.198 N 
ATOM     12  H11 UNL     1      -1.798  20.207  21.488  1.00  0.00     0.216 HD
ATOM     13  H10 UNL     1      -2.886  21.900  20.570  1.00  0.00     0.189 HD
BRANCH  11  14
HETATM   14  O2  UNL     1      -0.090  21.207  22.034  1.00  0.00    -0.184 OA
BRANCH  14  15
HETATM   15  C8  UNL     1       0.093  21.125  23.407  1.00  0.00     0.290 C 
HETATM   16  O3  UNL     1       1.280  21.274  23.831  1.00  0.00    -0.263 OA
BRANCH  15  17
HETATM   17  C9  UNL     1      -1.022  20.878  24.356  1.00  0.00     0.128 C 
HETATM   18  C10 UNL     1      -0.513  21.049  25.789  1.00  0.00     0.128 C 
HETATM   19  C11 UNL     1       0.140  19.746  26.026  1.00  0.00     0.260 C 
HETATM   20  O4  UNL     1       1.186  19.488  26.710  1.00  0.00    -0.265 OA
HETATM   21  O5  UNL     1      -0.617  18.807  25.343  1.00  0.00    -0.313 OA
HETATM   22  C12 UNL     1      -1.379  19.427  24.327  1.00  0.00     0.169 C 
BRANCH  22  23
HETATM   23  C13 UNL     1      -2.863  19.189  24.570  1.00  0.00     0.197 C 
BRANCH  23  24
HETATM   24  O6  UNL     1      -3.175  17.881  24.264  1.00  0.00    -0.398 OA
ATOM     25  H6  UNL     1      -2.985  17.327  25.012  1.00  0.00     0.209 HD
ENDBRANCH  23  24
ENDBRANCH  22  23
ENDBRANCH  15  17
ENDBRANCH  14  15
ENDBRANCH  11  14
ENDBRANCH   9  10
BRANCH   8  26
HETATM   26  N5  UNL     1      -0.682  22.918  18.720  1.00  0.00    -0.330 N 
ATOM     27  H5  UNL     1      -0.131  22.070  18.860  1.00  0.00     0.165 HD
BRANCH  26  28
HETATM   28  C5  UNL     1      -1.322  23.152  17.450  1.00  0.00     0.351 C 
HETATM   29  N6  UNL     1      -0.399  23.854  16.560  1.00  0.00    -0.276 N 
HETATM   30  N7  UNL     1      -0.784  24.683  15.699  1.00  0.00    -0.244 N 
ATOM     31  H6  UNL     1       0.599  23.663  16.642  1.00  0.00     0.186 HD
HETATM   32  N8  UNL     1      -2.155  24.942  15.594  1.00  0.00    -0.270 N 
ATOM     33  H7  UNL     1      -0.115  25.156  15.092  1.00  0.00     0.207 HD
HETATM   34  C6  UNL     1      -3.051  24.109  16.371  1.00  0.00     0.445 C 
ATOM     35  H8  UNL     1      -2.509  25.687  14.994  1.00  0.00     0.186 HD
HETATM   36  O1  UNL     1      -2.500  23.898  17.609  1.00  0.00    -0.298 OA
BRANCH  34  37
HETATM   37  N9  UNL     1      -3.220  22.869  15.649  1.00  0.00    -0.033 N 
ATOM     38  H93 UNL     1      -3.451  22.082  16.255  1.00  0.00     0.279 HD
ATOM     39  H92 UNL     1      -4.068  22.851  15.081  1.00  0.00     0.279 HD
ATOM     40  H91 UNL     1      -2.372  22.717  15.103  1.00  0.00     0.279 HD
ENDBRANCH  34  37
ENDBRANCH  26  28
ENDBRANCH   8  26
BRANCH   5  41
HETATM   41  N2  UNL     1      -0.008  27.092  20.582  1.00  0.00    -0.138 N 
ATOM     42  H2  UNL     1       0.669  27.398  21.281  1.00  0.00     0.205 HD
BRANCH  41  43
HETATM   43  N3  UNL     1      -0.374  27.994  19.587  1.00  0.00    -0.331 N 
ATOM     44  H32 UNL     1       0.158  28.861  19.529  1.00  0.00     0.177 HD
ATOM     45  H31 UNL     1      -1.134  27.832  18.927  1.00  0.00     0.177 HD
ENDBRANCH  41  43
ENDBRANCH   5  41
TORSDOF 11
ENDMDL
