MODEL 1
REMARK VINA RESULT: -7.444890483      0.000      0.000
REMARK  5 active torsions:
REMARK  status: ('A' for Active; 'I' for Inactive)
REMARK    1  A    between atoms: N1_1  and  C1_5 
REMARK    2  A    between atoms: C1_5  and  C2_6 
REMARK    3  A    between atoms: C2_6  and  C3_7 
REMARK    4  A    between atoms: C3_7  and  C4_8 
REMARK    5  A    between atoms: C4_8  and  C5_9 
ROOT
HETATM    1  C5  UNL     1       7.209  27.804  21.256  1.00  0.00    -0.039 A 
HETATM    2  C6  UNL     1       5.973  27.446  20.737  1.00  0.00     0.012 A 
HETATM    3  C7  UNL     1       5.832  26.701  19.585  1.00  0.00     0.015 A 
HETATM    4  C8  UNL     1       6.949  26.283  18.907  1.00  0.00     0.001 A 
HETATM    5  C9  UNL     1       8.184  26.621  19.397  1.00  0.00     0.002 A 
HETATM    6  C10 UNL     1       8.311  27.369  20.552  1.00  0.00     0.025 A 
HETATM    7  C11 UNL     1       8.038  25.832  18.179  1.00  0.00     0.068 A 
HETATM    8  N2  UNL     1       8.582  25.131  17.078  1.00  0.00    -0.101 NA
ENDROOT
BRANCH   1   9
HETATM    9  C4  UNL     1       7.312  28.524  22.367  1.00  0.00    -0.015 C 
BRANCH   9  10
HETATM   10  C3  UNL     1       7.224  27.856  23.667  1.00  0.00     0.029 C 
BRANCH  10  11
HETATM   11  C2  UNL     1       5.824  27.861  24.222  1.00  0.00     0.031 C 
BRANCH  11  12
HETATM   12  C1  UNL     1       5.253  26.473  24.147  1.00  0.00     0.230 C 
BRANCH  12  13
HETATM   13  N1  UNL     1       3.953  26.496  24.779  1.00  0.00    -0.079 N 
ATOM     14  H13 UNL     1       3.983  26.207  25.757  1.00  0.00     0.274 HD
ATOM     15  H12 UNL     1       3.602  27.441  24.928  1.00  0.00     0.274 HD
ATOM     16  H11 UNL     1       3.323  25.923  24.217  1.00  0.00     0.274 HD
ENDBRANCH  12  13
ENDBRANCH  11  12
ENDBRANCH  10  11
ENDBRANCH   9  10
ENDBRANCH   1   9
TORSDOF 5
ENDMDL
MODEL 2
REMARK VINA RESULT: -7.064785720      0.719      1.522
REMARK  5 active torsions:
REMARK  status: ('A' for Active; 'I' for Inactive)
REMARK    1  A    between atoms: N1_1  and  C1_5 
REMARK    2  A    between atoms: C1_5  and  C2_6 
REMARK    3  A    between atoms: C2_6  and  C3_7 
REMARK    4  A    between atoms: C3_7  and  C4_8 
REMARK    5  A    between atoms: C4_8  and  C5_9 
ROOT
HETATM    1  C5  UNL     1       6.961  27.814  21.430  1.00  0.00    -0.039 A 
HETATM    2  C6  UNL     1       8.333  27.826  21.224  1.00  0.00     0.012 A 
HETATM    3  C7  UNL     1       8.936  27.182  20.164  1.00  0.00     0.015 A 
HETATM    4  C8  UNL     1       8.165  26.496  19.260  1.00  0.00     0.001 A 
HETATM    5  C9  UNL     1       6.806  26.467  19.438  1.00  0.00     0.002 A 
HETATM    6  C10 UNL     1       6.215  27.116  20.506  1.00  0.00     0.025 A 
HETATM    7  C11 UNL     1       7.441  25.786  18.316  1.00  0.00     0.068 A 
HETATM    8  N2  UNL     1       7.381  24.996  17.144  1.00  0.00    -0.101 NA
ENDROOT
BRANCH   1   9
HETATM    9  C4  UNL     1       6.410  28.443  22.461  1.00  0.00    -0.015 C 
BRANCH   9  10
HETATM   10  C3  UNL     1       6.599  27.911  23.812  1.00  0.00     0.029 C 
BRANCH  10  11
HETATM   11  C2  UNL     1       6.202  26.462  23.921  1.00  0.00     0.031 C 
BRANCH  11  12
HETATM   12  C1  UNL     1       4.718  26.336  23.723  1.00  0.00     0.230 C 
BRANCH  12  13
HETATM   13  N1  UNL     1       4.075  26.678  24.971  1.00  0.00    -0.079 N 
ATOM     14  H13 UNL     1       4.734  26.999  25.681  1.00  0.00     0.274 HD
ATOM     15  H12 UNL     1       3.518  27.530  24.909  1.00  0.00     0.274 HD
ATOM     16  H11 UNL     1       3.531  25.870  25.274  1.00  0.00     0.274 HD
ENDBRANCH  12  13
ENDBRANCH  11  12
ENDBRANCH  10  11
ENDBRANCH   9  10
ENDBRANCH   1   9
TORSDOF 5
ENDMDL
MODEL 3
REMARK VINA RESULT: -6.626049709      1.559      2.231
REMARK  5 active torsions:
REMARK  status: ('A' for Active; 'I' for Inactive)
REMARK    1  A    between atoms: N1_1  and  C1_5 
REMARK    2  A    between atoms: C1_5  and  C2_6 
REMARK    3  A    between atoms: C2_6  and  C3_7 
REMARK    4  A    between atoms: C3_7  and  C4_8 
REMARK    5  A    between atoms: C4_8  and  C5_9 
ROOT
HETATM    1  C5  UNL     1       6.303  26.580  21.367  1.00  0.00    -0.039 A 
HETATM    2  C6  UNL     1       7.449  27.360  21.418  1.00  0.00     0.012 A 
HETATM    3  C7  UNL     1       8.404  27.353  20.423  1.00  0.00     0.015 A 
HETATM    4  C8  UNL     1       8.235  26.548  19.325  1.00  0.00     0.001 A 
HETATM    5  C9  UNL     1       7.111  25.766  19.247  1.00  0.00     0.002 A 
HETATM    6  C10 UNL     1       6.162  25.782  20.251  1.00  0.00     0.025 A 
HETATM    7  C11 UNL     1       8.120  25.758  18.194  1.00  0.00     0.068 A 
HETATM    8  N2  UNL     1       8.619  25.298  16.953  1.00  0.00    -0.101 NA
ENDROOT
BRANCH   1   9
HETATM    9  C4  UNL     1       5.401  26.607  22.341  1.00  0.00    -0.015 C 
BRANCH   9  10
HETATM   10  C3  UNL     1       5.847  26.544  23.734  1.00  0.00     0.029 C 
BRANCH  10  11
HETATM   11  C2  UNL     1       5.827  27.892  24.405  1.00  0.00     0.031 C 
BRANCH  11  12
HETATM   12  C1  UNL     1       7.193  28.198  24.951  1.00  0.00     0.230 C 
BRANCH  12  13
HETATM   13  N1  UNL     1       7.773  29.239  24.133  1.00  0.00    -0.079 N 
ATOM     14  H13 UNL     1       7.939  30.103  24.651  1.00  0.00     0.274 HD
ATOM     15  H12 UNL     1       8.741  29.048  23.876  1.00  0.00     0.274 HD
ATOM     16  H11 UNL     1       7.167  29.373  23.323  1.00  0.00     0.274 HD
ENDBRANCH  12  13
ENDBRANCH  11  12
ENDBRANCH  10  11
ENDBRANCH   9  10
ENDBRANCH   1   9
TORSDOF 5
ENDMDL
MODEL 4
REMARK VINA RESULT: -6.438822998      1.661      5.550
REMARK  5 active torsions:
REMARK  status: ('A' for Active; 'I' for Inactive)
REMARK    1  A    between atoms: N1_1  and  C1_5 
REMARK    2  A    between atoms: C1_5  and  C2_6 
REMARK    3  A    between atoms: C2_6  and  C3_7 
REMARK    4  A    between atoms: C3_7  and  C4_8 
REMARK    5  A    between atoms: C4_8  and  C5_9 
ROOT
HETATM    1  C5  UNL     1       5.906  26.400  21.267  1.00  0.00    -0.039 A 
HETATM    2  C6  UNL     1       4.887  26.163  22.179  1.00  0.00     0.012 A 
HETATM    3  C7  UNL     1       4.915  26.637  23.473  1.00  0.00     0.015 A 
HETATM    4  C8  UNL     1       5.987  27.380  23.900  1.00  0.00     0.001 A 
HETATM    5  C9  UNL     1       7.008  27.632  23.021  1.00  0.00     0.002 A 
HETATM    6  C10 UNL     1       6.967  27.150  21.727  1.00  0.00     0.025 A 
HETATM    7  C11 UNL     1       7.040  28.135  24.389  1.00  0.00     0.068 A 
HETATM    8  N2  UNL     1       7.664  28.851  25.438  1.00  0.00    -0.101 NA
ENDROOT
BRANCH   1   9
HETATM    9  C4  UNL     1       5.850  25.929  20.028  1.00  0.00    -0.015 C 
BRANCH   9  10
HETATM   10  C3  UNL     1       6.669  26.550  18.985  1.00  0.00     0.029 C 
BRANCH  10  11
HETATM   11  C2  UNL     1       7.034  25.585  17.889  1.00  0.00     0.031 C 
BRANCH  11  12
HETATM   12  C1  UNL     1       8.517  25.636  17.652  1.00  0.00     0.230 C 
BRANCH  12  13
HETATM   13  N1  UNL     1       9.171  25.617  18.941  1.00  0.00    -0.079 N 
ATOM     14  H13 UNL     1       8.544  25.345  19.699  1.00  0.00     0.274 HD
ATOM     15  H12 UNL     1       9.837  24.850  19.035  1.00  0.00     0.274 HD
ATOM     16  H11 UNL     1       9.597  26.532  19.089  1.00  0.00     0.274 HD
ENDBRANCH  12  13
ENDBRANCH  11  12
ENDBRANCH  10  11
ENDBRANCH   9  10
ENDBRANCH   1   9
TORSDOF 5
ENDMDL
MODEL 5
REMARK VINA RESULT: -6.272921510      1.794      2.197
REMARK  5 active torsions:
REMARK  status: ('A' for Active; 'I' for Inactive)
REMARK    1  A    between atoms: N1_1  and  C1_5 
REMARK    2  A    between atoms: C1_5  and  C2_6 
REMARK    3  A    between atoms: C2_6  and  C3_7 
REMARK    4  A    between atoms: C3_7  and  C4_8 
REMARK    5  A    between atoms: C4_8  and  C5_9 
ROOT
HETATM    1  C5  UNL     1       5.615  26.288  21.317  1.00  0.00    -0.039 A 
HETATM    2  C6  UNL     1       4.905  26.853  20.267  1.00  0.00     0.012 A 
HETATM    3  C7  UNL     1       5.368  26.860  18.968  1.00  0.00     0.015 A 
HETATM    4  C8  UNL     1       6.581  26.287  18.677  1.00  0.00     0.001 A 
HETATM    5  C9  UNL     1       7.304  25.721  19.694  1.00  0.00     0.002 A 
HETATM    6  C10 UNL     1       6.829  25.722  20.992  1.00  0.00     0.025 A 
HETATM    7  C11 UNL     1       7.796  25.725  18.321  1.00  0.00     0.068 A 
HETATM    8  N2  UNL     1       8.770  25.406  17.347  1.00  0.00    -0.101 NA
ENDROOT
BRANCH   1   9
HETATM    9  C4  UNL     1       5.143  26.299  22.557  1.00  0.00    -0.015 C 
BRANCH   9  10
HETATM   10  C3  UNL     1       6.055  26.566  23.671  1.00  0.00     0.029 C 
BRANCH  10  11
HETATM   11  C2  UNL     1       6.211  28.038  23.947  1.00  0.00     0.031 C 
BRANCH  11  12
HETATM   12  C1  UNL     1       7.531  28.510  23.406  1.00  0.00     0.230 C 
BRANCH  12  13
HETATM   13  N1  UNL     1       7.264  29.367  22.274  1.00  0.00    -0.079 N 
ATOM     14  H13 UNL     1       7.480  30.347  22.459  1.00  0.00     0.274 HD
ATOM     15  H12 UNL     1       7.921  29.226  21.507  1.00  0.00     0.274 HD
ATOM     16  H11 UNL     1       6.293  29.222  21.995  1.00  0.00     0.274 HD
ENDBRANCH  12  13
ENDBRANCH  11  12
ENDBRANCH  10  11
ENDBRANCH   9  10
ENDBRANCH   1   9
TORSDOF 5
ENDMDL
