MODEL 1
REMARK VINA RESULT: -6.007881597      0.000      0.000
REMARK  5 active torsions:
REMARK  status: ('A' for Active; 'I' for Inactive)
REMARK    1  A    between atoms: N1_2  and  C4_5 
REMARK    2  A    between atoms: C4_5  and  C5_6 
REMARK    3  A    between atoms: C5_6  and  N2_7 
REMARK    4  A    between atoms: N2_7  and  C6_9 
REMARK    5  A    between atoms: C7_14  and  N5_15 
ROOT
HETATM    1  C6  UNL     1       8.095  27.523  20.408  1.00  0.00     0.707 A 
HETATM    2  N3  UNL     1       9.336  27.038  20.202  1.00  0.00    -0.117 N 
ATOM      3  H3  UNL     1      10.174  27.348  20.694  1.00  0.00     0.206 HD
HETATM    4  N4  UNL     1       9.311  26.101  19.266  1.00  0.00    -0.118 N 
ATOM      5  H4  UNL     1      10.105  25.567  18.911  1.00  0.00     0.206 HD
HETATM    6  C7  UNL     1       8.023  25.995  18.876  1.00  0.00     0.705 A 
HETATM    7  N6  UNL     1       7.284  26.872  19.581  1.00  0.00    -0.020 N 
ATOM      8  H6  UNL     1       6.277  27.011  19.496  1.00  0.00     0.203 HD
ENDROOT
BRANCH   1   9
HETATM    9  N2  UNL     1       7.735  28.438  21.235  1.00  0.00    -0.223 N 
ATOM     10  H2  UNL     1       7.546  29.378  20.888  1.00  0.00     0.177 HD
BRANCH   9  11
HETATM   11  C5  UNL     1       7.590  28.157  22.665  1.00  0.00     0.166 C 
BRANCH  11  12
HETATM   12  C4  UNL     1       6.110  28.143  22.969  1.00  0.00     0.256 C 
BRANCH  12  13
HETATM   13  N1  UNL     1       5.589  26.835  23.205  1.00  0.00    -0.077 N 
HETATM   14  C1  UNL     1       4.940  26.251  22.059  1.00  0.00     0.271 C 
HETATM   15  C2  UNL     1       4.655  26.781  24.311  1.00  0.00     0.271 C 
HETATM   16  C3  UNL     1       6.703  25.968  23.552  1.00  0.00     0.271 C 
ENDBRANCH  12  13
ENDBRANCH  11  12
ENDBRANCH   9  11
ENDBRANCH   1   9
BRANCH   6  17
HETATM   17  N5  UNL     1       7.505  25.211  17.983  1.00  0.00    -0.233 N 
ATOM     18  H52 UNL     1       7.039  25.567  17.149  1.00  0.00     0.174 HD
ATOM     19  H51 UNL     1       7.479  24.192  17.963  1.00  0.00     0.174 HD
ENDBRANCH   6  17
TORSDOF 5
ENDMDL
MODEL 2
REMARK VINA RESULT: -5.791216792      1.575      4.720
REMARK  5 active torsions:
REMARK  status: ('A' for Active; 'I' for Inactive)
REMARK    1  A    between atoms: N1_2  and  C4_5 
REMARK    2  A    between atoms: C4_5  and  C5_6 
REMARK    3  A    between atoms: C5_6  and  N2_7 
REMARK    4  A    between atoms: N2_7  and  C6_9 
REMARK    5  A    between atoms: C7_14  and  N5_15 
ROOT
HETATM    1  C6  UNL     1       6.908  27.355  23.129  1.00  0.00     0.707 A 
HETATM    2  N3  UNL     1       6.616  28.461  23.843  1.00  0.00    -0.117 N 
ATOM      3  H3  UNL     1       7.166  29.320  23.840  1.00  0.00     0.206 HD
HETATM    4  N4  UNL     1       5.512  28.271  24.549  1.00  0.00    -0.118 N 
ATOM      5  H4  UNL     1       5.063  28.938  25.176  1.00  0.00     0.206 HD
HETATM    6  C7  UNL     1       5.101  27.015  24.271  1.00  0.00     0.705 A 
HETATM    7  N6  UNL     1       5.964  26.460  23.399  1.00  0.00    -0.020 N 
ATOM      8  H6  UNL     1       5.903  25.518  23.013  1.00  0.00     0.203 HD
ENDROOT
BRANCH   1   9
HETATM    9  N2  UNL     1       7.900  27.171  22.334  1.00  0.00    -0.223 N 
ATOM     10  H2  UNL     1       8.666  26.562  22.623  1.00  0.00     0.177 HD
BRANCH   9  11
HETATM   11  C5  UNL     1       7.953  27.816  21.020  1.00  0.00     0.166 C 
BRANCH  11  12
HETATM   12  C4  UNL     1       8.141  26.723  19.994  1.00  0.00     0.256 C 
BRANCH  12  13
HETATM   13  N1  UNL     1       6.914  26.178  19.510  1.00  0.00    -0.077 N 
HETATM   14  C1  UNL     1       5.822  27.118  19.503  1.00  0.00     0.271 C 
HETATM   15  C2  UNL     1       6.477  25.008  20.243  1.00  0.00     0.271 C 
HETATM   16  C3  UNL     1       7.124  25.759  18.134  1.00  0.00     0.271 C 
ENDBRANCH  12  13
ENDBRANCH  11  12
ENDBRANCH   9  11
ENDBRANCH   1   9
BRANCH   6  17
HETATM   17  N5  UNL     1       4.066  26.379  24.724  1.00  0.00    -0.233 N 
ATOM     18  H52 UNL     1       3.710  26.518  25.669  1.00  0.00     0.174 HD
ATOM     19  H51 UNL     1       3.481  25.690  24.252  1.00  0.00     0.174 HD
ENDBRANCH   6  17
TORSDOF 5
ENDMDL
MODEL 3
REMARK VINA RESULT: -5.661535642      1.578      4.816
REMARK  5 active torsions:
REMARK  status: ('A' for Active; 'I' for Inactive)
REMARK    1  A    between atoms: N1_2  and  C4_5 
REMARK    2  A    between atoms: C4_5  and  C5_6 
REMARK    3  A    between atoms: C5_6  and  N2_7 
REMARK    4  A    between atoms: N2_7  and  C6_9 
REMARK    5  A    between atoms: C7_14  and  N5_15 
ROOT
HETATM    1  C6  UNL     1       6.948  27.415  23.153  1.00  0.00     0.707 A 
HETATM    2  N3  UNL     1       6.732  28.479  23.955  1.00  0.00    -0.117 N 
ATOM      3  H3  UNL     1       7.330  29.304  24.005  1.00  0.00     0.206 HD
HETATM    4  N4  UNL     1       5.631  28.297  24.667  1.00  0.00    -0.118 N 
ATOM      5  H4  UNL     1       5.231  28.939  25.352  1.00  0.00     0.206 HD
HETATM    6  C7  UNL     1       5.144  27.091  24.305  1.00  0.00     0.705 A 
HETATM    7  N6  UNL     1       5.959  26.557  23.376  1.00  0.00    -0.020 N 
ATOM      8  H6  UNL     1       5.838  25.652  22.921  1.00  0.00     0.203 HD
ENDROOT
BRANCH   1   9
HETATM    9  N2  UNL     1       7.915  27.238  22.325  1.00  0.00    -0.223 N 
ATOM     10  H2  UNL     1       8.713  26.668  22.605  1.00  0.00     0.177 HD
BRANCH   9  11
HETATM   11  C5  UNL     1       7.892  27.836  20.988  1.00  0.00     0.166 C 
BRANCH  11  12
HETATM   12  C4  UNL     1       8.145  26.723  19.998  1.00  0.00     0.256 C 
BRANCH  12  13
HETATM   13  N1  UNL     1       6.950  26.148  19.470  1.00  0.00    -0.077 N 
HETATM   14  C1  UNL     1       6.476  25.007  20.211  1.00  0.00     0.271 C 
HETATM   15  C2  UNL     1       7.069  25.749  18.083  1.00  0.00     0.271 C 
HETATM   16  C3  UNL     1       5.905  27.158  19.530  1.00  0.00     0.271 C 
ENDBRANCH  12  13
ENDBRANCH  11  12
ENDBRANCH   9  11
ENDBRANCH   1   9
BRANCH   6  17
HETATM   17  N5  UNL     1       4.082  26.481  24.730  1.00  0.00    -0.233 N 
ATOM     18  H52 UNL     1       3.632  25.736  24.200  1.00  0.00     0.174 HD
ATOM     19  H51 UNL     1       3.561  26.629  25.594  1.00  0.00     0.174 HD
ENDBRANCH   6  17
TORSDOF 5
ENDMDL
MODEL 4
REMARK VINA RESULT: -5.588705397      1.015      1.396
REMARK  5 active torsions:
REMARK  status: ('A' for Active; 'I' for Inactive)
REMARK    1  A    between atoms: N1_2  and  C4_5 
REMARK    2  A    between atoms: C4_5  and  C5_6 
REMARK    3  A    between atoms: C5_6  and  N2_7 
REMARK    4  A    between atoms: N2_7  and  C6_9 
REMARK    5  A    between atoms: C7_14  and  N5_15 
ROOT
HETATM    1  C6  UNL     1       7.627  27.075  19.954  1.00  0.00     0.707 A 
HETATM    2  N3  UNL     1       8.949  26.819  20.033  1.00  0.00    -0.117 N 
ATOM      3  H3  UNL     1       9.586  27.242  20.708  1.00  0.00     0.206 HD
HETATM    4  N4  UNL     1       9.300  25.939  19.108  1.00  0.00    -0.118 N 
ATOM      5  H4  UNL     1      10.235  25.566  18.940  1.00  0.00     0.206 HD
HETATM    6  C7  UNL     1       8.172  25.635  18.432  1.00  0.00     0.705 A 
HETATM    7  N6  UNL     1       7.151  26.336  18.957  1.00  0.00    -0.020 N 
ATOM      8  H6  UNL     1       6.180  26.306  18.645  1.00  0.00     0.203 HD
ENDROOT
BRANCH   1   9
HETATM    9  N2  UNL     1       6.935  27.873  20.685  1.00  0.00    -0.223 N 
ATOM     10  H2  UNL     1       5.977  28.094  20.413  1.00  0.00     0.177 HD
BRANCH   9  11
HETATM   11  C5  UNL     1       7.493  28.470  21.900  1.00  0.00     0.166 C 
BRANCH  11  12
HETATM   12  C4  UNL     1       6.355  28.630  22.881  1.00  0.00     0.256 C 
BRANCH  12  13
HETATM   13  N1  UNL     1       6.351  27.645  23.915  1.00  0.00    -0.077 N 
HETATM   14  C1  UNL     1       7.472  26.742  23.863  1.00  0.00     0.271 C 
HETATM   15  C2  UNL     1       5.146  26.844  23.939  1.00  0.00     0.271 C 
HETATM   16  C3  UNL     1       6.422  28.339  25.191  1.00  0.00     0.271 C 
ENDBRANCH  12  13
ENDBRANCH  11  12
ENDBRANCH   9  11
ENDBRANCH   1   9
BRANCH   6  17
HETATM   17  N5  UNL     1       8.015  24.819  17.437  1.00  0.00    -0.233 N 
ATOM     18  H52 UNL     1       8.145  23.812  17.531  1.00  0.00     0.174 HD
ATOM     19  H51 UNL     1       7.756  25.027  16.473  1.00  0.00     0.174 HD
ENDBRANCH   6  17
TORSDOF 5
ENDMDL
MODEL 5
REMARK VINA RESULT: -5.452251000      0.951      1.116
REMARK  5 active torsions:
REMARK  status: ('A' for Active; 'I' for Inactive)
REMARK    1  A    between atoms: N1_2  and  C4_5 
REMARK    2  A    between atoms: C4_5  and  C5_6 
REMARK    3  A    between atoms: C5_6  and  N2_7 
REMARK    4  A    between atoms: N2_7  and  C6_9 
REMARK    5  A    between atoms: C7_14  and  N5_15 
ROOT
HETATM    1  C6  UNL     1       8.565  26.851  19.876  1.00  0.00     0.707 A 
HETATM    2  N3  UNL     1       9.422  25.963  19.330  1.00  0.00    -0.117 N 
ATOM      3  H3  UNL     1      10.386  25.821  19.631  1.00  0.00     0.206 HD
HETATM    4  N4  UNL     1       8.830  25.301  18.348  1.00  0.00    -0.118 N 
ATOM      5  H4  UNL     1       9.242  24.573  17.764  1.00  0.00     0.206 HD
HETATM    6  C7  UNL     1       7.572  25.785  18.274  1.00  0.00     0.705 A 
HETATM    7  N6  UNL     1       7.419  26.736  19.215  1.00  0.00    -0.020 N 
ATOM      8  H6  UNL     1       6.570  27.274  19.390  1.00  0.00     0.203 HD
ENDROOT
BRANCH   1   9
HETATM    9  N2  UNL     1       8.787  27.664  20.845  1.00  0.00    -0.223 N 
ATOM     10  H2  UNL     1       9.742  27.969  21.032  1.00  0.00     0.177 HD
BRANCH   9  11
HETATM   11  C5  UNL     1       7.696  28.161  21.687  1.00  0.00     0.166 C 
BRANCH  11  12
HETATM   12  C4  UNL     1       7.477  27.143  22.781  1.00  0.00     0.256 C 
BRANCH  12  13
HETATM   13  N1  UNL     1       6.101  26.937  23.100  1.00  0.00    -0.077 N 
HETATM   14  C1  UNL     1       5.292  26.552  21.972  1.00  0.00     0.271 C 
HETATM   15  C2  UNL     1       5.475  28.090  23.713  1.00  0.00     0.271 C 
HETATM   16  C3  UNL     1       6.025  25.853  24.067  1.00  0.00     0.271 C 
ENDBRANCH  12  13
ENDBRANCH  11  12
ENDBRANCH   9  11
ENDBRANCH   1   9
BRANCH   6  17
HETATM   17  N5  UNL     1       6.616  25.448  17.466  1.00  0.00    -0.233 N 
ATOM     18  H52 UNL     1       5.719  25.933  17.449  1.00  0.00     0.174 HD
ATOM     19  H51 UNL     1       6.600  24.704  16.768  1.00  0.00     0.174 HD
ENDBRANCH   6  17
TORSDOF 5
ENDMDL
