MODEL 1
REMARK VINA RESULT: -6.470299580      0.000      0.000
REMARK  4 active torsions:
REMARK  status: ('A' for Active; 'I' for Inactive)
REMARK    1  A    between atoms: C2_2  and  C3_3 
REMARK    2  A    between atoms: C3_3  and  C4_4 
REMARK    3  A    between atoms: C4_4  and  N1_5 
REMARK    4  A    between atoms: C6_10  and  N3_11 
ROOT
HETATM    1  N1  UNL     1       6.324  25.718  21.189  1.00  0.00    -0.225 N 
ATOM      2  H1  UNL     1       5.670  24.935  21.209  1.00  0.00     0.177 HD
HETATM    3  C5  UNL     1       6.128  26.459  22.160  1.00  0.00     0.695 A 
HETATM    4  N2  UNL     1       5.122  26.122  23.044  1.00  0.00    -0.022 N 
ATOM      5  H2  UNL     1       4.577  25.278  22.866  1.00  0.00     0.203 HD
HETATM    6  C6  UNL     1       4.835  26.850  24.114  1.00  0.00     0.691 A 
HETATM    7  N4  UNL     1       5.525  27.967  24.387  1.00  0.00    -0.187 N 
ATOM      8  H4  UNL     1       5.314  28.536  25.206  1.00  0.00     0.185 HD
HETATM    9  C7  UNL     1       6.501  28.304  23.538  1.00  0.00     0.217 A 
HETATM   10  N5  UNL     1       6.817  27.577  22.434  1.00  0.00    -0.183 N 
HETATM   11  C8  UNL     1       7.911  28.065  21.590  1.00  0.00     0.176 C 
ENDROOT
BRANCH   1  12
HETATM   12  C4  UNL     1       7.160  25.614  20.074  1.00  0.00     0.142 C 
BRANCH  12  13
HETATM   13  C3  UNL     1       6.476  26.198  18.817  1.00  0.00     0.046 C 
BRANCH  13  14
HETATM   14  C2  UNL     1       7.163  25.636  17.630  1.00  0.00    -0.035 C 
HETATM   15  C1  UNL     1       8.480  25.659  17.535  1.00  0.00     0.007 C 
ENDBRANCH  13  14
ENDBRANCH  12  13
ENDBRANCH   1  12
BRANCH   6  16
HETATM   16  N3  UNL     1       3.889  26.537  24.950  1.00  0.00    -0.234 N 
ATOM     17  H32 UNL     1       3.471  25.614  24.836  1.00  0.00     0.174 HD
ATOM     18  H31 UNL     1       3.569  27.166  25.687  1.00  0.00     0.174 HD
ENDBRANCH   6  16
TORSDOF 4
ENDMDL
MODEL 2
REMARK VINA RESULT: -6.041391413      0.810      1.032
REMARK  4 active torsions:
REMARK  status: ('A' for Active; 'I' for Inactive)
REMARK    1  A    between atoms: C2_2  and  C3_3 
REMARK    2  A    between atoms: C3_3  and  C4_4 
REMARK    3  A    between atoms: C4_4  and  N1_5 
REMARK    4  A    between atoms: C6_10  and  N3_11 
ROOT
HETATM    1  N1  UNL     1       6.139  26.679  20.755  1.00  0.00    -0.225 N 
ATOM      2  H1  UNL     1       5.565  25.872  20.509  1.00  0.00     0.177 HD
HETATM    3  C5  UNL     1       5.922  27.011  21.928  1.00  0.00     0.695 A 
HETATM    4  N2  UNL     1       5.003  26.279  22.652  1.00  0.00    -0.022 N 
ATOM      5  H2  UNL     1       4.534  25.495  22.197  1.00  0.00     0.203 HD
HETATM    6  C6  UNL     1       4.703  26.553  23.915  1.00  0.00     0.691 A 
HETATM    7  N4  UNL     1       5.295  27.574  24.552  1.00  0.00    -0.187 N 
ATOM      8  H4  UNL     1       5.073  27.795  25.522  1.00  0.00     0.185 HD
HETATM    9  C7  UNL     1       6.187  28.289  23.861  1.00  0.00     0.217 A 
HETATM   10  N5  UNL     1       6.513  28.031  22.567  1.00  0.00    -0.183 N 
HETATM   11  C8  UNL     1       7.509  28.899  21.932  1.00  0.00     0.176 C 
ENDROOT
BRANCH   1  12
HETATM   12  C4  UNL     1       6.921  27.062  19.663  1.00  0.00     0.142 C 
BRANCH  12  13
HETATM   13  C3  UNL     1       8.280  26.326  19.674  1.00  0.00     0.046 C 
BRANCH  13  14
HETATM   14  C2  UNL     1       8.482  25.736  18.329  1.00  0.00    -0.035 C 
HETATM   15  C1  UNL     1       7.457  25.504  17.529  1.00  0.00     0.007 C 
ENDBRANCH  13  14
ENDBRANCH  12  13
ENDBRANCH   1  12
BRANCH   6  16
HETATM   16  N3  UNL     1       3.837  25.867  24.601  1.00  0.00    -0.234 N 
ATOM     17  H32 UNL     1       2.855  26.083  24.435  1.00  0.00     0.174 HD
ATOM     18  H31 UNL     1       4.106  25.148  25.274  1.00  0.00     0.174 HD
ENDBRANCH   6  16
TORSDOF 4
ENDMDL
MODEL 3
REMARK VINA RESULT: -5.980068783      1.218      2.181
REMARK  4 active torsions:
REMARK  status: ('A' for Active; 'I' for Inactive)
REMARK    1  A    between atoms: C2_2  and  C3_3 
REMARK    2  A    between atoms: C3_3  and  C4_4 
REMARK    3  A    between atoms: C4_4  and  N1_5 
REMARK    4  A    between atoms: C6_10  and  N3_11 
ROOT
HETATM    1  N1  UNL     1       7.038  27.614  21.078  1.00  0.00    -0.225 N 
ATOM      2  H1  UNL     1       7.762  28.305  21.276  1.00  0.00     0.177 HD
HETATM    3  C5  UNL     1       6.333  27.441  22.080  1.00  0.00     0.695 A 
HETATM    4  N2  UNL     1       6.629  28.164  23.218  1.00  0.00    -0.022 N 
ATOM      5  H2  UNL     1       7.416  28.813  23.194  1.00  0.00     0.203 HD
HETATM    6  C6  UNL     1       5.933  28.051  24.341  1.00  0.00     0.691 A 
HETATM    7  N4  UNL     1       4.891  27.210  24.417  1.00  0.00    -0.187 N 
ATOM      8  H4  UNL     1       4.348  27.114  25.275  1.00  0.00     0.185 HD
HETATM    9  C7  UNL     1       4.594  26.505  23.322  1.00  0.00     0.217 A 
HETATM   10  N5  UNL     1       5.290  26.601  22.159  1.00  0.00    -0.183 N 
HETATM   11  C8  UNL     1       4.855  25.765  21.036  1.00  0.00     0.176 C 
ENDROOT
BRANCH   1  12
HETATM   12  C4  UNL     1       7.155  27.162  19.761  1.00  0.00     0.142 C 
BRANCH  12  13
HETATM   13  C3  UNL     1       8.557  26.560  19.508  1.00  0.00     0.046 C 
BRANCH  13  14
HETATM   14  C2  UNL     1       8.471  25.720  18.290  1.00  0.00    -0.035 C 
HETATM   15  C1  UNL     1       7.319  25.545  17.666  1.00  0.00     0.007 C 
ENDBRANCH  13  14
ENDBRANCH  12  13
ENDBRANCH   1  12
BRANCH   6  16
HETATM   16  N3  UNL     1       6.207  28.730  25.415  1.00  0.00    -0.234 N 
ATOM     17  H32 UNL     1       5.412  29.015  25.986  1.00  0.00     0.174 HD
ATOM     18  H31 UNL     1       7.159  28.974  25.690  1.00  0.00     0.174 HD
ENDBRANCH   6  16
TORSDOF 4
ENDMDL
MODEL 4
REMARK VINA RESULT: -5.708599928      1.005      2.103
REMARK  4 active torsions:
REMARK  status: ('A' for Active; 'I' for Inactive)
REMARK    1  A    between atoms: C2_2  and  C3_3 
REMARK    2  A    between atoms: C3_3  and  C4_4 
REMARK    3  A    between atoms: C4_4  and  N1_5 
REMARK    4  A    between atoms: C6_10  and  N3_11 
ROOT
HETATM    1  N1  UNL     1       7.079  26.206  21.304  1.00  0.00    -0.225 N 
ATOM      2  H1  UNL     1       8.078  26.410  21.297  1.00  0.00     0.177 HD
HETATM    3  C5  UNL     1       6.550  26.709  22.304  1.00  0.00     0.695 A 
HETATM    4  N2  UNL     1       7.353  27.412  23.180  1.00  0.00    -0.022 N 
ATOM      5  H2  UNL     1       8.349  27.490  22.976  1.00  0.00     0.203 HD
HETATM    6  C6  UNL     1       6.882  27.989  24.278  1.00  0.00     0.691 A 
HETATM    7  N4  UNL     1       5.579  27.910  24.587  1.00  0.00    -0.187 N 
ATOM      8  H4  UNL     1       5.205  28.348  25.428  1.00  0.00     0.185 HD
HETATM    9  C7  UNL     1       4.793  27.232  23.745  1.00  0.00     0.217 A 
HETATM   10  N5  UNL     1       5.248  26.632  22.614  1.00  0.00    -0.183 N 
HETATM   11  C8  UNL     1       4.272  25.920  21.783  1.00  0.00     0.176 C 
ENDROOT
BRANCH   1  12
HETATM   12  C4  UNL     1       6.738  25.448  20.181  1.00  0.00     0.142 C 
BRANCH  12  13
HETATM   13  C3  UNL     1       6.590  26.349  18.933  1.00  0.00     0.046 C 
BRANCH  13  14
HETATM   14  C2  UNL     1       7.208  25.637  17.790  1.00  0.00    -0.035 C 
HETATM   15  C1  UNL     1       8.509  25.700  17.574  1.00  0.00     0.007 C 
ENDBRANCH  13  14
ENDBRANCH  12  13
ENDBRANCH   1  12
BRANCH   6  16
HETATM   16  N3  UNL     1       7.633  28.652  25.107  1.00  0.00    -0.234 N 
ATOM     17  H32 UNL     1       8.561  28.910  24.770  1.00  0.00     0.174 HD
ATOM     18  H31 UNL     1       7.330  28.909  26.046  1.00  0.00     0.174 HD
ENDBRANCH   6  16
TORSDOF 4
ENDMDL
MODEL 5
REMARK VINA RESULT: -5.492809431      1.849      5.306
REMARK  4 active torsions:
REMARK  status: ('A' for Active; 'I' for Inactive)
REMARK    1  A    between atoms: C2_2  and  C3_3 
REMARK    2  A    between atoms: C3_3  and  C4_4 
REMARK    3  A    between atoms: C4_4  and  N1_5 
REMARK    4  A    between atoms: C6_10  and  N3_11 
ROOT
HETATM    1  N1  UNL     1       6.546  26.117  22.580  1.00  0.00    -0.225 N 
ATOM      2  H1  UNL     1       7.485  26.120  22.979  1.00  0.00     0.177 HD
HETATM    3  C5  UNL     1       6.610  26.081  21.345  1.00  0.00     0.695 A 
HETATM    4  N2  UNL     1       7.859  26.055  20.759  1.00  0.00    -0.022 N 
ATOM      5  H2  UNL     1       8.683  26.067  21.361  1.00  0.00     0.203 HD
HETATM    6  C6  UNL     1       8.034  26.014  19.445  1.00  0.00     0.691 A 
HETATM    7  N4  UNL     1       6.980  25.997  18.615  1.00  0.00    -0.187 N 
ATOM      8  H4  UNL     1       7.101  25.966  17.603  1.00  0.00     0.185 HD
HETATM    9  C7  UNL     1       5.765  26.022  19.172  1.00  0.00     0.217 A 
HETATM   10  N5  UNL     1       5.557  26.064  20.514  1.00  0.00    -0.183 N 
HETATM   11  C8  UNL     1       4.170  26.090  20.985  1.00  0.00     0.176 C 
ENDROOT
BRANCH   1  12
HETATM   12  C4  UNL     1       5.592  26.154  23.601  1.00  0.00     0.142 C 
BRANCH  12  13
HETATM   13  C3  UNL     1       5.476  27.577  24.195  1.00  0.00     0.046 C 
BRANCH  13  14
HETATM   14  C2  UNL     1       6.812  28.214  24.096  1.00  0.00    -0.035 C 
HETATM   15  C1  UNL     1       7.570  28.368  25.167  1.00  0.00     0.007 C 
ENDBRANCH  13  14
ENDBRANCH  12  13
ENDBRANCH   1  12
BRANCH   6  16
HETATM   16  N3  UNL     1       9.209  25.989  18.887  1.00  0.00    -0.234 N 
ATOM     17  H32 UNL     1      10.009  25.982  19.518  1.00  0.00     0.174 HD
ATOM     18  H31 UNL     1       9.343  25.975  17.876  1.00  0.00     0.174 HD
ENDBRANCH   6  16
TORSDOF 4
ENDMDL
