MODEL 1
REMARK VINA RESULT: -5.071218366      0.000      0.000
REMARK  5 active torsions:
REMARK  status: ('A' for Active; 'I' for Inactive)
REMARK    1  A    between atoms: N1_3  and  C3_5 
REMARK    2  A    between atoms: N2_7  and  C5_8 
REMARK    3  A    between atoms: C5_8  and  C6_9 
REMARK    4  A    between atoms: C6_9  and  C7_10 
REMARK    5  A    between atoms: C7_10  and  N3_11 
ROOT
HETATM    1  C1  UNL     1       3.838  26.342  24.754  1.00  0.00     0.037 C 
HETATM    2  C2  UNL     1       4.852  26.173  24.124  1.00  0.00     0.001 C 
HETATM    3  N1  UNL     1       6.024  25.963  23.426  1.00  0.00    -0.301 N 
ATOM      4  H1  UNL     1       6.729  25.377  23.873  1.00  0.00     0.177 HD
ENDROOT
BRANCH   3   5
HETATM    5  C3  UNL     1       6.343  26.490  22.137  1.00  0.00     0.131 A 
HETATM    6  C4  UNL     1       6.013  25.875  20.944  1.00  0.00     0.141 A 
HETATM    7  N2  UNL     1       6.473  26.658  19.961  1.00  0.00    -0.349 N 
HETATM    8  C8  UNL     1       7.068  27.725  20.510  1.00  0.00     0.186 A 
HETATM    9  N4  UNL     1       6.986  27.616  21.836  1.00  0.00    -0.332 N 
HETATM   10  C9  UNL     1       7.527  28.597  22.762  1.00  0.00     0.158 C 
BRANCH   7  11
HETATM   11  C5  UNL     1       6.361  26.422  18.520  1.00  0.00     0.131 C 
BRANCH  11  12
HETATM   12  C6  UNL     1       7.250  25.289  18.061  1.00  0.00     0.047 C 
BRANCH  12  13
HETATM   13  C7  UNL     1       8.645  25.791  17.761  1.00  0.00     0.231 C 
BRANCH  13  14
HETATM   14  N3  UNL     1       9.476  25.567  18.956  1.00  0.00    -0.079 N 
ATOM     15  H33 UNL     1       9.986  26.403  19.245  1.00  0.00     0.274 HD
ATOM     16  H32 UNL     1       8.923  25.445  19.805  1.00  0.00     0.274 HD
ATOM     17  H31 UNL     1      10.091  24.775  18.769  1.00  0.00     0.274 HD
ENDBRANCH  13  14
ENDBRANCH  12  13
ENDBRANCH  11  12
ENDBRANCH   7  11
ENDBRANCH   3   5
TORSDOF 5
ENDMDL
MODEL 2
REMARK VINA RESULT: -4.814805074      1.029      1.198
REMARK  5 active torsions:
REMARK  status: ('A' for Active; 'I' for Inactive)
REMARK    1  A    between atoms: N1_3  and  C3_5 
REMARK    2  A    between atoms: N2_7  and  C5_8 
REMARK    3  A    between atoms: C5_8  and  C6_9 
REMARK    4  A    between atoms: C6_9  and  C7_10 
REMARK    5  A    between atoms: C7_10  and  N3_11 
ROOT
HETATM    1  C1  UNL     1       3.427  26.103  24.406  1.00  0.00     0.037 C 
HETATM    2  C2  UNL     1       4.610  26.028  24.186  1.00  0.00     0.001 C 
HETATM    3  N1  UNL     1       5.968  25.924  23.959  1.00  0.00    -0.301 N 
ATOM      4  H1  UNL     1       6.497  25.322  24.590  1.00  0.00     0.177 HD
ENDROOT
BRANCH   3   5
HETATM    5  C3  UNL     1       6.702  26.580  22.923  1.00  0.00     0.131 A 
HETATM    6  C4  UNL     1       6.788  26.121  21.623  1.00  0.00     0.141 A 
HETATM    7  N2  UNL     1       7.553  26.990  20.952  1.00  0.00    -0.349 N 
HETATM    8  C8  UNL     1       7.934  27.959  21.793  1.00  0.00     0.186 A 
HETATM    9  N4  UNL     1       7.412  27.703  22.993  1.00  0.00    -0.332 N 
HETATM   10  C9  UNL     1       7.616  28.547  24.159  1.00  0.00     0.158 C 
BRANCH   7  11
HETATM   11  C5  UNL     1       7.929  26.925  19.537  1.00  0.00     0.131 C 
BRANCH  11  12
HETATM   12  C6  UNL     1       6.931  26.136  18.722  1.00  0.00     0.047 C 
BRANCH  12  13
HETATM   13  C7  UNL     1       7.614  25.448  17.561  1.00  0.00     0.231 C 
BRANCH  13  14
HETATM   14  N3  UNL     1       9.070  25.591  17.738  1.00  0.00    -0.079 N 
ATOM     15  H33 UNL     1       9.370  25.406  18.696  1.00  0.00     0.274 HD
ATOM     16  H32 UNL     1       9.597  24.846  17.284  1.00  0.00     0.274 HD
ATOM     17  H31 UNL     1       9.337  26.520  17.413  1.00  0.00     0.274 HD
ENDBRANCH  13  14
ENDBRANCH  12  13
ENDBRANCH  11  12
ENDBRANCH   7  11
ENDBRANCH   3   5
TORSDOF 5
ENDMDL
MODEL 3
REMARK VINA RESULT: -4.810114274      1.729      5.425
REMARK  5 active torsions:
REMARK  status: ('A' for Active; 'I' for Inactive)
REMARK    1  A    between atoms: N1_3  and  C3_5 
REMARK    2  A    between atoms: N2_7  and  C5_8 
REMARK    3  A    between atoms: C5_8  and  C6_9 
REMARK    4  A    between atoms: C6_9  and  C7_10 
REMARK    5  A    between atoms: C7_10  and  N3_11 
ROOT
HETATM    1  C1  UNL     1       8.062  25.495  17.510  1.00  0.00     0.037 C 
HETATM    2  C2  UNL     1       7.167  25.892  18.213  1.00  0.00     0.001 C 
HETATM    3  N1  UNL     1       6.126  26.357  18.992  1.00  0.00    -0.301 N 
ATOM      4  H1  UNL     1       5.315  26.733  18.502  1.00  0.00     0.177 HD
ENDROOT
BRANCH   3   5
HETATM    5  C3  UNL     1       6.079  26.360  20.420  1.00  0.00     0.131 A 
HETATM    6  C4  UNL     1       7.161  26.644  21.231  1.00  0.00     0.141 A 
HETATM    7  N2  UNL     1       6.736  26.549  22.496  1.00  0.00    -0.349 N 
HETATM    8  C8  UNL     1       5.438  26.219  22.486  1.00  0.00     0.186 A 
HETATM    9  N4  UNL     1       5.044  26.105  21.217  1.00  0.00    -0.332 N 
HETATM   10  C9  UNL     1       3.690  25.756  20.821  1.00  0.00     0.158 C 
BRANCH   7  11
HETATM   11  C5  UNL     1       7.527  26.763  23.711  1.00  0.00     0.131 C 
BRANCH  11  12
HETATM   12  C6  UNL     1       7.502  28.207  24.155  1.00  0.00     0.047 C 
BRANCH  12  13
HETATM   13  C7  UNL     1       6.341  28.459  25.092  1.00  0.00     0.231 C 
BRANCH  13  14
HETATM   14  N3  UNL     1       5.182  28.868  24.281  1.00  0.00    -0.079 N 
ATOM     15  H33 UNL     1       5.449  29.234  23.367  1.00  0.00     0.274 HD
ATOM     16  H32 UNL     1       4.629  28.076  23.955  1.00  0.00     0.274 HD
ATOM     17  H31 UNL     1       4.634  29.533  24.828  1.00  0.00     0.274 HD
ENDBRANCH  13  14
ENDBRANCH  12  13
ENDBRANCH  11  12
ENDBRANCH   7  11
ENDBRANCH   3   5
TORSDOF 5
ENDMDL
MODEL 4
REMARK VINA RESULT: -4.785392100      1.213      2.180
REMARK  5 active torsions:
REMARK  status: ('A' for Active; 'I' for Inactive)
REMARK    1  A    between atoms: N1_3  and  C3_5 
REMARK    2  A    between atoms: N2_7  and  C5_8 
REMARK    3  A    between atoms: C5_8  and  C6_9 
REMARK    4  A    between atoms: C6_9  and  C7_10 
REMARK    5  A    between atoms: C7_10  and  N3_11 
ROOT
HETATM    1  C1  UNL     1       7.507  28.750  25.310  1.00  0.00     0.037 C 
HETATM    2  C2  UNL     1       7.463  27.810  24.557  1.00  0.00     0.001 C 
HETATM    3  N1  UNL     1       7.433  26.717  23.713  1.00  0.00    -0.301 N 
ATOM      4  H1  UNL     1       8.019  25.922  23.966  1.00  0.00     0.177 HD
ENDROOT
BRANCH   3   5
HETATM    5  C3  UNL     1       6.659  26.597  22.518  1.00  0.00     0.131 A 
HETATM    6  C4  UNL     1       7.184  26.676  21.242  1.00  0.00     0.141 A 
HETATM    7  N2  UNL     1       6.164  26.520  20.391  1.00  0.00    -0.349 N 
HETATM    8  C8  UNL     1       5.040  26.347  21.098  1.00  0.00     0.186 A 
HETATM    9  N4  UNL     1       5.349  26.395  22.395  1.00  0.00    -0.332 N 
HETATM   10  C9  UNL     1       4.375  26.247  23.463  1.00  0.00     0.158 C 
BRANCH   7  11
HETATM   11  C5  UNL     1       6.227  26.528  18.927  1.00  0.00     0.131 C 
BRANCH  11  12
HETATM   12  C6  UNL     1       7.047  25.378  18.390  1.00  0.00     0.047 C 
BRANCH  12  13
HETATM   13  C7  UNL     1       8.379  25.869  17.866  1.00  0.00     0.231 C 
BRANCH  13  14
HETATM   14  N3  UNL     1       9.408  25.549  18.870  1.00  0.00    -0.079 N 
ATOM     15  H33 UNL     1       9.291  24.619  19.272  1.00  0.00     0.274 HD
ATOM     16  H32 UNL     1      10.330  25.404  18.457  1.00  0.00     0.274 HD
ATOM     17  H31 UNL     1       9.402  26.287  19.573  1.00  0.00     0.274 HD
ENDBRANCH  13  14
ENDBRANCH  12  13
ENDBRANCH  11  12
ENDBRANCH   7  11
ENDBRANCH   3   5
TORSDOF 5
ENDMDL
MODEL 5
REMARK VINA RESULT: -4.607402582      1.588      2.251
REMARK  5 active torsions:
REMARK  status: ('A' for Active; 'I' for Inactive)
REMARK    1  A    between atoms: N1_3  and  C3_5 
REMARK    2  A    between atoms: N2_7  and  C5_8 
REMARK    3  A    between atoms: C5_8  and  C6_9 
REMARK    4  A    between atoms: C6_9  and  C7_10 
REMARK    5  A    between atoms: C7_10  and  N3_11 
ROOT
HETATM    1  C1  UNL     1       5.992  28.222  25.305  1.00  0.00     0.037 C 
HETATM    2  C2  UNL     1       5.504  27.448  24.521  1.00  0.00     0.001 C 
HETATM    3  N1  UNL     1       4.928  26.548  23.646  1.00  0.00    -0.301 N 
ATOM      4  H1  UNL     1       4.240  25.903  24.033  1.00  0.00     0.177 HD
ENDROOT
BRANCH   3   5
HETATM    5  C3  UNL     1       5.207  26.436  22.249  1.00  0.00     0.131 A 
HETATM    6  C4  UNL     1       6.424  26.745  21.673  1.00  0.00     0.141 A 
HETATM    7  N2  UNL     1       6.303  26.517  20.360  1.00  0.00    -0.349 N 
HETATM    8  C8  UNL     1       5.061  26.080  20.115  1.00  0.00     0.186 A 
HETATM    9  N4  UNL     1       4.398  26.033  21.271  1.00  0.00    -0.332 N 
HETATM   10  C9  UNL     1       3.014  25.605  21.391  1.00  0.00     0.158 C 
BRANCH   7  11
HETATM   11  C5  UNL     1       7.334  26.701  19.334  1.00  0.00     0.131 C 
BRANCH  11  12
HETATM   12  C6  UNL     1       7.001  25.963  18.059  1.00  0.00     0.047 C 
BRANCH  12  13
HETATM   13  C7  UNL     1       8.240  25.323  17.472  1.00  0.00     0.231 C 
BRANCH  13  14
HETATM   14  N3  UNL     1       9.356  25.549  18.407  1.00  0.00    -0.079 N 
ATOM     15  H33 UNL     1       9.589  26.537  18.512  1.00  0.00     0.274 HD
ATOM     16  H32 UNL     1       9.101  25.365  19.377  1.00  0.00     0.274 HD
ATOM     17  H31 UNL     1      10.147  24.987  18.094  1.00  0.00     0.274 HD
ENDBRANCH  13  14
ENDBRANCH  12  13
ENDBRANCH  11  12
ENDBRANCH   7  11
ENDBRANCH   3   5
TORSDOF 5
ENDMDL
