MODEL 1
REMARK VINA RESULT: -5.570549306      0.000      0.000
REMARK  4 active torsions:
REMARK  status: ('A' for Active; 'I' for Inactive)
REMARK    1  A    between atoms: N1_2  and  C4_5 
REMARK    2  A    between atoms: C4_5  and  C5_6 
REMARK    3  A    between atoms: C5_6  and  C6_7 
REMARK    4  A    between atoms: C8_11  and  N3_12 
ROOT
HETATM    1  C6  UNL     1       7.136  27.005  20.192  1.00  0.00     0.044 A 
HETATM    2  C7  UNL     1       8.531  27.110  20.198  1.00  0.00     0.131 A 
HETATM    3  N2  UNL     1       9.044  26.378  19.211  1.00  0.00    -0.200 N 
ATOM      4  H2  UNL     1      10.034  26.274  18.986  1.00  0.00     0.183 HD
HETATM    5  C8  UNL     1       8.006  25.799  18.561  1.00  0.00     0.675 A 
HETATM    6  N4  UNL     1       6.869  26.187  19.166  1.00  0.00    -0.194 N 
ATOM      7  H4  UNL     1       5.933  25.899  18.882  1.00  0.00     0.184 HD
ENDROOT
BRANCH   1   8
HETATM    8  C5  UNL     1       6.191  27.663  21.124  1.00  0.00     0.087 C 
BRANCH   8   9
HETATM    9  C4  UNL     1       5.489  26.644  21.983  1.00  0.00     0.242 C 
BRANCH   9  10
HETATM   10  N1  UNL     1       5.610  26.902  23.383  1.00  0.00    -0.078 N 
HETATM   11  C1  UNL     1       6.870  26.309  23.837  1.00  0.00     0.271 C 
HETATM   12  C2  UNL     1       4.560  26.287  24.166  1.00  0.00     0.271 C 
HETATM   13  C3  UNL     1       5.663  28.306  23.712  1.00  0.00     0.271 C 
ENDBRANCH   9  10
ENDBRANCH   8   9
ENDBRANCH   1   8
BRANCH   5  14
HETATM   14  N3  UNL     1       8.174  25.025  17.553  1.00  0.00    -0.234 N 
ATOM     15  H32 UNL     1       8.888  25.050  16.825  1.00  0.00     0.174 HD
ATOM     16  H31 UNL     1       7.555  24.238  17.360  1.00  0.00     0.174 HD
ENDBRANCH   5  14
TORSDOF 4
ENDMDL
MODEL 2
REMARK VINA RESULT: -5.539389254      0.063      1.178
REMARK  4 active torsions:
REMARK  status: ('A' for Active; 'I' for Inactive)
REMARK    1  A    between atoms: N1_2  and  C4_5 
REMARK    2  A    between atoms: C4_5  and  C5_6 
REMARK    3  A    between atoms: C5_6  and  C6_7 
REMARK    4  A    between atoms: C8_11  and  N3_12 
ROOT
HETATM    1  C6  UNL     1       7.181  27.045  20.233  1.00  0.00     0.044 A 
HETATM    2  C7  UNL     1       8.576  27.133  20.210  1.00  0.00     0.131 A 
HETATM    3  N2  UNL     1       9.060  26.385  19.220  1.00  0.00    -0.200 N 
ATOM      4  H2  UNL     1      10.044  26.266  18.976  1.00  0.00     0.183 HD
HETATM    5  C8  UNL     1       8.002  25.811  18.599  1.00  0.00     0.675 A 
HETATM    6  N4  UNL     1       6.883  26.220  19.222  1.00  0.00    -0.194 N 
ATOM      7  H4  UNL     1       5.938  25.940  18.961  1.00  0.00     0.184 HD
ENDROOT
BRANCH   1   8
HETATM    8  C5  UNL     1       6.263  27.723  21.178  1.00  0.00     0.087 C 
BRANCH   8   9
HETATM    9  C4  UNL     1       5.489  26.718  21.990  1.00  0.00     0.242 C 
BRANCH   9  10
HETATM   10  N1  UNL     1       5.658  26.878  23.401  1.00  0.00    -0.078 N 
HETATM   11  C1  UNL     1       5.652  28.314  23.689  1.00  0.00     0.271 C 
HETATM   12  C2  UNL     1       6.922  26.366  23.882  1.00  0.00     0.271 C 
HETATM   13  C3  UNL     1       4.598  26.287  24.181  1.00  0.00     0.271 C 
ENDBRANCH   9  10
ENDBRANCH   8   9
ENDBRANCH   1   8
BRANCH   5  14
HETATM   14  N3  UNL     1       8.140  25.025  17.595  1.00  0.00    -0.234 N 
ATOM     15  H32 UNL     1       8.348  24.027  17.574  1.00  0.00     0.174 HD
ATOM     16  H31 UNL     1       8.047  25.348  16.633  1.00  0.00     0.174 HD
ENDBRANCH   5  14
TORSDOF 4
ENDMDL
MODEL 3
REMARK VINA RESULT: -5.503976419      0.996      1.252
REMARK  4 active torsions:
REMARK  status: ('A' for Active; 'I' for Inactive)
REMARK    1  A    between atoms: N1_2  and  C4_5 
REMARK    2  A    between atoms: C4_5  and  C5_6 
REMARK    3  A    between atoms: C5_6  and  C6_7 
REMARK    4  A    between atoms: C8_11  and  N3_12 
ROOT
HETATM    1  C6  UNL     1       7.414  27.211  20.317  1.00  0.00     0.044 A 
HETATM    2  C7  UNL     1       8.809  27.175  20.214  1.00  0.00     0.131 A 
HETATM    3  N2  UNL     1       9.168  26.345  19.236  1.00  0.00    -0.200 N 
ATOM      4  H2  UNL     1      10.122  26.130  18.945  1.00  0.00     0.183 HD
HETATM    5  C8  UNL     1       8.030  25.841  18.701  1.00  0.00     0.675 A 
HETATM    6  N4  UNL     1       6.988  26.372  19.364  1.00  0.00    -0.194 N 
ATOM      7  H4  UNL     1       6.009  26.166  19.168  1.00  0.00     0.184 HD
ENDROOT
BRANCH   1   8
HETATM    8  C5  UNL     1       6.614  28.007  21.278  1.00  0.00     0.087 C 
BRANCH   8   9
HETATM    9  C4  UNL     1       7.415  28.319  22.514  1.00  0.00     0.242 C 
BRANCH   9  10
HETATM   10  N1  UNL     1       6.830  27.807  23.713  1.00  0.00    -0.078 N 
HETATM   11  C1  UNL     1       6.967  26.349  23.686  1.00  0.00     0.271 C 
HETATM   12  C2  UNL     1       5.415  28.086  23.818  1.00  0.00     0.271 C 
HETATM   13  C3  UNL     1       7.478  28.268  24.917  1.00  0.00     0.271 C 
ENDBRANCH   9  10
ENDBRANCH   8   9
ENDBRANCH   1   8
BRANCH   5  14
HETATM   14  N3  UNL     1       8.042  25.004  17.730  1.00  0.00    -0.234 N 
ATOM     15  H32 UNL     1       8.737  24.298  17.487  1.00  0.00     0.174 HD
ATOM     16  H31 UNL     1       7.290  24.955  17.043  1.00  0.00     0.174 HD
ENDBRANCH   5  14
TORSDOF 4
ENDMDL
MODEL 4
REMARK VINA RESULT: -5.489044358      1.076      2.008
REMARK  4 active torsions:
REMARK  status: ('A' for Active; 'I' for Inactive)
REMARK    1  A    between atoms: N1_2  and  C4_5 
REMARK    2  A    between atoms: C4_5  and  C5_6 
REMARK    3  A    between atoms: C5_6  and  C6_7 
REMARK    4  A    between atoms: C8_11  and  N3_12 
ROOT
HETATM    1  C6  UNL     1       7.661  27.175  20.388  1.00  0.00     0.044 A 
HETATM    2  C7  UNL     1       6.391  27.018  19.825  1.00  0.00     0.131 A 
HETATM    3  N2  UNL     1       6.463  26.217  18.763  1.00  0.00    -0.200 N 
ATOM      4  H2  UNL     1       5.686  25.934  18.165  1.00  0.00     0.183 HD
HETATM    5  C8  UNL     1       7.760  25.850  18.626  1.00  0.00     0.675 A 
HETATM    6  N4  UNL     1       8.463  26.436  19.611  1.00  0.00    -0.194 N 
ATOM      7  H4  UNL     1       9.468  26.332  19.747  1.00  0.00     0.184 HD
ENDROOT
BRANCH   1   8
HETATM    8  C5  UNL     1       8.012  27.985  21.578  1.00  0.00     0.087 C 
BRANCH   8   9
HETATM    9  C4  UNL     1       6.777  28.374  22.346  1.00  0.00     0.242 C 
BRANCH   9  10
HETATM   10  N1  UNL     1       6.644  27.688  23.593  1.00  0.00    -0.078 N 
HETATM   11  C1  UNL     1       5.273  27.887  24.065  1.00  0.00     0.271 C 
HETATM   12  C2  UNL     1       7.515  28.212  24.623  1.00  0.00     0.271 C 
HETATM   13  C3  UNL     1       6.855  26.265  23.497  1.00  0.00     0.271 C 
ENDBRANCH   9  10
ENDBRANCH   8   9
ENDBRANCH   1   8
BRANCH   5  14
HETATM   14  N3  UNL     1       8.157  25.074  17.686  1.00  0.00    -0.234 N 
ATOM     15  H32 UNL     1       9.104  24.807  17.419  1.00  0.00     0.174 HD
ATOM     16  H31 UNL     1       7.508  24.605  17.055  1.00  0.00     0.174 HD
ENDBRANCH   5  14
TORSDOF 4
ENDMDL
MODEL 5
REMARK VINA RESULT: -5.447433742      0.947      1.439
REMARK  4 active torsions:
REMARK  status: ('A' for Active; 'I' for Inactive)
REMARK    1  A    between atoms: N1_2  and  C4_5 
REMARK    2  A    between atoms: C4_5  and  C5_6 
REMARK    3  A    between atoms: C5_6  and  C6_7 
REMARK    4  A    between atoms: C8_11  and  N3_12 
ROOT
HETATM    1  C6  UNL     1       7.801  27.170  20.417  1.00  0.00     0.044 A 
HETATM    2  C7  UNL     1       6.617  26.804  19.769  1.00  0.00     0.131 A 
HETATM    3  N2  UNL     1       6.901  26.141  18.649  1.00  0.00    -0.200 N 
ATOM      4  H2  UNL     1       6.228  25.759  17.985  1.00  0.00     0.183 HD
HETATM    5  C8  UNL     1       8.251  26.067  18.559  1.00  0.00     0.675 A 
HETATM    6  N4  UNL     1       8.773  26.691  19.630  1.00  0.00    -0.194 N 
ATOM      7  H4  UNL     1       9.771  26.787  19.816  1.00  0.00     0.184 HD
ENDROOT
BRANCH   1   8
HETATM    8  C5  UNL     1       7.924  27.919  21.690  1.00  0.00     0.087 C 
BRANCH   8   9
HETATM    9  C4  UNL     1       6.566  28.255  22.247  1.00  0.00     0.242 C 
BRANCH   9  10
HETATM   10  N1  UNL     1       6.231  27.504  23.416  1.00  0.00    -0.078 N 
HETATM   11  C1  UNL     1       7.406  26.714  23.788  1.00  0.00     0.271 C 
HETATM   12  C2  UNL     1       5.155  26.562  23.196  1.00  0.00     0.271 C 
HETATM   13  C3  UNL     1       5.896  28.323  24.555  1.00  0.00     0.271 C 
ENDBRANCH   9  10
ENDBRANCH   8   9
ENDBRANCH   1   8
BRANCH   5  14
HETATM   14  N3  UNL     1       8.842  25.483  17.583  1.00  0.00    -0.234 N 
ATOM     15  H32 UNL     1       9.039  24.493  17.440  1.00  0.00     0.174 HD
ATOM     16  H31 UNL     1       9.207  25.996  16.781  1.00  0.00     0.174 HD
ENDBRANCH   5  14
TORSDOF 4
ENDMDL
