MODEL 1
REMARK VINA RESULT: -6.189239110      0.000      0.000
REMARK  4 active torsions:
REMARK  status: ('A' for Active; 'I' for Inactive)
REMARK    1  A    between atoms: N2_5  and  C4_6 
REMARK    2  A    between atoms: C4_6  and  C5_7 
REMARK    3  A    between atoms: C5_7  and  C6_8 
REMARK    4  A    between atoms: C7_14  and  N5_15 
ROOT
HETATM    1  C1  UNL     1       6.313  28.410  25.141  1.00  0.00     0.175 C 
HETATM    2  N1  UNL     1       6.345  27.690  23.870  1.00  0.00    -0.196 N 
HETATM    3  C2  UNL     1       7.322  27.914  22.996  1.00  0.00     0.127 A 
HETATM    4  C3  UNL     1       7.283  27.195  21.818  1.00  0.00     0.128 A 
HETATM    5  N2  UNL     1       6.302  26.305  21.561  1.00  0.00    -0.288 N 
HETATM    6  N4  UNL     1       5.362  26.129  22.472  1.00  0.00    -0.130 N 
ATOM      7  H4  UNL     1       4.618  25.457  22.284  1.00  0.00     0.206 HD
HETATM    8  C7  UNL     1       5.346  26.801  23.637  1.00  0.00     0.692 A 
ENDROOT
BRANCH   5   9
HETATM    9  C4  UNL     1       6.289  25.555  20.297  1.00  0.00     0.154 C 
BRANCH   9  10
HETATM   10  C5  UNL     1       6.957  26.443  19.274  1.00  0.00     0.065 C 
BRANCH  10  11
HETATM   11  C6  UNL     1       8.029  25.722  18.538  1.00  0.00     0.054 C 
HETATM   12  N3  UNL     1       9.220  25.612  18.956  1.00  0.00    -0.411 N 
ATOM     13  H32 UNL     1       9.439  26.049  19.851  1.00  0.00     0.155 HD
ATOM     14  H31 UNL     1       9.955  25.117  18.451  1.00  0.00     0.155 HD
ENDBRANCH  10  11
ENDBRANCH   9  10
ENDBRANCH   5   9
BRANCH   8  15
HETATM   15  N5  UNL     1       4.408  26.613  24.524  1.00  0.00    -0.233 N 
ATOM     16  H52 UNL     1       3.889  27.393  24.928  1.00  0.00     0.174 HD
ATOM     17  H51 UNL     1       4.171  25.672  24.835  1.00  0.00     0.174 HD
ENDBRANCH   8  15
TORSDOF 4
ENDMDL
MODEL 2
REMARK VINA RESULT: -6.032311677      1.523      5.299
REMARK  4 active torsions:
REMARK  status: ('A' for Active; 'I' for Inactive)
REMARK    1  A    between atoms: N2_5  and  C4_6 
REMARK    2  A    between atoms: C4_6  and  C5_7 
REMARK    3  A    between atoms: C5_7  and  C6_8 
REMARK    4  A    between atoms: C7_14  and  N5_15 
ROOT
HETATM    1  C1  UNL     1       7.089  25.476  17.613  1.00  0.00     0.175 C 
HETATM    2  N1  UNL     1       7.146  26.211  18.874  1.00  0.00    -0.196 N 
HETATM    3  C2  UNL     1       6.051  26.774  19.374  1.00  0.00     0.127 A 
HETATM    4  C3  UNL     1       6.186  27.451  20.570  1.00  0.00     0.128 A 
HETATM    5  N2  UNL     1       7.373  27.539  21.206  1.00  0.00    -0.288 N 
HETATM    6  N4  UNL     1       8.423  26.957  20.655  1.00  0.00    -0.130 N 
ATOM      7  H4  UNL     1       9.323  27.020  21.131  1.00  0.00     0.206 HD
HETATM    8  C7  UNL     1       8.353  26.285  19.492  1.00  0.00     0.692 A 
ENDROOT
BRANCH   5   9
HETATM    9  C4  UNL     1       7.485  28.267  22.478  1.00  0.00     0.154 C 
BRANCH   9  10
HETATM   10  C5  UNL     1       7.132  27.276  23.563  1.00  0.00     0.065 C 
BRANCH  10  11
HETATM   11  C6  UNL     1       5.816  27.584  24.181  1.00  0.00     0.054 C 
HETATM   12  N3  UNL     1       5.275  28.729  24.153  1.00  0.00    -0.411 N 
ATOM     13  H32 UNL     1       5.786  29.472  23.676  1.00  0.00     0.155 HD
ATOM     14  H31 UNL     1       4.372  28.941  24.577  1.00  0.00     0.155 HD
ENDBRANCH  10  11
ENDBRANCH   9  10
ENDBRANCH   5   9
BRANCH   8  15
HETATM   15  N5  UNL     1       9.402  25.717  18.964  1.00  0.00    -0.233 N 
ATOM     16  H52 UNL     1      10.187  26.264  18.612  1.00  0.00     0.174 HD
ATOM     17  H51 UNL     1       9.459  24.701  18.892  1.00  0.00     0.174 HD
ENDBRANCH   8  15
TORSDOF 4
ENDMDL
MODEL 3
REMARK VINA RESULT: -5.768382179      1.240      1.939
REMARK  4 active torsions:
REMARK  status: ('A' for Active; 'I' for Inactive)
REMARK    1  A    between atoms: N2_5  and  C4_6 
REMARK    2  A    between atoms: C4_6  and  C5_7 
REMARK    3  A    between atoms: C5_7  and  C6_8 
REMARK    4  A    between atoms: C7_14  and  N5_15 
ROOT
HETATM    1  C1  UNL     1       7.295  28.418  24.702  1.00  0.00     0.175 C 
HETATM    2  N1  UNL     1       7.011  27.657  23.487  1.00  0.00    -0.196 N 
HETATM    3  C2  UNL     1       6.670  26.375  23.562  1.00  0.00     0.127 A 
HETATM    4  C3  UNL     1       6.417  25.725  22.370  1.00  0.00     0.128 A 
HETATM    5  N2  UNL     1       6.510  26.358  21.182  1.00  0.00    -0.288 N 
HETATM    6  N4  UNL     1       6.853  27.634  21.178  1.00  0.00    -0.130 N 
ATOM      7  H4  UNL     1       6.925  28.118  20.283  1.00  0.00     0.206 HD
HETATM    8  C7  UNL     1       7.112  28.319  22.306  1.00  0.00     0.692 A 
ENDROOT
BRANCH   5   9
HETATM    9  C4  UNL     1       6.234  25.638  19.931  1.00  0.00     0.154 C 
BRANCH   9  10
HETATM   10  C5  UNL     1       6.963  26.391  18.842  1.00  0.00     0.065 C 
BRANCH  10  11
HETATM   11  C6  UNL     1       8.148  25.637  18.353  1.00  0.00     0.054 C 
HETATM   12  N3  UNL     1       9.265  25.616  18.949  1.00  0.00    -0.411 N 
ATOM     13  H32 UNL     1       9.341  26.152  19.812  1.00  0.00     0.155 HD
ATOM     14  H31 UNL     1      10.078  25.098  18.613  1.00  0.00     0.155 HD
ENDBRANCH  10  11
ENDBRANCH   9  10
ENDBRANCH   5   9
BRANCH   8  15
HETATM   15  N5  UNL     1       7.451  29.579  22.280  1.00  0.00    -0.233 N 
ATOM     16  H52 UNL     1       8.342  29.902  22.654  1.00  0.00     0.174 HD
ATOM     17  H51 UNL     1       6.822  30.275  21.881  1.00  0.00     0.174 HD
ENDBRANCH   8  15
TORSDOF 4
ENDMDL
MODEL 4
REMARK VINA RESULT: -5.643829144      1.408      5.153
REMARK  4 active torsions:
REMARK  status: ('A' for Active; 'I' for Inactive)
REMARK    1  A    between atoms: N2_5  and  C4_6 
REMARK    2  A    between atoms: C4_6  and  C5_7 
REMARK    3  A    between atoms: C5_7  and  C6_8 
REMARK    4  A    between atoms: C7_14  and  N5_15 
ROOT
HETATM    1  C1  UNL     1       8.379  25.887  17.868  1.00  0.00     0.175 C 
HETATM    2  N1  UNL     1       7.631  26.097  19.105  1.00  0.00    -0.196 N 
HETATM    3  C2  UNL     1       6.373  25.680  19.209  1.00  0.00     0.127 A 
HETATM    4  C3  UNL     1       5.733  25.915  20.410  1.00  0.00     0.128 A 
HETATM    5  N2  UNL     1       6.353  26.537  21.434  1.00  0.00    -0.288 N 
HETATM    6  N4  UNL     1       7.604  26.926  21.267  1.00  0.00    -0.130 N 
ATOM      7  H4  UNL     1       8.078  27.397  22.037  1.00  0.00     0.206 HD
HETATM    8  C7  UNL     1       8.278  26.726  20.120  1.00  0.00     0.692 A 
ENDROOT
BRANCH   5   9
HETATM    9  C4  UNL     1       5.645  26.773  22.701  1.00  0.00     0.154 C 
BRANCH   9  10
HETATM   10  C5  UNL     1       6.693  26.708  23.788  1.00  0.00     0.065 C 
BRANCH  10  11
HETATM   11  C6  UNL     1       6.820  28.005  24.504  1.00  0.00     0.054 C 
HETATM   12  N3  UNL     1       5.832  28.691  24.900  1.00  0.00    -0.411 N 
ATOM     13  H32 UNL     1       4.902  28.319  24.708  1.00  0.00     0.155 HD
ATOM     14  H31 UNL     1       5.920  29.581  25.392  1.00  0.00     0.155 HD
ENDBRANCH  10  11
ENDBRANCH   9  10
ENDBRANCH   5   9
BRANCH   8  15
HETATM   15  N5  UNL     1       9.514  27.118  19.973  1.00  0.00    -0.233 N 
ATOM     16  H52 UNL     1       9.934  27.231  19.051  1.00  0.00     0.174 HD
ATOM     17  H51 UNL     1      10.091  27.323  20.788  1.00  0.00     0.174 HD
ENDBRANCH   8  15
TORSDOF 4
ENDMDL
MODEL 5
REMARK VINA RESULT: -5.472502023      1.254      1.937
REMARK  4 active torsions:
REMARK  status: ('A' for Active; 'I' for Inactive)
REMARK    1  A    between atoms: N2_5  and  C4_6 
REMARK    2  A    between atoms: C4_6  and  C5_7 
REMARK    3  A    between atoms: C5_7  and  C6_8 
REMARK    4  A    between atoms: C7_14  and  N5_15 
ROOT
HETATM    1  C1  UNL     1       4.733  26.982  24.564  1.00  0.00     0.175 C 
HETATM    2  N1  UNL     1       5.496  26.946  23.318  1.00  0.00    -0.196 N 
HETATM    3  C2  UNL     1       5.040  26.268  22.270  1.00  0.00     0.127 A 
HETATM    4  C3  UNL     1       5.818  26.282  21.130  1.00  0.00     0.128 A 
HETATM    5  N2  UNL     1       6.988  26.952  21.077  1.00  0.00    -0.288 N 
HETATM    6  N4  UNL     1       7.385  27.605  22.154  1.00  0.00    -0.130 N 
ATOM      7  H4  UNL     1       8.268  28.114  22.121  1.00  0.00     0.206 HD
HETATM    8  C7  UNL     1       6.670  27.628  23.293  1.00  0.00     0.692 A 
ENDROOT
BRANCH   5   9
HETATM    9  C4  UNL     1       7.794  26.947  19.848  1.00  0.00     0.154 C 
BRANCH   9  10
HETATM   10  C5  UNL     1       6.962  26.243  18.802  1.00  0.00     0.065 C 
BRANCH  10  11
HETATM   11  C6  UNL     1       7.814  25.558  17.793  1.00  0.00     0.054 C 
HETATM   12  N3  UNL     1       9.079  25.615  17.784  1.00  0.00    -0.411 N 
ATOM     13  H32 UNL     1       9.524  26.166  18.518  1.00  0.00     0.155 HD
ATOM     14  H31 UNL     1       9.664  25.145  17.093  1.00  0.00     0.155 HD
ENDBRANCH  10  11
ENDBRANCH   9  10
ENDBRANCH   5   9
BRANCH   8  15
HETATM   15  N5  UNL     1       7.079  28.279  24.347  1.00  0.00    -0.233 N 
ATOM     16  H52 UNL     1       8.064  28.310  24.609  1.00  0.00     0.174 HD
ATOM     17  H51 UNL     1       6.414  28.777  24.937  1.00  0.00     0.174 HD
ENDBRANCH   8  15
TORSDOF 4
ENDMDL
