MODEL 1
REMARK VINA RESULT: -6.115289007      0.000      0.000
REMARK  4 active torsions:
REMARK  status: ('A' for Active; 'I' for Inactive)
REMARK    1  A    between atoms: C3_9  and  N4_10 
REMARK    2  A    between atoms: N4_10  and  C4_12 
REMARK    3  A    between atoms: C4_12  and  C5_13 
REMARK    4  A    between atoms: C5_13  and  O1_14 
ROOT
HETATM    1  C1  UNL     1       4.876  26.892  24.266  1.00  0.00     0.165 C 
HETATM    2  N1  UNL     1       5.460  28.193  24.012  1.00  0.00    -0.229 N 
ATOM      3  H1  UNL     1       5.184  29.016  24.547  1.00  0.00     0.177 HD
HETATM    4  C2  UNL     1       6.363  28.260  23.059  1.00  0.00     0.707 A 
HETATM    5  N2  UNL     1       7.024  29.361  22.666  1.00  0.00    -0.117 N 
ATOM      6  H2  UNL     1       6.914  30.297  23.056  1.00  0.00     0.206 HD
HETATM    7  N3  UNL     1       7.851  29.018  21.676  1.00  0.00    -0.117 N 
ATOM      8  H3  UNL     1       8.473  29.666  21.193  1.00  0.00     0.206 HD
HETATM    9  C3  UNL     1       7.754  27.710  21.403  1.00  0.00     0.711 A 
HETATM   10  N5  UNL     1       6.807  27.261  22.293  1.00  0.00    -0.020 N 
ATOM     11  H5  UNL     1       6.488  26.296  22.359  1.00  0.00     0.203 HD
ENDROOT
BRANCH   9  12
HETATM   12  N4  UNL     1       8.305  26.933  20.584  1.00  0.00    -0.202 N 
ATOM     13  H4  UNL     1       9.061  26.417  21.034  1.00  0.00     0.183 HD
BRANCH  12  14
HETATM   14  C4  UNL     1       8.193  26.569  19.257  1.00  0.00     0.105 C 
BRANCH  14  15
HETATM   15  C5  UNL     1       6.823  26.111  18.871  1.00  0.00     0.212 C 
BRANCH  15  16
HETATM   16  O1  UNL     1       6.890  25.333  17.729  1.00  0.00    -0.391 OA
HETATM   17  C6  UNL     1       8.149  25.352  17.189  1.00  0.00     0.201 C 
ENDBRANCH  15  16
ENDBRANCH  14  15
ENDBRANCH  12  14
ENDBRANCH   9  12
TORSDOF 4
ENDMDL
MODEL 2
REMARK VINA RESULT: -6.108247702      1.036      1.533
REMARK  4 active torsions:
REMARK  status: ('A' for Active; 'I' for Inactive)
REMARK    1  A    between atoms: C3_9  and  N4_10 
REMARK    2  A    between atoms: N4_10  and  C4_12 
REMARK    3  A    between atoms: C4_12  and  C5_13 
REMARK    4  A    between atoms: C5_13  and  O1_14 
ROOT
HETATM    1  C1  UNL     1       5.085  26.941  24.228  1.00  0.00     0.165 C 
HETATM    2  N1  UNL     1       5.661  28.239  23.948  1.00  0.00    -0.229 N 
ATOM      3  H1  UNL     1       5.401  29.067  24.485  1.00  0.00     0.177 HD
HETATM    4  C2  UNL     1       6.535  28.299  22.968  1.00  0.00     0.707 A 
HETATM    5  N2  UNL     1       7.184  29.397  22.547  1.00  0.00    -0.117 N 
ATOM      6  H2  UNL     1       7.086  30.336  22.933  1.00  0.00     0.206 HD
HETATM    7  N3  UNL     1       7.981  29.047  21.535  1.00  0.00    -0.117 N 
ATOM      8  H3  UNL     1       8.588  29.691  21.029  1.00  0.00     0.206 HD
HETATM    9  C3  UNL     1       7.875  27.736  21.274  1.00  0.00     0.711 A 
HETATM   10  N5  UNL     1       6.956  27.295  22.196  1.00  0.00    -0.020 N 
ATOM     11  H5  UNL     1       6.638  26.330  22.278  1.00  0.00     0.203 HD
ENDROOT
BRANCH   9  12
HETATM   12  N4  UNL     1       8.401  26.953  20.445  1.00  0.00    -0.202 N 
ATOM     13  H4  UNL     1       9.391  26.826  20.652  1.00  0.00     0.183 HD
BRANCH  12  14
HETATM   14  C4  UNL     1       8.038  26.213  19.337  1.00  0.00     0.105 C 
BRANCH  14  15
HETATM   15  C5  UNL     1       6.563  26.171  19.097  1.00  0.00     0.212 C 
BRANCH  15  16
HETATM   16  O1  UNL     1       5.983  25.200  19.893  1.00  0.00    -0.391 OA
HETATM   17  C6  UNL     1       4.887  25.689  20.555  1.00  0.00     0.201 C 
ENDBRANCH  15  16
ENDBRANCH  14  15
ENDBRANCH  12  14
ENDBRANCH   9  12
TORSDOF 4
ENDMDL
MODEL 3
REMARK VINA RESULT: -5.956997575      2.231      5.097
REMARK  4 active torsions:
REMARK  status: ('A' for Active; 'I' for Inactive)
REMARK    1  A    between atoms: C3_9  and  N4_10 
REMARK    2  A    between atoms: N4_10  and  C4_12 
REMARK    3  A    between atoms: C4_12  and  C5_13 
REMARK    4  A    between atoms: C5_13  and  O1_14 
ROOT
HETATM    1  C1  UNL     1       7.754  25.269  17.513  1.00  0.00     0.165 C 
HETATM    2  N1  UNL     1       8.919  25.794  18.195  1.00  0.00    -0.229 N 
ATOM      3  H1  UNL     1       9.862  25.640  17.838  1.00  0.00     0.177 HD
HETATM    4  C2  UNL     1       8.701  26.478  19.297  1.00  0.00     0.707 A 
HETATM    5  N2  UNL     1       9.633  27.047  20.077  1.00  0.00    -0.117 N 
ATOM      6  H2  UNL     1      10.641  27.026  19.919  1.00  0.00     0.206 HD
HETATM    7  N3  UNL     1       9.015  27.646  21.096  1.00  0.00    -0.117 N 
ATOM      8  H3  UNL     1       9.489  28.157  21.840  1.00  0.00     0.206 HD
HETATM    9  C3  UNL     1       7.686  27.488  21.009  1.00  0.00     0.711 A 
HETATM   10  N5  UNL     1       7.522  26.746  19.863  1.00  0.00    -0.020 N 
ATOM     11  H5  UNL     1       6.622  26.443  19.495  1.00  0.00     0.203 HD
ENDROOT
BRANCH   9  12
HETATM   12  N4  UNL     1       6.704  27.851  21.701  1.00  0.00    -0.202 N 
ATOM     13  H4  UNL     1       5.990  28.279  21.112  1.00  0.00     0.183 HD
BRANCH  12  14
HETATM   14  C4  UNL     1       6.302  27.845  23.023  1.00  0.00     0.105 C 
BRANCH  14  15
HETATM   15  C5  UNL     1       6.786  26.659  23.794  1.00  0.00     0.212 C 
BRANCH  15  16
HETATM   16  O1  UNL     1       5.759  25.745  23.948  1.00  0.00    -0.391 OA
HETATM   17  C6  UNL     1       4.564  26.376  24.181  1.00  0.00     0.201 C 
ENDBRANCH  15  16
ENDBRANCH  14  15
ENDBRANCH  12  14
ENDBRANCH   9  12
TORSDOF 4
ENDMDL
MODEL 4
REMARK VINA RESULT: -5.870161654      2.454      5.184
REMARK  4 active torsions:
REMARK  status: ('A' for Active; 'I' for Inactive)
REMARK    1  A    between atoms: C3_9  and  N4_10 
REMARK    2  A    between atoms: N4_10  and  C4_12 
REMARK    3  A    between atoms: C4_12  and  C5_13 
REMARK    4  A    between atoms: C5_13  and  O1_14 
ROOT
HETATM    1  C1  UNL     1       7.971  25.244  17.377  1.00  0.00     0.165 C 
HETATM    2  N1  UNL     1       8.944  25.938  18.195  1.00  0.00    -0.229 N 
ATOM      3  H1  UNL     1       9.920  26.018  17.911  1.00  0.00     0.177 HD
HETATM    4  C2  UNL     1       8.507  26.458  19.321  1.00  0.00     0.707 A 
HETATM    5  N2  UNL     1       9.237  27.137  20.220  1.00  0.00    -0.117 N 
ATOM      6  H2  UNL     1      10.234  27.342  20.149  1.00  0.00     0.206 HD
HETATM    7  N3  UNL     1       8.434  27.498  21.222  1.00  0.00    -0.117 N 
ATOM      8  H3  UNL     1       8.733  28.027  22.040  1.00  0.00     0.206 HD
HETATM    9  C3  UNL     1       7.181  27.072  21.008  1.00  0.00     0.711 A 
HETATM   10  N5  UNL     1       7.262  26.420  19.800  1.00  0.00    -0.020 N 
ATOM     11  H5  UNL     1       6.476  25.969  19.333  1.00  0.00     0.203 HD
ENDROOT
BRANCH   9  12
HETATM   12  N4  UNL     1       6.097  27.157  21.636  1.00  0.00    -0.202 N 
ATOM     13  H4  UNL     1       5.310  27.196  20.989  1.00  0.00     0.183 HD
BRANCH  12  14
HETATM   14  C4  UNL     1       5.653  27.213  22.943  1.00  0.00     0.105 C 
BRANCH  14  15
HETATM   15  C5  UNL     1       6.378  26.285  23.866  1.00  0.00     0.212 C 
BRANCH  15  16
HETATM   16  O1  UNL     1       7.573  26.856  24.265  1.00  0.00    -0.391 OA
HETATM   17  C6  UNL     1       7.374  28.105  24.795  1.00  0.00     0.201 C 
ENDBRANCH  15  16
ENDBRANCH  14  15
ENDBRANCH  12  14
ENDBRANCH   9  12
TORSDOF 4
ENDMDL
MODEL 5
REMARK VINA RESULT: -5.740561028      2.652      5.266
REMARK  4 active torsions:
REMARK  status: ('A' for Active; 'I' for Inactive)
REMARK    1  A    between atoms: C3_9  and  N4_10 
REMARK    2  A    between atoms: N4_10  and  C4_12 
REMARK    3  A    between atoms: C4_12  and  C5_13 
REMARK    4  A    between atoms: C5_13  and  O1_14 
ROOT
HETATM    1  C1  UNL     1       7.870  25.346  17.576  1.00  0.00     0.165 C 
HETATM    2  N1  UNL     1       8.672  26.247  18.377  1.00  0.00    -0.229 N 
ATOM      3  H1  UNL     1       9.519  26.680  18.008  1.00  0.00     0.177 HD
HETATM    4  C2  UNL     1       8.256  26.479  19.603  1.00  0.00     0.707 A 
HETATM    5  N2  UNL     1       8.847  27.277  20.506  1.00  0.00    -0.117 N 
ATOM      6  H2  UNL     1       9.703  27.813  20.362  1.00  0.00     0.206 HD
HETATM    7  N3  UNL     1       8.122  27.247  21.625  1.00  0.00    -0.117 N 
ATOM      8  H3  UNL     1       8.347  27.766  22.474  1.00  0.00     0.206 HD
HETATM    9  C3  UNL     1       7.058  26.444  21.485  1.00  0.00     0.711 A 
HETATM   10  N5  UNL     1       7.172  25.976  20.198  1.00  0.00    -0.020 N 
ATOM     11  H5  UNL     1       6.517  25.332  19.757  1.00  0.00     0.203 HD
ENDROOT
BRANCH   9  12
HETATM   12  N4  UNL     1       6.106  26.097  22.228  1.00  0.00    -0.202 N 
ATOM     13  H4  UNL     1       6.180  25.108  22.464  1.00  0.00     0.183 HD
BRANCH  12  14
HETATM   14  C4  UNL     1       4.990  26.654  22.819  1.00  0.00     0.105 C 
BRANCH  14  15
HETATM   15  C5  UNL     1       5.163  26.949  24.275  1.00  0.00     0.212 C 
BRANCH  15  16
HETATM   16  O1  UNL     1       5.577  28.257  24.446  1.00  0.00    -0.391 OA
HETATM   17  C6  UNL     1       6.886  28.315  24.849  1.00  0.00     0.201 C 
ENDBRANCH  15  16
ENDBRANCH  14  15
ENDBRANCH  12  14
ENDBRANCH   9  12
TORSDOF 4
ENDMDL
