MODEL 1
REMARK VINA RESULT: -4.969540818      0.000      0.000
REMARK  5 active torsions:
REMARK  status: ('A' for Active; 'I' for Inactive)
REMARK    1  A    between atoms: C4_5  and  N2_6 
REMARK    2  A    between atoms: N2_6  and  C5_8 
REMARK    3  A    between atoms: C5_8  and  C6_9 
REMARK    4  A    between atoms: C6_9  and  C7_10 
REMARK    5  A    between atoms: C7_10  and  N3_11 
ROOT
HETATM    1  N2  UNL     1       4.233  27.198  15.118  1.00  0.00    -0.376 N 
ATOM      2  H2  UNL     1       4.164  27.177  16.136  1.00  0.00     0.161 HD
ENDROOT
BRANCH   1   3
HETATM    3  C4  UNL     1       3.644  28.152  14.481  1.00  0.00     0.102 A 
HETATM    4  C3  UNL     1       2.370  28.037  13.969  1.00  0.00     0.065 A 
HETATM    5  C2  UNL     1       1.799  29.094  13.298  1.00  0.00     0.095 A 
HETATM    6  N1  UNL     1       2.447  30.256  13.117  1.00  0.00    -0.357 N 
HETATM    7  C1  UNL     1       1.830  31.358  12.408  1.00  0.00     0.156 C 
HETATM    8  C8  UNL     1       3.692  30.347  13.625  1.00  0.00     0.183 A 
HETATM    9  N4  UNL     1       4.287  29.341  14.287  1.00  0.00    -0.339 N 
ATOM     10  H4  UNL     1       5.232  29.466  14.650  1.00  0.00     0.168 HD
ENDBRANCH   1   3
BRANCH   1  11
HETATM   11  C5  UNL     1       4.974  26.173  14.466  1.00  0.00     0.123 C 
BRANCH  11  12
HETATM   12  C6  UNL     1       4.088  25.013  14.018  1.00  0.00     0.047 C 
BRANCH  12  13
HETATM   13  C7  UNL     1       3.237  24.599  15.205  1.00  0.00     0.231 C 
BRANCH  13  14
HETATM   14  N3  UNL     1       4.068  23.779  16.058  1.00  0.00    -0.079 N 
ATOM     15  H33 UNL     1       5.027  24.120  16.129  1.00  0.00     0.274 HD
ATOM     16  H32 UNL     1       3.828  23.857  17.046  1.00  0.00     0.274 HD
ATOM     17  H31 UNL     1       4.008  22.823  15.706  1.00  0.00     0.274 HD
ENDBRANCH  13  14
ENDBRANCH  12  13
ENDBRANCH  11  12
ENDBRANCH   1  11
TORSDOF 5
ENDMDL
MODEL 2
REMARK VINA RESULT: -4.726412062      0.789      1.337
REMARK  5 active torsions:
REMARK  status: ('A' for Active; 'I' for Inactive)
REMARK    1  A    between atoms: C4_5  and  N2_6 
REMARK    2  A    between atoms: N2_6  and  C5_8 
REMARK    3  A    between atoms: C5_8  and  C6_9 
REMARK    4  A    between atoms: C6_9  and  C7_10 
REMARK    5  A    between atoms: C7_10  and  N3_11 
ROOT
HETATM    1  N2  UNL     1       4.136  27.143  15.156  1.00  0.00    -0.376 N 
ATOM      2  H2  UNL     1       3.969  27.074  16.160  1.00  0.00     0.161 HD
ENDROOT
BRANCH   1   3
HETATM    3  C4  UNL     1       3.607  28.127  14.512  1.00  0.00     0.102 A 
HETATM    4  C3  UNL     1       4.185  29.376  14.446  1.00  0.00     0.065 A 
HETATM    5  C2  UNL     1       3.568  30.384  13.741  1.00  0.00     0.095 A 
HETATM    6  N1  UNL     1       2.402  30.195  13.102  1.00  0.00    -0.357 N 
HETATM    7  C1  UNL     1       1.767  31.268  12.363  1.00  0.00     0.156 C 
HETATM    8  C8  UNL     1       1.854  28.966  13.179  1.00  0.00     0.183 A 
HETATM    9  N4  UNL     1       2.422  27.955  13.856  1.00  0.00    -0.339 N 
ATOM     10  H4  UNL     1       1.962  27.045  13.881  1.00  0.00     0.168 HD
ENDBRANCH   1   3
BRANCH   1  11
HETATM   11  C5  UNL     1       4.940  26.150  14.530  1.00  0.00     0.123 C 
BRANCH  11  12
HETATM   12  C6  UNL     1       4.120  24.949  14.066  1.00  0.00     0.047 C 
BRANCH  12  13
HETATM   13  C7  UNL     1       3.197  24.554  15.205  1.00  0.00     0.231 C 
BRANCH  13  14
HETATM   14  N3  UNL     1       3.973  23.748  16.121  1.00  0.00    -0.079 N 
ATOM     15  H33 UNL     1       4.970  23.744  15.905  1.00  0.00     0.274 HD
ATOM     16  H32 UNL     1       4.044  24.157  17.053  1.00  0.00     0.274 HD
ATOM     17  H31 UNL     1       3.560  22.815  16.124  1.00  0.00     0.274 HD
ENDBRANCH  13  14
ENDBRANCH  12  13
ENDBRANCH  11  12
ENDBRANCH   1  11
TORSDOF 5
ENDMDL
MODEL 3
REMARK VINA RESULT: -4.551106258      2.571      4.201
REMARK  5 active torsions:
REMARK  status: ('A' for Active; 'I' for Inactive)
REMARK    1  A    between atoms: C4_5  and  N2_6 
REMARK    2  A    between atoms: N2_6  and  C5_8 
REMARK    3  A    between atoms: C5_8  and  C6_9 
REMARK    4  A    between atoms: C6_9  and  C7_10 
REMARK    5  A    between atoms: C7_10  and  N3_11 
ROOT
HETATM    1  N2  UNL     1       4.317  30.545  13.743  1.00  0.00    -0.376 N 
ATOM      2  H2  UNL     1       3.954  31.495  13.666  1.00  0.00     0.161 HD
ENDROOT
BRANCH   1   3
HETATM    3  C4  UNL     1       3.486  29.584  13.959  1.00  0.00     0.102 A 
HETATM    4  C3  UNL     1       3.332  28.988  15.192  1.00  0.00     0.065 A 
HETATM    5  C2  UNL     1       2.426  27.965  15.354  1.00  0.00     0.095 A 
HETATM    6  N1  UNL     1       1.671  27.515  14.339  1.00  0.00    -0.357 N 
HETATM    7  C1  UNL     1       0.722  26.437  14.530  1.00  0.00     0.156 C 
HETATM    8  C8  UNL     1       1.837  28.111  13.142  1.00  0.00     0.183 A 
HETATM    9  N4  UNL     1       2.709  29.112  12.939  1.00  0.00    -0.339 N 
ATOM     10  H4  UNL     1       2.793  29.526  12.011  1.00  0.00     0.168 HD
ENDBRANCH   1   3
BRANCH   1  11
HETATM   11  C5  UNL     1       5.719  30.340  13.609  1.00  0.00     0.123 C 
BRANCH  11  12
HETATM   12  C6  UNL     1       6.422  30.239  14.961  1.00  0.00     0.047 C 
BRANCH  12  13
HETATM   13  C7  UNL     1       7.728  29.496  14.746  1.00  0.00     0.231 C 
BRANCH  13  14
HETATM   14  N3  UNL     1       7.454  28.411  13.830  1.00  0.00    -0.079 N 
ATOM     15  H33 UNL     1       7.396  27.503  14.291  1.00  0.00     0.274 HD
ATOM     16  H32 UNL     1       6.505  28.431  13.459  1.00  0.00     0.274 HD
ATOM     17  H31 UNL     1       8.169  28.446  13.103  1.00  0.00     0.274 HD
ENDBRANCH  13  14
ENDBRANCH  12  13
ENDBRANCH  11  12
ENDBRANCH   1  11
TORSDOF 5
ENDMDL
MODEL 4
REMARK VINA RESULT: -4.509614020      1.947      4.548
REMARK  5 active torsions:
REMARK  status: ('A' for Active; 'I' for Inactive)
REMARK    1  A    between atoms: C4_5  and  N2_6 
REMARK    2  A    between atoms: N2_6  and  C5_8 
REMARK    3  A    between atoms: C5_8  and  C6_9 
REMARK    4  A    between atoms: C6_9  and  C7_10 
REMARK    5  A    between atoms: C7_10  and  N3_11 
ROOT
HETATM    1  N2  UNL     1       3.782  29.776  14.048  1.00  0.00    -0.376 N 
ATOM      2  H2  UNL     1       3.012  30.441  13.969  1.00  0.00     0.161 HD
ENDROOT
BRANCH   1   3
HETATM    3  C4  UNL     1       3.506  28.539  14.279  1.00  0.00     0.102 A 
HETATM    4  C3  UNL     1       2.245  28.105  14.629  1.00  0.00     0.065 A 
HETATM    5  C2  UNL     1       2.017  26.768  14.863  1.00  0.00     0.095 A 
HETATM    6  N1  UNL     1       2.993  25.852  14.764  1.00  0.00    -0.357 N 
HETATM    7  C1  UNL     1       2.734  24.448  15.014  1.00  0.00     0.156 C 
HETATM    8  C8  UNL     1       4.218  26.297  14.422  1.00  0.00     0.183 A 
HETATM    9  N4  UNL     1       4.485  27.592  14.183  1.00  0.00    -0.339 N 
ATOM     10  H4  UNL     1       5.431  27.872  13.928  1.00  0.00     0.168 HD
ENDBRANCH   1   3
BRANCH   1  11
HETATM   11  C5  UNL     1       5.113  30.257  13.898  1.00  0.00     0.123 C 
BRANCH  11  12
HETATM   12  C6  UNL     1       5.988  29.927  15.105  1.00  0.00     0.047 C 
BRANCH  12  13
HETATM   13  C7  UNL     1       7.429  29.881  14.630  1.00  0.00     0.231 C 
BRANCH  13  14
HETATM   14  N3  UNL     1       7.564  28.710  13.792  1.00  0.00    -0.079 N 
ATOM     15  H33 UNL     1       7.078  27.894  14.165  1.00  0.00     0.274 HD
ATOM     16  H32 UNL     1       7.045  28.782  12.917  1.00  0.00     0.274 HD
ATOM     17  H31 UNL     1       8.562  28.553  13.654  1.00  0.00     0.274 HD
ENDBRANCH  13  14
ENDBRANCH  12  13
ENDBRANCH  11  12
ENDBRANCH   1  11
TORSDOF 5
ENDMDL
MODEL 5
REMARK VINA RESULT: -4.465958205      2.094      4.416
REMARK  5 active torsions:
REMARK  status: ('A' for Active; 'I' for Inactive)
REMARK    1  A    between atoms: C4_5  and  N2_6 
REMARK    2  A    between atoms: N2_6  and  C5_8 
REMARK    3  A    between atoms: C5_8  and  C6_9 
REMARK    4  A    between atoms: C6_9  and  C7_10 
REMARK    5  A    between atoms: C7_10  and  N3_11 
ROOT
HETATM    1  N2  UNL     1       3.243  27.060  14.810  1.00  0.00    -0.376 N 
ATOM      2  H2  UNL     1       3.257  26.099  15.153  1.00  0.00     0.161 HD
ENDROOT
BRANCH   1   3
HETATM    3  C4  UNL     1       4.352  27.715  14.770  1.00  0.00     0.102 A 
HETATM    4  C3  UNL     1       4.461  29.031  15.164  1.00  0.00     0.065 A 
HETATM    5  C2  UNL     1       5.676  29.673  15.095  1.00  0.00     0.095 A 
HETATM    6  N1  UNL     1       6.782  29.056  14.650  1.00  0.00    -0.357 N 
HETATM    7  C1  UNL     1       8.054  29.748  14.585  1.00  0.00     0.156 C 
HETATM    8  C8  UNL     1       6.655  27.770  14.269  1.00  0.00     0.183 A 
HETATM    9  N4  UNL     1       5.488  27.105  14.320  1.00  0.00    -0.339 N 
ATOM     10  H4  UNL     1       5.451  26.132  14.019  1.00  0.00     0.168 HD
ENDBRANCH   1   3
BRANCH   1  11
HETATM   11  C5  UNL     1       2.000  27.617  14.399  1.00  0.00     0.123 C 
BRANCH  11  12
HETATM   12  C6  UNL     1       2.048  28.149  12.968  1.00  0.00     0.047 C 
BRANCH  12  13
HETATM   13  C7  UNL     1       1.834  29.650  13.028  1.00  0.00     0.231 C 
BRANCH  13  14
HETATM   14  N3  UNL     1       2.913  30.263  12.284  1.00  0.00    -0.079 N 
ATOM     15  H33 UNL     1       3.767  29.705  12.284  1.00  0.00     0.274 HD
ATOM     16  H32 UNL     1       2.755  30.261  11.276  1.00  0.00     0.274 HD
ATOM     17  H31 UNL     1       3.046  31.200  12.666  1.00  0.00     0.274 HD
ENDBRANCH  13  14
ENDBRANCH  12  13
ENDBRANCH  11  12
ENDBRANCH   1  11
TORSDOF 5
ENDMDL
