MODEL 1
REMARK VINA RESULT: -5.748083152      0.000      0.000
REMARK  6 active torsions:
REMARK  status: ('A' for Active; 'I' for Inactive)
REMARK    1  A    between atoms: N1_1  and  N2_4 
REMARK    2  A    between atoms: N2_4  and  C1_6 
REMARK    3  A    between atoms: C1_6  and  C2_7 
REMARK    4  A    between atoms: C2_7  and  C3_8 
REMARK    5  A    between atoms: C3_8  and  N3_9 
REMARK    6  A    between atoms: N3_9  and  C4_11 
ROOT
HETATM    1  C3  UNL     1       3.512  27.638  15.324  1.00  0.00     0.123 C 
ENDROOT
BRANCH   1   2
HETATM    2  C2  UNL     1       3.591  26.751  14.110  1.00  0.00     0.041 C 
BRANCH   2   3
HETATM    3  C1  UNL     1       4.357  25.484  14.352  1.00  0.00     0.140 C 
BRANCH   3   4
HETATM    4  N2  UNL     1       3.506  24.636  15.167  1.00  0.00    -0.343 N 
ATOM      5  H2  UNL     1       2.488  24.675  15.110  1.00  0.00     0.179 HD
BRANCH   4   6
HETATM    6  N1  UNL     1       4.091  23.863  15.935  1.00  0.00    -0.349 N 
ATOM      7  H12 UNL     1       5.016  24.086  16.305  1.00  0.00     0.176 HD
ATOM      8  H11 UNL     1       3.593  23.003  16.168  1.00  0.00     0.176 HD
ENDBRANCH   4   6
ENDBRANCH   3   4
ENDBRANCH   2   3
ENDBRANCH   1   2
BRANCH   1   9
HETATM    9  N3  UNL     1       2.774  28.858  15.083  1.00  0.00    -0.368 N 
ATOM     10  H3  UNL     1       2.018  29.117  15.716  1.00  0.00     0.161 HD
BRANCH   9  11
HETATM   11  C4  UNL     1       3.053  29.622  14.088  1.00  0.00     0.177 A 
HETATM   12  N4  UNL     1       4.085  30.257  13.523  1.00  0.00    -0.272 N 
HETATM   13  N5  UNL     1       3.553  30.865  12.483  1.00  0.00    -0.265 N 
ATOM     14  H4  UNL     1       5.059  30.268  13.827  1.00  0.00     0.189 HD
HETATM   15  S1  UNL     1       2.049  30.245  12.872  1.00  0.00     0.040 SA
ATOM     16  H5  UNL     1       3.911  31.467  11.743  1.00  0.00     0.195 HD
ENDBRANCH   9  11
ENDBRANCH   1   9
TORSDOF 6
ENDMDL
MODEL 2
REMARK VINA RESULT: -5.622308541      1.038      1.124
REMARK  6 active torsions:
REMARK  status: ('A' for Active; 'I' for Inactive)
REMARK    1  A    between atoms: N1_1  and  N2_4 
REMARK    2  A    between atoms: N2_4  and  C1_6 
REMARK    3  A    between atoms: C1_6  and  C2_7 
REMARK    4  A    between atoms: C2_7  and  C3_8 
REMARK    5  A    between atoms: C3_8  and  N3_9 
REMARK    6  A    between atoms: N3_9  and  C4_11 
ROOT
HETATM    1  C3  UNL     1       4.039  28.364  15.314  1.00  0.00     0.123 C 
ENDROOT
BRANCH   1   2
HETATM    2  C2  UNL     1       4.220  27.060  14.587  1.00  0.00     0.041 C 
BRANCH   2   3
HETATM    3  C1  UNL     1       3.031  26.152  14.694  1.00  0.00     0.140 C 
BRANCH   3   4
HETATM    4  N2  UNL     1       3.525  24.799  14.507  1.00  0.00    -0.343 N 
ATOM      5  H2  UNL     1       3.557  24.357  13.588  1.00  0.00     0.179 HD
BRANCH   4   6
HETATM    6  N1  UNL     1       3.904  24.216  15.530  1.00  0.00    -0.349 N 
ATOM      7  H12 UNL     1       4.886  23.976  15.668  1.00  0.00     0.176 HD
ATOM      8  H11 UNL     1       3.177  23.998  16.213  1.00  0.00     0.176 HD
ENDBRANCH   4   6
ENDBRANCH   3   4
ENDBRANCH   2   3
ENDBRANCH   1   2
BRANCH   1   9
HETATM    9  N3  UNL     1       4.374  29.514  14.503  1.00  0.00    -0.368 N 
ATOM     10  H3  UNL     1       5.298  29.935  14.590  1.00  0.00     0.161 HD
BRANCH   9  11
HETATM   11  C4  UNL     1       3.529  30.015  13.673  1.00  0.00     0.177 A 
HETATM   12  N4  UNL     1       3.471  30.828  12.614  1.00  0.00    -0.272 N 
HETATM   13  N5  UNL     1       2.192  30.852  12.303  1.00  0.00    -0.265 N 
ATOM     14  H4  UNL     1       4.240  31.317  12.154  1.00  0.00     0.189 HD
HETATM   15  S1  UNL     1       1.850  29.812  13.566  1.00  0.00     0.040 SA
ATOM     16  H5  UNL     1       1.637  31.316  11.584  1.00  0.00     0.195 HD
ENDBRANCH   9  11
ENDBRANCH   1   9
TORSDOF 6
ENDMDL
MODEL 3
REMARK VINA RESULT: -5.573210943      2.030      5.207
REMARK  6 active torsions:
REMARK  status: ('A' for Active; 'I' for Inactive)
REMARK    1  A    between atoms: N1_1  and  N2_4 
REMARK    2  A    between atoms: N2_4  and  C1_6 
REMARK    3  A    between atoms: C1_6  and  C2_7 
REMARK    4  A    between atoms: C2_7  and  C3_8 
REMARK    5  A    between atoms: C3_8  and  N3_9 
REMARK    6  A    between atoms: N3_9  and  C4_11 
ROOT
HETATM    1  C3  UNL     1       1.955  27.949  13.332  1.00  0.00     0.123 C 
ENDROOT
BRANCH   1   2
HETATM    2  C2  UNL     1       1.993  29.334  13.920  1.00  0.00     0.041 C 
BRANCH   2   3
HETATM    3  C1  UNL     1       3.371  29.927  13.947  1.00  0.00     0.140 C 
BRANCH   3   4
HETATM    4  N2  UNL     1       3.542  30.633  12.690  1.00  0.00    -0.343 N 
ATOM      5  H2  UNL     1       4.387  30.538  12.126  1.00  0.00     0.179 HD
BRANCH   4   6
HETATM    6  N1  UNL     1       2.600  31.357  12.345  1.00  0.00    -0.349 N 
ATOM      7  H12 UNL     1       2.352  31.469  11.361  1.00  0.00     0.176 HD
ATOM      8  H11 UNL     1       2.099  31.825  13.100  1.00  0.00     0.176 HD
ENDBRANCH   4   6
ENDBRANCH   3   4
ENDBRANCH   2   3
ENDBRANCH   1   2
BRANCH   1   9
HETATM    9  N3  UNL     1       1.815  26.915  14.333  1.00  0.00    -0.368 N 
ATOM     10  H3  UNL     1       0.962  26.871  14.890  1.00  0.00     0.161 HD
BRANCH   9  11
HETATM   11  C4  UNL     1       2.745  26.051  14.535  1.00  0.00     0.177 A 
HETATM   12  N4  UNL     1       2.919  24.783  14.922  1.00  0.00    -0.272 N 
HETATM   13  N5  UNL     1       4.224  24.613  14.875  1.00  0.00    -0.265 N 
ATOM     14  H4  UNL     1       2.206  24.105  15.192  1.00  0.00     0.189 HD
HETATM   15  S1  UNL     1       4.426  26.191  14.361  1.00  0.00     0.040 SA
ATOM     16  H5  UNL     1       4.854  23.836  15.071  1.00  0.00     0.195 HD
ENDBRANCH   9  11
ENDBRANCH   1   9
TORSDOF 6
ENDMDL
MODEL 4
REMARK VINA RESULT: -5.531492339      1.750      1.891
REMARK  6 active torsions:
REMARK  status: ('A' for Active; 'I' for Inactive)
REMARK    1  A    between atoms: N1_1  and  N2_4 
REMARK    2  A    between atoms: N2_4  and  C1_6 
REMARK    3  A    between atoms: C1_6  and  C2_7 
REMARK    4  A    between atoms: C2_7  and  C3_8 
REMARK    5  A    between atoms: C3_8  and  N3_9 
REMARK    6  A    between atoms: N3_9  and  C4_11 
ROOT
HETATM    1  C3  UNL     1       3.481  27.851  15.498  1.00  0.00     0.123 C 
ENDROOT
BRANCH   1   2
HETATM    2  C2  UNL     1       3.459  26.598  14.665  1.00  0.00     0.041 C 
BRANCH   2   3
HETATM    3  C1  UNL     1       4.820  26.176  14.196  1.00  0.00     0.140 C 
BRANCH   3   4
HETATM    4  N2  UNL     1       5.700  27.311  14.406  1.00  0.00    -0.343 N 
ATOM      5  H2  UNL     1       5.363  28.194  14.791  1.00  0.00     0.179 HD
BRANCH   4   6
HETATM    6  N1  UNL     1       6.884  27.143  14.090  1.00  0.00    -0.349 N 
ATOM      7  H12 UNL     1       7.608  27.021  14.799  1.00  0.00     0.176 HD
ATOM      8  H11 UNL     1       7.081  27.134  13.089  1.00  0.00     0.176 HD
ENDBRANCH   4   6
ENDBRANCH   3   4
ENDBRANCH   2   3
ENDBRANCH   1   2
BRANCH   1   9
HETATM    9  N3  UNL     1       2.577  28.869  15.008  1.00  0.00    -0.368 N 
ATOM     10  H3  UNL     1       1.659  28.972  15.440  1.00  0.00     0.161 HD
BRANCH   9  11
HETATM   11  C4  UNL     1       2.908  29.645  14.039  1.00  0.00     0.177 A 
HETATM   12  N4  UNL     1       3.979  30.244  13.507  1.00  0.00    -0.272 N 
HETATM   13  N5  UNL     1       3.493  30.906  12.478  1.00  0.00    -0.265 N 
ATOM     14  H4  UNL     1       4.948  30.198  13.824  1.00  0.00     0.189 HD
HETATM   15  S1  UNL     1       1.955  30.352  12.828  1.00  0.00     0.040 SA
ATOM     16  H5  UNL     1       3.893  31.511  11.760  1.00  0.00     0.195 HD
ENDBRANCH   9  11
ENDBRANCH   1   9
TORSDOF 6
ENDMDL
MODEL 5
REMARK VINA RESULT: -5.508410353      2.193      4.638
REMARK  6 active torsions:
REMARK  status: ('A' for Active; 'I' for Inactive)
REMARK    1  A    between atoms: N1_1  and  N2_4 
REMARK    2  A    between atoms: N2_4  and  C1_6 
REMARK    3  A    between atoms: C1_6  and  C2_7 
REMARK    4  A    between atoms: C2_7  and  C3_8 
REMARK    5  A    between atoms: C3_8  and  N3_9 
REMARK    6  A    between atoms: N3_9  and  C4_11 
ROOT
HETATM    1  C3  UNL     1       1.723  28.748  14.663  1.00  0.00     0.123 C 
ENDROOT
BRANCH   1   2
HETATM    2  C2  UNL     1       2.160  28.998  13.244  1.00  0.00     0.041 C 
BRANCH   2   3
HETATM    3  C1  UNL     1       2.068  30.440  12.842  1.00  0.00     0.140 C 
BRANCH   3   4
HETATM    4  N2  UNL     1       3.415  30.861  12.500  1.00  0.00    -0.343 N 
ATOM      5  H2  UNL     1       3.620  31.377  11.644  1.00  0.00     0.179 HD
BRANCH   4   6
HETATM    6  N1  UNL     1       4.298  30.556  13.311  1.00  0.00    -0.349 N 
ATOM      7  H12 UNL     1       4.624  29.592  13.399  1.00  0.00     0.176 HD
ATOM      8  H11 UNL     1       4.670  31.321  13.873  1.00  0.00     0.176 HD
ENDBRANCH   4   6
ENDBRANCH   3   4
ENDBRANCH   2   3
ENDBRANCH   1   2
BRANCH   1   9
HETATM    9  N3  UNL     1       2.790  28.249  15.502  1.00  0.00    -0.368 N 
ATOM     10  H3  UNL     1       2.871  28.586  16.461  1.00  0.00     0.161 HD
BRANCH   9  11
HETATM   11  C4  UNL     1       3.639  27.390  15.062  1.00  0.00     0.177 A 
HETATM   12  N4  UNL     1       4.903  27.303  14.633  1.00  0.00    -0.272 N 
HETATM   13  N5  UNL     1       5.051  26.027  14.342  1.00  0.00    -0.265 N 
ATOM     14  H4  UNL     1       5.591  28.051  14.550  1.00  0.00     0.189 HD
HETATM   15  S1  UNL     1       3.472  25.723  14.799  1.00  0.00     0.040 SA
ATOM     16  H5  UNL     1       5.817  25.457  13.984  1.00  0.00     0.195 HD
ENDBRANCH   9  11
ENDBRANCH   1   9
TORSDOF 6
ENDMDL
