MODEL 1
REMARK VINA RESULT: -6.655388054      0.000      0.000
REMARK  3 active torsions:
REMARK  status: ('A' for Active; 'I' for Inactive)
REMARK    1  A    between atoms: N1_2  and  C3_4 
REMARK    2  A    between atoms: C3_4  and  C4_5 
REMARK    3  A    between atoms: C4_5  and  C5_6 
ROOT
HETATM    1  C5  UNL     1       4.238  28.934  15.055  1.00  0.00     0.025 C 
HETATM    2  C6  UNL     1       3.631  29.658  14.133  1.00  0.00     0.120 A 
HETATM    3  N2  UNL     1       4.234  30.577  13.236  1.00  0.00    -0.282 N 
ATOM      4  H2  UNL     1       5.233  30.782  13.205  1.00  0.00     0.188 HD
HETATM    5  N3  UNL     1       3.293  31.156  12.410  1.00  0.00    -0.250 N 
ATOM      6  H3  UNL     1       3.479  31.848  11.683  1.00  0.00     0.192 HD
HETATM    7  C7  UNL     1       2.010  30.620  12.751  1.00  0.00     0.340 A 
HETATM    8  O1  UNL     1       0.950  30.954  12.171  1.00  0.00    -0.245 OA
HETATM    9  N4  UNL     1       2.235  29.703  13.808  1.00  0.00    -0.293 N 
ATOM     10  H4  UNL     1       1.508  29.156  14.271  1.00  0.00     0.172 HD
ENDROOT
BRANCH   1  11
HETATM   11  C4  UNL     1       3.496  28.006  15.935  1.00  0.00     0.061 C 
BRANCH  11  12
HETATM   12  C3  UNL     1       2.792  26.917  15.164  1.00  0.00     0.275 C 
BRANCH  12  13
HETATM   13  N1  UNL     1       3.621  25.758  15.078  1.00  0.00     0.080 N 
HETATM   14  C1  UNL     1       2.949  24.503  15.053  1.00  0.00     0.309 C 
HETATM   15  C2  UNL     1       4.622  25.795  14.044  1.00  0.00     0.309 C 
ENDBRANCH  12  13
ENDBRANCH  11  12
ENDBRANCH   1  11
TORSDOF 3
ENDMDL
MODEL 2
REMARK VINA RESULT: -6.542591449      2.451      2.906
REMARK  3 active torsions:
REMARK  status: ('A' for Active; 'I' for Inactive)
REMARK    1  A    between atoms: N1_2  and  C3_4 
REMARK    2  A    between atoms: C3_4  and  C4_5 
REMARK    3  A    between atoms: C4_5  and  C5_6 
ROOT
HETATM    1  C5  UNL     1       2.714  29.178  14.379  1.00  0.00     0.025 C 
HETATM    2  C6  UNL     1       3.984  29.534  14.319  1.00  0.00     0.120 A 
HETATM    3  N2  UNL     1       4.540  30.586  13.545  1.00  0.00    -0.282 N 
ATOM      4  H2  UNL     1       4.001  31.198  12.933  1.00  0.00     0.188 HD
HETATM    5  N3  UNL     1       5.905  30.670  13.729  1.00  0.00    -0.250 N 
ATOM      6  H3  UNL     1       6.528  31.343  13.282  1.00  0.00     0.192 HD
HETATM    7  C7  UNL     1       6.294  29.649  14.654  1.00  0.00     0.340 A 
HETATM    8  O1  UNL     1       7.479  29.473  15.024  1.00  0.00    -0.245 OA
HETATM    9  N4  UNL     1       5.105  28.962  15.006  1.00  0.00    -0.293 N 
ATOM     10  H4  UNL     1       5.056  28.176  15.654  1.00  0.00     0.172 HD
ENDROOT
BRANCH   1  11
HETATM   11  C4  UNL     1       2.254  28.058  15.229  1.00  0.00     0.061 C 
BRANCH  11  12
HETATM   12  C3  UNL     1       2.172  26.756  14.472  1.00  0.00     0.275 C 
BRANCH  12  13
HETATM   13  N1  UNL     1       3.213  25.874  14.891  1.00  0.00     0.080 N 
HETATM   14  C1  UNL     1       2.839  24.520  15.119  1.00  0.00     0.309 C 
HETATM   15  C2  UNL     1       4.414  25.920  14.097  1.00  0.00     0.309 C 
ENDBRANCH  12  13
ENDBRANCH  11  12
ENDBRANCH   1  11
TORSDOF 3
ENDMDL
MODEL 3
REMARK VINA RESULT: -6.119015917      0.640      1.041
REMARK  3 active torsions:
REMARK  status: ('A' for Active; 'I' for Inactive)
REMARK    1  A    between atoms: N1_2  and  C3_4 
REMARK    2  A    between atoms: C3_4  and  C4_5 
REMARK    3  A    between atoms: C4_5  and  C5_6 
ROOT
HETATM    1  C5  UNL     1       4.300  28.821  14.934  1.00  0.00     0.025 C 
HETATM    2  C6  UNL     1       3.631  29.586  14.093  1.00  0.00     0.120 A 
HETATM    3  N2  UNL     1       4.152  30.642  13.300  1.00  0.00    -0.282 N 
ATOM      4  H2  UNL     1       5.130  30.931  13.296  1.00  0.00     0.188 HD
HETATM    5  N3  UNL     1       3.162  31.226  12.537  1.00  0.00    -0.250 N 
ATOM      6  H3  UNL     1       3.287  32.004  11.889  1.00  0.00     0.192 HD
HETATM    7  C7  UNL     1       1.930  30.551  12.813  1.00  0.00     0.340 A 
HETATM    8  O1  UNL     1       0.843  30.856  12.267  1.00  0.00    -0.245 OA
HETATM    9  N4  UNL     1       2.234  29.550  13.768  1.00  0.00    -0.293 N 
ATOM     10  H4  UNL     1       1.558  28.898  14.167  1.00  0.00     0.172 HD
ENDROOT
BRANCH   1  11
HETATM   11  C4  UNL     1       3.641  27.746  15.708  1.00  0.00     0.061 C 
BRANCH  11  12
HETATM   12  C3  UNL     1       4.008  26.370  15.212  1.00  0.00     0.275 C 
BRANCH  12  13
HETATM   13  N1  UNL     1       2.857  25.714  14.677  1.00  0.00     0.080 N 
HETATM   14  C1  UNL     1       2.684  24.349  15.038  1.00  0.00     0.309 C 
HETATM   15  C2  UNL     1       1.615  26.423  14.844  1.00  0.00     0.309 C 
ENDBRANCH  12  13
ENDBRANCH  11  12
ENDBRANCH   1  11
TORSDOF 3
ENDMDL
MODEL 4
REMARK VINA RESULT: -6.008828148      2.585      5.127
REMARK  3 active torsions:
REMARK  status: ('A' for Active; 'I' for Inactive)
REMARK    1  A    between atoms: N1_2  and  C3_4 
REMARK    2  A    between atoms: C3_4  and  C4_5 
REMARK    3  A    between atoms: C4_5  and  C5_6 
ROOT
HETATM    1  C5  UNL     1       1.958  27.095  14.673  1.00  0.00     0.025 C 
HETATM    2  C6  UNL     1       3.163  26.557  14.642  1.00  0.00     0.120 A 
HETATM    3  N2  UNL     1       3.502  25.208  14.926  1.00  0.00    -0.282 N 
ATOM      4  H2  UNL     1       2.831  24.488  15.193  1.00  0.00     0.188 HD
HETATM    5  N3  UNL     1       4.859  24.999  14.795  1.00  0.00    -0.250 N 
ATOM      6  H3  UNL     1       5.346  24.115  14.947  1.00  0.00     0.192 HD
HETATM    7  C7  UNL     1       5.466  26.238  14.411  1.00  0.00     0.340 A 
HETATM    8  O1  UNL     1       6.698  26.366  14.212  1.00  0.00    -0.245 OA
HETATM    9  N4  UNL     1       4.413  27.182  14.321  1.00  0.00    -0.293 N 
ATOM     10  H4  UNL     1       4.528  28.162  14.066  1.00  0.00     0.172 HD
ENDROOT
BRANCH   1  11
HETATM   11  C4  UNL     1       1.730  28.522  14.355  1.00  0.00     0.061 C 
BRANCH  11  12
HETATM   12  C3  UNL     1       1.890  28.817  12.885  1.00  0.00     0.275 C 
BRANCH  12  13
HETATM   13  N1  UNL     1       2.613  30.035  12.702  1.00  0.00     0.080 N 
HETATM   14  C1  UNL     1       1.832  31.201  12.462  1.00  0.00     0.309 C 
HETATM   15  C2  UNL     1       3.609  30.314  13.703  1.00  0.00     0.309 C 
ENDBRANCH  12  13
ENDBRANCH  11  12
ENDBRANCH   1  11
TORSDOF 3
ENDMDL
MODEL 5
REMARK VINA RESULT: -5.970862806      2.445      4.944
REMARK  3 active torsions:
REMARK  status: ('A' for Active; 'I' for Inactive)
REMARK    1  A    between atoms: N1_2  and  C3_4 
REMARK    2  A    between atoms: C3_4  and  C4_5 
REMARK    3  A    between atoms: C4_5  and  C5_6 
ROOT
HETATM    1  C5  UNL     1       4.821  28.171  14.680  1.00  0.00     0.025 C 
HETATM    2  C6  UNL     1       4.377  26.929  14.730  1.00  0.00     0.120 A 
HETATM    3  N2  UNL     1       5.134  25.744  14.535  1.00  0.00    -0.282 N 
ATOM      4  H2  UNL     1       6.133  25.725  14.330  1.00  0.00     0.188 HD
HETATM    5  N3  UNL     1       4.341  24.622  14.660  1.00  0.00    -0.250 N 
ATOM      6  H3  UNL     1       4.653  23.656  14.563  1.00  0.00     0.192 HD
HETATM    7  C7  UNL     1       3.005  25.050  14.948  1.00  0.00     0.340 A 
HETATM    8  O1  UNL     1       2.051  24.254  15.119  1.00  0.00    -0.245 OA
HETATM    9  N4  UNL     1       3.044  26.466  14.988  1.00  0.00    -0.293 N 
ATOM     10  H4  UNL     1       2.242  27.068  15.172  1.00  0.00     0.172 HD
ENDROOT
BRANCH   1  11
HETATM   11  C4  UNL     1       3.929  29.331  14.901  1.00  0.00     0.061 C 
BRANCH  11  12
HETATM   12  C3  UNL     1       3.711  30.139  13.646  1.00  0.00     0.275 C 
BRANCH  12  13
HETATM   13  N1  UNL     1       2.384  29.944  13.157  1.00  0.00     0.080 N 
HETATM   14  C1  UNL     1       1.437  29.432  14.089  1.00  0.00     0.309 C 
HETATM   15  C2  UNL     1       1.818  31.066  12.455  1.00  0.00     0.309 C 
ENDBRANCH  12  13
ENDBRANCH  11  12
ENDBRANCH   1  11
TORSDOF 3
ENDMDL
