MODEL 1
REMARK VINA RESULT: -5.063271540      0.000      0.000
REMARK  5 active torsions:
REMARK  status: ('A' for Active; 'I' for Inactive)
REMARK    1  A    between atoms: N1_2  and  C3_4 
REMARK    2  A    between atoms: C3_4  and  C4_5 
REMARK    3  A    between atoms: C4_5  and  N2_6 
REMARK    4  A    between atoms: N2_6  and  C5_8 
REMARK    5  A    between atoms: C8_13  and  N4_14 
ROOT
HETATM    1  C5  UNL     1       2.318  29.178  14.310  1.00  0.00     0.118 A 
HETATM    2  C6  UNL     1       1.610  29.893  13.338  1.00  0.00     0.066 A 
HETATM    3  C7  UNL     1       2.266  30.800  12.560  1.00  0.00     0.110 A 
HETATM    4  N3  UNL     1       3.586  31.000  12.732  1.00  0.00    -0.202 N 
ATOM      5  H3  UNL     1       4.065  31.682  12.142  1.00  0.00     0.183 HD
HETATM    6  C8  UNL     1       4.293  30.327  13.658  1.00  0.00     0.677 A 
HETATM    7  N5  UNL     1       3.630  29.430  14.424  1.00  0.00    -0.177 N 
ATOM      8  H5  UNL     1       4.158  28.917  15.130  1.00  0.00     0.185 HD
ENDROOT
BRANCH   1   9
HETATM    9  N2  UNL     1       1.644  28.354  14.995  1.00  0.00    -0.374 N 
ATOM     10  H2  UNL     1       1.120  28.756  15.772  1.00  0.00     0.161 HD
BRANCH   9  11
HETATM   11  C4  UNL     1       1.512  26.945  14.835  1.00  0.00     0.141 C 
BRANCH  11  12
HETATM   12  C3  UNL     1       2.559  26.475  13.834  1.00  0.00     0.140 C 
BRANCH  12  13
HETATM   13  N1  UNL     1       3.605  25.745  14.475  1.00  0.00    -0.402 N 
HETATM   14  C1  UNL     1       3.321  24.721  15.169  1.00  0.00     0.114 C 
HETATM   15  C2  UNL     1       4.950  26.193  14.316  1.00  0.00     0.148 C 
ENDBRANCH  12  13
ENDBRANCH  11  12
ENDBRANCH   9  11
ENDBRANCH   1   9
BRANCH   6  16
HETATM   16  N4  UNL     1       5.536  30.577  13.755  1.00  0.00    -0.234 N 
ATOM     17  H42 UNL     1       6.136  30.831  12.970  1.00  0.00     0.174 HD
ATOM     18  H41 UNL     1       5.963  30.518  14.679  1.00  0.00     0.174 HD
ENDBRANCH   6  16
TORSDOF 5
ENDMDL
MODEL 2
REMARK VINA RESULT: -4.959223082      1.605      4.273
REMARK  5 active torsions:
REMARK  status: ('A' for Active; 'I' for Inactive)
REMARK    1  A    between atoms: N1_2  and  C3_4 
REMARK    2  A    between atoms: C3_4  and  C4_5 
REMARK    3  A    between atoms: C4_5  and  N2_6 
REMARK    4  A    between atoms: N2_6  and  C5_8 
REMARK    5  A    between atoms: C8_13  and  N4_14 
ROOT
HETATM    1  C5  UNL     1       3.505  27.467  15.049  1.00  0.00     0.118 A 
HETATM    2  C6  UNL     1       3.176  26.111  14.935  1.00  0.00     0.066 A 
HETATM    3  C7  UNL     1       4.128  25.220  14.537  1.00  0.00     0.110 A 
HETATM    4  N3  UNL     1       5.373  25.649  14.257  1.00  0.00    -0.202 N 
ATOM      5  H3  UNL     1       6.075  24.971  13.960  1.00  0.00     0.183 HD
HETATM    6  C8  UNL     1       5.718  26.946  14.357  1.00  0.00     0.677 A 
HETATM    7  N5  UNL     1       4.764  27.821  14.753  1.00  0.00    -0.177 N 
ATOM      8  H5  UNL     1       5.017  28.806  14.831  1.00  0.00     0.185 HD
ENDROOT
BRANCH   1   9
HETATM    9  N2  UNL     1       2.572  28.236  15.423  1.00  0.00    -0.374 N 
ATOM     10  H2  UNL     1       2.559  28.454  16.419  1.00  0.00     0.161 HD
BRANCH   9  11
HETATM   11  C4  UNL     1       1.538  28.839  14.653  1.00  0.00     0.141 C 
BRANCH  11  12
HETATM   12  C3  UNL     1       2.021  28.963  13.214  1.00  0.00     0.140 C 
BRANCH  12  13
HETATM   13  N1  UNL     1       2.457  30.290  12.921  1.00  0.00    -0.402 N 
HETATM   14  C1  UNL     1       1.633  31.130  12.442  1.00  0.00     0.114 C 
HETATM   15  C2  UNL     1       3.817  30.636  13.174  1.00  0.00     0.148 C 
ENDBRANCH  12  13
ENDBRANCH  11  12
ENDBRANCH   9  11
ENDBRANCH   1   9
BRANCH   6  16
HETATM   16  N4  UNL     1       6.915  27.266  14.074  1.00  0.00    -0.234 N 
ATOM     17  H42 UNL     1       7.635  26.606  13.782  1.00  0.00     0.174 HD
ATOM     18  H41 UNL     1       7.175  28.250  14.144  1.00  0.00     0.174 HD
ENDBRANCH   6  16
TORSDOF 5
ENDMDL
MODEL 3
REMARK VINA RESULT: -4.867774495      1.989      3.824
REMARK  5 active torsions:
REMARK  status: ('A' for Active; 'I' for Inactive)
REMARK    1  A    between atoms: N1_2  and  C3_4 
REMARK    2  A    between atoms: C3_4  and  C4_5 
REMARK    3  A    between atoms: C4_5  and  N2_6 
REMARK    4  A    between atoms: N2_6  and  C5_8 
REMARK    5  A    between atoms: C8_13  and  N4_14 
ROOT
HETATM    1  C5  UNL     1       4.746  28.633  15.094  1.00  0.00     0.118 A 
HETATM    2  C6  UNL     1       4.915  27.288  14.745  1.00  0.00     0.066 A 
HETATM    3  C7  UNL     1       6.100  26.876  14.213  1.00  0.00     0.110 A 
HETATM    4  N3  UNL     1       7.097  27.762  14.027  1.00  0.00    -0.202 N 
ATOM      5  H3  UNL     1       7.979  27.440  13.628  1.00  0.00     0.183 HD
HETATM    6  C8  UNL     1       6.963  29.061  14.354  1.00  0.00     0.677 A 
HETATM    7  N5  UNL     1       5.782  29.458  14.880  1.00  0.00    -0.177 N 
ATOM      8  H5  UNL     1       5.672  30.441  15.130  1.00  0.00     0.185 HD
ENDROOT
BRANCH   1   9
HETATM    9  N2  UNL     1       3.620  28.944  15.582  1.00  0.00    -0.374 N 
ATOM     10  H2  UNL     1       3.618  29.764  16.187  1.00  0.00     0.161 HD
BRANCH   9  11
HETATM   11  C4  UNL     1       2.357  28.311  15.406  1.00  0.00     0.141 C 
BRANCH  11  12
HETATM   12  C3  UNL     1       1.461  29.242  14.601  1.00  0.00     0.140 C 
BRANCH  12  13
HETATM   13  N1  UNL     1       1.879  29.321  13.238  1.00  0.00    -0.402 N 
HETATM   14  C1  UNL     1       2.107  28.253  12.590  1.00  0.00     0.114 C 
HETATM   15  C2  UNL     1       2.028  30.607  12.640  1.00  0.00     0.148 C 
ENDBRANCH  12  13
ENDBRANCH  11  12
ENDBRANCH   9  11
ENDBRANCH   1   9
BRANCH   6  16
HETATM   16  N4  UNL     1       7.953  29.831  14.146  1.00  0.00    -0.234 N 
ATOM     17  H42 UNL     1       8.816  29.820  14.690  1.00  0.00     0.174 HD
ATOM     18  H41 UNL     1       7.882  30.506  13.385  1.00  0.00     0.174 HD
ENDBRANCH   6  16
TORSDOF 5
ENDMDL
MODEL 4
REMARK VINA RESULT: -4.733777241      2.117      3.528
REMARK  5 active torsions:
REMARK  status: ('A' for Active; 'I' for Inactive)
REMARK    1  A    between atoms: N1_2  and  C3_4 
REMARK    2  A    between atoms: C3_4  and  C4_5 
REMARK    3  A    between atoms: C4_5  and  N2_6 
REMARK    4  A    between atoms: N2_6  and  C5_8 
REMARK    5  A    between atoms: C8_13  and  N4_14 
ROOT
HETATM    1  C5  UNL     1       4.943  28.830  14.888  1.00  0.00     0.118 A 
HETATM    2  C6  UNL     1       5.089  27.462  14.629  1.00  0.00     0.066 A 
HETATM    3  C7  UNL     1       6.294  26.982  14.211  1.00  0.00     0.110 A 
HETATM    4  N3  UNL     1       7.333  27.824  14.051  1.00  0.00    -0.202 N 
ATOM      5  H3  UNL     1       8.229  27.451  13.738  1.00  0.00     0.183 HD
HETATM    6  C8  UNL     1       7.222  29.143  14.292  1.00  0.00     0.677 A 
HETATM    7  N5  UNL     1       6.020  29.607  14.706  1.00  0.00    -0.177 N 
ATOM      8  H5  UNL     1       5.928  30.607  14.890  1.00  0.00     0.185 HD
ENDROOT
BRANCH   1   9
HETATM    9  N2  UNL     1       3.796  29.204  15.272  1.00  0.00    -0.374 N 
ATOM     10  H2  UNL     1       3.558  30.172  15.056  1.00  0.00     0.161 HD
BRANCH   9  11
HETATM   11  C4  UNL     1       2.792  28.467  15.960  1.00  0.00     0.141 C 
BRANCH  11  12
HETATM   12  C3  UNL     1       1.483  28.609  15.197  1.00  0.00     0.140 C 
BRANCH  12  13
HETATM   13  N1  UNL     1       1.349  27.601  14.194  1.00  0.00    -0.402 N 
HETATM   14  C1  UNL     1       0.731  26.526  14.465  1.00  0.00     0.114 C 
HETATM   15  C2  UNL     1       1.921  27.833  12.909  1.00  0.00     0.148 C 
ENDBRANCH  12  13
ENDBRANCH  11  12
ENDBRANCH   9  11
ENDBRANCH   1   9
BRANCH   6  16
HETATM   16  N4  UNL     1       8.252  29.868  14.116  1.00  0.00    -0.234 N 
ATOM     17  H42 UNL     1       8.284  30.686  13.508  1.00  0.00     0.174 HD
ATOM     18  H41 UNL     1       9.104  29.615  14.617  1.00  0.00     0.174 HD
ENDBRANCH   6  16
TORSDOF 5
ENDMDL
MODEL 5
REMARK VINA RESULT: -4.587743790      1.962      3.423
REMARK  5 active torsions:
REMARK  status: ('A' for Active; 'I' for Inactive)
REMARK    1  A    between atoms: N1_2  and  C3_4 
REMARK    2  A    between atoms: C3_4  and  C4_5 
REMARK    3  A    between atoms: C4_5  and  N2_6 
REMARK    4  A    between atoms: N2_6  and  C5_8 
REMARK    5  A    between atoms: C8_13  and  N4_14 
ROOT
HETATM    1  C5  UNL     1       4.840  29.289  14.450  1.00  0.00     0.118 A 
HETATM    2  C6  UNL     1       5.792  30.316  14.432  1.00  0.00     0.066 A 
HETATM    3  C7  UNL     1       7.117  30.003  14.372  1.00  0.00     0.110 A 
HETATM    4  N3  UNL     1       7.501  28.713  14.332  1.00  0.00    -0.202 N 
ATOM      5  H3  UNL     1       8.496  28.494  14.288  1.00  0.00     0.183 HD
HETATM    6  C8  UNL     1       6.609  27.706  14.348  1.00  0.00     0.677 A 
HETATM    7  N5  UNL     1       5.296  28.029  14.408  1.00  0.00    -0.177 N 
ATOM      8  H5  UNL     1       4.614  27.270  14.422  1.00  0.00     0.185 HD
ENDROOT
BRANCH   1   9
HETATM    9  N2  UNL     1       3.630  29.654  14.506  1.00  0.00    -0.374 N 
ATOM     10  H2  UNL     1       3.457  30.517  15.021  1.00  0.00     0.161 HD
BRANCH   9  11
HETATM   11  C4  UNL     1       2.475  29.031  13.954  1.00  0.00     0.141 C 
BRANCH  11  12
HETATM   12  C3  UNL     1       1.741  28.302  15.071  1.00  0.00     0.140 C 
BRANCH  12  13
HETATM   13  N1  UNL     1       1.583  26.914  14.774  1.00  0.00    -0.402 N 
HETATM   14  C1  UNL     1       0.426  26.454  14.527  1.00  0.00     0.114 C 
HETATM   15  C2  UNL     1       2.739  26.079  14.766  1.00  0.00     0.148 C 
ENDBRANCH  12  13
ENDBRANCH  11  12
ENDBRANCH   9  11
ENDBRANCH   1   9
BRANCH   6  16
HETATM   16  N4  UNL     1       7.056  26.516  14.307  1.00  0.00    -0.234 N 
ATOM     17  H42 UNL     1       7.750  26.138  14.952  1.00  0.00     0.174 HD
ATOM     18  H41 UNL     1       6.697  25.896  13.581  1.00  0.00     0.174 HD
ENDBRANCH   6  16
TORSDOF 5
ENDMDL
