MODEL 1
REMARK VINA RESULT: -5.985089453      0.000      0.000
REMARK  10 active torsions:
REMARK  status: ('A' for Active; 'I' for Inactive)
REMARK    1  A    between atoms: C2_2  and  O1_4 
REMARK    2  A    between atoms: C2_2  and  C4_6 
REMARK    3  A    between atoms: C4_6  and  O3_8 
REMARK    4  A    between atoms: O3_8  and  C5_9 
REMARK    5  A    between atoms: C7_11  and  O4_12 
REMARK    6  A    between atoms: O4_12  and  C8_13 
REMARK    7  A    between atoms: C9_15  and  N1_16 
REMARK    8  A    between atoms: C11_21  and  N2_22 
REMARK    9  A    between atoms: C12_26  and  N3_27 
REMARK   10  A    between atoms: C14_32  and  N4_33 
ROOT
HETATM    1  C5  UNL     1      37.429  -0.298  12.762  1.00  0.00     0.164 C 
HETATM    2  C6  UNL     1      36.707  -1.342  11.957  1.00  0.00     0.068 C 
HETATM    3  C7  UNL     1      37.105  -2.696  12.503  1.00  0.00     0.157 C 
HETATM    4  C12 UNL     1      38.559  -2.950  12.286  1.00  0.00     0.214 C 
HETATM    5  C13 UNL     1      39.354  -1.703  11.992  1.00  0.00     0.070 C 
HETATM    6  C14 UNL     1      38.919  -0.516  12.789  1.00  0.00     0.215 C 
ENDROOT
BRANCH   3   7
HETATM    7  O4  UNL     1      36.367  -3.695  11.873  1.00  0.00    -0.352 OA
BRANCH   7   8
HETATM    8  C8  UNL     1      35.414  -4.174  12.733  1.00  0.00     0.293 C 
HETATM    9  O5  UNL     1      34.271  -4.487  12.033  1.00  0.00    -0.327 OA
HETATM   10  C9  UNL     1      34.077  -5.838  12.034  1.00  0.00     0.323 C 
HETATM   11  C10 UNL     1      34.580  -6.238  13.428  1.00  0.00     0.099 C 
HETATM   12  C11 UNL     1      35.872  -5.446  13.448  1.00  0.00     0.242 C 
BRANCH  10  13
HETATM   13  N1  UNL     1      32.712  -6.223  11.839  1.00  0.00    -0.053 N 
ATOM     14  H13 UNL     1      32.388  -6.806  12.610  1.00  0.00     0.277 HD
ATOM     15  H12 UNL     1      32.091  -5.422  11.960  1.00  0.00     0.277 HD
ATOM     16  H11 UNL     1      32.540  -6.680  10.944  1.00  0.00     0.277 HD
ENDBRANCH  10  13
BRANCH  12  17
HETATM   17  N2  UNL     1      36.855  -6.160  12.658  1.00  0.00    -0.070 N 
ATOM     18  H23 UNL     1      36.451  -6.980  12.204  1.00  0.00     0.274 HD
ATOM     19  H22 UNL     1      37.120  -5.636  11.824  1.00  0.00     0.274 HD
ATOM     20  H21 UNL     1      37.668  -6.406  13.222  1.00  0.00     0.274 HD
ENDBRANCH  12  17
ENDBRANCH   7   8
ENDBRANCH   3   7
BRANCH   4  21
HETATM   21  N3  UNL     1      39.070  -3.661  13.442  1.00  0.00    -0.072 N 
ATOM     22  H33 UNL     1      38.528  -4.496  13.663  1.00  0.00     0.274 HD
ATOM     23  H32 UNL     1      39.962  -4.120  13.259  1.00  0.00     0.274 HD
ATOM     24  H31 UNL     1      39.119  -3.005  14.222  1.00  0.00     0.274 HD
ENDBRANCH   4  21
BRANCH   1  25
HETATM   25  O3  UNL     1      37.089   0.971  12.186  1.00  0.00    -0.311 OA
BRANCH  25  26
HETATM   26  C4  UNL     1      36.503   1.974  12.903  1.00  0.00     0.293 C 
HETATM   27  O2  UNL     1      35.329   1.864  13.326  1.00  0.00    -0.262 OA
BRANCH  26  28
HETATM   28  C2  UNL     1      37.251   3.217  13.196  1.00  0.00     0.138 C 
HETATM   29  C1  UNL     1      37.964   2.981  14.533  1.00  0.00     0.056 C 
HETATM   30  C3  UNL     1      36.349   4.396  13.387  1.00  0.00     0.056 C 
BRANCH  28  31
HETATM   31  O1  UNL     1      38.256   3.442  12.257  1.00  0.00    -0.380 OA
ATOM     32  H1  UNL     1      37.859   3.960  11.566  1.00  0.00     0.211 HD
ENDBRANCH  28  31
ENDBRANCH  26  28
ENDBRANCH  25  26
ENDBRANCH   1  25
BRANCH   6  33
HETATM   33  N4  UNL     1      39.543   0.663  12.212  1.00  0.00    -0.072 N 
ATOM     34  H43 UNL     1      39.105   0.957  11.339  1.00  0.00     0.274 HD
ATOM     35  H42 UNL     1      39.360   1.512  12.746  1.00  0.00     0.274 HD
ATOM     36  H41 UNL     1      40.538   0.464  12.110  1.00  0.00     0.274 HD
ENDBRANCH   6  33
TORSDOF 10
ENDMDL
MODEL 2
REMARK VINA RESULT: -5.727235355      3.784      6.483
REMARK  10 active torsions:
REMARK  status: ('A' for Active; 'I' for Inactive)
REMARK    1  A    between atoms: C2_2  and  O1_4 
REMARK    2  A    between atoms: C2_2  and  C4_6 
REMARK    3  A    between atoms: C4_6  and  O3_8 
REMARK    4  A    between atoms: O3_8  and  C5_9 
REMARK    5  A    between atoms: C7_11  and  O4_12 
REMARK    6  A    between atoms: O4_12  and  C8_13 
REMARK    7  A    between atoms: C9_15  and  N1_16 
REMARK    8  A    between atoms: C11_21  and  N2_22 
REMARK    9  A    between atoms: C12_26  and  N3_27 
REMARK   10  A    between atoms: C14_32  and  N4_33 
ROOT
HETATM    1  C5  UNL     1      35.093  -5.842  12.167  1.00  0.00     0.164 C 
HETATM    2  C6  UNL     1      35.683  -6.991  11.398  1.00  0.00     0.068 C 
HETATM    3  C7  UNL     1      34.760  -8.177  11.568  1.00  0.00     0.157 C 
HETATM    4  C12 UNL     1      34.719  -8.621  12.991  1.00  0.00     0.214 C 
HETATM    5  C13 UNL     1      35.224  -7.584  13.962  1.00  0.00     0.070 C 
HETATM    6  C14 UNL     1      34.823  -6.188  13.608  1.00  0.00     0.215 C 
ENDROOT
BRANCH   3   7
HETATM    7  O4  UNL     1      35.196  -9.233  10.772  1.00  0.00    -0.352 OA
BRANCH   7   8
HETATM    8  C8  UNL     1      34.427  -9.306   9.640  1.00  0.00     0.293 C 
HETATM    9  O5  UNL     1      35.235  -9.285   8.527  1.00  0.00    -0.327 OA
HETATM   10  C9  UNL     1      35.192 -10.495   7.896  1.00  0.00     0.323 C 
HETATM   11  C10 UNL     1      33.734 -10.922   8.110  1.00  0.00     0.099 C 
HETATM   12  C11 UNL     1      33.606 -10.595   9.584  1.00  0.00     0.242 C 
BRANCH  10  13
HETATM   13  N1  UNL     1      35.521 -10.430   6.504  1.00  0.00    -0.053 N 
ATOM     14  H13 UNL     1      36.234  -9.720   6.335  1.00  0.00     0.277 HD
ATOM     15  H12 UNL     1      36.038 -11.262   6.217  1.00  0.00     0.277 HD
ATOM     16  H11 UNL     1      34.714 -10.280   5.900  1.00  0.00     0.277 HD
ENDBRANCH  10  13
BRANCH  12  17
HETATM   17  N2  UNL     1      34.248 -11.651  10.342  1.00  0.00    -0.070 N 
ATOM     18  H23 UNL     1      35.260 -11.528  10.379  1.00  0.00     0.274 HD
ATOM     19  H22 UNL     1      34.046 -11.575  11.339  1.00  0.00     0.274 HD
ATOM     20  H21 UNL     1      33.994 -12.569   9.976  1.00  0.00     0.274 HD
ENDBRANCH  12  17
ENDBRANCH   7   8
ENDBRANCH   3   7
BRANCH   4  21
HETATM   21  N3  UNL     1      33.364  -9.036  13.296  1.00  0.00    -0.072 N 
ATOM     22  H33 UNL     1      33.020  -8.646  14.174  1.00  0.00     0.274 HD
ATOM     23  H32 UNL     1      32.673  -8.612  12.678  1.00  0.00     0.274 HD
ATOM     24  H31 UNL     1      33.333 -10.056  13.280  1.00  0.00     0.274 HD
ENDBRANCH   4  21
BRANCH   1  25
HETATM   25  O3  UNL     1      36.016  -4.750  12.048  1.00  0.00    -0.311 OA
BRANCH  25  26
HETATM   26  C4  UNL     1      35.639  -3.508  11.629  1.00  0.00     0.293 C 
HETATM   27  O2  UNL     1      34.853  -3.362  10.664  1.00  0.00    -0.262 OA
BRANCH  26  28
HETATM   28  C2  UNL     1      36.154  -2.301  12.315  1.00  0.00     0.138 C 
HETATM   29  C1  UNL     1      35.312  -1.126  11.803  1.00  0.00     0.056 C 
HETATM   30  C3  UNL     1      37.577  -2.005  11.958  1.00  0.00     0.056 C 
BRANCH  28  31
HETATM   31  O1  UNL     1      35.936  -2.362  13.690  1.00  0.00    -0.380 OA
ATOM     32  H1  UNL     1      36.793  -2.455  14.089  1.00  0.00     0.211 HD
ENDBRANCH  28  31
ENDBRANCH  26  28
ENDBRANCH  25  26
ENDBRANCH   1  25
BRANCH   6  33
HETATM   33  N4  UNL     1      35.603  -5.277  14.429  1.00  0.00    -0.072 N 
ATOM     34  H43 UNL     1      36.607  -5.450  14.370  1.00  0.00     0.274 HD
ATOM     35  H42 UNL     1      35.610  -4.323  14.068  1.00  0.00     0.274 HD
ATOM     36  H41 UNL     1      35.244  -5.339  15.382  1.00  0.00     0.274 HD
ENDBRANCH   6  33
TORSDOF 10
ENDMDL
MODEL 3
REMARK VINA RESULT: -5.600373224      3.048      4.161
REMARK  10 active torsions:
REMARK  status: ('A' for Active; 'I' for Inactive)
REMARK    1  A    between atoms: C2_2  and  O1_4 
REMARK    2  A    between atoms: C2_2  and  C4_6 
REMARK    3  A    between atoms: C4_6  and  O3_8 
REMARK    4  A    between atoms: O3_8  and  C5_9 
REMARK    5  A    between atoms: C7_11  and  O4_12 
REMARK    6  A    between atoms: O4_12  and  C8_13 
REMARK    7  A    between atoms: C9_15  and  N1_16 
REMARK    8  A    between atoms: C11_21  and  N2_22 
REMARK    9  A    between atoms: C12_26  and  N3_27 
REMARK   10  A    between atoms: C14_32  and  N4_33 
ROOT
HETATM    1  C5  UNL     1      37.143  -2.183  13.138  1.00  0.00     0.164 C 
HETATM    2  C6  UNL     1      36.084  -3.044  13.769  1.00  0.00     0.068 C 
HETATM    3  C7  UNL     1      35.535  -3.955  12.693  1.00  0.00     0.157 C 
HETATM    4  C12 UNL     1      34.840  -3.168  11.633  1.00  0.00     0.214 C 
HETATM    5  C13 UNL     1      35.198  -1.703  11.634  1.00  0.00     0.070 C 
HETATM    6  C14 UNL     1      36.641  -1.442  11.927  1.00  0.00     0.215 C 
ENDROOT
BRANCH   3   7
HETATM    7  O4  UNL     1      34.637  -4.860  13.253  1.00  0.00    -0.352 OA
BRANCH   7   8
HETATM    8  C8  UNL     1      35.082  -6.139  13.042  1.00  0.00     0.293 C 
HETATM    9  O5  UNL     1      34.973  -6.868  14.204  1.00  0.00    -0.327 OA
HETATM   10  C9  UNL     1      34.014  -7.829  14.064  1.00  0.00     0.323 C 
HETATM   11  C10 UNL     1      34.178  -8.241  12.595  1.00  0.00     0.099 C 
HETATM   12  C11 UNL     1      34.263  -6.863  11.972  1.00  0.00     0.242 C 
BRANCH  10  13
HETATM   13  N1  UNL     1      34.187  -8.945  14.944  1.00  0.00    -0.053 N 
ATOM     14  H13 UNL     1      34.499  -9.767  14.427  1.00  0.00     0.277 HD
ATOM     15  H12 UNL     1      34.998  -8.806  15.548  1.00  0.00     0.277 HD
ATOM     16  H11 UNL     1      33.358  -9.162  15.498  1.00  0.00     0.277 HD
ENDBRANCH  10  13
BRANCH  12  17
HETATM   17  N2  UNL     1      32.922  -6.318  11.889  1.00  0.00    -0.070 N 
ATOM     18  H23 UNL     1      32.709  -5.718  12.686  1.00  0.00     0.274 HD
ATOM     19  H22 UNL     1      32.843  -5.623  11.146  1.00  0.00     0.274 HD
ATOM     20  H21 UNL     1      32.232  -7.061  11.783  1.00  0.00     0.274 HD
ENDBRANCH  12  17
ENDBRANCH   7   8
ENDBRANCH   3   7
BRANCH   4  21
HETATM   21  N3  UNL     1      35.113  -3.794  10.354  1.00  0.00    -0.072 N 
ATOM     22  H33 UNL     1      34.810  -4.768  10.318  1.00  0.00     0.274 HD
ATOM     23  H32 UNL     1      34.518  -3.438   9.606  1.00  0.00     0.274 HD
ATOM     24  H31 UNL     1      36.107  -3.683  10.152  1.00  0.00     0.274 HD
ENDBRANCH   4  21
BRANCH   1  25
HETATM   25  O3  UNL     1      37.602  -1.284  14.157  1.00  0.00    -0.311 OA
BRANCH  25  26
HETATM   26  C4  UNL     1      38.523  -1.642  15.097  1.00  0.00     0.293 C 
HETATM   27  O2  UNL     1      39.654  -2.068  14.765  1.00  0.00    -0.262 OA
BRANCH  26  28
HETATM   28  C2  UNL     1      38.200  -1.531  16.538  1.00  0.00     0.138 C 
HETATM   29  C1  UNL     1      38.901  -0.261  17.036  1.00  0.00     0.056 C 
HETATM   30  C3  UNL     1      38.749  -2.672  17.336  1.00  0.00     0.056 C 
BRANCH  28  31
HETATM   31  O1  UNL     1      36.837  -1.325  16.742  1.00  0.00    -0.380 OA
ATOM     32  H1  UNL     1      36.447  -2.189  16.800  1.00  0.00     0.211 HD
ENDBRANCH  28  31
ENDBRANCH  26  28
ENDBRANCH  25  26
ENDBRANCH   1  25
BRANCH   6  33
HETATM   33  N4  UNL     1      36.792  -0.021  12.190  1.00  0.00    -0.072 N 
ATOM     34  H43 UNL     1      36.158   0.319  12.915  1.00  0.00     0.274 HD
ATOM     35  H42 UNL     1      37.667   0.205  12.663  1.00  0.00     0.274 HD
ATOM     36  H41 UNL     1      36.681   0.469  11.303  1.00  0.00     0.274 HD
ENDBRANCH   6  33
TORSDOF 10
ENDMDL
MODEL 4
REMARK VINA RESULT: -5.546184194      1.433      1.530
REMARK  10 active torsions:
REMARK  status: ('A' for Active; 'I' for Inactive)
REMARK    1  A    between atoms: C2_2  and  O1_4 
REMARK    2  A    between atoms: C2_2  and  C4_6 
REMARK    3  A    between atoms: C4_6  and  O3_8 
REMARK    4  A    between atoms: O3_8  and  C5_9 
REMARK    5  A    between atoms: C7_11  and  O4_12 
REMARK    6  A    between atoms: O4_12  and  C8_13 
REMARK    7  A    between atoms: C9_15  and  N1_16 
REMARK    8  A    between atoms: C11_21  and  N2_22 
REMARK    9  A    between atoms: C12_26  and  N3_27 
REMARK   10  A    between atoms: C14_32  and  N4_33 
ROOT
HETATM    1  C5  UNL     1      37.574  -0.873  13.641  1.00  0.00     0.164 C 
HETATM    2  C6  UNL     1      37.223  -2.017  12.730  1.00  0.00     0.068 C 
HETATM    3  C7  UNL     1      36.954  -3.226  13.598  1.00  0.00     0.157 C 
HETATM    4  C12 UNL     1      38.189  -3.648  14.322  1.00  0.00     0.214 C 
HETATM    5  C13 UNL     1      39.254  -2.581  14.373  1.00  0.00     0.070 C 
HETATM    6  C14 UNL     1      38.710  -1.203  14.574  1.00  0.00     0.215 C 
ENDROOT
BRANCH   3   7
HETATM    7  O4  UNL     1      36.502  -4.282  12.811  1.00  0.00    -0.352 OA
BRANCH   7   8
HETATM    8  C8  UNL     1      35.413  -4.865  13.404  1.00  0.00     0.293 C 
HETATM    9  O5  UNL     1      34.338  -4.821  12.546  1.00  0.00    -0.327 OA
HETATM   10  C9  UNL     1      34.021  -6.082  12.130  1.00  0.00     0.323 C 
HETATM   11  C10 UNL     1      34.315  -6.921  13.381  1.00  0.00     0.099 C 
HETATM   12  C11 UNL     1      35.662  -6.334  13.747  1.00  0.00     0.242 C 
BRANCH  10  13
HETATM   13  N1  UNL     1      32.659  -6.224  11.711  1.00  0.00    -0.053 N 
ATOM     14  H13 UNL     1      32.050  -5.610  12.252  1.00  0.00     0.277 HD
ATOM     15  H12 UNL     1      32.524  -5.822  10.782  1.00  0.00     0.277 HD
ATOM     16  H11 UNL     1      32.320  -7.185  11.740  1.00  0.00     0.277 HD
ENDBRANCH  10  13
BRANCH  12  17
HETATM   17  N2  UNL     1      36.663  -6.909  12.869  1.00  0.00    -0.070 N 
ATOM     18  H23 UNL     1      37.351  -7.454  13.388  1.00  0.00     0.274 HD
ATOM     19  H22 UNL     1      36.274  -7.656  12.294  1.00  0.00     0.274 HD
ATOM     20  H21 UNL     1      37.106  -6.188  12.300  1.00  0.00     0.274 HD
ENDBRANCH  12  17
ENDBRANCH   7   8
ENDBRANCH   3   7
BRANCH   4  21
HETATM   21  N3  UNL     1      37.805  -4.097  15.646  1.00  0.00    -0.072 N 
ATOM     22  H33 UNL     1      38.548  -4.613  16.117  1.00  0.00     0.274 HD
ATOM     23  H32 UNL     1      37.725  -3.330  16.314  1.00  0.00     0.274 HD
ATOM     24  H31 UNL     1      36.944  -4.637  15.561  1.00  0.00     0.274 HD
ENDBRANCH   4  21
BRANCH   1  25
HETATM   25  O3  UNL     1      37.890   0.242  12.796  1.00  0.00    -0.311 OA
BRANCH  25  26
HETATM   26  C4  UNL     1      36.957   1.157  12.402  1.00  0.00     0.293 C 
HETATM   27  O2  UNL     1      36.085   0.866  11.551  1.00  0.00    -0.262 OA
BRANCH  26  28
HETATM   28  C2  UNL     1      36.959   2.521  12.980  1.00  0.00     0.138 C 
HETATM   29  C1  UNL     1      38.432   2.935  13.090  1.00  0.00     0.056 C 
HETATM   30  C3  UNL     1      36.393   2.555  14.365  1.00  0.00     0.056 C 
BRANCH  28  31
HETATM   31  O1  UNL     1      36.362   3.441  12.120  1.00  0.00    -0.380 OA
ATOM     32  H1  UNL     1      36.448   3.078  11.247  1.00  0.00     0.211 HD
ENDBRANCH  28  31
ENDBRANCH  26  28
ENDBRANCH  25  26
ENDBRANCH   1  25
BRANCH   6  33
HETATM   33  N4  UNL     1      39.781  -0.258  14.310  1.00  0.00    -0.072 N 
ATOM     34  H43 UNL     1      40.264  -0.440  13.430  1.00  0.00     0.274 HD
ATOM     35  H42 UNL     1      39.440   0.677  14.083  1.00  0.00     0.274 HD
ATOM     36  H41 UNL     1      40.405  -0.268  15.116  1.00  0.00     0.274 HD
ENDBRANCH   6  33
TORSDOF 10
ENDMDL
MODEL 5
REMARK VINA RESULT: -5.467657322      2.748      6.951
REMARK  10 active torsions:
REMARK  status: ('A' for Active; 'I' for Inactive)
REMARK    1  A    between atoms: C2_2  and  O1_4 
REMARK    2  A    between atoms: C2_2  and  C4_6 
REMARK    3  A    between atoms: C4_6  and  O3_8 
REMARK    4  A    between atoms: O3_8  and  C5_9 
REMARK    5  A    between atoms: C7_11  and  O4_12 
REMARK    6  A    between atoms: O4_12  and  C8_13 
REMARK    7  A    between atoms: C9_15  and  N1_16 
REMARK    8  A    between atoms: C11_21  and  N2_22 
REMARK    9  A    between atoms: C12_26  and  N3_27 
REMARK   10  A    between atoms: C14_32  and  N4_33 
ROOT
HETATM    1  C5  UNL     1      36.128  -3.175  12.752  1.00  0.00     0.164 C 
HETATM    2  C6  UNL     1      37.523  -2.642  12.927  1.00  0.00     0.068 C 
HETATM    3  C7  UNL     1      37.409  -1.194  13.351  1.00  0.00     0.157 C 
HETATM    4  C12 UNL     1      36.792  -0.370  12.271  1.00  0.00     0.214 C 
HETATM    5  C13 UNL     1      36.057  -1.183  11.235  1.00  0.00     0.070 C 
HETATM    6  C14 UNL     1      35.303  -2.340  11.809  1.00  0.00     0.215 C 
ENDROOT
BRANCH   3   7
HETATM    7  O4  UNL     1      38.672  -0.688  13.647  1.00  0.00    -0.352 OA
BRANCH   7   8
HETATM    8  C8  UNL     1      38.727  -0.334  14.970  1.00  0.00     0.293 C 
HETATM    9  O5  UNL     1      37.767  -1.022  15.676  1.00  0.00    -0.327 OA
HETATM   10  C9  UNL     1      38.359  -1.915  16.521  1.00  0.00     0.323 C 
HETATM   11  C10 UNL     1      39.624  -1.163  16.955  1.00  0.00     0.099 C 
HETATM   12  C11 UNL     1      40.081  -0.666  15.599  1.00  0.00     0.242 C 
BRANCH  10  13
HETATM   13  N1  UNL     1      37.546  -2.269  17.645  1.00  0.00    -0.053 N 
ATOM     14  H13 UNL     1      37.915  -1.853  18.501  1.00  0.00     0.277 HD
ATOM     15  H12 UNL     1      36.644  -1.794  17.601  1.00  0.00     0.277 HD
ATOM     16  H11 UNL     1      37.419  -3.274  17.759  1.00  0.00     0.277 HD
ENDBRANCH  10  13
BRANCH  12  17
HETATM   17  N2  UNL     1      40.719  -1.766  14.903  1.00  0.00    -0.070 N 
ATOM     18  H23 UNL     1      40.952  -2.530  15.539  1.00  0.00     0.274 HD
ATOM     19  H22 UNL     1      40.064  -2.261  14.299  1.00  0.00     0.274 HD
ATOM     20  H21 UNL     1      41.538  -1.445  14.387  1.00  0.00     0.274 HD
ENDBRANCH  12  17
ENDBRANCH   7   8
ENDBRANCH   3   7
BRANCH   4  21
HETATM   21  N3  UNL     1      35.936   0.621  12.892  1.00  0.00    -0.072 N 
ATOM     22  H33 UNL     1      35.257   0.210  13.533  1.00  0.00     0.274 HD
ATOM     23  H32 UNL     1      36.431   1.200  13.571  1.00  0.00     0.274 HD
ATOM     24  H31 UNL     1      35.497   1.170  12.153  1.00  0.00     0.274 HD
ENDBRANCH   4  21
BRANCH   1  25
HETATM   25  O3  UNL     1      36.259  -4.525  12.287  1.00  0.00    -0.311 OA
BRANCH  25  26
HETATM   26  C4  UNL     1      35.685  -5.585  12.926  1.00  0.00     0.293 C 
HETATM   27  O2  UNL     1      35.821  -5.746  14.162  1.00  0.00    -0.262 OA
BRANCH  26  28
HETATM   28  C2  UNL     1      34.885  -6.571  12.165  1.00  0.00     0.138 C 
HETATM   29  C1  UNL     1      34.102  -7.381  13.207  1.00  0.00     0.056 C 
HETATM   30  C3  UNL     1      35.739  -7.542  11.412  1.00  0.00     0.056 C 
BRANCH  28  31
HETATM   31  O1  UNL     1      33.930  -5.946  11.365  1.00  0.00    -0.380 OA
ATOM     32  H1  UNL     1      33.434  -6.643  10.954  1.00  0.00     0.211 HD
ENDBRANCH  28  31
ENDBRANCH  26  28
ENDBRANCH  25  26
ENDBRANCH   1  25
BRANCH   6  33
HETATM   33  N4  UNL     1      34.896  -3.196  10.708  1.00  0.00    -0.072 N 
ATOM     34  H43 UNL     1      34.485  -2.678   9.932  1.00  0.00     0.274 HD
ATOM     35  H42 UNL     1      35.686  -3.594  10.200  1.00  0.00     0.274 HD
ATOM     36  H41 UNL     1      34.270  -3.907  11.088  1.00  0.00     0.274 HD
ENDBRANCH   6  33
TORSDOF 10
ENDMDL
