MODEL 1
REMARK VINA RESULT: -5.780268624      0.000      0.000
REMARK  7 active torsions:
REMARK  status: ('A' for Active; 'I' for Inactive)
REMARK    1  A    between atoms: O1_2  and  C2_3 
REMARK    2  A    between atoms: C4_5  and  O2_6 
REMARK    3  A    between atoms: C5_8  and  O3_9 
REMARK    4  A    between atoms: O3_9  and  C6_10 
REMARK       I    between atoms: C6_10  and  N1_12 
REMARK    5  A    between atoms: N1_12  and  N2_14 
REMARK    6  A    between atoms: C7_17  and  S1_18 
REMARK    7  A    between atoms: C8_22  and  C9_23 
ROOT
HETATM    1  C2  UNL     1      37.099  -0.964  12.651  1.00  0.00     0.087 A 
HETATM    2  C3  UNL     1      36.175  -1.348  11.721  1.00  0.00     0.077 A 
HETATM    3  C4  UNL     1      35.833  -2.670  11.573  1.00  0.00     0.104 A 
HETATM    4  C5  UNL     1      36.408  -3.648  12.351  1.00  0.00     0.139 A 
HETATM    5  C7  UNL     1      37.353  -3.270  13.304  1.00  0.00     0.135 A 
HETATM    6  C8  UNL     1      37.701  -1.947  13.462  1.00  0.00     0.089 A 
ENDROOT
BRANCH   4   7
HETATM    7  O3  UNL     1      36.027  -4.979  12.161  1.00  0.00    -0.256 OA
BRANCH   7   8
HETATM    8  C6  UNL     1      34.684  -5.337  12.409  1.00  0.00     0.384 C 
HETATM    9  O4  UNL     1      34.229  -5.078  13.550  1.00  0.00    -0.236 OA
HETATM   10  N1  UNL     1      33.899  -5.963  11.391  1.00  0.00    -0.252 N 
ATOM     11  H1  UNL     1      34.285  -6.165  10.469  1.00  0.00     0.191 HD
BRANCH  10  12
HETATM   12  N2  UNL     1      32.577  -6.287  11.715  1.00  0.00    -0.341 N 
ATOM     13  H22 UNL     1      32.220  -6.127  12.657  1.00  0.00     0.177 HD
ATOM     14  H21 UNL     1      32.001  -6.683  10.973  1.00  0.00     0.177 HD
ENDBRANCH  10  12
ENDBRANCH   7   8
ENDBRANCH   4   7
BRANCH   3  15
HETATM   15  O2  UNL     1      34.886  -3.079  10.625  1.00  0.00    -0.358 OA
ATOM     16  H2  UNL     1      34.114  -3.573  10.875  1.00  0.00     0.217 HD
ENDBRANCH   3  15
BRANCH   5  17
HETATM   17  S1  UNL     1      38.101  -4.529  14.263  1.00  0.00     0.141 S 
HETATM   18  O5  UNL     1      37.880  -4.174  15.750  1.00  0.00    -0.591 OA
HETATM   19  O6  UNL     1      37.436  -5.836  14.089  1.00  0.00    -0.591 OA
HETATM   20  O7  UNL     1      39.751  -4.642  14.020  1.00  0.00    -0.591 OA
ENDBRANCH   5  17
BRANCH   6  21
HETATM   21  C9  UNL     1      38.642  -1.415  14.408  1.00  0.00     0.269 C 
HETATM   22  N3  UNL     1      38.380  -0.920  15.687  1.00  0.00    -0.057 NA
HETATM   23  O8  UNL     1      39.884  -1.373  14.049  1.00  0.00    -0.271 OA
ENDBRANCH   6  21
BRANCH   1  24
HETATM   24  O1  UNL     1      37.435   0.378  12.791  1.00  0.00    -0.355 OA
HETATM   25  C1  UNL     1      36.402   1.341  12.836  1.00  0.00     0.210 C 
ENDBRANCH   1  24
TORSDOF 7
ENDMDL
MODEL 2
REMARK VINA RESULT: -5.690980084      3.246      4.657
REMARK  7 active torsions:
REMARK  status: ('A' for Active; 'I' for Inactive)
REMARK    1  A    between atoms: O1_2  and  C2_3 
REMARK    2  A    between atoms: C4_5  and  O2_6 
REMARK    3  A    between atoms: C5_8  and  O3_9 
REMARK    4  A    between atoms: O3_9  and  C6_10 
REMARK       I    between atoms: C6_10  and  N1_12 
REMARK    5  A    between atoms: N1_12  and  N2_14 
REMARK    6  A    between atoms: C7_17  and  S1_18 
REMARK    7  A    between atoms: C8_22  and  C9_23 
ROOT
HETATM    1  C2  UNL     1      35.552  -4.901  12.542  1.00  0.00     0.087 A 
HETATM    2  C3  UNL     1      34.256  -4.996  12.119  1.00  0.00     0.077 A 
HETATM    3  C4  UNL     1      33.606  -6.206  12.109  1.00  0.00     0.104 A 
HETATM    4  C5  UNL     1      34.235  -7.358  12.522  1.00  0.00     0.139 A 
HETATM    5  C7  UNL     1      35.557  -7.275  12.955  1.00  0.00     0.135 A 
HETATM    6  C8  UNL     1      36.216  -6.067  12.971  1.00  0.00     0.089 A 
ENDROOT
BRANCH   4   7
HETATM    7  O3  UNL     1      33.530  -8.565  12.493  1.00  0.00    -0.256 OA
BRANCH   7   8
HETATM    8  C6  UNL     1      33.391  -9.234  11.257  1.00  0.00     0.384 C 
HETATM    9  O4  UNL     1      32.324  -9.871  11.073  1.00  0.00    -0.236 OA
HETATM   10  N1  UNL     1      34.430  -9.173  10.277  1.00  0.00    -0.252 N 
ATOM     11  H1  UNL     1      35.289  -8.650  10.443  1.00  0.00     0.191 HD
BRANCH  10  12
HETATM   12  N2  UNL     1      34.216  -9.862   9.078  1.00  0.00    -0.341 N 
ATOM     13  H22 UNL     1      34.639 -10.778   8.924  1.00  0.00     0.177 HD
ATOM     14  H21 UNL     1      33.628  -9.409   8.380  1.00  0.00     0.177 HD
ENDBRANCH  10  12
ENDBRANCH   7   8
ENDBRANCH   4   7
BRANCH   3  15
HETATM   15  O2  UNL     1      32.277  -6.319  11.680  1.00  0.00    -0.358 OA
ATOM     16  H2  UNL     1      32.055  -6.735  10.855  1.00  0.00     0.217 HD
ENDBRANCH   3  15
BRANCH   5  17
HETATM   17  S1  UNL     1      36.354  -8.754  13.445  1.00  0.00     0.141 S 
HETATM   18  O5  UNL     1      36.942  -9.409  12.176  1.00  0.00    -0.591 OA
HETATM   19  O6  UNL     1      37.524  -8.502  14.311  1.00  0.00    -0.591 OA
HETATM   20  O7  UNL     1      35.309  -9.862  14.135  1.00  0.00    -0.591 OA
ENDBRANCH   5  17
BRANCH   6  21
HETATM   21  C9  UNL     1      37.566  -5.833  13.404  1.00  0.00     0.269 C 
HETATM   22  N3  UNL     1      37.998  -5.406  14.661  1.00  0.00    -0.057 NA
HETATM   23  O8  UNL     1      38.509  -6.025  12.539  1.00  0.00    -0.271 OA
ENDBRANCH   6  21
BRANCH   1  24
HETATM   24  O1  UNL     1      36.198  -3.670  12.546  1.00  0.00    -0.355 OA
HETATM   25  C1  UNL     1      35.960  -2.769  11.484  1.00  0.00     0.210 C 
ENDBRANCH   1  24
TORSDOF 7
ENDMDL
MODEL 3
REMARK VINA RESULT: -5.648851630      2.214      4.948
REMARK  7 active torsions:
REMARK  status: ('A' for Active; 'I' for Inactive)
REMARK    1  A    between atoms: O1_2  and  C2_3 
REMARK    2  A    between atoms: C4_5  and  O2_6 
REMARK    3  A    between atoms: C5_8  and  O3_9 
REMARK    4  A    between atoms: O3_9  and  C6_10 
REMARK       I    between atoms: C6_10  and  N1_12 
REMARK    5  A    between atoms: N1_12  and  N2_14 
REMARK    6  A    between atoms: C7_17  and  S1_18 
REMARK    7  A    between atoms: C8_22  and  C9_23 
ROOT
HETATM    1  C2  UNL     1      35.644  -4.689  12.431  1.00  0.00     0.087 A 
HETATM    2  C3  UNL     1      34.876  -3.721  11.847  1.00  0.00     0.077 A 
HETATM    3  C4  UNL     1      35.407  -2.493  11.539  1.00  0.00     0.104 A 
HETATM    4  C5  UNL     1      36.723  -2.195  11.808  1.00  0.00     0.139 A 
HETATM    5  C7  UNL     1      37.517  -3.174  12.404  1.00  0.00     0.135 A 
HETATM    6  C8  UNL     1      36.995  -4.410  12.713  1.00  0.00     0.089 A 
ENDROOT
BRANCH   4   7
HETATM    7  O3  UNL     1      37.215  -0.930  11.477  1.00  0.00    -0.256 OA
BRANCH   7   8
HETATM    8  C6  UNL     1      36.852   0.168  12.288  1.00  0.00     0.384 C 
HETATM    9  O4  UNL     1      36.291   1.135  11.716  1.00  0.00    -0.236 OA
HETATM   10  N1  UNL     1      37.121   0.154  13.692  1.00  0.00    -0.252 N 
ATOM     11  H1  UNL     1      37.577  -0.642  14.139  1.00  0.00     0.191 HD
BRANCH  10  12
HETATM   12  N2  UNL     1      36.731   1.279  14.427  1.00  0.00    -0.341 N 
ATOM     13  H22 UNL     1      36.068   1.948  14.036  1.00  0.00     0.177 HD
ATOM     14  H21 UNL     1      37.138   1.391  15.354  1.00  0.00     0.177 HD
ENDBRANCH  10  12
ENDBRANCH   7   8
ENDBRANCH   4   7
BRANCH   3  15
HETATM   15  O2  UNL     1      34.632  -1.491  10.940  1.00  0.00    -0.358 OA
ATOM     16  H2  UNL     1      34.892  -1.085  10.121  1.00  0.00     0.217 HD
ENDBRANCH   3  15
BRANCH   5  17
HETATM   17  S1  UNL     1      39.180  -2.770  12.770  1.00  0.00     0.141 S 
HETATM   18  O5  UNL     1      39.691  -1.839  11.648  1.00  0.00    -0.591 OA
HETATM   19  O6  UNL     1      39.305  -1.969  14.005  1.00  0.00    -0.591 OA
HETATM   20  O7  UNL     1      40.186  -4.105  12.802  1.00  0.00    -0.591 OA
ENDBRANCH   5  17
BRANCH   6  21
HETATM   21  C9  UNL     1      37.698  -5.511  13.312  1.00  0.00     0.269 C 
HETATM   22  N3  UNL     1      38.271  -6.610  12.667  1.00  0.00    -0.057 NA
HETATM   23  O8  UNL     1      37.818  -5.510  14.599  1.00  0.00    -0.271 OA
ENDBRANCH   6  21
BRANCH   1  24
HETATM   24  O1  UNL     1      35.094  -5.929  12.736  1.00  0.00    -0.355 OA
HETATM   25  C1  UNL     1      33.711  -6.134  12.530  1.00  0.00     0.210 C 
ENDBRANCH   1  24
TORSDOF 7
ENDMDL
MODEL 4
REMARK VINA RESULT: -5.624004135      2.073      4.970
REMARK  7 active torsions:
REMARK  status: ('A' for Active; 'I' for Inactive)
REMARK    1  A    between atoms: O1_2  and  C2_3 
REMARK    2  A    between atoms: C4_5  and  O2_6 
REMARK    3  A    between atoms: C5_8  and  O3_9 
REMARK    4  A    between atoms: O3_9  and  C6_10 
REMARK       I    between atoms: C6_10  and  N1_12 
REMARK    5  A    between atoms: N1_12  and  N2_14 
REMARK    6  A    between atoms: C7_17  and  S1_18 
REMARK    7  A    between atoms: C8_22  and  C9_23 
ROOT
HETATM    1  C2  UNL     1      35.244  -4.920  12.034  1.00  0.00     0.087 A 
HETATM    2  C3  UNL     1      35.017  -3.579  11.912  1.00  0.00     0.077 A 
HETATM    3  C4  UNL     1      35.922  -2.665  12.393  1.00  0.00     0.104 A 
HETATM    4  C5  UNL     1      37.082  -3.067  13.012  1.00  0.00     0.139 A 
HETATM    5  C7  UNL     1      37.327  -4.433  13.144  1.00  0.00     0.135 A 
HETATM    6  C8  UNL     1      36.427  -5.357  12.663  1.00  0.00     0.089 A 
ENDROOT
BRANCH   4   7
HETATM    7  O3  UNL     1      37.971  -2.098  13.485  1.00  0.00    -0.256 OA
BRANCH   7   8
HETATM    8  C6  UNL     1      37.617  -1.364  14.639  1.00  0.00     0.384 C 
HETATM    9  O4  UNL     1      37.669  -0.112  14.554  1.00  0.00    -0.236 OA
HETATM   10  N1  UNL     1      37.220  -2.039  15.835  1.00  0.00    -0.252 N 
ATOM     11  H1  UNL     1      37.183  -3.057  15.885  1.00  0.00     0.191 HD
BRANCH  10  12
HETATM   12  N2  UNL     1      36.884  -1.242  16.935  1.00  0.00    -0.341 N 
ATOM     13  H22 UNL     1      37.323  -0.331  17.068  1.00  0.00     0.177 HD
ATOM     14  H21 UNL     1      36.191  -1.614  17.584  1.00  0.00     0.177 HD
ENDBRANCH  10  12
ENDBRANCH   7   8
ENDBRANCH   4   7
BRANCH   3  15
HETATM   15  O2  UNL     1      35.703  -1.286  12.273  1.00  0.00    -0.358 OA
ATOM     16  H2  UNL     1      35.911  -0.687  12.981  1.00  0.00     0.217 HD
ENDBRANCH   3  15
BRANCH   5  17
HETATM   17  S1  UNL     1      38.791  -4.929  13.964  1.00  0.00     0.141 S 
HETATM   18  O5  UNL     1      38.489  -4.963  15.478  1.00  0.00    -0.591 OA
HETATM   19  O6  UNL     1      39.180  -6.314  13.631  1.00  0.00    -0.591 OA
HETATM   20  O7  UNL     1      40.060  -3.865  13.737  1.00  0.00    -0.591 OA
ENDBRANCH   5  17
BRANCH   6  21
HETATM   21  C9  UNL     1      36.556  -6.787  12.716  1.00  0.00     0.269 C 
HETATM   22  N3  UNL     1      37.023  -7.640  11.713  1.00  0.00    -0.057 NA
HETATM   23  O8  UNL     1      36.194  -7.375  13.810  1.00  0.00    -0.271 OA
ENDBRANCH   6  21
BRANCH   1  24
HETATM   24  O1  UNL     1      34.320  -5.835  11.543  1.00  0.00    -0.355 OA
HETATM   25  C1  UNL     1      33.178  -6.139  12.319  1.00  0.00     0.210 C 
ENDBRANCH   1  24
TORSDOF 7
ENDMDL
MODEL 5
REMARK VINA RESULT: -5.605813189      3.147      5.606
REMARK  7 active torsions:
REMARK  status: ('A' for Active; 'I' for Inactive)
REMARK    1  A    between atoms: O1_2  and  C2_3 
REMARK    2  A    between atoms: C4_5  and  O2_6 
REMARK    3  A    between atoms: C5_8  and  O3_9 
REMARK    4  A    between atoms: O3_9  and  C6_10 
REMARK       I    between atoms: C6_10  and  N1_12 
REMARK    5  A    between atoms: N1_12  and  N2_14 
REMARK    6  A    between atoms: C7_17  and  S1_18 
REMARK    7  A    between atoms: C8_22  and  C9_23 
ROOT
HETATM    1  C2  UNL     1      36.001  -8.166  11.861  1.00  0.00     0.087 A 
HETATM    2  C3  UNL     1      34.787  -7.606  11.579  1.00  0.00     0.077 A 
HETATM    3  C4  UNL     1      34.529  -6.292  11.883  1.00  0.00     0.104 A 
HETATM    4  C5  UNL     1      35.481  -5.498  12.481  1.00  0.00     0.139 A 
HETATM    5  C7  UNL     1      36.724  -6.056  12.774  1.00  0.00     0.135 A 
HETATM    6  C8  UNL     1      36.992  -7.372  12.471  1.00  0.00     0.089 A 
ENDROOT
BRANCH   4   7
HETATM    7  O3  UNL     1      35.170  -4.167  12.771  1.00  0.00    -0.256 OA
BRANCH   7   8
HETATM    8  C6  UNL     1      35.442  -3.183  11.793  1.00  0.00     0.384 C 
HETATM    9  O4  UNL     1      34.760  -3.227  10.740  1.00  0.00    -0.236 OA
HETATM   10  N1  UNL     1      36.450  -2.195  12.018  1.00  0.00    -0.252 N 
ATOM     11  H1  UNL     1      36.993  -2.175  12.881  1.00  0.00     0.191 HD
BRANCH  10  12
HETATM   12  N2  UNL     1      36.659  -1.256  11.002  1.00  0.00    -0.341 N 
ATOM     13  H22 UNL     1      37.256  -1.479  10.205  1.00  0.00     0.177 HD
ATOM     14  H21 UNL     1      36.193  -0.355  11.100  1.00  0.00     0.177 HD
ENDBRANCH  10  12
ENDBRANCH   7   8
ENDBRANCH   4   7
BRANCH   3  15
HETATM   15  O2  UNL     1      33.290  -5.704  11.599  1.00  0.00    -0.358 OA
ATOM     16  H2  UNL     1      32.954  -5.658  10.711  1.00  0.00     0.217 HD
ENDBRANCH   3  15
BRANCH   5  17
HETATM   17  S1  UNL     1      37.913  -5.043  13.564  1.00  0.00     0.141 S 
HETATM   18  O5  UNL     1      37.149  -4.028  14.444  1.00  0.00    -0.591 OA
HETATM   19  O6  UNL     1      38.754  -5.800  14.514  1.00  0.00    -0.591 OA
HETATM   20  O7  UNL     1      38.842  -4.165  12.488  1.00  0.00    -0.591 OA
ENDBRANCH   5  17
BRANCH   6  21
HETATM   21  C9  UNL     1      38.227  -8.070  12.702  1.00  0.00     0.269 C 
HETATM   22  N3  UNL     1      38.545  -8.911  13.771  1.00  0.00    -0.057 NA
HETATM   23  O8  UNL     1      39.172  -7.908  11.834  1.00  0.00    -0.271 OA
ENDBRANCH   6  21
BRANCH   1  24
HETATM   24  O1  UNL     1      36.248  -9.497  11.548  1.00  0.00    -0.355 OA
HETATM   25  C1  UNL     1      35.305 -10.477  11.933  1.00  0.00     0.210 C 
ENDBRANCH   1  24
TORSDOF 7
ENDMDL
