MODEL 1
REMARK VINA RESULT: -5.112390569      0.000      0.000
REMARK  9 active torsions:
REMARK  status: ('A' for Active; 'I' for Inactive)
REMARK    1  A    between atoms: O1_2  and  C2_3 
REMARK    2  A    between atoms: C2_3  and  C3_5 
REMARK    3  A    between atoms: C3_5  and  O3_6 
REMARK    4  A    between atoms: C6_10  and  C7_11 
REMARK    5  A    between atoms: C7_11  and  O4_13 
REMARK    6  A    between atoms: C9_15  and  O5_16 
REMARK    7  A    between atoms: C9_15  and  O6_18 
REMARK    8  A    between atoms: N1_21  and  N2_23 
REMARK    9  A    between atoms: C12_26  and  C13_27 
ROOT
HETATM    1  C3  UNL     1      43.848   6.899   7.960  1.00  0.00     0.186 C 
HETATM    2  C4  UNL     1      43.604   8.357   8.250  1.00  0.00    -0.028 C 
HETATM    3  C5  UNL     1      44.410   8.827   9.440  1.00  0.00     0.048 C 
HETATM    4  C6  UNL     1      42.838   9.163   7.589  1.00  0.00     0.021 C 
HETATM    5  C9  UNL     1      42.109   8.647   6.331  1.00  0.00     0.233 C 
HETATM    6  C11 UNL     1      42.590   7.371   5.880  1.00  0.00     0.086 C 
HETATM    7  N1  UNL     1      42.385   7.067   4.631  1.00  0.00    -0.309 N 
ATOM      8  H1  UNL     1      41.898   7.737   4.037  1.00  0.00     0.186 HD
HETATM    9  C12 UNL     1      43.313   6.376   6.696  1.00  0.00     0.177 C 
ENDROOT
BRANCH   1  10
HETATM   10  C2  UNL     1      43.402   6.075   9.143  1.00  0.00     0.299 C 
HETATM   11  O2  UNL     1      44.174   5.210   9.663  1.00  0.00    -0.261 OA
BRANCH  10  12
HETATM   12  O1  UNL     1      42.150   6.206   9.724  1.00  0.00    -0.324 OA
HETATM   13  C1  UNL     1      41.504   5.143  10.401  1.00  0.00     0.213 C 
ENDBRANCH  10  12
ENDBRANCH   1  10
BRANCH   1  14
HETATM   14  O3  UNL     1      45.247   6.782   7.943  1.00  0.00    -0.374 OA
ATOM     15  H3  UNL     1      45.566   7.666   7.800  1.00  0.00     0.211 HD
ENDBRANCH   1  14
BRANCH   9  16
HETATM   16  C13 UNL     1      42.451   5.182   6.847  1.00  0.00     0.244 C 
HETATM   17  N3  UNL     1      41.015   5.297   6.735  1.00  0.00    -0.061 NA
HETATM   18  O7  UNL     1      42.879   4.028   7.072  1.00  0.00    -0.276 OA
ENDBRANCH   9  16
BRANCH   4  19
HETATM   19  C7  UNL     1      42.551  10.582   7.816  1.00  0.00     0.149 C 
HETATM   20  C8  UNL     1      41.992  11.039   9.109  1.00  0.00     0.044 C 
BRANCH  19  21
HETATM   21  O4  UNL     1      43.656  11.394   7.439  1.00  0.00    -0.391 OA
ATOM     22  H4  UNL     1      43.378  12.282   7.247  1.00  0.00     0.210 HD
ENDBRANCH  19  21
ENDBRANCH   4  19
BRANCH   5  23
HETATM   23  O5  UNL     1      42.414   9.615   5.345  1.00  0.00    -0.357 OA
ATOM     24  H5  UNL     1      42.283  10.443   5.793  1.00  0.00     0.213 HD
ENDBRANCH   5  23
BRANCH   5  25
HETATM   25  O6  UNL     1      40.791   8.649   6.666  1.00  0.00    -0.352 OA
HETATM   26  C10 UNL     1      39.948   9.469   5.977  1.00  0.00     0.206 C 
ENDBRANCH   5  25
BRANCH   7  27
HETATM   27  N2  UNL     1      42.803   5.866   4.080  1.00  0.00    -0.345 N 
ATOM     28  H22 UNL     1      43.773   5.588   4.228  1.00  0.00     0.176 HD
ATOM     29  H21 UNL     1      42.180   5.265   3.540  1.00  0.00     0.176 HD
ENDBRANCH   7  27
TORSDOF 9
ENDMDL
MODEL 2
REMARK VINA RESULT: -4.956289756     14.750     17.396
REMARK  9 active torsions:
REMARK  status: ('A' for Active; 'I' for Inactive)
REMARK    1  A    between atoms: O1_2  and  C2_3 
REMARK    2  A    between atoms: C2_3  and  C3_5 
REMARK    3  A    between atoms: C3_5  and  O3_6 
REMARK    4  A    between atoms: C6_10  and  C7_11 
REMARK    5  A    between atoms: C7_11  and  O4_13 
REMARK    6  A    between atoms: C9_15  and  O5_16 
REMARK    7  A    between atoms: C9_15  and  O6_18 
REMARK    8  A    between atoms: N1_21  and  N2_23 
REMARK    9  A    between atoms: C12_26  and  C13_27 
ROOT
HETATM    1  C3  UNL     1      35.566  -5.654  13.144  1.00  0.00     0.186 C 
HETATM    2  C4  UNL     1      37.055  -5.869  13.052  1.00  0.00    -0.028 C 
HETATM    3  C5  UNL     1      37.790  -4.565  12.838  1.00  0.00     0.048 C 
HETATM    4  C6  UNL     1      37.685  -6.993  13.159  1.00  0.00     0.021 C 
HETATM    5  C9  UNL     1      36.887  -8.279  13.464  1.00  0.00     0.233 C 
HETATM    6  C11 UNL     1      35.532  -8.023  13.866  1.00  0.00     0.086 C 
HETATM    7  N1  UNL     1      34.934  -8.949  14.558  1.00  0.00    -0.309 N 
ATOM      8  H1  UNL     1      35.445  -9.802  14.781  1.00  0.00     0.186 HD
HETATM    9  C12 UNL     1      34.758  -6.799  13.582  1.00  0.00     0.177 C 
ENDROOT
BRANCH   1  10
HETATM   10  C2  UNL     1      35.065  -5.078  11.842  1.00  0.00     0.299 C 
HETATM   11  O2  UNL     1      35.163  -5.734  10.758  1.00  0.00    -0.261 OA
BRANCH  10  12
HETATM   12  O1  UNL     1      34.480  -3.825  11.747  1.00  0.00    -0.324 OA
HETATM   13  C1  UNL     1      35.117  -2.726  11.122  1.00  0.00     0.213 C 
ENDBRANCH  10  12
ENDBRANCH   1  10
BRANCH   1  14
HETATM   14  O3  UNL     1      35.427  -4.616  14.078  1.00  0.00    -0.374 OA
ATOM     15  H3  UNL     1      35.707  -4.990  14.905  1.00  0.00     0.211 HD
ENDBRANCH   1  14
BRANCH   9  16
HETATM   16  C13 UNL     1      33.650  -7.151  12.663  1.00  0.00     0.244 C 
HETATM   17  N3  UNL     1      33.708  -8.362  11.877  1.00  0.00    -0.061 NA
HETATM   18  O7  UNL     1      32.621  -6.458  12.503  1.00  0.00    -0.276 OA
ENDBRANCH   9  16
BRANCH   4  19
HETATM   19  C7  UNL     1      39.121  -7.275  13.076  1.00  0.00     0.149 C 
HETATM   20  C8  UNL     1      39.894  -6.894  11.871  1.00  0.00     0.044 C 
BRANCH  19  21
HETATM   21  O4  UNL     1      39.795  -6.849  14.253  1.00  0.00    -0.391 OA
ATOM     22  H4  UNL     1      39.785  -7.528  14.917  1.00  0.00     0.210 HD
ENDBRANCH  19  21
ENDBRANCH   4  19
BRANCH   5  23
HETATM   23  O5  UNL     1      37.578  -8.851  14.558  1.00  0.00    -0.357 OA
ATOM     24  H5  UNL     1      37.478  -9.787  14.424  1.00  0.00     0.213 HD
ENDBRANCH   5  23
BRANCH   5  25
HETATM   25  O6  UNL     1      36.993  -9.030  12.336  1.00  0.00    -0.352 OA
HETATM   26  C10 UNL     1      37.178 -10.374  12.466  1.00  0.00     0.206 C 
ENDBRANCH   5  25
BRANCH   7  27
HETATM   27  N2  UNL     1      33.628  -8.817  15.003  1.00  0.00    -0.345 N 
ATOM     28  H22 UNL     1      32.893  -9.269  14.459  1.00  0.00     0.176 HD
ATOM     29  H21 UNL     1      33.386  -8.291  15.843  1.00  0.00     0.176 HD
ENDBRANCH   7  27
TORSDOF 9
ENDMDL
MODEL 3
REMARK VINA RESULT: -4.955348494     15.519     18.245
REMARK  9 active torsions:
REMARK  status: ('A' for Active; 'I' for Inactive)
REMARK    1  A    between atoms: O1_2  and  C2_3 
REMARK    2  A    between atoms: C2_3  and  C3_5 
REMARK    3  A    between atoms: C3_5  and  O3_6 
REMARK    4  A    between atoms: C6_10  and  C7_11 
REMARK    5  A    between atoms: C7_11  and  O4_13 
REMARK    6  A    between atoms: C9_15  and  O5_16 
REMARK    7  A    between atoms: C9_15  and  O6_18 
REMARK    8  A    between atoms: N1_21  and  N2_23 
REMARK    9  A    between atoms: C12_26  and  C13_27 
ROOT
HETATM    1  C3  UNL     1      34.276  -8.483  12.743  1.00  0.00     0.186 C 
HETATM    2  C4  UNL     1      34.471  -6.994  12.619  1.00  0.00    -0.028 C 
HETATM    3  C5  UNL     1      33.168  -6.288  12.318  1.00  0.00     0.048 C 
HETATM    4  C6  UNL     1      35.578  -6.342  12.764  1.00  0.00     0.021 C 
HETATM    5  C9  UNL     1      36.859  -7.108  13.157  1.00  0.00     0.233 C 
HETATM    6  C11 UNL     1      36.605  -8.455  13.584  1.00  0.00     0.086 C 
HETATM    7  N1  UNL     1      37.504  -9.017  14.339  1.00  0.00    -0.309 N 
ATOM      8  H1  UNL     1      38.336  -8.485  14.590  1.00  0.00     0.186 HD
HETATM    9  C12 UNL     1      35.410  -9.259  13.262  1.00  0.00     0.177 C 
ENDROOT
BRANCH   1  10
HETATM   10  C2  UNL     1      33.775  -9.031  11.429  1.00  0.00     0.299 C 
HETATM   11  O2  UNL     1      32.718  -9.735  11.377  1.00  0.00    -0.261 OA
BRANCH  10  12
HETATM   12  O1  UNL     1      34.420  -8.807  10.223  1.00  0.00    -0.324 OA
HETATM   13  C1  UNL     1      34.429  -9.753   9.171  1.00  0.00     0.213 C 
ENDBRANCH  10  12
ENDBRANCH   1  10
BRANCH   1  14
HETATM   14  O3  UNL     1      33.194  -8.615  13.628  1.00  0.00    -0.374 OA
ATOM     15  H3  UNL     1      32.771  -7.763  13.627  1.00  0.00     0.211 HD
ENDBRANCH   1  14
BRANCH   9  16
HETATM   16  C13 UNL     1      35.826 -10.385  12.395  1.00  0.00     0.244 C 
HETATM   17  N3  UNL     1      35.134 -11.652  12.457  1.00  0.00    -0.061 NA
HETATM   18  O7  UNL     1      36.769 -10.331  11.575  1.00  0.00    -0.276 OA
ENDBRANCH   9  16
BRANCH   4  19
HETATM   19  C7  UNL     1      35.841  -4.904  12.654  1.00  0.00     0.149 C 
HETATM   20  C8  UNL     1      35.332  -4.134  11.495  1.00  0.00     0.044 C 
BRANCH  19  21
HETATM   21  O4  UNL     1      35.534  -4.233  13.869  1.00  0.00    -0.391 OA
ATOM     22  H4  UNL     1      34.608  -4.029  13.923  1.00  0.00     0.210 HD
ENDBRANCH  19  21
ENDBRANCH   4  19
BRANCH   5  23
HETATM   23  O5  UNL     1      37.364  -6.376  14.257  1.00  0.00    -0.357 OA
ATOM     24  H5  UNL     1      38.208  -6.064  13.953  1.00  0.00     0.213 HD
ENDBRANCH   5  23
BRANCH   5  25
HETATM   25  O6  UNL     1      37.665  -7.021  12.065  1.00  0.00    -0.352 OA
HETATM   26  C10 UNL     1      38.994  -6.788  12.257  1.00  0.00     0.206 C 
ENDBRANCH   5  25
BRANCH   7  27
HETATM   27  N2  UNL     1      37.371 -10.313  14.815  1.00  0.00    -0.345 N 
ATOM     28  H22 UNL     1      36.667 -10.484  15.534  1.00  0.00     0.176 HD
ATOM     29  H21 UNL     1      37.945 -11.083  14.474  1.00  0.00     0.176 HD
ENDBRANCH   7  27
TORSDOF 9
ENDMDL
MODEL 4
REMARK VINA RESULT: -4.940282678     10.244     12.176
REMARK  9 active torsions:
REMARK  status: ('A' for Active; 'I' for Inactive)
REMARK    1  A    between atoms: O1_2  and  C2_3 
REMARK    2  A    between atoms: C2_3  and  C3_5 
REMARK    3  A    between atoms: C3_5  and  O3_6 
REMARK    4  A    between atoms: C6_10  and  C7_11 
REMARK    5  A    between atoms: C7_11  and  O4_13 
REMARK    6  A    between atoms: C9_15  and  O5_16 
REMARK    7  A    between atoms: C9_15  and  O6_18 
REMARK    8  A    between atoms: N1_21  and  N2_23 
REMARK    9  A    between atoms: C12_26  and  C13_27 
ROOT
HETATM    1  C3  UNL     1      37.611  -1.385  13.476  1.00  0.00     0.186 C 
HETATM    2  C4  UNL     1      37.202   0.041  13.213  1.00  0.00    -0.028 C 
HETATM    3  C5  UNL     1      36.748   0.233  11.784  1.00  0.00     0.048 C 
HETATM    4  C6  UNL     1      37.192   1.015  14.065  1.00  0.00     0.021 C 
HETATM    5  C9  UNL     1      37.583   0.738  15.532  1.00  0.00     0.233 C 
HETATM    6  C11 UNL     1      37.657  -0.662  15.844  1.00  0.00     0.086 C 
HETATM    7  N1  UNL     1      37.530  -0.998  17.094  1.00  0.00    -0.309 N 
ATOM      8  H1  UNL     1      37.385  -0.265  17.788  1.00  0.00     0.186 HD
HETATM    9  C12 UNL     1      37.848  -1.759  14.875  1.00  0.00     0.177 C 
ENDROOT
BRANCH   1  10
HETATM   10  C2  UNL     1      38.785  -1.735  12.594  1.00  0.00     0.299 C 
HETATM   11  O2  UNL     1      38.803  -2.821  11.934  1.00  0.00    -0.261 OA
BRANCH  10  12
HETATM   12  O1  UNL     1      39.892  -0.915  12.450  1.00  0.00    -0.324 OA
HETATM   13  C1  UNL     1      40.501  -0.660  11.198  1.00  0.00     0.213 C 
ENDBRANCH  10  12
ENDBRANCH   1  10
BRANCH   1  14
HETATM   14  O3  UNL     1      36.542  -2.146  12.977  1.00  0.00    -0.374 OA
ATOM     15  H3  UNL     1      35.789  -1.877  13.490  1.00  0.00     0.211 HD
ENDBRANCH   1  14
BRANCH   9  16
HETATM   16  C13 UNL     1      39.171  -2.377  15.126  1.00  0.00     0.244 C 
HETATM   17  N3  UNL     1      39.349  -3.805  14.999  1.00  0.00    -0.061 NA
HETATM   18  O7  UNL     1      40.195  -1.737  15.454  1.00  0.00    -0.276 OA
ENDBRANCH   9  16
BRANCH   4  19
HETATM   19  C7  UNL     1      36.813   2.419  13.879  1.00  0.00     0.149 C 
HETATM   20  C8  UNL     1      37.562   3.282  12.937  1.00  0.00     0.044 C 
BRANCH  19  21
HETATM   21  O4  UNL     1      35.413   2.547  13.663  1.00  0.00    -0.391 OA
ATOM     22  H4  UNL     1      34.986   2.939  14.416  1.00  0.00     0.210 HD
ENDBRANCH  19  21
ENDBRANCH   4  19
BRANCH   5  23
HETATM   23  O5  UNL     1      36.522   1.307  16.275  1.00  0.00    -0.357 OA
ATOM     24  H5  UNL     1      36.957   1.718  17.012  1.00  0.00     0.213 HD
ENDBRANCH   5  23
BRANCH   5  25
HETATM   25  O6  UNL     1      38.754   1.404  15.712  1.00  0.00    -0.352 OA
HETATM   26  C10 UNL     1      38.879   2.215  16.799  1.00  0.00     0.206 C 
ENDBRANCH   5  25
BRANCH   7  27
HETATM   27  N2  UNL     1      37.583  -2.317  17.519  1.00  0.00    -0.345 N 
ATOM     28  H22 UNL     1      38.355  -2.589  18.127  1.00  0.00     0.176 HD
ATOM     29  H21 UNL     1      36.885  -3.009  17.246  1.00  0.00     0.176 HD
ENDBRANCH   7  27
TORSDOF 9
ENDMDL
MODEL 5
REMARK VINA RESULT: -4.905859647      8.500     12.048
REMARK  9 active torsions:
REMARK  status: ('A' for Active; 'I' for Inactive)
REMARK    1  A    between atoms: O1_2  and  C2_3 
REMARK    2  A    between atoms: C2_3  and  C3_5 
REMARK    3  A    between atoms: C3_5  and  O3_6 
REMARK    4  A    between atoms: C6_10  and  C7_11 
REMARK    5  A    between atoms: C7_11  and  O4_13 
REMARK    6  A    between atoms: C9_15  and  O5_16 
REMARK    7  A    between atoms: C9_15  and  O6_18 
REMARK    8  A    between atoms: N1_21  and  N2_23 
REMARK    9  A    between atoms: C12_26  and  C13_27 
ROOT
HETATM    1  C3  UNL     1      36.965   1.308  13.846  1.00  0.00     0.186 C 
HETATM    2  C4  UNL     1      37.585   1.292  15.219  1.00  0.00    -0.028 C 
HETATM    3  C5  UNL     1      37.661   2.682  15.809  1.00  0.00     0.048 C 
HETATM    4  C6  UNL     1      37.995   0.254  15.873  1.00  0.00     0.021 C 
HETATM    5  C9  UNL     1      37.810  -1.148  15.255  1.00  0.00     0.233 C 
HETATM    6  C11 UNL     1      36.941  -1.154  14.112  1.00  0.00     0.086 C 
HETATM    7  N1  UNL     1      36.372  -2.283  13.805  1.00  0.00    -0.309 N 
ATOM      8  H1  UNL     1      36.565  -3.102  14.381  1.00  0.00     0.186 HD
HETATM    9  C12 UNL     1      36.618   0.007  13.260  1.00  0.00     0.177 C 
ENDROOT
BRANCH   1  10
HETATM   10  C2  UNL     1      37.829   2.129  12.920  1.00  0.00     0.299 C 
HETATM   11  O2  UNL     1      37.321   3.034  12.186  1.00  0.00    -0.261 OA
BRANCH  10  12
HETATM   12  O1  UNL     1      39.199   1.953  12.813  1.00  0.00    -0.324 OA
HETATM   13  C1  UNL     1      40.087   3.011  12.503  1.00  0.00     0.213 C 
ENDBRANCH  10  12
ENDBRANCH   1  10
BRANCH   1  14
HETATM   14  O3  UNL     1      35.791   2.061  14.008  1.00  0.00    -0.374 OA
ATOM     15  H3  UNL     1      35.424   1.768  14.835  1.00  0.00     0.211 HD
ENDBRANCH   1  14
BRANCH   9  16
HETATM   16  C13 UNL     1      37.191  -0.228  11.915  1.00  0.00     0.244 C 
HETATM   17  N3  UNL     1      38.463  -0.897  11.768  1.00  0.00    -0.061 NA
HETATM   18  O7  UNL     1      36.642   0.118  10.845  1.00  0.00    -0.276 OA
ENDBRANCH   9  16
BRANCH   4  19
HETATM   19  C7  UNL     1      38.607   0.165  17.202  1.00  0.00     0.149 C 
HETATM   20  C8  UNL     1      39.860   0.896  17.502  1.00  0.00     0.044 C 
BRANCH  19  21
HETATM   21  O4  UNL     1      37.646   0.387  18.225  1.00  0.00    -0.391 OA
ATOM     22  H4  UNL     1      37.318  -0.435  18.570  1.00  0.00     0.210 HD
ENDBRANCH  19  21
ENDBRANCH   4  19
BRANCH   5  23
HETATM   23  O5  UNL     1      37.195  -1.892  16.289  1.00  0.00    -0.357 OA
ATOM     24  H5  UNL     1      37.036  -2.741  15.893  1.00  0.00     0.213 HD
ENDBRANCH   5  23
BRANCH   5  25
HETATM   25  O6  UNL     1      39.071  -1.579  14.989  1.00  0.00    -0.352 OA
HETATM   26  C10 UNL     1      39.425  -2.834  15.385  1.00  0.00     0.206 C 
ENDBRANCH   5  25
BRANCH   7  27
HETATM   27  N2  UNL     1      35.513  -2.414  12.725  1.00  0.00    -0.345 N 
ATOM     28  H22 UNL     1      35.142  -1.560  12.308  1.00  0.00     0.176 HD
ATOM     29  H21 UNL     1      35.247  -3.322  12.343  1.00  0.00     0.176 HD
ENDBRANCH   7  27
TORSDOF 9
ENDMDL
