MODEL 1
REMARK VINA RESULT: -7.525316493      0.000      0.000
REMARK  6 active torsions:
REMARK  status: ('A' for Active; 'I' for Inactive)
REMARK    1  A    between atoms: N1_1  and  N2_4 
REMARK       I    between atoms: N2_4  and  C1_6 
REMARK       I    between atoms: C1_6  and  N3_8 
REMARK    2  A    between atoms: N3_8  and  C2_10 
REMARK    3  A    between atoms: C3_15  and  C4_16 
REMARK    4  A    between atoms: C4_16  and  C5_17 
REMARK       I    between atoms: C5_17  and  N6_19 
REMARK    5  A    between atoms: N6_19  and  N7_21 
REMARK    6  A    between atoms: C6_23  and  C7_24 
ROOT
HETATM    1  C4  UNL     1      37.301  -0.442  24.141  1.00  0.00     0.170 C 
ENDROOT
BRANCH   1   2
HETATM    2  C3  UNL     1      36.917   1.008  24.051  1.00  0.00     0.078 A 
HETATM    3  N5  UNL     1      35.733   1.505  23.739  1.00  0.00    -0.295 N 
HETATM    4  N4  UNL     1      35.547   2.762  23.700  1.00  0.00    -0.279 N 
ATOM      5  H5  UNL     1      34.959   0.874  23.527  1.00  0.00     0.187 HD
HETATM    6  C2  UNL     1      36.584   3.564  23.982  1.00  0.00     0.169 A 
ATOM      7  H4  UNL     1      34.635   3.150  23.460  1.00  0.00     0.189 HD
HETATM    8  S1  UNL     1      37.822   2.437  24.302  1.00  0.00    -0.037 SA
BRANCH   6   9
HETATM    9  N3  UNL     1      36.599   4.877  23.997  1.00  0.00    -0.286 N 
HETATM   10  C1  UNL     1      35.404   5.621  23.800  1.00  0.00     0.340 C 
HETATM   11  N2  UNL     1      34.537   6.003  24.826  1.00  0.00    -0.258 N 
HETATM   12  O1  UNL     1      35.146   5.934  22.612  1.00  0.00    -0.245 OA
ATOM     13  H2  UNL     1      34.744   5.748  25.792  1.00  0.00     0.191 HD
ATOM     14  H3  UNL     1      37.479   5.370  24.151  1.00  0.00     0.172 HD
BRANCH  11  15
HETATM   15  N1  UNL     1      33.385   6.732  24.528  1.00  0.00    -0.341 N 
ATOM     16  H12 UNL     1      32.485   6.399  24.870  1.00  0.00     0.177 HD
ATOM     17  H11 UNL     1      33.455   7.586  23.974  1.00  0.00     0.177 HD
ENDBRANCH  11  15
ENDBRANCH   6   9
ENDBRANCH   1   2
BRANCH   1  18
HETATM   18  C5  UNL     1      37.009  -1.065  22.845  1.00  0.00     0.242 C 
HETATM   19  O2  UNL     1      36.116  -1.953  22.764  1.00  0.00    -0.271 OA
HETATM   20  N6  UNL     1      37.714  -0.689  21.666  1.00  0.00    -0.270 N 
ATOM     21  H6  UNL     1      38.437   0.028  21.725  1.00  0.00     0.190 HD
BRANCH  20  22
HETATM   22  N7  UNL     1      37.443  -1.275  20.438  1.00  0.00    -0.307 N 
HETATM   23  C6  UNL     1      37.852  -0.729  19.368  1.00  0.00     0.140 C 
ATOM     24  H7  UNL     1      36.913  -2.146  20.396  1.00  0.00     0.186 HD
BRANCH  23  25
HETATM   25  C7  UNL     1      37.587  -1.316  18.043  1.00  0.00     0.089 A 
HETATM   26  N8  UNL     1      36.573  -0.891  17.283  1.00  0.00    -0.298 N 
HETATM   27  N9  UNL     1      36.289  -1.377  16.093  1.00  0.00    -0.311 N 
ATOM     28  H8  UNL     1      35.983  -0.143  17.648  1.00  0.00     0.187 HD
HETATM   29  C8  UNL     1      37.046  -2.358  15.587  1.00  0.00     0.109 A 
ATOM     30  H9  UNL     1      35.500  -1.009  15.562  1.00  0.00     0.186 HD
HETATM   31  C9  UNL     1      38.118  -2.855  16.314  1.00  0.00     0.047 A 
HETATM   32  C10 UNL     1      38.395  -2.328  17.563  1.00  0.00     0.077 A 
HETATM   33  N10 UNL     1      39.468  -2.773  18.372  1.00  0.00    -0.100 NA
ENDBRANCH  23  25
ENDBRANCH  20  22
ENDBRANCH   1  18
TORSDOF 6
ENDMDL
MODEL 2
REMARK VINA RESULT: -7.415089043      4.483     10.946
REMARK  6 active torsions:
REMARK  status: ('A' for Active; 'I' for Inactive)
REMARK    1  A    between atoms: N1_1  and  N2_4 
REMARK       I    between atoms: N2_4  and  C1_6 
REMARK       I    between atoms: C1_6  and  N3_8 
REMARK    2  A    between atoms: N3_8  and  C2_10 
REMARK    3  A    between atoms: C3_15  and  C4_16 
REMARK    4  A    between atoms: C4_16  and  C5_17 
REMARK       I    between atoms: C5_17  and  N6_19 
REMARK    5  A    between atoms: N6_19  and  N7_21 
REMARK    6  A    between atoms: C6_23  and  C7_24 
ROOT
HETATM    1  C4  UNL     1      34.989   5.398  22.766  1.00  0.00     0.170 C 
ENDROOT
BRANCH   1   2
HETATM    2  C3  UNL     1      35.625   4.109  23.205  1.00  0.00     0.078 A 
HETATM    3  N5  UNL     1      36.139   3.166  22.434  1.00  0.00    -0.295 N 
HETATM    4  N4  UNL     1      36.649   2.118  22.944  1.00  0.00    -0.279 N 
ATOM      5  H5  UNL     1      36.126   3.279  21.420  1.00  0.00     0.187 HD
HETATM    6  C2  UNL     1      36.649   2.000  24.279  1.00  0.00     0.169 A 
ATOM      7  H4  UNL     1      37.047   1.388  22.353  1.00  0.00     0.189 HD
HETATM    8  S1  UNL     1      35.891   3.449  24.759  1.00  0.00    -0.037 SA
BRANCH   6   9
HETATM    9  N3  UNL     1      37.123   1.005  24.994  1.00  0.00    -0.286 N 
HETATM   10  C1  UNL     1      37.748  -0.107  24.369  1.00  0.00     0.340 C 
HETATM   11  N2  UNL     1      39.111  -0.179  24.070  1.00  0.00    -0.258 N 
HETATM   12  O1  UNL     1      36.992  -1.067  24.080  1.00  0.00    -0.245 OA
ATOM     13  H2  UNL     1      39.726   0.600  24.303  1.00  0.00     0.191 HD
ATOM     14  H3  UNL     1      37.041   1.031  26.011  1.00  0.00     0.172 HD
BRANCH  11  15
HETATM   15  N1  UNL     1      39.628  -1.318  23.452  1.00  0.00    -0.341 N 
ATOM     16  H12 UNL     1      38.987  -1.978  23.012  1.00  0.00     0.177 HD
ATOM     17  H11 UNL     1      40.635  -1.479  23.446  1.00  0.00     0.177 HD
ENDBRANCH  11  15
ENDBRANCH   6   9
ENDBRANCH   1   2
BRANCH   1  18
HETATM   18  C5  UNL     1      34.695   6.185  23.969  1.00  0.00     0.242 C 
HETATM   19  O2  UNL     1      33.510   6.250  24.400  1.00  0.00    -0.271 OA
HETATM   20  N6  UNL     1      35.721   6.884  24.667  1.00  0.00    -0.270 N 
ATOM     21  H6  UNL     1      36.680   6.834  24.324  1.00  0.00     0.190 HD
BRANCH  20  22
HETATM   22  N7  UNL     1      35.447   7.630  25.804  1.00  0.00    -0.307 N 
HETATM   23  C6  UNL     1      35.804   8.846  25.867  1.00  0.00     0.140 C 
ATOM     24  H7  UNL     1      34.960   7.200  26.590  1.00  0.00     0.186 HD
BRANCH  23  25
HETATM   25  C7  UNL     1      35.534   9.677  27.054  1.00  0.00     0.089 A 
HETATM   26  N8  UNL     1      34.482  10.500  27.104  1.00  0.00    -0.298 N 
HETATM   27  N9  UNL     1      34.192  11.264  28.136  1.00  0.00    -0.311 N 
ATOM     28  H8  UNL     1      33.866  10.538  26.292  1.00  0.00     0.187 HD
HETATM   29  C8  UNL     1      34.982  11.235  29.217  1.00  0.00     0.109 A 
ATOM     30  H9  UNL     1      33.374  11.872  28.112  1.00  0.00     0.186 HD
HETATM   31  C9  UNL     1      36.094  10.407  29.243  1.00  0.00     0.047 A 
HETATM   32  C10 UNL     1      36.377   9.613  28.146  1.00  0.00     0.077 A 
HETATM   33  N10 UNL     1      37.489   8.739  28.087  1.00  0.00    -0.100 NA
ENDBRANCH  23  25
ENDBRANCH  20  22
ENDBRANCH   1  18
TORSDOF 6
ENDMDL
MODEL 3
REMARK VINA RESULT: -7.352129781      2.173      2.214
REMARK  6 active torsions:
REMARK  status: ('A' for Active; 'I' for Inactive)
REMARK    1  A    between atoms: N1_1  and  N2_4 
REMARK       I    between atoms: N2_4  and  C1_6 
REMARK       I    between atoms: C1_6  and  N3_8 
REMARK    2  A    between atoms: N3_8  and  C2_10 
REMARK    3  A    between atoms: C3_15  and  C4_16 
REMARK    4  A    between atoms: C4_16  and  C5_17 
REMARK       I    between atoms: C5_17  and  N6_19 
REMARK    5  A    between atoms: N6_19  and  N7_21 
REMARK    6  A    between atoms: C6_23  and  C7_24 
ROOT
HETATM    1  C4  UNL     1      38.759   1.952  21.759  1.00  0.00     0.170 C 
ENDROOT
BRANCH   1   2
HETATM    2  C3  UNL     1      37.897   3.099  22.204  1.00  0.00     0.078 A 
HETATM    3  N5  UNL     1      36.592   3.231  22.041  1.00  0.00    -0.295 N 
HETATM    4  N4  UNL     1      35.985   4.262  22.471  1.00  0.00    -0.279 N 
ATOM      5  H5  UNL     1      36.065   2.497  21.565  1.00  0.00     0.187 HD
HETATM    6  C2  UNL     1      36.706   5.208  23.091  1.00  0.00     0.169 A 
ATOM      7  H4  UNL     1      34.978   4.368  22.348  1.00  0.00     0.189 HD
HETATM    8  S1  UNL     1      38.277   4.549  23.026  1.00  0.00    -0.037 SA
BRANCH   6   9
HETATM    9  N3  UNL     1      36.273   6.337  23.602  1.00  0.00    -0.286 N 
HETATM   10  C1  UNL     1      34.884   6.637  23.632  1.00  0.00     0.340 C 
HETATM   11  N2  UNL     1      34.024   6.281  24.674  1.00  0.00    -0.258 N 
HETATM   12  O1  UNL     1      34.440   7.262  22.638  1.00  0.00    -0.245 OA
ATOM     13  H2  UNL     1      34.383   5.773  25.481  1.00  0.00     0.191 HD
ATOM     14  H3  UNL     1      36.941   7.008  23.983  1.00  0.00     0.172 HD
BRANCH  11  15
HETATM   15  N1  UNL     1      32.672   6.622  24.607  1.00  0.00    -0.341 N 
ATOM     16  H12 UNL     1      32.386   7.398  24.010  1.00  0.00     0.177 HD
ATOM     17  H11 UNL     1      31.989   6.098  25.151  1.00  0.00     0.177 HD
ENDBRANCH  11  15
ENDBRANCH   6   9
ENDBRANCH   1   2
BRANCH   1  18
HETATM   18  C5  UNL     1      38.269   1.503  20.452  1.00  0.00     0.242 C 
HETATM   19  O2  UNL     1      38.275   2.300  19.473  1.00  0.00    -0.271 OA
HETATM   20  N6  UNL     1      37.781   0.179  20.258  1.00  0.00    -0.270 N 
ATOM     21  H6  UNL     1      37.774  -0.470  21.045  1.00  0.00     0.190 HD
BRANCH  20  22
HETATM   22  N7  UNL     1      37.316  -0.251  19.024  1.00  0.00    -0.307 N 
HETATM   23  C6  UNL     1      37.976  -1.107  18.358  1.00  0.00     0.140 C 
ATOM     24  H7  UNL     1      36.442   0.122  18.651  1.00  0.00     0.186 HD
BRANCH  23  25
HETATM   25  C7  UNL     1      37.520  -1.592  17.044  1.00  0.00     0.089 A 
HETATM   26  N8  UNL     1      36.603  -0.926  16.336  1.00  0.00    -0.298 N 
HETATM   27  N9  UNL     1      36.158  -1.311  15.158  1.00  0.00    -0.311 N 
ATOM     28  H8  UNL     1      36.223  -0.066  16.733  1.00  0.00     0.187 HD
HETATM   29  C8  UNL     1      36.637  -2.435  14.610  1.00  0.00     0.109 A 
ATOM     30  H9  UNL     1      35.455  -0.759  14.667  1.00  0.00     0.186 HD
HETATM   31  C9  UNL     1      37.593  -3.183  15.283  1.00  0.00     0.047 A 
HETATM   32  C10 UNL     1      38.044  -2.757  16.519  1.00  0.00     0.077 A 
HETATM   33  N10 UNL     1      39.015  -3.457  17.274  1.00  0.00    -0.100 NA
ENDBRANCH  23  25
ENDBRANCH  20  22
ENDBRANCH   1  18
TORSDOF 6
ENDMDL
MODEL 4
REMARK VINA RESULT: -6.945827971      1.366      1.538
REMARK  6 active torsions:
REMARK  status: ('A' for Active; 'I' for Inactive)
REMARK    1  A    between atoms: N1_1  and  N2_4 
REMARK       I    between atoms: N2_4  and  C1_6 
REMARK       I    between atoms: C1_6  and  N3_8 
REMARK    2  A    between atoms: N3_8  and  C2_10 
REMARK    3  A    between atoms: C3_15  and  C4_16 
REMARK    4  A    between atoms: C4_16  and  C5_17 
REMARK       I    between atoms: C5_17  and  N6_19 
REMARK    5  A    between atoms: N6_19  and  N7_21 
REMARK    6  A    between atoms: C6_23  and  C7_24 
ROOT
HETATM    1  C4  UNL     1      37.244   1.032  24.671  1.00  0.00     0.170 C 
ENDROOT
BRANCH   1   2
HETATM    2  C3  UNL     1      36.540   2.327  24.380  1.00  0.00     0.078 A 
HETATM    3  N5  UNL     1      35.622   2.923  25.120  1.00  0.00    -0.295 N 
HETATM    4  N4  UNL     1      35.106   4.026  24.749  1.00  0.00    -0.279 N 
ATOM      5  H5  UNL     1      35.323   2.496  25.997  1.00  0.00     0.187 HD
HETATM    6  C2  UNL     1      35.520   4.560  23.591  1.00  0.00     0.169 A 
ATOM      7  H4  UNL     1      34.398   4.490  25.317  1.00  0.00     0.189 HD
HETATM    8  S1  UNL     1      36.670   3.416  23.068  1.00  0.00    -0.037 SA
BRANCH   6   9
HETATM    9  N3  UNL     1      35.115   5.680  23.037  1.00  0.00    -0.286 N 
HETATM   10  C1  UNL     1      34.381   6.638  23.787  1.00  0.00     0.340 C 
HETATM   11  N2  UNL     1      34.961   7.666  24.534  1.00  0.00    -0.258 N 
HETATM   12  O1  UNL     1      33.132   6.518  23.751  1.00  0.00    -0.245 OA
ATOM     13  H2  UNL     1      35.976   7.765  24.565  1.00  0.00     0.191 HD
ATOM     14  H3  UNL     1      35.330   5.865  22.058  1.00  0.00     0.172 HD
BRANCH  11  15
HETATM   15  N1  UNL     1      34.151   8.558  25.238  1.00  0.00    -0.341 N 
ATOM     16  H12 UNL     1      33.637   9.273  24.724  1.00  0.00     0.177 HD
ATOM     17  H11 UNL     1      34.079   8.486  26.252  1.00  0.00     0.177 HD
ENDBRANCH  11  15
ENDBRANCH   6   9
ENDBRANCH   1   2
BRANCH   1  18
HETATM   18  C5  UNL     1      37.106   0.171  23.491  1.00  0.00     0.242 C 
HETATM   19  O2  UNL     1      36.287  -0.788  23.508  1.00  0.00    -0.271 OA
HETATM   20  N6  UNL     1      37.881   0.393  22.316  1.00  0.00    -0.270 N 
ATOM     21  H6  UNL     1      38.545   1.167  22.297  1.00  0.00     0.190 HD
BRANCH  20  22
HETATM   22  N7  UNL     1      37.755  -0.418  21.198  1.00  0.00    -0.307 N 
HETATM   23  C6  UNL     1      38.132   0.003  20.062  1.00  0.00     0.140 C 
ATOM     24  H7  UNL     1      37.359  -1.354  21.290  1.00  0.00     0.186 HD
BRANCH  23  25
HETATM   25  C7  UNL     1      38.018  -0.824  18.848  1.00  0.00     0.089 A 
HETATM   26  N8  UNL     1      37.135  -0.533  17.888  1.00  0.00    -0.298 N 
HETATM   27  N9  UNL     1      36.988  -1.234  16.783  1.00  0.00    -0.311 N 
ATOM     28  H8  UNL     1      36.537   0.283  18.019  1.00  0.00     0.187 HD
HETATM   29  C8  UNL     1      37.758  -2.311  16.582  1.00  0.00     0.109 A 
ATOM     30  H9  UNL     1      36.294  -0.960  16.087  1.00  0.00     0.186 HD
HETATM   31  C9  UNL     1      38.700  -2.679  17.532  1.00  0.00     0.047 A 
HETATM   32  C10 UNL     1      38.835  -1.926  18.684  1.00  0.00     0.077 A 
HETATM   33  N10 UNL     1      39.768  -2.228  19.704  1.00  0.00    -0.100 NA
ENDBRANCH  23  25
ENDBRANCH  20  22
ENDBRANCH   1  18
TORSDOF 6
ENDMDL
MODEL 5
REMARK VINA RESULT: -6.900275099      4.755      8.072
REMARK  6 active torsions:
REMARK  status: ('A' for Active; 'I' for Inactive)
REMARK    1  A    between atoms: N1_1  and  N2_4 
REMARK       I    between atoms: N2_4  and  C1_6 
REMARK       I    between atoms: C1_6  and  N3_8 
REMARK    2  A    between atoms: N3_8  and  C2_10 
REMARK    3  A    between atoms: C3_15  and  C4_16 
REMARK    4  A    between atoms: C4_16  and  C5_17 
REMARK       I    between atoms: C5_17  and  N6_19 
REMARK    5  A    between atoms: N6_19  and  N7_21 
REMARK    6  A    between atoms: C6_23  and  C7_24 
ROOT
HETATM    1  C4  UNL     1      34.543   8.433  23.928  1.00  0.00     0.170 C 
ENDROOT
BRANCH   1   2
HETATM    2  C3  UNL     1      34.814   9.237  25.168  1.00  0.00     0.078 A 
HETATM    3  N5  UNL     1      33.997  10.084  25.768  1.00  0.00    -0.295 N 
HETATM    4  N4  UNL     1      34.360  10.701  26.820  1.00  0.00    -0.279 N 
ATOM      5  H5  UNL     1      33.065  10.245  25.385  1.00  0.00     0.187 HD
HETATM    6  C2  UNL     1      35.591  10.467  27.297  1.00  0.00     0.169 A 
ATOM      7  H4  UNL     1      33.733  11.355  27.287  1.00  0.00     0.189 HD
HETATM    8  S1  UNL     1      36.192   9.333  26.176  1.00  0.00    -0.037 SA
BRANCH   6   9
HETATM    9  N3  UNL     1      36.151  10.998  28.360  1.00  0.00    -0.286 N 
HETATM   10  C1  UNL     1      35.642  10.733  29.659  1.00  0.00     0.340 C 
HETATM   11  N2  UNL     1      36.043   9.660  30.458  1.00  0.00    -0.258 N 
HETATM   12  O1  UNL     1      34.776  11.539  30.080  1.00  0.00    -0.245 OA
ATOM     13  H2  UNL     1      36.746   9.004  30.118  1.00  0.00     0.191 HD
ATOM     14  H3  UNL     1      36.962  11.608  28.251  1.00  0.00     0.172 HD
BRANCH  11  15
HETATM   15  N1  UNL     1      35.480   9.486  31.723  1.00  0.00    -0.341 N 
ATOM     16  H12 UNL     1      34.598   8.981  31.809  1.00  0.00     0.177 HD
ATOM     17  H11 UNL     1      35.951   9.863  32.545  1.00  0.00     0.177 HD
ENDBRANCH  11  15
ENDBRANCH   6   9
ENDBRANCH   1   2
BRANCH   1  18
HETATM   18  C5  UNL     1      34.990   7.058  24.177  1.00  0.00     0.242 C 
HETATM   19  O2  UNL     1      34.354   6.331  24.989  1.00  0.00    -0.271 OA
HETATM   20  N6  UNL     1      36.133   6.519  23.520  1.00  0.00    -0.270 N 
ATOM     21  H6  UNL     1      36.650   7.103  22.862  1.00  0.00     0.190 HD
BRANCH  20  22
HETATM   22  N7  UNL     1      36.560   5.220  23.752  1.00  0.00    -0.307 N 
HETATM   23  C6  UNL     1      36.141   4.273  23.019  1.00  0.00     0.140 C 
ATOM     24  H7  UNL     1      37.210   5.027  24.513  1.00  0.00     0.186 HD
BRANCH  23  25
HETATM   25  C7  UNL     1      36.567   2.879  23.229  1.00  0.00     0.089 A 
HETATM   26  N8  UNL     1      37.288   2.225  22.312  1.00  0.00    -0.298 N 
HETATM   27  N9  UNL     1      37.697   0.981  22.445  1.00  0.00    -0.311 N 
ATOM     28  H8  UNL     1      37.537   2.722  21.456  1.00  0.00     0.187 HD
HETATM   29  C8  UNL     1      37.386   0.303  23.557  1.00  0.00     0.109 A 
ATOM     30  H9  UNL     1      38.245   0.537  21.708  1.00  0.00     0.186 HD
HETATM   31  C9  UNL     1      36.641   0.911  24.556  1.00  0.00     0.047 A 
HETATM   32  C10 UNL     1      36.223   2.219  24.392  1.00  0.00     0.077 A 
HETATM   33  N10 UNL     1      35.460   2.917  25.359  1.00  0.00    -0.100 NA
ENDBRANCH  23  25
ENDBRANCH  20  22
ENDBRANCH   1  18
TORSDOF 6
ENDMDL
