MODEL 1
REMARK VINA RESULT: -6.953725204      0.000      0.000
REMARK  7 active torsions:
REMARK  status: ('A' for Active; 'I' for Inactive)
REMARK    1  A    between atoms: N1_2  and  C3_4 
REMARK    2  A    between atoms: C3_4  and  N2_5 
REMARK       I    between atoms: N2_5  and  C4_7 
REMARK    3  A    between atoms: C4_7  and  O2_9 
REMARK    4  A    between atoms: O2_9  and  N3_10 
REMARK    5  A    between atoms: C6_14  and  C7_15 
REMARK    6  A    between atoms: C11_20  and  C12_21 
REMARK       I    between atoms: C12_21  and  N4_23 
REMARK       I    between atoms: N4_23  and  C13_25 
REMARK    7  A    between atoms: N6_27  and  O5_29 
ROOT
HETATM    1  C3  UNL     1      38.451  -1.772  21.489  1.00  0.00     0.278 C 
HETATM    2  C5  UNL     1      39.838  -1.543  21.997  1.00  0.00     0.099 C 
HETATM    3  C6  UNL     1      39.747  -0.370  22.959  1.00  0.00     0.089 C 
HETATM    4  C11 UNL     1      38.409  -0.490  23.446  1.00  0.00     0.293 C 
HETATM    5  N7  UNL     1      37.633  -0.765  22.182  1.00  0.00    -0.016 N 
ATOM      6  H71 UNL     1      36.662  -1.040  22.333  1.00  0.00     0.283 HD
ATOM      7  H72 UNL     1      37.423   0.064  21.625  1.00  0.00     0.283 HD
ENDROOT
BRANCH   1   8
HETATM    8  N1  UNL     1      38.448  -1.405  20.131  1.00  0.00    -0.373 N 
HETATM    9  C1  UNL     1      38.117  -0.119  19.747  1.00  0.00     0.147 C 
HETATM   10  C2  UNL     1      38.785  -2.344  19.185  1.00  0.00     0.147 C 
ENDBRANCH   1   8
BRANCH   1  11
HETATM   11  N2  UNL     1      37.805  -2.980  21.900  1.00  0.00    -0.285 N 
HETATM   12  C4  UNL     1      36.583  -3.356  22.381  1.00  0.00     0.385 C 
HETATM   13  O1  UNL     1      35.597  -2.667  22.636  1.00  0.00    -0.236 OA
ATOM     14  H2  UNL     1      38.428  -3.782  21.809  1.00  0.00     0.169 HD
BRANCH  12  15
HETATM   15  O2  UNL     1      36.415  -4.766  22.642  1.00  0.00    -0.188 OA
BRANCH  15  16
HETATM   16  N3  UNL     1      35.194  -5.370  22.680  1.00  0.00    -0.301 N 
ATOM     17  H32 UNL     1      34.942  -5.973  21.898  1.00  0.00     0.184 HD
ATOM     18  H31 UNL     1      34.537  -5.243  23.451  1.00  0.00     0.184 HD
ENDBRANCH  15  16
ENDBRANCH  12  15
ENDBRANCH   1  11
BRANCH   3  19
HETATM   19  C7  UNL     1      40.829  -0.722  24.001  1.00  0.00     0.059 A 
HETATM   20  C8  UNL     1      41.450   0.110  24.897  1.00  0.00     0.035 A 
HETATM   21  C9  UNL     1      42.337  -0.677  25.597  1.00  0.00     0.027 A 
HETATM   22  C10 UNL     1      42.225  -1.985  25.103  1.00  0.00     0.142 A 
HETATM   23  O3  UNL     1      41.328  -1.909  24.186  1.00  0.00    -0.327 OA
ENDBRANCH   3  19
BRANCH   4  24
HETATM   24  C12 UNL     1      37.517   0.500  24.029  1.00  0.00     0.256 C 
HETATM   25  O4  UNL     1      37.035   0.243  25.183  1.00  0.00    -0.271 OA
HETATM   26  N4  UNL     1      37.106   1.715  23.421  1.00  0.00    -0.298 N 
HETATM   27  C13 UNL     1      36.167   2.575  24.092  1.00  0.00     0.214 C 
ATOM     28  H4  UNL     1      37.476   1.979  22.507  1.00  0.00     0.171 HD
HETATM   29  N5  UNL     1      35.715   2.341  25.393  1.00  0.00    -0.061 NA
HETATM   30  N6  UNL     1      35.713   3.614  23.440  1.00  0.00    -0.241 N 
ATOM     31  H6  UNL     1      35.046   4.263  23.860  1.00  0.00     0.197 HD
BRANCH  30  32
HETATM   32  O5  UNL     1      36.177   3.784  22.167  1.00  0.00    -0.287 OA
ATOM     33  H5  UNL     1      35.656   4.336  21.597  1.00  0.00     0.244 HD
ENDBRANCH  30  32
ENDBRANCH   4  24
TORSDOF 7
ENDMDL
MODEL 2
REMARK VINA RESULT: -6.447049256      1.204      1.525
REMARK  7 active torsions:
REMARK  status: ('A' for Active; 'I' for Inactive)
REMARK    1  A    between atoms: N1_2  and  C3_4 
REMARK    2  A    between atoms: C3_4  and  N2_5 
REMARK       I    between atoms: N2_5  and  C4_7 
REMARK    3  A    between atoms: C4_7  and  O2_9 
REMARK    4  A    between atoms: O2_9  and  N3_10 
REMARK    5  A    between atoms: C6_14  and  C7_15 
REMARK    6  A    between atoms: C11_20  and  C12_21 
REMARK       I    between atoms: C12_21  and  N4_23 
REMARK       I    between atoms: N4_23  and  C13_25 
REMARK    7  A    between atoms: N6_27  and  O5_29 
ROOT
HETATM    1  C3  UNL     1      38.059  -1.706  21.082  1.00  0.00     0.278 C 
HETATM    2  C5  UNL     1      39.454  -1.796  21.614  1.00  0.00     0.099 C 
HETATM    3  C6  UNL     1      39.746  -0.452  22.261  1.00  0.00     0.089 C 
HETATM    4  C11 UNL     1      38.443  -0.029  22.668  1.00  0.00     0.293 C 
HETATM    5  N7  UNL     1      37.607  -0.358  21.457  1.00  0.00    -0.016 N 
ATOM      6  H71 UNL     1      36.600  -0.274  21.602  1.00  0.00     0.283 HD
ATOM      7  H72 UNL     1      37.663   0.330  20.706  1.00  0.00     0.283 HD
ENDROOT
BRANCH   1   8
HETATM    8  N1  UNL     1      38.158  -1.705  19.679  1.00  0.00    -0.373 N 
HETATM    9  C1  UNL     1      37.507  -0.746  18.926  1.00  0.00     0.147 C 
HETATM   10  C2  UNL     1      38.917  -2.670  19.062  1.00  0.00     0.147 C 
ENDBRANCH   1   8
BRANCH   1  11
HETATM   11  N2  UNL     1      37.071  -2.515  21.724  1.00  0.00    -0.285 N 
HETATM   12  C4  UNL     1      36.931  -3.189  22.905  1.00  0.00     0.385 C 
HETATM   13  O1  UNL     1      37.723  -3.305  23.837  1.00  0.00    -0.236 OA
ATOM     14  H2  UNL     1      36.241  -2.619  21.140  1.00  0.00     0.169 HD
BRANCH  12  15
HETATM   15  O2  UNL     1      35.676  -3.877  23.093  1.00  0.00    -0.188 OA
BRANCH  15  16
HETATM   16  N3  UNL     1      35.442  -5.132  22.617  1.00  0.00    -0.301 N 
ATOM     17  H32 UNL     1      36.143  -5.847  22.809  1.00  0.00     0.184 HD
ATOM     18  H31 UNL     1      34.606  -5.376  22.086  1.00  0.00     0.184 HD
ENDBRANCH  15  16
ENDBRANCH  12  15
ENDBRANCH   1  11
BRANCH   3  19
HETATM   19  C7  UNL     1      40.673  -0.849  23.428  1.00  0.00     0.059 A 
HETATM   20  C8  UNL     1      41.328  -0.029  24.310  1.00  0.00     0.035 A 
HETATM   21  C9  UNL     1      42.029  -0.861  25.154  1.00  0.00     0.027 A 
HETATM   22  C10 UNL     1      41.774  -2.182  24.758  1.00  0.00     0.142 A 
HETATM   23  O3  UNL     1      40.978  -2.070  23.755  1.00  0.00    -0.327 OA
ENDBRANCH   3  19
BRANCH   4  24
HETATM   24  C12 UNL     1      37.914   1.299  22.936  1.00  0.00     0.256 C 
HETATM   25  O4  UNL     1      38.542   2.288  22.431  1.00  0.00    -0.271 OA
HETATM   26  N4  UNL     1      36.780   1.601  23.735  1.00  0.00    -0.298 N 
HETATM   27  C13 UNL     1      36.405   2.971  23.964  1.00  0.00     0.214 C 
ATOM     28  H4  UNL     1      36.231   0.846  24.147  1.00  0.00     0.171 HD
HETATM   29  N5  UNL     1      37.034   4.048  23.335  1.00  0.00    -0.061 NA
HETATM   30  N6  UNL     1      35.439   3.208  24.814  1.00  0.00    -0.241 N 
ATOM     31  H6  UNL     1      35.125   4.157  25.020  1.00  0.00     0.197 HD
BRANCH  30  32
HETATM   32  O5  UNL     1      34.873   2.118  25.411  1.00  0.00    -0.287 OA
ATOM     33  H5  UNL     1      35.450   1.577  25.937  1.00  0.00     0.244 HD
ENDBRANCH  30  32
ENDBRANCH   4  24
TORSDOF 7
ENDMDL
MODEL 3
REMARK VINA RESULT: -6.269822211      4.274      7.951
REMARK  7 active torsions:
REMARK  status: ('A' for Active; 'I' for Inactive)
REMARK    1  A    between atoms: N1_2  and  C3_4 
REMARK    2  A    between atoms: C3_4  and  N2_5 
REMARK       I    between atoms: N2_5  and  C4_7 
REMARK    3  A    between atoms: C4_7  and  O2_9 
REMARK    4  A    between atoms: O2_9  and  N3_10 
REMARK    5  A    between atoms: C6_14  and  C7_15 
REMARK    6  A    between atoms: C11_20  and  C12_21 
REMARK       I    between atoms: C12_21  and  N4_23 
REMARK       I    between atoms: N4_23  and  C13_25 
REMARK    7  A    between atoms: N6_27  and  O5_29 
ROOT
HETATM    1  C3  UNL     1      36.778   6.009  22.955  1.00  0.00     0.278 C 
HETATM    2  C5  UNL     1      36.096   4.864  23.633  1.00  0.00     0.099 C 
HETATM    3  C6  UNL     1      36.331   3.651  22.749  1.00  0.00     0.089 C 
HETATM    4  C11 UNL     1      37.578   3.972  22.130  1.00  0.00     0.293 C 
HETATM    5  N7  UNL     1      37.384   5.419  21.752  1.00  0.00    -0.016 N 
ATOM      6  H71 UNL     1      38.231   5.890  21.431  1.00  0.00     0.283 HD
ATOM      7  H72 UNL     1      36.850   5.565  20.896  1.00  0.00     0.283 HD
ENDROOT
BRANCH   1   8
HETATM    8  N1  UNL     1      35.766   6.871  22.495  1.00  0.00    -0.373 N 
HETATM    9  C1  UNL     1      34.573   6.991  23.183  1.00  0.00     0.147 C 
HETATM   10  C2  UNL     1      35.980   7.601  21.350  1.00  0.00     0.147 C 
ENDBRANCH   1   8
BRANCH   1  11
HETATM   11  N2  UNL     1      37.930   6.551  23.606  1.00  0.00    -0.285 N 
HETATM   12  C4  UNL     1      39.115   7.126  23.243  1.00  0.00     0.385 C 
HETATM   13  O1  UNL     1      39.568   7.343  22.121  1.00  0.00    -0.236 OA
ATOM     14  H2  UNL     1      37.845   6.491  24.620  1.00  0.00     0.169 HD
BRANCH  12  15
HETATM   15  O2  UNL     1      39.975   7.536  24.328  1.00  0.00    -0.188 OA
BRANCH  15  16
HETATM   16  N3  UNL     1      41.323   7.334  24.320  1.00  0.00    -0.301 N 
ATOM     17  H32 UNL     1      41.689   6.623  23.688  1.00  0.00     0.184 HD
ATOM     18  H31 UNL     1      41.965   7.860  24.914  1.00  0.00     0.184 HD
ENDBRANCH  15  16
ENDBRANCH  12  15
ENDBRANCH   1  11
BRANCH   3  19
HETATM   19  C7  UNL     1      36.417   2.509  23.783  1.00  0.00     0.059 A 
HETATM   20  C8  UNL     1      35.760   2.396  24.982  1.00  0.00     0.035 A 
HETATM   21  C9  UNL     1      36.177   1.206  25.534  1.00  0.00     0.027 A 
HETATM   22  C10 UNL     1      37.086   0.619  24.642  1.00  0.00     0.142 A 
HETATM   23  O3  UNL     1      37.156   1.446  23.661  1.00  0.00    -0.327 OA
ENDBRANCH   3  19
BRANCH   4  24
HETATM   24  C12 UNL     1      38.170   3.507  20.885  1.00  0.00     0.256 C 
HETATM   25  O4  UNL     1      38.977   4.298  20.292  1.00  0.00    -0.271 OA
HETATM   26  N4  UNL     1      37.909   2.264  20.250  1.00  0.00    -0.298 N 
HETATM   27  C13 UNL     1      38.522   1.960  18.984  1.00  0.00     0.214 C 
ATOM     28  H4  UNL     1      37.286   1.587  20.691  1.00  0.00     0.171 HD
HETATM   29  N5  UNL     1      39.477   2.783  18.383  1.00  0.00    -0.061 NA
HETATM   30  N6  UNL     1      38.150   0.866  18.370  1.00  0.00    -0.241 N 
ATOM     31  H6  UNL     1      38.547   0.593  17.470  1.00  0.00     0.197 HD
BRANCH  30  32
HETATM   32  O5  UNL     1      37.202   0.110  18.997  1.00  0.00    -0.287 OA
ATOM     33  H5  UNL     1      36.874  -0.641  18.516  1.00  0.00     0.244 HD
ENDBRANCH  30  32
ENDBRANCH   4  24
TORSDOF 7
ENDMDL
MODEL 4
REMARK VINA RESULT: -6.238342004      1.105      1.363
REMARK  7 active torsions:
REMARK  status: ('A' for Active; 'I' for Inactive)
REMARK    1  A    between atoms: N1_2  and  C3_4 
REMARK    2  A    between atoms: C3_4  and  N2_5 
REMARK       I    between atoms: N2_5  and  C4_7 
REMARK    3  A    between atoms: C4_7  and  O2_9 
REMARK    4  A    between atoms: O2_9  and  N3_10 
REMARK    5  A    between atoms: C6_14  and  C7_15 
REMARK    6  A    between atoms: C11_20  and  C12_21 
REMARK       I    between atoms: C12_21  and  N4_23 
REMARK       I    between atoms: N4_23  and  C13_25 
REMARK    7  A    between atoms: N6_27  and  O5_29 
ROOT
HETATM    1  C3  UNL     1      38.734  -1.619  21.487  1.00  0.00     0.278 C 
HETATM    2  C5  UNL     1      40.061  -1.322  22.109  1.00  0.00     0.099 C 
HETATM    3  C6  UNL     1      39.955   0.082  22.680  1.00  0.00     0.089 C 
HETATM    4  C11 UNL     1      38.560   0.177  22.977  1.00  0.00     0.293 C 
HETATM    5  N7  UNL     1      37.930  -0.414  21.740  1.00  0.00    -0.016 N 
ATOM      6  H71 UNL     1      36.926  -0.584  21.817  1.00  0.00     0.283 HD
ATOM      7  H72 UNL     1      37.869   0.227  20.949  1.00  0.00     0.283 HD
ENDROOT
BRANCH   1   8
HETATM    8  N1  UNL     1      38.938  -1.662  20.095  1.00  0.00    -0.373 N 
HETATM    9  C1  UNL     1      39.785  -2.598  19.534  1.00  0.00     0.147 C 
HETATM   10  C2  UNL     1      38.276  -0.761  19.295  1.00  0.00     0.147 C 
ENDBRANCH   1   8
BRANCH   1  11
HETATM   11  N2  UNL     1      37.935  -2.621  22.119  1.00  0.00    -0.285 N 
HETATM   12  C4  UNL     1      36.665  -2.735  22.610  1.00  0.00     0.385 C 
HETATM   13  O1  UNL     1      35.767  -1.898  22.660  1.00  0.00    -0.236 OA
ATOM     14  H2  UNL     1      38.455  -3.490  22.235  1.00  0.00     0.169 HD
BRANCH  12  15
HETATM   15  O2  UNL     1      36.317  -4.023  23.164  1.00  0.00    -0.188 OA
BRANCH  15  16
HETATM   16  N3  UNL     1      35.300  -4.787  22.676  1.00  0.00    -0.301 N 
ATOM     17  H32 UNL     1      34.858  -4.485  21.808  1.00  0.00     0.184 HD
ATOM     18  H31 UNL     1      34.973  -5.635  23.140  1.00  0.00     0.184 HD
ENDBRANCH  15  16
ENDBRANCH  12  15
ENDBRANCH   1  11
BRANCH   3  19
HETATM   19  C7  UNL     1      40.859  -0.007  23.927  1.00  0.00     0.059 A 
HETATM   20  C8  UNL     1      41.033   0.924  24.920  1.00  0.00     0.035 A 
HETATM   21  C9  UNL     1      41.942   0.378  25.798  1.00  0.00     0.027 A 
HETATM   22  C10 UNL     1      42.298  -0.888  25.310  1.00  0.00     0.142 A 
HETATM   23  O3  UNL     1      41.618  -1.020  24.227  1.00  0.00    -0.327 OA
ENDBRANCH   3  19
BRANCH   4  24
HETATM   24  C12 UNL     1      37.695   1.337  23.121  1.00  0.00     0.256 C 
HETATM   25  O4  UNL     1      36.703   1.229  23.917  1.00  0.00    -0.271 OA
HETATM   26  N4  UNL     1      37.833   2.571  22.434  1.00  0.00    -0.298 N 
HETATM   27  C13 UNL     1      36.863   3.617  22.631  1.00  0.00     0.214 C 
ATOM     28  H4  UNL     1      38.619   2.718  21.801  1.00  0.00     0.171 HD
HETATM   29  N5  UNL     1      35.833   3.534  23.571  1.00  0.00    -0.061 NA
HETATM   30  N6  UNL     1      36.951   4.684  21.879  1.00  0.00    -0.241 N 
ATOM     31  H6  UNL     1      36.296   5.461  21.969  1.00  0.00     0.197 HD
BRANCH  30  32
HETATM   32  O5  UNL     1      37.967   4.702  20.966  1.00  0.00    -0.287 OA
ATOM     33  H5  UNL     1      38.472   5.505  20.911  1.00  0.00     0.244 HD
ENDBRANCH  30  32
ENDBRANCH   4  24
TORSDOF 7
ENDMDL
MODEL 5
REMARK VINA RESULT: -6.203889824      2.546      5.664
REMARK  7 active torsions:
REMARK  status: ('A' for Active; 'I' for Inactive)
REMARK    1  A    between atoms: N1_2  and  C3_4 
REMARK    2  A    between atoms: C3_4  and  N2_5 
REMARK       I    between atoms: N2_5  and  C4_7 
REMARK    3  A    between atoms: C4_7  and  O2_9 
REMARK    4  A    between atoms: O2_9  and  N3_10 
REMARK    5  A    between atoms: C6_14  and  C7_15 
REMARK    6  A    between atoms: C11_20  and  C12_21 
REMARK       I    between atoms: C12_21  and  N4_23 
REMARK       I    between atoms: N4_23  and  C13_25 
REMARK    7  A    between atoms: N6_27  and  O5_29 
ROOT
HETATM    1  C3  UNL     1      37.648   3.291  22.607  1.00  0.00     0.278 C 
HETATM    2  C5  UNL     1      38.774   3.520  23.563  1.00  0.00     0.099 C 
HETATM    3  C6  UNL     1      38.948   2.219  24.330  1.00  0.00     0.089 C 
HETATM    4  C11 UNL     1      38.499   1.252  23.379  1.00  0.00     0.293 C 
HETATM    5  N7  UNL     1      37.246   1.895  22.837  1.00  0.00    -0.016 N 
ATOM      6  H71 UNL     1      36.850   1.428  22.021  1.00  0.00     0.283 HD
ATOM      7  H72 UNL     1      36.424   1.785  23.431  1.00  0.00     0.283 HD
ENDROOT
BRANCH   1   8
HETATM    8  N1  UNL     1      36.571   4.081  23.049  1.00  0.00    -0.373 N 
HETATM    9  C1  UNL     1      36.466   5.407  22.672  1.00  0.00     0.147 C 
HETATM   10  C2  UNL     1      35.616   3.515  23.860  1.00  0.00     0.147 C 
ENDBRANCH   1   8
BRANCH   1  11
HETATM   11  N2  UNL     1      37.979   3.255  21.217  1.00  0.00    -0.285 N 
HETATM   12  C4  UNL     1      38.866   3.867  20.376  1.00  0.00     0.385 C 
HETATM   13  O1  UNL     1      39.707   4.729  20.620  1.00  0.00    -0.236 OA
ATOM     14  H2  UNL     1      37.392   2.590  20.713  1.00  0.00     0.169 HD
BRANCH  12  15
HETATM   15  O2  UNL     1      38.810   3.456  18.993  1.00  0.00    -0.188 OA
BRANCH  15  16
HETATM   16  N3  UNL     1      38.079   2.387  18.569  1.00  0.00    -0.301 N 
ATOM     17  H32 UNL     1      37.071   2.415  18.719  1.00  0.00     0.184 HD
ATOM     18  H31 UNL     1      38.498   1.575  18.114  1.00  0.00     0.184 HD
ENDBRANCH  15  16
ENDBRANCH  12  15
ENDBRANCH   1  11
BRANCH   3  19
HETATM   19  C7  UNL     1      40.470   2.194  24.582  1.00  0.00     0.059 A 
HETATM   20  C8  UNL     1      41.345   3.250  24.611  1.00  0.00     0.035 A 
HETATM   21  C9  UNL     1      42.585   2.710  24.867  1.00  0.00     0.027 A 
HETATM   22  C10 UNL     1      42.427   1.322  24.992  1.00  0.00     0.142 A 
HETATM   23  O3  UNL     1      41.170   1.123  24.815  1.00  0.00    -0.327 OA
ENDBRANCH   3  19
BRANCH   4  24
HETATM   24  C12 UNL     1      37.982  -0.094  23.563  1.00  0.00     0.256 C 
HETATM   25  O4  UNL     1      37.519  -0.388  24.716  1.00  0.00    -0.271 OA
HETATM   26  N4  UNL     1      37.974  -1.127  22.589  1.00  0.00    -0.298 N 
HETATM   27  C13 UNL     1      37.485  -2.436  22.931  1.00  0.00     0.214 C 
ATOM     28  H4  UNL     1      38.315  -0.940  21.646  1.00  0.00     0.171 HD
HETATM   29  N5  UNL     1      36.890  -2.730  24.161  1.00  0.00    -0.061 NA
HETATM   30  N6  UNL     1      37.620  -3.391  22.048  1.00  0.00    -0.241 N 
ATOM     31  H6  UNL     1      37.293  -4.341  22.228  1.00  0.00     0.197 HD
BRANCH  30  32
HETATM   32  O5  UNL     1      38.223  -3.050  20.871  1.00  0.00    -0.287 OA
ATOM     33  H5  UNL     1      38.461  -3.767  20.294  1.00  0.00     0.244 HD
ENDBRANCH  30  32
ENDBRANCH   4  24
TORSDOF 7
ENDMDL
