MODEL 1
REMARK VINA RESULT: -7.565170485      0.000      0.000
REMARK  7 active torsions:
REMARK  status: ('A' for Active; 'I' for Inactive)
REMARK       I    between atoms: C1_2  and  N2_3 
REMARK       I    between atoms: C1_2  and  N7_16 
REMARK    1  A    between atoms: N2_3  and  N3_5 
REMARK    2  A    between atoms: N3_5  and  C2_7 
REMARK    3  A    between atoms: N7_16  and  N8_18 
REMARK    4  A    between atoms: N8_18  and  C4_20 
REMARK    5  A    between atoms: C4_20  and  C5_21 
REMARK    6  A    between atoms: C6_26  and  S1_27 
REMARK    7  A    between atoms: S1_27  and  N11_28 
ROOT
HETATM    1  N1  UNL     1      38.657   1.431  12.392  1.00  0.00    -0.061 NA
HETATM    2  C1  UNL     1      37.413   1.861  12.927  1.00  0.00     0.222 C 
HETATM    3  N2  UNL     1      37.311   3.043  13.432  1.00  0.00    -0.271 N 
ATOM      4  H2  UNL     1      38.136   3.642  13.434  1.00  0.00     0.189 HD
HETATM    5  N7  UNL     1      36.321   0.953  12.879  1.00  0.00    -0.273 N 
ATOM      6  H7  UNL     1      35.435   1.222  12.450  1.00  0.00     0.189 HD
ENDROOT
BRANCH   5   7
HETATM    7  N8  UNL     1      36.492  -0.314  13.433  1.00  0.00    -0.307 N 
ATOM      8  H8  UNL     1      36.472  -0.446  14.444  1.00  0.00     0.186 HD
BRANCH   7   9
HETATM    9  C4  UNL     1      36.677  -1.310  12.646  1.00  0.00     0.145 C 
BRANCH   9  10
HETATM   10  C5  UNL     1      35.945  -2.565  12.831  1.00  0.00     0.108 A 
HETATM   11  N9  UNL     1      35.596  -3.155  13.968  1.00  0.00    -0.291 N 
HETATM   12  N10 UNL     1      34.962  -4.245  13.942  1.00  0.00    -0.282 N 
ATOM     13  H9  UNL     1      35.840  -2.727  14.860  1.00  0.00     0.187 HD
HETATM   14  C6  UNL     1      34.643  -4.804  12.779  1.00  0.00     0.207 A 
ATOM     15  H10 UNL     1      34.694  -4.699  14.814  1.00  0.00     0.188 HD
HETATM   16  S2  UNL     1      35.312  -3.665  11.681  1.00  0.00    -0.037 SA
BRANCH  14  17
HETATM   17  S1  UNL     1      33.769  -6.308  12.479  1.00  0.00     0.280 S 
HETATM   18  O1  UNL     1      32.313  -5.992  12.287  1.00  0.00    -0.199 OA
HETATM   19  O2  UNL     1      33.912  -7.222  13.663  1.00  0.00    -0.199 OA
BRANCH  17  20
HETATM   20  N11 UNL     1      34.371  -6.991  11.037  1.00  0.00    -0.323 N 
ATOM     21 2H11 UNL     1      34.707  -6.463  10.231  1.00  0.00     0.169 HD
ATOM     22 1H11 UNL     1      34.335  -8.007  11.128  1.00  0.00     0.169 HD
ENDBRANCH  17  20
ENDBRANCH  14  17
ENDBRANCH   9  10
ENDBRANCH   7   9
ENDBRANCH   5   7
BRANCH   3  23
HETATM   23  N3  UNL     1      36.137   3.538  13.973  1.00  0.00    -0.278 N 
ATOM     24  H3  UNL     1      35.571   2.932  14.566  1.00  0.00     0.189 HD
BRANCH  23  25
HETATM   25  C2  UNL     1      35.694   4.873  13.727  1.00  0.00     0.194 A 
HETATM   26  N4  UNL     1      34.483   5.306  13.348  1.00  0.00    -0.266 N 
HETATM   27  N5  UNL     1      34.479   6.611  13.227  1.00  0.00    -0.239 N 
ATOM     28  H4  UNL     1      33.677   4.704  13.177  1.00  0.00     0.190 HD
HETATM   29  N6  UNL     1      35.689   7.038  13.526  1.00  0.00    -0.258 N 
ATOM     30  H5  UNL     1      33.685   7.189  12.951  1.00  0.00     0.208 HD
HETATM   31  C3  UNL     1      36.472   6.016  13.839  1.00  0.00     0.251 A 
ATOM     32  H6  UNL     1      35.980   8.015  13.518  1.00  0.00     0.191 HD
HETATM   33  F1  UNL     1      37.765   6.015  14.200  1.00  0.00    -0.180 F 
ENDBRANCH  23  25
ENDBRANCH   3  23
TORSDOF 7
ENDMDL
MODEL 2
REMARK VINA RESULT: -7.431939363      5.618      9.875
REMARK  7 active torsions:
REMARK  status: ('A' for Active; 'I' for Inactive)
REMARK       I    between atoms: C1_2  and  N2_3 
REMARK       I    between atoms: C1_2  and  N7_16 
REMARK    1  A    between atoms: N2_3  and  N3_5 
REMARK    2  A    between atoms: N3_5  and  C2_7 
REMARK    3  A    between atoms: N7_16  and  N8_18 
REMARK    4  A    between atoms: N8_18  and  C4_20 
REMARK    5  A    between atoms: C4_20  and  C5_21 
REMARK    6  A    between atoms: C6_26  and  S1_27 
REMARK    7  A    between atoms: S1_27  and  N11_28 
ROOT
HETATM    1  N1  UNL     1      34.818  -1.929  11.276  1.00  0.00    -0.061 NA
HETATM    2  C1  UNL     1      35.355  -3.180  11.682  1.00  0.00     0.222 C 
HETATM    3  N2  UNL     1      34.581  -4.207  11.770  1.00  0.00    -0.271 N 
ATOM      4  H2  UNL     1      33.594  -4.092  11.543  1.00  0.00     0.189 HD
HETATM    5  N7  UNL     1      36.743  -3.241  11.977  1.00  0.00    -0.273 N 
ATOM      6  H7  UNL     1      37.348  -3.922  11.516  1.00  0.00     0.189 HD
ENDROOT
BRANCH   5   7
HETATM    7  N8  UNL     1      37.258  -2.347  12.914  1.00  0.00    -0.307 N 
ATOM      8  H8  UNL     1      37.137  -2.513  13.913  1.00  0.00     0.186 HD
BRANCH   7   9
HETATM    9  C4  UNL     1      37.887  -1.311  12.494  1.00  0.00     0.145 C 
BRANCH   9  10
HETATM   10  C5  UNL     1      37.467   0.038  12.882  1.00  0.00     0.108 A 
HETATM   11  N9  UNL     1      36.260   0.450  13.249  1.00  0.00    -0.291 N 
HETATM   12  N10 UNL     1      36.075   1.661  13.553  1.00  0.00    -0.282 N 
ATOM     13  H9  UNL     1      35.484  -0.210  13.286  1.00  0.00     0.187 HD
HETATM   14  C6  UNL     1      37.086   2.522  13.508  1.00  0.00     0.207 A 
ATOM     15  H10 UNL     1      35.148   1.979  13.835  1.00  0.00     0.188 HD
HETATM   16  S2  UNL     1      38.361   1.494  12.992  1.00  0.00    -0.037 SA
BRANCH  14  17
HETATM   17  S1  UNL     1      37.084   4.247  13.881  1.00  0.00     0.280 S 
HETATM   18  O1  UNL     1      37.800   4.461  15.185  1.00  0.00    -0.199 OA
HETATM   19  O2  UNL     1      35.669   4.734  14.023  1.00  0.00    -0.199 OA
BRANCH  17  20
HETATM   20  N11 UNL     1      37.944   5.056  12.651  1.00  0.00    -0.323 N 
ATOM     21 2H11 UNL     1      38.184   4.659  11.743  1.00  0.00     0.169 HD
ATOM     22 1H11 UNL     1      38.169   5.993  12.985  1.00  0.00     0.169 HD
ENDBRANCH  17  20
ENDBRANCH  14  17
ENDBRANCH   9  10
ENDBRANCH   7   9
ENDBRANCH   5   7
BRANCH   3  23
HETATM   23  N3  UNL     1      35.024  -5.461  12.158  1.00  0.00    -0.278 N 
ATOM     24  H3  UNL     1      35.868  -5.532  12.726  1.00  0.00     0.189 HD
BRANCH  23  25
HETATM   25  C2  UNL     1      34.336  -6.655  11.787  1.00  0.00     0.194 A 
HETATM   26  N4  UNL     1      33.052  -6.988  11.985  1.00  0.00    -0.266 N 
HETATM   27  N5  UNL     1      32.806  -8.179  11.495  1.00  0.00    -0.239 N 
ATOM     28  H4  UNL     1      32.364  -6.398  12.451  1.00  0.00     0.190 HD
HETATM   29  N6  UNL     1      33.929  -8.630  10.974  1.00  0.00    -0.258 N 
ATOM     30  H5  UNL     1      31.910  -8.665  11.513  1.00  0.00     0.208 HD
HETATM   31  C3  UNL     1      34.897  -7.739  11.126  1.00  0.00     0.251 A 
ATOM     32  H6  UNL     1      34.037  -9.537  10.519  1.00  0.00     0.191 HD
HETATM   33  F1  UNL     1      36.182  -7.803  10.742  1.00  0.00    -0.180 F 
ENDBRANCH  23  25
ENDBRANCH   3  23
TORSDOF 7
ENDMDL
MODEL 3
REMARK VINA RESULT: -7.409498172      3.103      4.469
REMARK  7 active torsions:
REMARK  status: ('A' for Active; 'I' for Inactive)
REMARK       I    between atoms: C1_2  and  N2_3 
REMARK       I    between atoms: C1_2  and  N7_16 
REMARK    1  A    between atoms: N2_3  and  N3_5 
REMARK    2  A    between atoms: N3_5  and  C2_7 
REMARK    3  A    between atoms: N7_16  and  N8_18 
REMARK    4  A    between atoms: N8_18  and  C4_20 
REMARK    5  A    between atoms: C4_20  and  C5_21 
REMARK    6  A    between atoms: C6_26  and  S1_27 
REMARK    7  A    between atoms: S1_27  and  N11_28 
ROOT
HETATM    1  N1  UNL     1      38.035   1.546  12.409  1.00  0.00    -0.061 NA
HETATM    2  C1  UNL     1      37.274   1.165  13.546  1.00  0.00     0.222 C 
HETATM    3  N2  UNL     1      37.752   1.360  14.727  1.00  0.00    -0.271 N 
ATOM      4  H2  UNL     1      38.673   1.787  14.814  1.00  0.00     0.189 HD
HETATM    5  N7  UNL     1      36.000   0.577  13.324  1.00  0.00    -0.273 N 
ATOM      6  H7  UNL     1      35.162   0.961  13.761  1.00  0.00     0.189 HD
ENDROOT
BRANCH   5   7
HETATM    7  N8  UNL     1      35.925  -0.540  12.493  1.00  0.00    -0.307 N 
ATOM      8  H8  UNL     1      35.351  -0.524  11.651  1.00  0.00     0.186 HD
BRANCH   7   9
HETATM    9  C4  UNL     1      36.593  -1.588  12.810  1.00  0.00     0.145 C 
BRANCH   9  10
HETATM   10  C5  UNL     1      35.938  -2.892  12.940  1.00  0.00     0.108 A 
HETATM   11  N9  UNL     1      35.757  -3.617  14.037  1.00  0.00    -0.291 N 
HETATM   12  N10 UNL     1      35.166  -4.729  13.965  1.00  0.00    -0.282 N 
ATOM     13  H9  UNL     1      36.095  -3.275  14.936  1.00  0.00     0.187 HD
HETATM   14  C6  UNL     1      34.723  -5.175  12.794  1.00  0.00     0.207 A 
ATOM     15  H10 UNL     1      35.027  -5.287  14.807  1.00  0.00     0.188 HD
HETATM   16  S2  UNL     1      35.205  -3.892  11.759  1.00  0.00    -0.037 SA
BRANCH  14  17
HETATM   17  S1  UNL     1      33.875  -6.681  12.435  1.00  0.00     0.280 S 
HETATM   18  O1  UNL     1      33.656  -7.431  13.718  1.00  0.00    -0.199 OA
HETATM   19  O2  UNL     1      34.712  -7.528  11.518  1.00  0.00    -0.199 OA
BRANCH  17  20
HETATM   20  N11 UNL     1      32.355  -6.286  11.771  1.00  0.00    -0.323 N 
ATOM     21 2H11 UNL     1      32.156  -6.185  10.775  1.00  0.00     0.169 HD
ATOM     22 1H11 UNL     1      31.693  -6.172  12.539  1.00  0.00     0.169 HD
ENDBRANCH  17  20
ENDBRANCH  14  17
ENDBRANCH   9  10
ENDBRANCH   7   9
ENDBRANCH   5   7
BRANCH   3  23
HETATM   23  N3  UNL     1      37.075   1.017  15.886  1.00  0.00    -0.278 N 
ATOM     24  H3  UNL     1      36.323   1.621  16.216  1.00  0.00     0.189 HD
BRANCH  23  25
HETATM   25  C2  UNL     1      37.398  -0.156  16.633  1.00  0.00     0.194 A 
HETATM   26  N4  UNL     1      37.002  -1.422  16.433  1.00  0.00    -0.266 N 
HETATM   27  N5  UNL     1      37.519  -2.213  17.341  1.00  0.00    -0.239 N 
ATOM     28  H4  UNL     1      36.385  -1.726  15.681  1.00  0.00     0.190 HD
HETATM   29  N6  UNL     1      38.256  -1.468  18.139  1.00  0.00    -0.258 N 
ATOM     30  H5  UNL     1      37.377  -3.220  17.416  1.00  0.00     0.208 HD
HETATM   31  C3  UNL     1      38.217  -0.202  17.752  1.00  0.00     0.251 A 
ATOM     32  H6  UNL     1      38.782  -1.817  18.941  1.00  0.00     0.191 HD
HETATM   33  F1  UNL     1      38.823   0.871  18.286  1.00  0.00    -0.180 F 
ENDBRANCH  23  25
ENDBRANCH   3  23
TORSDOF 7
ENDMDL
MODEL 4
REMARK VINA RESULT: -7.289744698      5.509     10.055
REMARK  7 active torsions:
REMARK  status: ('A' for Active; 'I' for Inactive)
REMARK       I    between atoms: C1_2  and  N2_3 
REMARK       I    between atoms: C1_2  and  N7_16 
REMARK    1  A    between atoms: N2_3  and  N3_5 
REMARK    2  A    between atoms: N3_5  and  C2_7 
REMARK    3  A    between atoms: N7_16  and  N8_18 
REMARK    4  A    between atoms: N8_18  and  C4_20 
REMARK    5  A    between atoms: C4_20  and  C5_21 
REMARK    6  A    between atoms: C6_26  and  S1_27 
REMARK    7  A    between atoms: S1_27  and  N11_28 
ROOT
HETATM    1  N1  UNL     1      34.921  -2.717  11.367  1.00  0.00    -0.061 NA
HETATM    2  C1  UNL     1      35.394  -3.986  11.795  1.00  0.00     0.222 C 
HETATM    3  N2  UNL     1      34.723  -5.048  11.504  1.00  0.00    -0.271 N 
ATOM      4  H2  UNL     1      33.861  -4.945  10.970  1.00  0.00     0.189 HD
HETATM    5  N7  UNL     1      36.606  -4.027  12.535  1.00  0.00    -0.273 N 
ATOM      6  H7  UNL     1      37.383  -4.616  12.236  1.00  0.00     0.189 HD
ENDROOT
BRANCH   5   7
HETATM    7  N8  UNL     1      36.705  -3.240  13.681  1.00  0.00    -0.307 N 
ATOM      8  H8  UNL     1      36.102  -3.414  14.485  1.00  0.00     0.186 HD
BRANCH   7   9
HETATM    9  C4  UNL     1      37.570  -2.293  13.704  1.00  0.00     0.145 C 
BRANCH   9  10
HETATM   10  C5  UNL     1      37.159  -0.891  13.601  1.00  0.00     0.108 A 
HETATM   11  N9  UNL     1      36.109  -0.386  12.965  1.00  0.00    -0.291 N 
HETATM   12  N10 UNL     1      35.905   0.860  12.980  1.00  0.00    -0.282 N 
ATOM     13  H9  UNL     1      35.469  -1.002  12.466  1.00  0.00     0.187 HD
HETATM   14  C6  UNL     1      36.737   1.664  13.631  1.00  0.00     0.207 A 
ATOM     15  H10 UNL     1      35.099   1.249  12.492  1.00  0.00     0.188 HD
HETATM   16  S2  UNL     1      37.869   0.528  14.245  1.00  0.00    -0.037 SA
BRANCH  14  17
HETATM   17  S1  UNL     1      36.670   3.420  13.800  1.00  0.00     0.280 S 
HETATM   18  O1  UNL     1      37.323   3.808  15.097  1.00  0.00    -0.199 OA
HETATM   19  O2  UNL     1      35.237   3.873  13.829  1.00  0.00    -0.199 OA
BRANCH  17  20
HETATM   20  N11 UNL     1      37.559   4.109  12.518  1.00  0.00    -0.323 N 
ATOM     21 2H11 UNL     1      37.404   5.040  12.129  1.00  0.00     0.169 HD
ATOM     22 1H11 UNL     1      38.260   3.432  12.219  1.00  0.00     0.169 HD
ENDBRANCH  17  20
ENDBRANCH  14  17
ENDBRANCH   9  10
ENDBRANCH   7   9
ENDBRANCH   5   7
BRANCH   3  23
HETATM   23  N3  UNL     1      35.114  -6.321  11.882  1.00  0.00    -0.278 N 
ATOM     24  H3  UNL     1      35.984  -6.436  12.402  1.00  0.00     0.189 HD
BRANCH  23  25
HETATM   25  C2  UNL     1      34.338  -7.477  11.567  1.00  0.00     0.194 A 
HETATM   26  N4  UNL     1      33.035  -7.707  11.787  1.00  0.00    -0.266 N 
HETATM   27  N5  UNL     1      32.699  -8.896  11.349  1.00  0.00    -0.239 N 
ATOM     28  H4  UNL     1      32.396  -7.050  12.233  1.00  0.00     0.190 HD
HETATM   29  N6  UNL     1      33.781  -9.449  10.840  1.00  0.00    -0.258 N 
ATOM     30  H5  UNL     1      31.771  -9.315  11.394  1.00  0.00     0.208 HD
HETATM   31  C3  UNL     1      34.812  -8.625  10.948  1.00  0.00     0.251 A 
ATOM     32  H6  UNL     1      33.819 -10.379  10.423  1.00  0.00     0.191 HD
HETATM   33  F1  UNL     1      36.086  -8.798  10.558  1.00  0.00    -0.180 F 
ENDBRANCH  23  25
ENDBRANCH   3  23
TORSDOF 7
ENDMDL
MODEL 5
REMARK VINA RESULT: -7.224400903      5.026      7.646
REMARK  7 active torsions:
REMARK  status: ('A' for Active; 'I' for Inactive)
REMARK       I    between atoms: C1_2  and  N2_3 
REMARK       I    between atoms: C1_2  and  N7_16 
REMARK    1  A    between atoms: N2_3  and  N3_5 
REMARK    2  A    between atoms: N3_5  and  C2_7 
REMARK    3  A    between atoms: N7_16  and  N8_18 
REMARK    4  A    between atoms: N8_18  and  C4_20 
REMARK    5  A    between atoms: C4_20  and  C5_21 
REMARK    6  A    between atoms: C6_26  and  S1_27 
REMARK    7  A    between atoms: S1_27  and  N11_28 
ROOT
HETATM    1  N1  UNL     1      39.221  -4.017  16.746  1.00  0.00    -0.061 NA
HETATM    2  C1  UNL     1      38.096  -3.248  16.344  1.00  0.00     0.222 C 
HETATM    3  N2  UNL     1      37.718  -3.267  15.112  1.00  0.00    -0.271 N 
ATOM      4  H2  UNL     1      38.244  -3.840  14.452  1.00  0.00     0.189 HD
HETATM    5  N7  UNL     1      37.429  -2.482  17.337  1.00  0.00    -0.273 N 
ATOM      6  H7  UNL     1      36.426  -2.584  17.491  1.00  0.00     0.189 HD
ENDROOT
BRANCH   5   7
HETATM    7  N8  UNL     1      38.181  -1.586  18.095  1.00  0.00    -0.307 N 
ATOM      8  H8  UNL     1      38.247  -1.688  19.107  1.00  0.00     0.186 HD
BRANCH   7   9
HETATM    9  C4  UNL     1      38.788  -0.630  17.492  1.00  0.00     0.145 C 
BRANCH   9  10
HETATM   10  C5  UNL     1      38.065   0.289  16.610  1.00  0.00     0.108 A 
HETATM   11  N9  UNL     1      36.863   0.825  16.787  1.00  0.00    -0.291 N 
HETATM   12  N10 UNL     1      36.388   1.604  15.916  1.00  0.00    -0.282 N 
ATOM     13  H9  UNL     1      36.326   0.608  17.626  1.00  0.00     0.187 HD
HETATM   14  C6  UNL     1      37.088   1.889  14.823  1.00  0.00     0.207 A 
ATOM     15  H10 UNL     1      35.465   2.016  16.051  1.00  0.00     0.188 HD
HETATM   16  S2  UNL     1      38.507   0.963  15.100  1.00  0.00    -0.037 SA
BRANCH  14  17
HETATM   17  S1  UNL     1      36.649   2.938  13.473  1.00  0.00     0.280 S 
HETATM   18  O1  UNL     1      35.239   3.418  13.671  1.00  0.00    -0.199 OA
HETATM   19  O2  UNL     1      36.719   2.165  12.186  1.00  0.00    -0.199 OA
BRANCH  17  20
HETATM   20  N11 UNL     1      37.689   4.289  13.493  1.00  0.00    -0.323 N 
ATOM     21 2H11 UNL     1      38.375   4.493  14.220  1.00  0.00     0.169 HD
ATOM     22 1H11 UNL     1      37.503   4.845  12.658  1.00  0.00     0.169 HD
ENDBRANCH  17  20
ENDBRANCH  14  17
ENDBRANCH   9  10
ENDBRANCH   7   9
ENDBRANCH   5   7
BRANCH   3  23
HETATM   23  N3  UNL     1      36.634  -2.547  14.639  1.00  0.00    -0.278 N 
ATOM     24  H3  UNL     1      35.827  -2.414  15.247  1.00  0.00     0.189 HD
BRANCH  23  25
HETATM   25  C2  UNL     1      36.611  -1.987  13.326  1.00  0.00     0.194 A 
HETATM   26  N4  UNL     1      35.980  -0.888  12.886  1.00  0.00    -0.266 N 
HETATM   27  N5  UNL     1      36.209  -0.710  11.608  1.00  0.00    -0.239 N 
ATOM     28  H4  UNL     1      35.404  -0.278  13.465  1.00  0.00     0.190 HD
HETATM   29  N6  UNL     1      36.990  -1.691  11.206  1.00  0.00    -0.258 N 
ATOM     30  H5  UNL     1      35.847   0.050  11.031  1.00  0.00     0.208 HD
HETATM   31  C3  UNL     1      37.266  -2.501  12.216  1.00  0.00     0.251 A 
ATOM     32  H6  UNL     1      37.332  -1.809  10.252  1.00  0.00     0.191 HD
HETATM   33  F1  UNL     1      38.021  -3.612  12.235  1.00  0.00    -0.180 F 
ENDBRANCH  23  25
ENDBRANCH   3  23
TORSDOF 7
ENDMDL
