MODEL 1
REMARK VINA RESULT: -6.607051250      0.000      0.000
REMARK  7 active torsions:
REMARK  status: ('A' for Active; 'I' for Inactive)
REMARK    1  A    between atoms: O1_2  and  C2_3 
REMARK    2  A    between atoms: C4_5  and  N1_6 
REMARK    3  A    between atoms: C7_12  and  O4_13 
REMARK    4  A    between atoms: O4_13  and  C8_14 
REMARK    5  A    between atoms: C9_17  and  N3_18 
REMARK    6  A    between atoms: C10_21  and  N4_22 
REMARK    7  A    between atoms: N4_22  and  N5_24 
ROOT
HETATM    1  C8  UNL     1      35.022  -5.040  13.173  1.00  0.00     0.234 C 
HETATM    2  N2  UNL     1      33.911  -5.248  12.432  1.00  0.00    -0.305 N 
ATOM      3  H2  UNL     1      33.417  -4.412  12.122  1.00  0.00     0.171 HD
HETATM    4  C9  UNL     1      33.368  -6.448  12.045  1.00  0.00     0.148 C 
HETATM    5  C10 UNL     1      33.995  -7.661  11.992  1.00  0.00     0.168 C 
HETATM    6  N6  UNL     1      35.001  -8.055  12.812  1.00  0.00    -0.290 N 
ATOM      7  H6  UNL     1      35.139  -9.061  12.897  1.00  0.00     0.172 HD
HETATM    8  C11 UNL     1      35.852  -7.272  13.539  1.00  0.00     0.329 C 
HETATM    9  O5  UNL     1      36.576  -7.888  14.363  1.00  0.00    -0.247 OA
HETATM   10  N7  UNL     1      35.993  -5.916  13.463  1.00  0.00    -0.274 N 
ATOM     11  H7  UNL     1      36.922  -5.535  13.645  1.00  0.00     0.174 HD
ENDROOT
BRANCH   1  12
HETATM   12  O4  UNL     1      35.155  -3.785  13.675  1.00  0.00    -0.273 OA
BRANCH  12  13
HETATM   13  C7  UNL     1      35.986  -2.780  13.298  1.00  0.00     0.151 A 
HETATM   14  C2  UNL     1      37.164  -2.581  14.005  1.00  0.00     0.107 A 
HETATM   15  C3  UNL     1      38.039  -1.571  13.658  1.00  0.00     0.075 A 
HETATM   16  C4  UNL     1      37.769  -0.729  12.598  1.00  0.00     0.108 A 
HETATM   17  C5  UNL     1      36.602  -0.940  11.911  1.00  0.00     0.081 A 
HETATM   18  C6  UNL     1      35.701  -1.957  12.244  1.00  0.00     0.155 A 
HETATM   19  F1  UNL     1      34.574  -2.092  11.519  1.00  0.00    -0.203 F 
BRANCH  14  20
HETATM   20  O1  UNL     1      37.429  -3.429  15.066  1.00  0.00    -0.353 OA
HETATM   21  C1  UNL     1      38.658  -4.125  15.069  1.00  0.00     0.210 C 
ENDBRANCH  14  20
BRANCH  16  22
HETATM   22  N1  UNL     1      38.652   0.311  12.227  1.00  0.00    -0.116 N 
HETATM   23  O2  UNL     1      39.804   0.073  11.832  1.00  0.00    -0.532 OA
HETATM   24  O3  UNL     1      38.242   1.614  12.298  1.00  0.00    -0.532 OA
ENDBRANCH  16  22
ENDBRANCH  12  13
ENDBRANCH   1  12
BRANCH   4  25
HETATM   25  N3  UNL     1      32.133  -6.432  11.696  1.00  0.00    -0.382 N 
ATOM     26  H32 UNL     1      31.824  -5.612  11.173  1.00  0.00     0.157 HD
ATOM     27  H31 UNL     1      31.572  -7.238  11.969  1.00  0.00     0.157 HD
ENDBRANCH   4  25
BRANCH   5  28
HETATM   28  N4  UNL     1      33.599  -8.481  11.095  1.00  0.00    -0.289 N 
ATOM     29  H4  UNL     1      33.743  -8.259  10.110  1.00  0.00     0.188 HD
BRANCH  28  30
HETATM   30  N5  UNL     1      32.978  -9.662  11.444  1.00  0.00    -0.344 N 
ATOM     31  H52 UNL     1      33.333 -10.183  12.246  1.00  0.00     0.176 HD
ATOM     32  H51 UNL     1      32.181 -10.010  10.911  1.00  0.00     0.176 HD
ENDBRANCH  28  30
ENDBRANCH   5  28
TORSDOF 7
ENDMDL
MODEL 2
REMARK VINA RESULT: -6.572781038      3.098      8.037
REMARK  7 active torsions:
REMARK  status: ('A' for Active; 'I' for Inactive)
REMARK    1  A    between atoms: O1_2  and  C2_3 
REMARK    2  A    between atoms: C4_5  and  N1_6 
REMARK    3  A    between atoms: C7_12  and  O4_13 
REMARK    4  A    between atoms: O4_13  and  C8_14 
REMARK    5  A    between atoms: C9_17  and  N3_18 
REMARK    6  A    between atoms: C10_21  and  N4_22 
REMARK    7  A    between atoms: N4_22  and  N5_24 
ROOT
HETATM    1  C8  UNL     1      37.347   0.882  13.372  1.00  0.00     0.234 C 
HETATM    2  N2  UNL     1      37.536   1.906  12.508  1.00  0.00    -0.305 N 
ATOM      3  H2  UNL     1      37.701   1.647  11.536  1.00  0.00     0.171 HD
HETATM    4  C9  UNL     1      37.530   3.251  12.781  1.00  0.00     0.148 C 
HETATM    5  C10 UNL     1      36.981   3.873  13.868  1.00  0.00     0.168 C 
HETATM    6  N6  UNL     1      36.878   3.330  15.106  1.00  0.00    -0.290 N 
ATOM      7  H6  UNL     1      36.775   3.990  15.876  1.00  0.00     0.172 HD
HETATM    8  C11 UNL     1      36.896   2.009  15.453  1.00  0.00     0.329 C 
HETATM    9  O5  UNL     1      36.970   1.778  16.688  1.00  0.00    -0.247 OA
HETATM   10  N7  UNL     1      36.844   0.934  14.611  1.00  0.00    -0.274 N 
ATOM     11  H7  UNL     1      36.380   0.095  14.959  1.00  0.00     0.174 HD
ENDROOT
BRANCH   1  12
HETATM   12  O4  UNL     1      37.718  -0.339  12.908  1.00  0.00    -0.273 OA
BRANCH  12  13
HETATM   13  C7  UNL     1      36.976  -1.459  12.717  1.00  0.00     0.151 A 
HETATM   14  C2  UNL     1      36.958  -2.432  13.708  1.00  0.00     0.107 A 
HETATM   15  C3  UNL     1      36.218  -3.587  13.555  1.00  0.00     0.075 A 
HETATM   16  C4  UNL     1      35.474  -3.811  12.414  1.00  0.00     0.108 A 
HETATM   17  C5  UNL     1      35.503  -2.840  11.446  1.00  0.00     0.081 A 
HETATM   18  C6  UNL     1      36.245  -1.661  11.578  1.00  0.00     0.155 A 
HETATM   19  F1  UNL     1      36.223  -0.762  10.577  1.00  0.00    -0.203 F 
BRANCH  14  20
HETATM   20  O1  UNL     1      37.705  -2.201  14.849  1.00  0.00    -0.353 OA
HETATM   21  C1  UNL     1      38.147  -3.319  15.590  1.00  0.00     0.210 C 
ENDBRANCH  14  20
BRANCH  16  22
HETATM   22  N1  UNL     1      34.710  -4.987  12.239  1.00  0.00    -0.116 N 
HETATM   23  O2  UNL     1      33.985  -5.430  13.144  1.00  0.00    -0.532 OA
HETATM   24  O3  UNL     1      34.758  -5.664  11.051  1.00  0.00    -0.532 OA
ENDBRANCH  16  22
ENDBRANCH  12  13
ENDBRANCH   1  12
BRANCH   4  25
HETATM   25  N3  UNL     1      38.106   4.012  11.924  1.00  0.00    -0.382 N 
ATOM     26  H32 UNL     1      38.924   3.623  11.453  1.00  0.00     0.157 HD
ATOM     27  H31 UNL     1      37.696   4.936  11.787  1.00  0.00     0.157 HD
ENDBRANCH   4  25
BRANCH   5  28
HETATM   28  N4  UNL     1      36.529   5.055  13.694  1.00  0.00    -0.289 N 
ATOM     29  H4  UNL     1      37.179   5.838  13.626  1.00  0.00     0.188 HD
BRANCH  28  30
HETATM   30  N5  UNL     1      35.173   5.285  13.597  1.00  0.00    -0.344 N 
ATOM     31  H52 UNL     1      34.539   4.486  13.613  1.00  0.00     0.176 HD
ATOM     32  H51 UNL     1      34.809   6.234  13.510  1.00  0.00     0.176 HD
ENDBRANCH  28  30
ENDBRANCH   5  28
TORSDOF 7
ENDMDL
MODEL 3
REMARK VINA RESULT: -6.452825024      3.153      4.534
REMARK  7 active torsions:
REMARK  status: ('A' for Active; 'I' for Inactive)
REMARK    1  A    between atoms: O1_2  and  C2_3 
REMARK    2  A    between atoms: C4_5  and  N1_6 
REMARK    3  A    between atoms: C7_12  and  O4_13 
REMARK    4  A    between atoms: O4_13  and  C8_14 
REMARK    5  A    between atoms: C9_17  and  N3_18 
REMARK    6  A    between atoms: C10_21  and  N4_22 
REMARK    7  A    between atoms: N4_22  and  N5_24 
ROOT
HETATM    1  C8  UNL     1      36.642  -3.003  13.792  1.00  0.00     0.234 C 
HETATM    2  N2  UNL     1      36.564  -4.297  14.176  1.00  0.00    -0.305 N 
ATOM      3  H2  UNL     1      37.130  -4.559  14.983  1.00  0.00     0.171 HD
HETATM    4  C9  UNL     1      35.816  -5.300  13.613  1.00  0.00     0.148 C 
HETATM    5  C10 UNL     1      34.725  -5.164  12.802  1.00  0.00     0.168 C 
HETATM    6  N6  UNL     1      34.519  -4.136  11.940  1.00  0.00    -0.290 N 
ATOM      7  H6  UNL     1      33.870  -4.319  11.176  1.00  0.00     0.172 HD
HETATM    8  C11 UNL     1      35.071  -2.888  11.968  1.00  0.00     0.329 C 
HETATM    9  O5  UNL     1      34.857  -2.182  10.948  1.00  0.00    -0.247 OA
HETATM   10  N7  UNL     1      35.818  -2.338  12.971  1.00  0.00    -0.274 N 
ATOM     11  H7  UNL     1      35.742  -1.330  13.108  1.00  0.00     0.174 HD
ENDROOT
BRANCH   1  12
HETATM   12  O4  UNL     1      37.686  -2.308  14.312  1.00  0.00    -0.273 OA
BRANCH  12  13
HETATM   13  C7  UNL     1      37.690  -1.217  15.119  1.00  0.00     0.151 A 
HETATM   14  C2  UNL     1      37.751   0.045  14.545  1.00  0.00     0.107 A 
HETATM   15  C3  UNL     1      37.758   1.182  15.327  1.00  0.00     0.075 A 
HETATM   16  C4  UNL     1      37.706   1.099  16.704  1.00  0.00     0.108 A 
HETATM   17  C5  UNL     1      37.647  -0.156  17.255  1.00  0.00     0.081 A 
HETATM   18  C6  UNL     1      37.637  -1.322  16.482  1.00  0.00     0.155 A 
HETATM   19  F1  UNL     1      37.583  -2.514  17.104  1.00  0.00    -0.203 F 
BRANCH  14  20
HETATM   20  O1  UNL     1      37.803   0.121  13.164  1.00  0.00    -0.353 OA
HETATM   21  C1  UNL     1      36.924   1.019  12.516  1.00  0.00     0.210 C 
ENDBRANCH  14  20
BRANCH  16  22
HETATM   22  N1  UNL     1      37.712   2.251  17.523  1.00  0.00    -0.116 N 
HETATM   23  O2  UNL     1      37.351   2.204  18.710  1.00  0.00    -0.532 OA
HETATM   24  O3  UNL     1      38.124   3.452  17.012  1.00  0.00    -0.532 OA
ENDBRANCH  16  22
ENDBRANCH  12  13
ENDBRANCH   1  12
BRANCH   4  25
HETATM   25  N3  UNL     1      36.181  -6.503  13.874  1.00  0.00    -0.382 N 
ATOM     26  H32 UNL     1      37.138  -6.620  14.208  1.00  0.00     0.157 HD
ATOM     27  H31 UNL     1      35.483  -7.232  13.727  1.00  0.00     0.157 HD
ENDBRANCH   4  25
BRANCH   5  28
HETATM   28  N4  UNL     1      33.833  -6.076  12.869  1.00  0.00    -0.289 N 
ATOM     29  H4  UNL     1      33.793  -6.683  13.688  1.00  0.00     0.188 HD
BRANCH  28  30
HETATM   30  N5  UNL     1      32.923  -6.249  11.847  1.00  0.00    -0.344 N 
ATOM     31  H52 UNL     1      33.003  -5.663  11.017  1.00  0.00     0.176 HD
ATOM     32  H51 UNL     1      32.184  -6.949  11.919  1.00  0.00     0.176 HD
ENDBRANCH  28  30
ENDBRANCH   5  28
TORSDOF 7
ENDMDL
MODEL 4
REMARK VINA RESULT: -6.294160747      1.675      1.766
REMARK  7 active torsions:
REMARK  status: ('A' for Active; 'I' for Inactive)
REMARK    1  A    between atoms: O1_2  and  C2_3 
REMARK    2  A    between atoms: C4_5  and  N1_6 
REMARK    3  A    between atoms: C7_12  and  O4_13 
REMARK    4  A    between atoms: O4_13  and  C8_14 
REMARK    5  A    between atoms: C9_17  and  N3_18 
REMARK    6  A    between atoms: C10_21  and  N4_22 
REMARK    7  A    between atoms: N4_22  and  N5_24 
ROOT
HETATM    1  C8  UNL     1      35.798  -6.519  13.440  1.00  0.00     0.234 C 
HETATM    2  N2  UNL     1      34.723  -6.157  12.705  1.00  0.00    -0.305 N 
ATOM      3  H2  UNL     1      34.668  -5.173  12.445  1.00  0.00     0.171 HD
HETATM    4  C9  UNL     1      33.695  -6.954  12.267  1.00  0.00     0.148 C 
HETATM    5  C10 UNL     1      33.697  -8.315  12.143  1.00  0.00     0.168 C 
HETATM    6  N6  UNL     1      34.403  -9.167  12.928  1.00  0.00    -0.290 N 
ATOM      7  H6  UNL     1      34.065 -10.128  12.960  1.00  0.00     0.172 HD
HETATM    8  C11 UNL     1      35.510  -8.899  13.681  1.00  0.00     0.329 C 
HETATM    9  O5  UNL     1      35.864  -9.820  14.463  1.00  0.00    -0.247 OA
HETATM   10  N7  UNL     1      36.257  -7.756  13.672  1.00  0.00    -0.274 N 
ATOM     11  H7  UNL     1      37.256  -7.852  13.859  1.00  0.00     0.174 HD
ENDROOT
BRANCH   1  12
HETATM   12  O4  UNL     1      36.485  -5.491  14.002  1.00  0.00    -0.273 OA
BRANCH  12  13
HETATM   13  C7  UNL     1      36.846  -4.294  13.475  1.00  0.00     0.151 A 
HETATM   14  C2  UNL     1      38.111  -4.156  12.921  1.00  0.00     0.107 A 
HETATM   15  C3  UNL     1      38.520  -2.957  12.375  1.00  0.00     0.075 A 
HETATM   16  C4  UNL     1      37.685  -1.858  12.362  1.00  0.00     0.108 A 
HETATM   17  C5  UNL     1      36.438  -2.011  12.913  1.00  0.00     0.081 A 
HETATM   18  C6  UNL     1      36.002  -3.218  13.472  1.00  0.00     0.155 A 
HETATM   19  F1  UNL     1      34.764  -3.281  13.996  1.00  0.00    -0.203 F 
BRANCH  14  20
HETATM   20  O1  UNL     1      38.944  -5.261  12.937  1.00  0.00    -0.353 OA
HETATM   21  C1  UNL     1      40.296  -5.079  12.570  1.00  0.00     0.210 C 
ENDBRANCH  14  20
BRANCH  16  22
HETATM   22  N1  UNL     1      38.085  -0.621  11.807  1.00  0.00    -0.116 N 
HETATM   23  O2  UNL     1      39.284  -0.320  11.690  1.00  0.00    -0.532 OA
HETATM   24  O3  UNL     1      37.143   0.276  11.385  1.00  0.00    -0.532 OA
ENDBRANCH  16  22
ENDBRANCH  12  13
ENDBRANCH   1  12
BRANCH   4  25
HETATM   25  N3  UNL     1      32.608  -6.357  11.937  1.00  0.00    -0.382 N 
ATOM     26  H32 UNL     1      32.600  -5.910  11.019  1.00  0.00     0.157 HD
ATOM     27  H31 UNL     1      31.849  -6.383  12.618  1.00  0.00     0.157 HD
ENDBRANCH   4  25
BRANCH   5  28
HETATM   28  N4  UNL     1      32.979  -8.816  11.213  1.00  0.00    -0.289 N 
ATOM     29  H4  UNL     1      32.724  -8.242  10.409  1.00  0.00     0.188 HD
BRANCH  28  30
HETATM   30  N5  UNL     1      32.543 -10.123  11.283  1.00  0.00    -0.344 N 
ATOM     31  H52 UNL     1      33.238 -10.868  11.324  1.00  0.00     0.176 HD
ATOM     32  H51 UNL     1      31.546 -10.341  11.293  1.00  0.00     0.176 HD
ENDBRANCH  28  30
ENDBRANCH   5  28
TORSDOF 7
ENDMDL
MODEL 5
REMARK VINA RESULT: -6.268437667      2.626      7.382
REMARK  7 active torsions:
REMARK  status: ('A' for Active; 'I' for Inactive)
REMARK    1  A    between atoms: O1_2  and  C2_3 
REMARK    2  A    between atoms: C4_5  and  N1_6 
REMARK    3  A    between atoms: C7_12  and  O4_13 
REMARK    4  A    between atoms: O4_13  and  C8_14 
REMARK    5  A    between atoms: C9_17  and  N3_18 
REMARK    6  A    between atoms: C10_21  and  N4_22 
REMARK    7  A    between atoms: N4_22  and  N5_24 
ROOT
HETATM    1  C8  UNL     1      37.581  -1.567  13.587  1.00  0.00     0.234 C 
HETATM    2  N2  UNL     1      37.634  -1.608  14.937  1.00  0.00    -0.305 N 
ATOM      3  H2  UNL     1      37.861  -2.513  15.349  1.00  0.00     0.171 HD
HETATM    4  C9  UNL     1      37.419  -0.581  15.821  1.00  0.00     0.148 C 
HETATM    5  C10 UNL     1      37.472   0.760  15.561  1.00  0.00     0.168 C 
HETATM    6  N6  UNL     1      37.160   1.336  14.373  1.00  0.00    -0.290 N 
ATOM      7  H6  UNL     1      36.915   2.324  14.407  1.00  0.00     0.172 HD
HETATM    8  C11 UNL     1      37.133   0.757  13.136  1.00  0.00     0.329 C 
HETATM    9  O5  UNL     1      36.631   1.463  12.224  1.00  0.00    -0.247 OA
HETATM   10  N7  UNL     1      37.586  -0.486  12.797  1.00  0.00    -0.274 N 
ATOM     11  H7  UNL     1      37.963  -0.601  11.856  1.00  0.00     0.174 HD
ENDROOT
BRANCH   1  12
HETATM   12  O4  UNL     1      37.517  -2.778  12.975  1.00  0.00    -0.273 OA
BRANCH  12  13
HETATM   13  C7  UNL     1      36.498  -3.672  12.918  1.00  0.00     0.151 A 
HETATM   14  C2  UNL     1      36.473  -4.721  13.826  1.00  0.00     0.107 A 
HETATM   15  C3  UNL     1      35.456  -5.654  13.805  1.00  0.00     0.075 A 
HETATM   16  C4  UNL     1      34.434  -5.573  12.881  1.00  0.00     0.108 A 
HETATM   17  C5  UNL     1      34.474  -4.530  11.992  1.00  0.00     0.081 A 
HETATM   18  C6  UNL     1      35.494  -3.572  11.995  1.00  0.00     0.155 A 
HETATM   19  F1  UNL     1      35.460  -2.582  11.083  1.00  0.00    -0.203 F 
BRANCH  14  20
HETATM   20  O1  UNL     1      37.500  -4.797  14.750  1.00  0.00    -0.353 OA
HETATM   21  C1  UNL     1      38.630  -5.580  14.423  1.00  0.00     0.210 C 
ENDBRANCH  14  20
BRANCH  16  22
HETATM   22  N1  UNL     1      33.383  -6.518  12.843  1.00  0.00    -0.116 N 
HETATM   23  O2  UNL     1      33.435  -7.571  13.499  1.00  0.00    -0.532 OA
HETATM   24  O3  UNL     1      32.279  -6.283  12.071  1.00  0.00    -0.532 OA
ENDBRANCH  16  22
ENDBRANCH  12  13
ENDBRANCH   1  12
BRANCH   4  25
HETATM   25  N3  UNL     1      37.134  -0.913  17.028  1.00  0.00    -0.382 N 
ATOM     26  H32 UNL     1      36.596  -1.772  17.144  1.00  0.00     0.157 HD
ATOM     27  H31 UNL     1      37.471  -0.290  17.763  1.00  0.00     0.157 HD
ENDBRANCH   4  25
BRANCH   5  28
HETATM   28  N4  UNL     1      37.850   1.523  16.514  1.00  0.00    -0.289 N 
ATOM     29  H4  UNL     1      38.174   1.112  17.390  1.00  0.00     0.188 HD
BRANCH  28  30
HETATM   30  N5  UNL     1      37.824   2.895  16.373  1.00  0.00    -0.344 N 
ATOM     31  H52 UNL     1      38.341   3.317  15.602  1.00  0.00     0.176 HD
ATOM     32  H51 UNL     1      37.298   3.477  17.025  1.00  0.00     0.176 HD
ENDBRANCH  28  30
ENDBRANCH   5  28
TORSDOF 7
ENDMDL
