MODEL 1
REMARK VINA RESULT: -5.795713826      0.000      0.000
REMARK  10 active torsions:
REMARK  status: ('A' for Active; 'I' for Inactive)
REMARK    1  A    between atoms: O1_2  and  C2_3 
REMARK    2  A    between atoms: C2_3  and  N1_5 
REMARK    3  A    between atoms: N1_5  and  C3_7 
REMARK    4  A    between atoms: C3_7  and  O2_8 
REMARK    5  A    between atoms: C3_7  and  C9_21 
REMARK    6  A    between atoms: O2_8  and  C4_9 
REMARK    7  A    between atoms: C6_12  and  O4_13 
REMARK    8  A    between atoms: C6_12  and  C7_15 
REMARK    9  A    between atoms: C8_18  and  O7_19 
REMARK   10  A    between atoms: N2_23  and  O8_25 
ROOT
HETATM    1  C3  UNL     1      35.831  -5.129  12.592  1.00  0.00     0.291 C 
ENDROOT
BRANCH   1   2
HETATM    2  N1  UNL     1      36.748  -5.343  13.658  1.00  0.00    -0.329 N 
ATOM      3  H1  UNL     1      36.441  -5.204  14.621  1.00  0.00     0.165 HD
BRANCH   2   4
HETATM    4  C2  UNL     1      38.070  -5.744  13.405  1.00  0.00     0.211 C 
HETATM    5  S1  UNL     1      38.589  -7.258  13.707  1.00  0.00    -0.033 SA
BRANCH   4   6
HETATM    6  O1  UNL     1      38.980  -4.846  12.883  1.00  0.00    -0.332 OA
HETATM    7  C1  UNL     1      40.303  -5.211  12.532  1.00  0.00     0.212 C 
ENDBRANCH   4   6
ENDBRANCH   2   4
ENDBRANCH   1   2
BRANCH   1   8
HETATM    8  O2  UNL     1      35.433  -3.800  12.460  1.00  0.00    -0.328 OA
BRANCH   8   9
HETATM    9  C4  UNL     1      36.008  -3.140  11.408  1.00  0.00     0.295 C 
HETATM   10  O3  UNL     1      35.034  -2.384  10.774  1.00  0.00    -0.355 OA
HETATM   11  C5  UNL     1      34.889  -1.295  11.631  1.00  0.00     0.223 C 
HETATM   12  C6  UNL     1      36.348  -0.830  11.735  1.00  0.00     0.198 C 
HETATM   13  C8  UNL     1      37.031  -2.167  11.961  1.00  0.00     0.220 C 
BRANCH  12  14
HETATM   14  O4  UNL     1      36.693  -0.263  10.535  1.00  0.00    -0.375 OA
ATOM     15  H4  UNL     1      36.584   0.677  10.615  1.00  0.00     0.211 HD
ENDBRANCH  12  14
BRANCH  12  16
HETATM   16  C7  UNL     1      36.543   0.100  12.864  1.00  0.00     0.214 C 
HETATM   17  O5  UNL     1      35.926   1.178  12.998  1.00  0.00    -0.646 OA
HETATM   18  O6  UNL     1      37.468  -0.243  13.841  1.00  0.00    -0.646 OA
ENDBRANCH  12  16
BRANCH  13  19
HETATM   19  O7  UNL     1      38.256  -2.261  11.355  1.00  0.00    -0.387 OA
ATOM     20  H7  UNL     1      38.885  -2.772  11.850  1.00  0.00     0.210 HD
ENDBRANCH  13  19
ENDBRANCH   8   9
ENDBRANCH   1   8
BRANCH   1  21
HETATM   21  C9  UNL     1      34.595  -5.922  12.674  1.00  0.00     0.149 C 
HETATM   22 CL1  UNL     1      34.424  -7.136  13.906  1.00  0.00    -0.063 Cl
HETATM   23  N2  UNL     1      33.651  -5.739  11.840  1.00  0.00    -0.258 N 
ATOM     24  H2  UNL     1      33.791  -5.026  11.124  1.00  0.00     0.195 HD
BRANCH  23  25
HETATM   25  O8  UNL     1      32.471  -6.414  11.824  1.00  0.00    -0.289 OA
ATOM     26  H8  UNL     1      31.645  -6.089  12.164  1.00  0.00     0.244 HD
ENDBRANCH  23  25
ENDBRANCH   1  21
TORSDOF 10
ENDMDL
MODEL 2
REMARK VINA RESULT: -5.777465370      1.223      1.359
REMARK  10 active torsions:
REMARK  status: ('A' for Active; 'I' for Inactive)
REMARK    1  A    between atoms: O1_2  and  C2_3 
REMARK    2  A    between atoms: C2_3  and  N1_5 
REMARK    3  A    between atoms: N1_5  and  C3_7 
REMARK    4  A    between atoms: C3_7  and  O2_8 
REMARK    5  A    between atoms: C3_7  and  C9_21 
REMARK    6  A    between atoms: O2_8  and  C4_9 
REMARK    7  A    between atoms: C6_12  and  O4_13 
REMARK    8  A    between atoms: C6_12  and  C7_15 
REMARK    9  A    between atoms: C8_18  and  O7_19 
REMARK   10  A    between atoms: N2_23  and  O8_25 
ROOT
HETATM    1  C3  UNL     1      35.963  -5.180  12.441  1.00  0.00     0.291 C 
ENDROOT
BRANCH   1   2
HETATM    2  N1  UNL     1      36.491  -5.544  13.710  1.00  0.00    -0.329 N 
ATOM      3  H1  UNL     1      35.897  -6.032  14.380  1.00  0.00     0.165 HD
BRANCH   2   4
HETATM    4  C2  UNL     1      37.819  -5.242  14.055  1.00  0.00     0.211 C 
HETATM    5  S1  UNL     1      39.052  -5.446  13.012  1.00  0.00    -0.033 SA
BRANCH   4   6
HETATM    6  O1  UNL     1      38.116  -4.754  15.312  1.00  0.00    -0.332 OA
HETATM    7  C1  UNL     1      38.074  -3.374  15.629  1.00  0.00     0.212 C 
ENDBRANCH   4   6
ENDBRANCH   2   4
ENDBRANCH   1   2
BRANCH   1   8
HETATM    8  O2  UNL     1      35.551  -3.851  12.371  1.00  0.00    -0.328 OA
BRANCH   8   9
HETATM    9  C4  UNL     1      36.095  -3.145  11.332  1.00  0.00     0.295 C 
HETATM   10  O3  UNL     1      35.091  -2.408  10.723  1.00  0.00    -0.355 OA
HETATM   11  C5  UNL     1      34.914  -1.347  11.609  1.00  0.00     0.223 C 
HETATM   12  C6  UNL     1      36.357  -0.834  11.714  1.00  0.00     0.198 C 
HETATM   13  C8  UNL     1      37.087  -2.151  11.903  1.00  0.00     0.220 C 
BRANCH  12  14
HETATM   14  O4  UNL     1      36.673  -0.226  10.527  1.00  0.00    -0.375 OA
ATOM     15  H4  UNL     1      36.080   0.508  10.410  1.00  0.00     0.211 HD
ENDBRANCH  12  14
BRANCH  12  16
HETATM   16  C7  UNL     1      36.527   0.073  12.866  1.00  0.00     0.214 C 
HETATM   17  O5  UNL     1      35.907   1.148  13.008  1.00  0.00    -0.646 OA
HETATM   18  O6  UNL     1      37.432  -0.288  13.855  1.00  0.00    -0.646 OA
ENDBRANCH  12  16
BRANCH  13  19
HETATM   19  O7  UNL     1      38.311  -2.187  11.286  1.00  0.00    -0.387 OA
ATOM     20  H7  UNL     1      38.608  -1.336  10.986  1.00  0.00     0.210 HD
ENDBRANCH  13  19
ENDBRANCH   8   9
ENDBRANCH   1   8
BRANCH   1  21
HETATM   21  C9  UNL     1      34.819  -5.990  11.994  1.00  0.00     0.149 C 
HETATM   22 CL1  UNL     1      35.091  -7.444  11.081  1.00  0.00    -0.063 Cl
HETATM   23  N2  UNL     1      33.627  -5.630  12.258  1.00  0.00    -0.258 N 
ATOM     24  H2  UNL     1      33.506  -4.766  12.786  1.00  0.00     0.195 HD
BRANCH  23  25
HETATM   25  O8  UNL     1      32.502  -6.301  11.895  1.00  0.00    -0.289 OA
ATOM     26  H8  UNL     1      32.385  -7.243  11.935  1.00  0.00     0.244 HD
ENDBRANCH  23  25
ENDBRANCH   1  21
TORSDOF 10
ENDMDL
MODEL 3
REMARK VINA RESULT: -5.652565329      3.791      5.279
REMARK  10 active torsions:
REMARK  status: ('A' for Active; 'I' for Inactive)
REMARK    1  A    between atoms: O1_2  and  C2_3 
REMARK    2  A    between atoms: C2_3  and  N1_5 
REMARK    3  A    between atoms: N1_5  and  C3_7 
REMARK    4  A    between atoms: C3_7  and  O2_8 
REMARK    5  A    between atoms: C3_7  and  C9_21 
REMARK    6  A    between atoms: O2_8  and  C4_9 
REMARK    7  A    between atoms: C6_12  and  O4_13 
REMARK    8  A    between atoms: C6_12  and  C7_15 
REMARK    9  A    between atoms: C8_18  and  O7_19 
REMARK   10  A    between atoms: N2_23  and  O8_25 
ROOT
HETATM    1  C3  UNL     1      37.068  -0.217  11.922  1.00  0.00     0.291 C 
ENDROOT
BRANCH   1   2
HETATM    2  N1  UNL     1      38.302  -0.665  11.372  1.00  0.00    -0.329 N 
ATOM      3  H1  UNL     1      38.349  -0.915  10.384  1.00  0.00     0.165 HD
BRANCH   2   4
HETATM    4  C2  UNL     1      39.454  -0.767  12.168  1.00  0.00     0.211 C 
HETATM    5  S1  UNL     1      40.670   0.312  12.075  1.00  0.00    -0.033 SA
BRANCH   4   6
HETATM    6  O1  UNL     1      39.586  -1.806  13.068  1.00  0.00    -0.332 OA
HETATM    7  C1  UNL     1      39.643  -3.164  12.671  1.00  0.00     0.212 C 
ENDBRANCH   4   6
ENDBRANCH   2   4
ENDBRANCH   1   2
BRANCH   1   8
HETATM    8  O2  UNL     1      37.224   0.673  12.982  1.00  0.00    -0.328 OA
BRANCH   8   9
HETATM    9  C4  UNL     1      36.660   1.902  12.776  1.00  0.00     0.295 C 
HETATM   10  O3  UNL     1      35.679   2.107  13.735  1.00  0.00    -0.355 OA
HETATM   11  C5  UNL     1      36.424   2.422  14.869  1.00  0.00     0.223 C 
HETATM   12  C6  UNL     1      37.286   3.568  14.321  1.00  0.00     0.198 C 
HETATM   13  C8  UNL     1      37.725   2.956  13.004  1.00  0.00     0.220 C 
BRANCH  12  14
HETATM   14  O4  UNL     1      36.472   4.658  14.147  1.00  0.00    -0.375 OA
ATOM     15  H4  UNL     1      36.579   4.960  13.252  1.00  0.00     0.211 HD
ENDBRANCH  12  14
BRANCH  12  16
HETATM   16  C7  UNL     1      38.426   3.864  15.212  1.00  0.00     0.214 C 
HETATM   17  O5  UNL     1      38.349   3.897  16.458  1.00  0.00    -0.646 OA
HETATM   18  O6  UNL     1      39.660   4.120  14.631  1.00  0.00    -0.646 OA
ENDBRANCH  12  16
BRANCH  13  19
HETATM   19  O7  UNL     1      37.816   3.868  11.984  1.00  0.00    -0.387 OA
ATOM     20  H7  UNL     1      38.582   4.427  12.045  1.00  0.00     0.210 HD
ENDBRANCH  13  19
ENDBRANCH   8   9
ENDBRANCH   1   8
BRANCH   1  21
HETATM   21  C9  UNL     1      36.185  -1.288  12.407  1.00  0.00     0.149 C 
HETATM   22 CL1  UNL     1      34.891  -1.868  11.402  1.00  0.00    -0.063 Cl
HETATM   23  N2  UNL     1      36.350  -1.789  13.566  1.00  0.00    -0.258 N 
ATOM     24  H2  UNL     1      37.112  -1.416  14.132  1.00  0.00     0.195 HD
BRANCH  23  25
HETATM   25  O8  UNL     1      35.595  -2.779  14.112  1.00  0.00    -0.289 OA
ATOM     26  H8  UNL     1      35.735  -3.710  13.990  1.00  0.00     0.244 HD
ENDBRANCH  23  25
ENDBRANCH   1  21
TORSDOF 10
ENDMDL
MODEL 4
REMARK VINA RESULT: -5.484475869      4.938      7.455
REMARK  10 active torsions:
REMARK  status: ('A' for Active; 'I' for Inactive)
REMARK    1  A    between atoms: O1_2  and  C2_3 
REMARK    2  A    between atoms: C2_3  and  N1_5 
REMARK    3  A    between atoms: N1_5  and  C3_7 
REMARK    4  A    between atoms: C3_7  and  O2_8 
REMARK    5  A    between atoms: C3_7  and  C9_21 
REMARK    6  A    between atoms: O2_8  and  C4_9 
REMARK    7  A    between atoms: C6_12  and  O4_13 
REMARK    8  A    between atoms: C6_12  and  C7_15 
REMARK    9  A    between atoms: C8_18  and  O7_19 
REMARK   10  A    between atoms: N2_23  and  O8_25 
ROOT
HETATM    1  C3  UNL     1      37.081   2.058  14.476  1.00  0.00     0.291 C 
ENDROOT
BRANCH   1   2
HETATM    2  N1  UNL     1      36.310   3.202  14.130  1.00  0.00    -0.329 N 
ATOM      3  H1  UNL     1      35.292   3.143  14.142  1.00  0.00     0.165 HD
BRANCH   2   4
HETATM    4  C2  UNL     1      36.929   4.411  13.774  1.00  0.00     0.211 C 
HETATM    5  S1  UNL     1      38.370   4.456  13.017  1.00  0.00    -0.033 SA
BRANCH   4   6
HETATM    6  O1  UNL     1      36.317   5.615  14.061  1.00  0.00    -0.332 OA
HETATM    7  C1  UNL     1      36.910   6.868  13.765  1.00  0.00     0.212 C 
ENDBRANCH   4   6
ENDBRANCH   2   4
ENDBRANCH   1   2
BRANCH   1   8
HETATM    8  O2  UNL     1      36.605   0.876  13.915  1.00  0.00    -0.328 OA
BRANCH   8   9
HETATM    9  C4  UNL     1      37.401   0.356  12.931  1.00  0.00     0.295 C 
HETATM   10  O3  UNL     1      38.243  -0.589  13.495  1.00  0.00    -0.355 OA
HETATM   11  C5  UNL     1      37.400  -1.686  13.663  1.00  0.00     0.223 C 
HETATM   12  C6  UNL     1      36.848  -1.828  12.238  1.00  0.00     0.198 C 
HETATM   13  C8  UNL     1      36.515  -0.377  11.942  1.00  0.00     0.220 C 
BRANCH  12  14
HETATM   14  O4  UNL     1      37.859  -2.305  11.443  1.00  0.00    -0.375 OA
ATOM     15  H4  UNL     1      38.151  -3.131  11.810  1.00  0.00     0.211 HD
ENDBRANCH  12  14
BRANCH  12  16
HETATM   16  C7  UNL     1      35.656  -2.697  12.202  1.00  0.00     0.214 C 
HETATM   17  O5  UNL     1      35.289  -3.422  13.151  1.00  0.00    -0.646 OA
HETATM   18  O6  UNL     1      34.892  -2.713  11.043  1.00  0.00    -0.646 OA
ENDBRANCH  12  16
BRANCH  13  19
HETATM   19  O7  UNL     1      36.743  -0.022  10.638  1.00  0.00    -0.387 OA
ATOM     20  H7  UNL     1      36.603   0.902  10.468  1.00  0.00     0.210 HD
ENDBRANCH  13  19
ENDBRANCH   8   9
ENDBRANCH   1   8
BRANCH   1  21
HETATM   21  C9  UNL     1      37.201   1.809  15.921  1.00  0.00     0.149 C 
HETATM   22 CL1  UNL     1      38.113   2.904  16.917  1.00  0.00    -0.063 Cl
HETATM   23  N2  UNL     1      36.652   0.790  16.451  1.00  0.00    -0.258 N 
ATOM     24  H2  UNL     1      36.134   0.164  15.834  1.00  0.00     0.195 HD
BRANCH  23  25
HETATM   25  O8  UNL     1      36.699   0.466  17.771  1.00  0.00    -0.289 OA
ATOM     26  H8  UNL     1      36.309  -0.306  18.162  1.00  0.00     0.244 HD
ENDBRANCH  23  25
ENDBRANCH   1  21
TORSDOF 10
ENDMDL
MODEL 5
REMARK VINA RESULT: -5.439375828      5.015      7.851
REMARK  10 active torsions:
REMARK  status: ('A' for Active; 'I' for Inactive)
REMARK    1  A    between atoms: O1_2  and  C2_3 
REMARK    2  A    between atoms: C2_3  and  N1_5 
REMARK    3  A    between atoms: N1_5  and  C3_7 
REMARK    4  A    between atoms: C3_7  and  O2_8 
REMARK    5  A    between atoms: C3_7  and  C9_21 
REMARK    6  A    between atoms: O2_8  and  C4_9 
REMARK    7  A    between atoms: C6_12  and  O4_13 
REMARK    8  A    between atoms: C6_12  and  C7_15 
REMARK    9  A    between atoms: C8_18  and  O7_19 
REMARK   10  A    between atoms: N2_23  and  O8_25 
ROOT
HETATM    1  C3  UNL     1      34.533  -8.227  11.499  1.00  0.00     0.291 C 
ENDROOT
BRANCH   1   2
HETATM    2  N1  UNL     1      34.132  -6.870  11.350  1.00  0.00    -0.329 N 
ATOM      3  H1  UNL     1      33.250  -6.655  10.885  1.00  0.00     0.165 HD
BRANCH   2   4
HETATM    4  C2  UNL     1      34.933  -5.823  11.834  1.00  0.00     0.211 C 
HETATM    5  S1  UNL     1      36.261  -6.093  12.736  1.00  0.00    -0.033 SA
BRANCH   4   6
HETATM    6  O1  UNL     1      34.607  -4.512  11.549  1.00  0.00    -0.332 OA
HETATM    7  C1  UNL     1      35.447  -3.421  11.885  1.00  0.00     0.212 C 
ENDBRANCH   4   6
ENDBRANCH   2   4
ENDBRANCH   1   2
BRANCH   1   8
HETATM    8  O2  UNL     1      34.477  -8.956  10.313  1.00  0.00    -0.328 OA
BRANCH   8   9
HETATM    9  C4  UNL     1      35.699  -9.251   9.773  1.00  0.00     0.295 C 
HETATM   10  O3  UNL     1      36.011 -10.568  10.073  1.00  0.00    -0.355 OA
HETATM   11  C5  UNL     1      35.223 -11.280   9.171  1.00  0.00     0.223 C 
HETATM   12  C6  UNL     1      35.647 -10.617   7.853  1.00  0.00     0.198 C 
HETATM   13  C8  UNL     1      35.585  -9.158   8.264  1.00  0.00     0.220 C 
BRANCH  12  14
HETATM   14  O4  UNL     1      36.925 -11.027   7.571  1.00  0.00    -0.375 OA
ATOM     15  H4  UNL     1      36.895 -11.955   7.369  1.00  0.00     0.211 HD
ENDBRANCH  12  14
BRANCH  12  16
HETATM   16  C7  UNL     1      34.708 -10.935   6.759  1.00  0.00     0.214 C 
HETATM   17  O5  UNL     1      33.494 -11.176   6.927  1.00  0.00    -0.646 OA
HETATM   18  O6  UNL     1      35.202 -10.969   5.462  1.00  0.00    -0.646 OA
ENDBRANCH  12  16
BRANCH  13  19
HETATM   19  O7  UNL     1      36.563  -8.389   7.689  1.00  0.00    -0.387 OA
ATOM     20  H7  UNL     1      36.364  -8.127   6.798  1.00  0.00     0.210 HD
ENDBRANCH  13  19
ENDBRANCH   8   9
ENDBRANCH   1   8
BRANCH   1  21
HETATM   21  C9  UNL     1      33.760  -8.992  12.490  1.00  0.00     0.149 C 
HETATM   22 CL1  UNL     1      33.970  -8.673  14.186  1.00  0.00    -0.063 Cl
HETATM   23  N2  UNL     1      32.947  -9.898  12.119  1.00  0.00    -0.258 N 
ATOM     24  H2  UNL     1      32.858 -10.065  11.117  1.00  0.00     0.195 HD
BRANCH  23  25
HETATM   25  O8  UNL     1      32.186 -10.662  12.948  1.00  0.00    -0.289 OA
ATOM     26  H8  UNL     1      31.658 -11.405  12.681  1.00  0.00     0.244 HD
ENDBRANCH  23  25
ENDBRANCH   1  21
TORSDOF 10
ENDMDL
