MODEL 1
REMARK VINA RESULT: -5.438908437      0.000      0.000
REMARK  7 active torsions:
REMARK  status: ('A' for Active; 'I' for Inactive)
REMARK    1  A    between atoms: C1_2  and  C2_3 
REMARK    2  A    between atoms: C1_2  and  C8_19 
REMARK    3  A    between atoms: C5_8  and  N1_9 
REMARK    4  A    between atoms: N1_9  and  N2_11 
REMARK    5  A    between atoms: N2_11  and  C6_13 
REMARK    6  A    between atoms: C8_19  and  O2_20 
REMARK    7  A    between atoms: C8_19  and  N5_22 
ROOT
HETATM    1  C2  UNL     1      37.637  -0.469  11.474  1.00  0.00     0.174 C 
HETATM    2  S1  UNL     1      39.364  -0.230  12.073  1.00  0.00    -0.144 SA
HETATM    3  C3  UNL     1      39.270  -1.613  13.253  1.00  0.00     0.128 C 
HETATM    4  C4  UNL     1      38.270  -2.463  12.575  1.00  0.00     0.046 C 
HETATM    5 CL1  UNL     1      38.240  -4.202  13.010  1.00  0.00    -0.086 Cl
HETATM    6  C5  UNL     1      37.486  -1.920  11.723  1.00  0.00     0.065 C 
ENDROOT
BRANCH   1   7
HETATM    7  C1  UNL     1      36.742   0.249  12.411  1.00  0.00     0.205 C 
HETATM    8  O1  UNL     1      35.663  -0.161  12.764  1.00  0.00    -0.291 OA
BRANCH   7   9
HETATM    9  C8  UNL     1      37.164   1.555  12.969  1.00  0.00     0.428 C 
BRANCH   9  10
HETATM   10  O2  UNL     1      36.753   2.563  12.139  1.00  0.00    -0.362 OA
ATOM     11  H2  UNL     1      36.023   3.025  12.535  1.00  0.00     0.212 HD
ENDBRANCH   9  10
BRANCH   9  12
HETATM   12  N5  UNL     1      36.775   1.724  14.336  1.00  0.00     0.127 N 
HETATM   13  C9  UNL     1      36.696   3.109  14.662  1.00  0.00     0.303 C 
HETATM   14  C10 UNL     1      37.947   3.555  15.396  1.00  0.00     0.262 C 
HETATM   15  N6  UNL     1      38.061   2.907  16.672  1.00  0.00    -0.072 N 
HETATM   16  C11 UNL     1      37.538   1.574  16.658  1.00  0.00     0.262 C 
ATOM     17  H62 UNL     1      39.025   2.919  17.006  1.00  0.00     0.277 HD
ATOM     18  H61 UNL     1      37.626   3.465  17.407  1.00  0.00     0.277 HD
HETATM   19  C12 UNL     1      37.622   0.989  15.245  1.00  0.00     0.303 C 
ENDBRANCH   9  12
ENDBRANCH   7   9
ENDBRANCH   1   7
BRANCH   6  20
HETATM   20  N1  UNL     1      36.464  -2.650  10.996  1.00  0.00    -0.299 N 
ATOM     21  H1  UNL     1      36.681  -3.020  10.071  1.00  0.00     0.186 HD
BRANCH  20  22
HETATM   22  N2  UNL     1      35.191  -2.858  11.530  1.00  0.00    -0.271 N 
ATOM     23  H2  UNL     1      34.468  -2.157  11.363  1.00  0.00     0.190 HD
BRANCH  22  24
HETATM   24  C6  UNL     1      34.862  -4.006  12.295  1.00  0.00     0.192 A 
HETATM   25  N3  UNL     1      34.447  -5.181  11.992  1.00  0.00    -0.345 N 
HETATM   26  C7  UNL     1      34.362  -5.718  13.314  1.00  0.00     0.249 A 
ATOM     27  H3  UNL     1      34.241  -5.603  11.087  1.00  0.00     0.164 HD
HETATM   28  N4  UNL     1      34.839  -4.374  13.655  1.00  0.00    -0.345 N 
ATOM     29  H4  UNL     1      35.064  -3.896  14.527  1.00  0.00     0.164 HD
ENDBRANCH  22  24
ENDBRANCH  20  22
ENDBRANCH   6  20
TORSDOF 7
ENDMDL
MODEL 2
REMARK VINA RESULT: -5.404692100      1.511      1.816
REMARK  7 active torsions:
REMARK  status: ('A' for Active; 'I' for Inactive)
REMARK    1  A    between atoms: C1_2  and  C2_3 
REMARK    2  A    between atoms: C1_2  and  C8_19 
REMARK    3  A    between atoms: C5_8  and  N1_9 
REMARK    4  A    between atoms: N1_9  and  N2_11 
REMARK    5  A    between atoms: N2_11  and  C6_13 
REMARK    6  A    between atoms: C8_19  and  O2_20 
REMARK    7  A    between atoms: C8_19  and  N5_22 
ROOT
HETATM    1  C2  UNL     1      37.140   0.226  12.202  1.00  0.00     0.174 C 
HETATM    2  S1  UNL     1      38.977   0.237  12.346  1.00  0.00    -0.144 SA
HETATM    3  C3  UNL     1      38.970  -0.558  13.983  1.00  0.00     0.128 C 
HETATM    4  C4  UNL     1      37.711  -1.325  13.892  1.00  0.00     0.046 C 
HETATM    5 CL1  UNL     1      37.521  -2.726  14.996  1.00  0.00    -0.086 Cl
HETATM    6  C5  UNL     1      36.831  -0.954  13.042  1.00  0.00     0.065 C 
ENDROOT
BRANCH   1   7
HETATM    7  C1  UNL     1      36.634   1.428  12.905  1.00  0.00     0.205 C 
HETATM    8  O1  UNL     1      35.607   1.461  13.537  1.00  0.00    -0.291 OA
BRANCH   7   9
HETATM    9  C8  UNL     1      37.413   2.688  12.849  1.00  0.00     0.428 C 
BRANCH   9  10
HETATM   10  O2  UNL     1      36.969   3.456  11.807  1.00  0.00    -0.362 OA
ATOM     11  H2  UNL     1      37.712   3.785  11.314  1.00  0.00     0.212 HD
ENDBRANCH   9  10
BRANCH   9  12
HETATM   12  N5  UNL     1      37.453   3.369  14.107  1.00  0.00     0.127 N 
HETATM   13  C9  UNL     1      37.351   4.777  13.913  1.00  0.00     0.303 C 
HETATM   14  C10 UNL     1      38.721   5.425  13.989  1.00  0.00     0.262 C 
HETATM   15  N6  UNL     1      39.284   5.299  15.304  1.00  0.00    -0.072 N 
HETATM   16  C11 UNL     1      38.908   4.076  15.945  1.00  0.00     0.262 C 
ATOM     17  H62 UNL     1      40.298   5.405  15.281  1.00  0.00     0.277 HD
ATOM     18  H61 UNL     1      39.049   6.106  15.883  1.00  0.00     0.277 HD
HETATM   19  C12 UNL     1      38.604   3.001  14.897  1.00  0.00     0.303 C 
ENDBRANCH   9  12
ENDBRANCH   7   9
ENDBRANCH   1   7
BRANCH   6  20
HETATM   20  N1  UNL     1      35.558  -1.624  12.862  1.00  0.00    -0.299 N 
ATOM     21  H1  UNL     1      34.741  -1.283  13.370  1.00  0.00     0.186 HD
BRANCH  20  22
HETATM   22  N2  UNL     1      35.421  -2.725  12.014  1.00  0.00    -0.271 N 
ATOM     23  H2  UNL     1      35.632  -2.609  11.023  1.00  0.00     0.190 HD
BRANCH  22  24
HETATM   24  C6  UNL     1      35.000  -3.998  12.476  1.00  0.00     0.192 A 
HETATM   25  N3  UNL     1      34.854  -4.510  13.643  1.00  0.00    -0.345 N 
HETATM   26  C7  UNL     1      34.406  -5.808  13.245  1.00  0.00     0.249 A 
ATOM     27  H3  UNL     1      35.010  -4.114  14.570  1.00  0.00     0.164 HD
HETATM   28  N4  UNL     1      34.572  -5.216  11.914  1.00  0.00    -0.345 N 
ATOM     29  H4  UNL     1      34.433  -5.552  10.961  1.00  0.00     0.164 HD
ENDBRANCH  22  24
ENDBRANCH  20  22
ENDBRANCH   6  20
TORSDOF 7
ENDMDL
MODEL 3
REMARK VINA RESULT: -5.375566858      2.702      4.261
REMARK  7 active torsions:
REMARK  status: ('A' for Active; 'I' for Inactive)
REMARK    1  A    between atoms: C1_2  and  C2_3 
REMARK    2  A    between atoms: C1_2  and  C8_19 
REMARK    3  A    between atoms: C5_8  and  N1_9 
REMARK    4  A    between atoms: N1_9  and  N2_11 
REMARK    5  A    between atoms: N2_11  and  C6_13 
REMARK    6  A    between atoms: C8_19  and  O2_20 
REMARK    7  A    between atoms: C8_19  and  N5_22 
ROOT
HETATM    1  C2  UNL     1      37.101  -1.162  13.249  1.00  0.00     0.174 C 
HETATM    2  S1  UNL     1      38.049  -1.867  11.835  1.00  0.00    -0.144 SA
HETATM    3  C3  UNL     1      39.383  -2.507  12.896  1.00  0.00     0.128 C 
HETATM    4  C4  UNL     1      38.634  -2.720  14.151  1.00  0.00     0.046 C 
HETATM    5 CL1  UNL     1      39.329  -3.871  15.338  1.00  0.00    -0.086 Cl
HETATM    6  C5  UNL     1      37.541  -2.078  14.326  1.00  0.00     0.065 C 
ENDROOT
BRANCH   1   7
HETATM    7  C1  UNL     1      37.665   0.178  13.534  1.00  0.00     0.205 C 
HETATM    8  O1  UNL     1      38.737   0.364  14.056  1.00  0.00    -0.291 OA
BRANCH   7   9
HETATM    9  C8  UNL     1      36.892   1.389  13.169  1.00  0.00     0.428 C 
BRANCH   9  10
HETATM   10  O2  UNL     1      35.569   1.193  13.457  1.00  0.00    -0.362 OA
ATOM     11  H2  UNL     1      35.034   1.554  12.759  1.00  0.00     0.212 HD
ENDBRANCH   9  10
BRANCH   9  12
HETATM   12  N5  UNL     1      37.444   2.586  13.726  1.00  0.00     0.127 N 
HETATM   13  C9  UNL     1      36.471   3.258  14.521  1.00  0.00     0.303 C 
HETATM   14  C10 UNL     1      35.848   4.403  13.743  1.00  0.00     0.262 C 
HETATM   15  N6  UNL     1      36.816   5.421  13.450  1.00  0.00    -0.072 N 
HETATM   16  C11 UNL     1      38.125   4.885  13.230  1.00  0.00     0.262 C 
ATOM     17  H62 UNL     1      36.517   5.996  12.662  1.00  0.00     0.277 HD
ATOM     18  H61 UNL     1      36.828   6.136  14.177  1.00  0.00     0.277 HD
HETATM   19  C12 UNL     1      38.027   3.444  12.721  1.00  0.00     0.303 C 
ENDBRANCH   9  12
ENDBRANCH   7   9
ENDBRANCH   1   7
BRANCH   6  20
HETATM   20  N1  UNL     1      36.721  -2.201  15.516  1.00  0.00    -0.299 N 
ATOM     21  H1  UNL     1      35.793  -2.616  15.438  1.00  0.00     0.186 HD
BRANCH  20  22
HETATM   22  N2  UNL     1      37.169  -1.766  16.765  1.00  0.00    -0.271 N 
ATOM     23  H2  UNL     1      37.403  -2.463  17.472  1.00  0.00     0.190 HD
BRANCH  22  24
HETATM   24  C6  UNL     1      37.311  -0.392  17.089  1.00  0.00     0.192 A 
HETATM   25  N3  UNL     1      36.494   0.510  17.492  1.00  0.00    -0.345 N 
HETATM   26  C7  UNL     1      37.414   1.600  17.579  1.00  0.00     0.249 A 
ATOM     27  H3  UNL     1      35.494   0.464  17.689  1.00  0.00     0.164 HD
HETATM   28  N4  UNL     1      38.345   0.563  17.121  1.00  0.00    -0.345 N 
ATOM     29  H4  UNL     1      39.342   0.542  16.910  1.00  0.00     0.164 HD
ENDBRANCH  22  24
ENDBRANCH  20  22
ENDBRANCH   6  20
TORSDOF 7
ENDMDL
MODEL 4
REMARK VINA RESULT: -5.278891732      3.564      5.642
REMARK  7 active torsions:
REMARK  status: ('A' for Active; 'I' for Inactive)
REMARK    1  A    between atoms: C1_2  and  C2_3 
REMARK    2  A    between atoms: C1_2  and  C8_19 
REMARK    3  A    between atoms: C5_8  and  N1_9 
REMARK    4  A    between atoms: N1_9  and  N2_11 
REMARK    5  A    between atoms: N2_11  and  C6_13 
REMARK    6  A    between atoms: C8_19  and  O2_20 
REMARK    7  A    between atoms: C8_19  and  N5_22 
ROOT
HETATM    1  C2  UNL     1      38.700   1.670  16.911  1.00  0.00     0.174 C 
HETATM    2  S1  UNL     1      39.665   2.928  17.850  1.00  0.00    -0.144 SA
HETATM    3  C3  UNL     1      38.252   3.400  18.897  1.00  0.00     0.128 C 
HETATM    4  C4  UNL     1      37.491   2.134  18.889  1.00  0.00     0.046 C 
HETATM    5 CL1  UNL     1      36.323   1.869  20.224  1.00  0.00    -0.086 Cl
HETATM    6  C5  UNL     1      37.701   1.303  17.940  1.00  0.00     0.065 C 
ENDROOT
BRANCH   1   7
HETATM    7  C1  UNL     1      37.991   2.380  15.821  1.00  0.00     0.205 C 
HETATM    8  O1  UNL     1      38.025   3.575  15.659  1.00  0.00    -0.291 OA
BRANCH   7   9
HETATM    9  C8  UNL     1      37.178   1.607  14.853  1.00  0.00     0.428 C 
BRANCH   9  10
HETATM   10  O2  UNL     1      35.910   2.118  14.807  1.00  0.00    -0.362 OA
ATOM     11  H2  UNL     1      35.450   1.903  15.610  1.00  0.00     0.212 HD
ENDBRANCH   9  10
BRANCH   9  12
HETATM   12  N5  UNL     1      37.810   1.484  13.575  1.00  0.00     0.127 N 
HETATM   13  C9  UNL     1      36.831   1.342  12.549  1.00  0.00     0.303 C 
HETATM   14  C10 UNL     1      36.684  -0.116  12.152  1.00  0.00     0.262 C 
HETATM   15  N6  UNL     1      37.888  -0.616  11.551  1.00  0.00    -0.072 N 
HETATM   16  C11 UNL     1      39.065  -0.022  12.108  1.00  0.00     0.262 C 
ATOM     17  H62 UNL     1      37.929  -1.634  11.604  1.00  0.00     0.277 HD
ATOM     18  H61 UNL     1      37.865  -0.505  10.537  1.00  0.00     0.277 HD
HETATM   19  C12 UNL     1      38.798   0.431  13.547  1.00  0.00     0.303 C 
ENDBRANCH   9  12
ENDBRANCH   7   9
ENDBRANCH   1   7
BRANCH   6  20
HETATM   20  N1  UNL     1      37.015   0.030  17.823  1.00  0.00    -0.299 N 
ATOM     21  H1  UNL     1      35.997   0.008  17.885  1.00  0.00     0.186 HD
BRANCH  20  22
HETATM   22  N2  UNL     1      37.711  -1.165  17.629  1.00  0.00    -0.271 N 
ATOM     23  H2  UNL     1      38.273  -1.534  18.396  1.00  0.00     0.190 HD
BRANCH  22  24
HETATM   24  C6  UNL     1      37.666  -1.885  16.408  1.00  0.00     0.192 A 
HETATM   25  N3  UNL     1      38.472  -2.700  15.833  1.00  0.00    -0.345 N 
HETATM   26  C7  UNL     1      37.695  -2.967  14.662  1.00  0.00     0.249 A 
ATOM     27  H3  UNL     1      39.386  -3.049  16.121  1.00  0.00     0.164 HD
HETATM   28  N4  UNL     1      36.777  -2.037  15.327  1.00  0.00    -0.345 N 
ATOM     29  H4  UNL     1      35.861  -1.653  15.097  1.00  0.00     0.164 HD
ENDBRANCH  22  24
ENDBRANCH  20  22
ENDBRANCH   6  20
TORSDOF 7
ENDMDL
MODEL 5
REMARK VINA RESULT: -5.272636553      2.534      6.746
REMARK  7 active torsions:
REMARK  status: ('A' for Active; 'I' for Inactive)
REMARK    1  A    between atoms: C1_2  and  C2_3 
REMARK    2  A    between atoms: C1_2  and  C8_19 
REMARK    3  A    between atoms: C5_8  and  N1_9 
REMARK    4  A    between atoms: N1_9  and  N2_11 
REMARK    5  A    between atoms: N2_11  and  C6_13 
REMARK    6  A    between atoms: C8_19  and  O2_20 
REMARK    7  A    between atoms: C8_19  and  N5_22 
ROOT
HETATM    1  C2  UNL     1      37.328  -2.413  13.257  1.00  0.00     0.174 C 
HETATM    2  S1  UNL     1      38.357  -3.549  14.281  1.00  0.00    -0.144 SA
HETATM    3  C3  UNL     1      39.515  -3.911  12.924  1.00  0.00     0.128 C 
HETATM    4  C4  UNL     1      39.399  -2.661  12.145  1.00  0.00     0.046 C 
HETATM    5 CL1  UNL     1      40.749  -2.257  11.035  1.00  0.00    -0.086 Cl
HETATM    6  C5  UNL     1      38.354  -1.941  12.301  1.00  0.00     0.065 C 
ENDROOT
BRANCH   1   7
HETATM    7  C1  UNL     1      36.359  -3.248  12.509  1.00  0.00     0.205 C 
HETATM    8  O1  UNL     1      36.012  -3.029  11.374  1.00  0.00    -0.291 OA
BRANCH   7   9
HETATM    9  C8  UNL     1      35.758  -4.434  13.163  1.00  0.00     0.428 C 
BRANCH   9  10
HETATM   10  O2  UNL     1      34.759  -4.035  14.008  1.00  0.00    -0.362 OA
ATOM     11  H2  UNL     1      33.972  -4.537  13.831  1.00  0.00     0.212 HD
ENDBRANCH   9  10
BRANCH   9  12
HETATM   12  N5  UNL     1      35.369  -5.444  12.227  1.00  0.00     0.127 N 
HETATM   13  C9  UNL     1      34.040  -5.884  12.496  1.00  0.00     0.303 C 
HETATM   14  C10 UNL     1      34.059  -7.192  13.266  1.00  0.00     0.262 C 
HETATM   15  N6  UNL     1      34.620  -8.253  12.478  1.00  0.00    -0.072 N 
HETATM   16  C11 UNL     1      35.651  -7.793  11.597  1.00  0.00     0.262 C 
ATOM     17  H62 UNL     1      34.955  -9.013  13.070  1.00  0.00     0.277 HD
ATOM     18  H61 UNL     1      33.894  -8.752  11.965  1.00  0.00     0.277 HD
HETATM   19  C12 UNL     1      36.312  -6.535  12.169  1.00  0.00     0.303 C 
ENDBRANCH   9  12
ENDBRANCH   7   9
ENDBRANCH   1   7
BRANCH   6  20
HETATM   20  N1  UNL     1      38.127  -0.696  11.592  1.00  0.00    -0.299 N 
ATOM     21  H1  UNL     1      38.867  -0.319  10.999  1.00  0.00     0.186 HD
BRANCH  20  22
HETATM   22  N2  UNL     1      36.922   0.001  11.699  1.00  0.00    -0.271 N 
ATOM     23  H2  UNL     1      36.142  -0.274  11.102  1.00  0.00     0.190 HD
BRANCH  22  24
HETATM   24  C6  UNL     1      36.739   1.076  12.607  1.00  0.00     0.192 A 
HETATM   25  N3  UNL     1      36.002   1.241  13.643  1.00  0.00    -0.345 N 
HETATM   26  C7  UNL     1      36.404   2.573  13.972  1.00  0.00     0.249 A 
ATOM     27  H3  UNL     1      35.334   0.616  14.094  1.00  0.00     0.164 HD
HETATM   28  N4  UNL     1      37.246   2.377  12.788  1.00  0.00    -0.345 N 
ATOM     29  H4  UNL     1      37.927   2.952  12.294  1.00  0.00     0.164 HD
ENDBRANCH  22  24
ENDBRANCH  20  22
ENDBRANCH   6  20
TORSDOF 7
ENDMDL
