MODEL 1
REMARK VINA RESULT: -5.125625127      0.000      0.000
REMARK  4 active torsions:
REMARK  status: ('A' for Active; 'I' for Inactive)
REMARK       I    between atoms: N1_1  and  C1_5 
REMARK       I    between atoms: C1_5  and  N2_6 
REMARK       I    between atoms: C1_5  and  N3_10 
REMARK    1  A    between atoms: N3_10  and  N4_11 
REMARK       I    between atoms: N4_11  and  C2_13 
REMARK    2  A    between atoms: C2_13  and  C3_15 
REMARK    3  A    between atoms: C5_18  and  C6_19 
REMARK    4  A    between atoms: C9_26  and  C10_27 
ROOT
HETATM    1  C3  UNL     1      34.167  -8.403  11.812  1.00  0.00     0.190 A 
HETATM    2  S1  UNL     1      33.615  -9.411  13.264  1.00  0.00    -0.100 SA
HETATM    3  C4  UNL     1      35.034  -8.898  14.277  1.00  0.00     0.078 C 
HETATM    4  C5  UNL     1      35.957  -8.578  13.405  1.00  0.00     0.098 C 
HETATM    5  N5  UNL     1      35.640  -8.740  12.062  1.00  0.00    -0.221 NA
HETATM    6  C7  UNL     1      34.980  -8.807  10.784  1.00  0.00     0.139 A 
HETATM    7  S2  UNL     1      35.504  -7.782   9.462  1.00  0.00    -0.106 SA
HETATM    8  C8  UNL     1      35.502  -9.469   8.920  1.00  0.00     0.055 A 
HETATM    9  C9  UNL     1      35.088 -10.046  10.040  1.00  0.00    -0.008 A 
ENDROOT
BRANCH   1  10
HETATM   10  C2  UNL     1      33.961  -6.947  12.089  1.00  0.00     0.271 C 
HETATM   11  N4  UNL     1      34.880  -5.970  11.618  1.00  0.00    -0.268 N 
ATOM     12  H4  UNL     1      35.696  -6.263  11.080  1.00  0.00     0.185 HD
HETATM   13  O1  UNL     1      32.971  -6.536  12.746  1.00  0.00    -0.269 OA
BRANCH  11  14
HETATM   14  N3  UNL     1      34.680  -4.637  11.879  1.00  0.00    -0.078 NA
HETATM   15  C1  UNL     1      35.600  -4.095  12.871  1.00  0.00     0.490 C 
HETATM   16  N1  UNL     1      35.265  -2.697  13.026  1.00  0.00    -0.035 N 
HETATM   17  N2  UNL     1      35.430  -4.811  14.134  1.00  0.00    -0.035 N 
ATOM     18  H13 UNL     1      34.327  -2.573  13.407  1.00  0.00     0.278 HD
ATOM     19  H12 UNL     1      35.795  -2.263  13.782  1.00  0.00     0.278 HD
ATOM     20  H11 UNL     1      35.384  -2.197  12.146  1.00  0.00     0.278 HD
ATOM     21  H23 UNL     1      35.960  -4.377  14.889  1.00  0.00     0.278 HD
ATOM     22  H22 UNL     1      34.491  -4.687  14.515  1.00  0.00     0.278 HD
ATOM     23  H21 UNL     1      35.666  -5.798  14.024  1.00  0.00     0.278 HD
ENDBRANCH  11  14
ENDBRANCH   1  10
BRANCH   4  24
HETATM   24  C6  UNL     1      37.291  -8.096  13.840  1.00  0.00     0.221 C 
HETATM   25  O2  UNL     1      37.517  -6.887  14.113  1.00  0.00    -0.643 OA
HETATM   26  O3  UNL     1      38.372  -8.959  13.969  1.00  0.00    -0.643 OA
ENDBRANCH   4  24
BRANCH   9  27
HETATM   27  C10 UNL     1      34.830 -11.458  10.393  1.00  0.00     0.260 C 
HETATM   28  F1  UNL     1      33.471 -11.654  10.401  1.00  0.00    -0.251 F 
ENDBRANCH   9  27
TORSDOF 4
ENDMDL
MODEL 2
REMARK VINA RESULT: -5.115156754      7.304      8.652
REMARK  4 active torsions:
REMARK  status: ('A' for Active; 'I' for Inactive)
REMARK       I    between atoms: N1_1  and  C1_5 
REMARK       I    between atoms: C1_5  and  N2_6 
REMARK       I    between atoms: C1_5  and  N3_10 
REMARK    1  A    between atoms: N3_10  and  N4_11 
REMARK       I    between atoms: N4_11  and  C2_13 
REMARK    2  A    between atoms: C2_13  and  C3_15 
REMARK    3  A    between atoms: C5_18  and  C6_19 
REMARK    4  A    between atoms: C9_26  and  C10_27 
ROOT
HETATM    1  C3  UNL     1      38.654  -1.071  12.049  1.00  0.00     0.190 A 
HETATM    2  S1  UNL     1      37.740  -2.674  12.198  1.00  0.00    -0.100 SA
HETATM    3  C4  UNL     1      37.146  -2.288  13.872  1.00  0.00     0.078 C 
HETATM    4  C5  UNL     1      38.025  -1.437  14.339  1.00  0.00     0.098 C 
HETATM    5  N5  UNL     1      39.097  -1.119  13.515  1.00  0.00    -0.221 NA
HETATM    6  C7  UNL     1      39.957  -0.825  12.397  1.00  0.00     0.139 A 
HETATM    7  S2  UNL     1      40.747   0.735  12.275  1.00  0.00    -0.106 SA
HETATM    8  C8  UNL     1      41.969  -0.543  12.157  1.00  0.00     0.055 A 
HETATM    9  C9  UNL     1      41.176  -1.599  12.270  1.00  0.00    -0.008 A 
ENDROOT
BRANCH   1  10
HETATM   10  C2  UNL     1      37.686   0.059  11.884  1.00  0.00     0.271 C 
HETATM   11  N4  UNL     1      37.776   1.229  12.686  1.00  0.00    -0.268 N 
ATOM     12  H4  UNL     1      38.513   1.304  13.387  1.00  0.00     0.185 HD
HETATM   13  O1  UNL     1      36.762   0.014  11.034  1.00  0.00    -0.269 OA
BRANCH  11  14
HETATM   14  N3  UNL     1      36.883   2.259  12.526  1.00  0.00    -0.078 NA
HETATM   15  C1  UNL     1      36.713   3.073  13.723  1.00  0.00     0.490 C 
HETATM   16  N1  UNL     1      35.755   4.104  13.391  1.00  0.00    -0.035 N 
HETATM   17  N2  UNL     1      36.215   2.235  14.813  1.00  0.00    -0.035 N 
ATOM     18  H13 UNL     1      34.837   3.713  13.178  1.00  0.00     0.278 HD
ATOM     19  H12 UNL     1      35.499   4.659  14.207  1.00  0.00     0.278 HD
ATOM     20  H11 UNL     1      36.102   4.688  12.631  1.00  0.00     0.278 HD
ATOM     21  H23 UNL     1      35.959   2.790  15.629  1.00  0.00     0.278 HD
ATOM     22  H22 UNL     1      35.297   1.844  14.600  1.00  0.00     0.278 HD
ATOM     23  H21 UNL     1      36.891   1.508  15.047  1.00  0.00     0.278 HD
ENDBRANCH  11  14
ENDBRANCH   1  10
BRANCH   4  24
HETATM   24  C6  UNL     1      37.893  -0.866  15.703  1.00  0.00     0.221 C 
HETATM   25  O2  UNL     1      38.128   0.346  15.953  1.00  0.00    -0.643 OA
HETATM   26  O3  UNL     1      37.500  -1.645  16.784  1.00  0.00    -0.643 OA
ENDBRANCH   4  24
BRANCH   9  27
HETATM   27  C10 UNL     1      41.449  -3.052  12.265  1.00  0.00     0.260 C 
HETATM   28  F1  UNL     1      41.568  -3.460  10.960  1.00  0.00    -0.251 F 
ENDBRANCH   9  27
TORSDOF 4
ENDMDL
MODEL 3
REMARK VINA RESULT: -5.110177174      6.949      8.163
REMARK  4 active torsions:
REMARK  status: ('A' for Active; 'I' for Inactive)
REMARK       I    between atoms: N1_1  and  C1_5 
REMARK       I    between atoms: C1_5  and  N2_6 
REMARK       I    between atoms: C1_5  and  N3_10 
REMARK    1  A    between atoms: N3_10  and  N4_11 
REMARK       I    between atoms: N4_11  and  C2_13 
REMARK    2  A    between atoms: C2_13  and  C3_15 
REMARK    3  A    between atoms: C5_18  and  C6_19 
REMARK    4  A    between atoms: C9_26  and  C10_27 
ROOT
HETATM    1  C3  UNL     1      38.364  -1.569  11.991  1.00  0.00     0.190 A 
HETATM    2  S1  UNL     1      37.168  -2.952  12.285  1.00  0.00    -0.100 SA
HETATM    3  C4  UNL     1      36.750  -2.361  13.952  1.00  0.00     0.078 C 
HETATM    4  C5  UNL     1      37.800  -1.672  14.324  1.00  0.00     0.098 C 
HETATM    5  N5  UNL     1      38.868  -1.618  13.437  1.00  0.00    -0.221 NA
HETATM    6  C7  UNL     1      39.707  -1.563  12.268  1.00  0.00     0.139 A 
HETATM    7  S2  UNL     1      40.774  -0.197  12.008  1.00  0.00    -0.106 SA
HETATM    8  C8  UNL     1      41.720  -1.694  11.926  1.00  0.00     0.055 A 
HETATM    9  C9  UNL     1      40.746  -2.567  12.143  1.00  0.00    -0.008 A 
ENDROOT
BRANCH   1  10
HETATM   10  C2  UNL     1      37.624  -0.284  11.790  1.00  0.00     0.271 C 
HETATM   11  N4  UNL     1      37.935   0.872  12.557  1.00  0.00    -0.268 N 
ATOM     12  H4  UNL     1      38.675   0.829  13.258  1.00  0.00     0.185 HD
HETATM   13  O1  UNL     1      36.705  -0.180  10.939  1.00  0.00    -0.269 OA
BRANCH  11  14
HETATM   14  N3  UNL     1      37.249   2.046  12.364  1.00  0.00    -0.078 NA
HETATM   15  C1  UNL     1      37.021   2.794  13.594  1.00  0.00     0.490 C 
HETATM   16  N1  UNL     1      36.300   3.992  13.223  1.00  0.00    -0.035 N 
HETATM   17  N2  UNL     1      36.233   1.981  14.519  1.00  0.00    -0.035 N 
ATOM     18  H13 UNL     1      35.378   3.775  12.844  1.00  0.00     0.278 HD
ATOM     19  H12 UNL     1      36.008   4.526  14.041  1.00  0.00     0.278 HD
ATOM     20  H11 UNL     1      36.850   4.559  12.578  1.00  0.00     0.278 HD
ATOM     21  H23 UNL     1      35.940   2.515  15.337  1.00  0.00     0.278 HD
ATOM     22  H22 UNL     1      35.310   1.765  14.140  1.00  0.00     0.278 HD
ATOM     23  H21 UNL     1      36.741   1.137  14.780  1.00  0.00     0.278 HD
ENDBRANCH  11  14
ENDBRANCH   1  10
BRANCH   4  24
HETATM   24  C6  UNL     1      37.853  -1.008  15.650  1.00  0.00     0.221 C 
HETATM   25  O2  UNL     1      37.472  -1.577  16.707  1.00  0.00    -0.643 OA
HETATM   26  O3  UNL     1      38.331   0.289  15.798  1.00  0.00    -0.643 OA
ENDBRANCH   4  24
BRANCH   9  27
HETATM   27  C10 UNL     1      40.733  -4.042  12.224  1.00  0.00     0.260 C 
HETATM   28  F1  UNL     1      40.514  -4.396  13.533  1.00  0.00    -0.251 F 
ENDBRANCH   9  27
TORSDOF 4
ENDMDL
MODEL 4
REMARK VINA RESULT: -5.094569669      7.770      9.518
REMARK  4 active torsions:
REMARK  status: ('A' for Active; 'I' for Inactive)
REMARK       I    between atoms: N1_1  and  C1_5 
REMARK       I    between atoms: C1_5  and  N2_6 
REMARK       I    between atoms: C1_5  and  N3_10 
REMARK    1  A    between atoms: N3_10  and  N4_11 
REMARK       I    between atoms: N4_11  and  C2_13 
REMARK    2  A    between atoms: C2_13  and  C3_15 
REMARK    3  A    between atoms: C5_18  and  C6_19 
REMARK    4  A    between atoms: C9_26  and  C10_27 
ROOT
HETATM    1  C3  UNL     1      37.927  -0.164  14.226  1.00  0.00     0.190 A 
HETATM    2  S1  UNL     1      39.396  -0.223  15.351  1.00  0.00    -0.100 SA
HETATM    3  C4  UNL     1      40.197   1.188  14.532  1.00  0.00     0.078 C 
HETATM    4  C5  UNL     1      39.695   1.187  13.322  1.00  0.00     0.098 C 
HETATM    5  N5  UNL     1      38.795   0.176  13.011  1.00  0.00    -0.221 NA
HETATM    6  C7  UNL     1      37.765  -0.830  13.038  1.00  0.00     0.139 A 
HETATM    7  S2  UNL     1      36.363  -0.690  11.996  1.00  0.00    -0.106 SA
HETATM    8  C8  UNL     1      37.118  -2.273  11.740  1.00  0.00     0.055 A 
HETATM    9  C9  UNL     1      38.122  -2.165  12.599  1.00  0.00    -0.008 A 
ENDROOT
BRANCH   1  10
HETATM   10  C2  UNL     1      37.079   1.027  14.549  1.00  0.00     0.271 C 
HETATM   11  N4  UNL     1      36.308   1.676  13.547  1.00  0.00    -0.268 N 
ATOM     12  H4  UNL     1      36.330   1.328  12.589  1.00  0.00     0.185 HD
HETATM   13  O1  UNL     1      37.018   1.493  15.714  1.00  0.00    -0.269 OA
BRANCH  11  14
HETATM   14  N3  UNL     1      35.535   2.768  13.855  1.00  0.00    -0.078 NA
HETATM   15  C1  UNL     1      36.108   4.031  13.408  1.00  0.00     0.490 C 
HETATM   16  N1  UNL     1      35.180   5.069  13.801  1.00  0.00    -0.035 N 
HETATM   17  N2  UNL     1      37.407   4.229  14.048  1.00  0.00    -0.035 N 
ATOM     18  H13 UNL     1      35.095   5.136  14.815  1.00  0.00     0.278 HD
ATOM     19  H12 UNL     1      35.554   6.000  13.617  1.00  0.00     0.278 HD
ATOM     20  H11 UNL     1      34.274   4.932  13.354  1.00  0.00     0.278 HD
ATOM     21  H23 UNL     1      37.781   5.160  13.864  1.00  0.00     0.278 HD
ATOM     22  H22 UNL     1      37.322   4.296  15.063  1.00  0.00     0.278 HD
ATOM     23  H21 UNL     1      38.061   3.497  13.771  1.00  0.00     0.278 HD
ENDBRANCH  11  14
ENDBRANCH   1  10
BRANCH   4  24
HETATM   24  C6  UNL     1      40.099   2.207  12.322  1.00  0.00     0.221 C 
HETATM   25  O2  UNL     1      39.354   3.169  11.998  1.00  0.00    -0.643 OA
HETATM   26  O3  UNL     1      41.332   2.153  11.683  1.00  0.00    -0.643 OA
ENDBRANCH   4  24
BRANCH   9  27
HETATM   27  C10 UNL     1      39.215  -3.088  12.971  1.00  0.00     0.260 C 
HETATM   28  F1  UNL     1      40.253  -2.898  12.093  1.00  0.00    -0.251 F 
ENDBRANCH   9  27
TORSDOF 4
ENDMDL
MODEL 5
REMARK VINA RESULT: -5.089761763      9.313     12.088
REMARK  4 active torsions:
REMARK  status: ('A' for Active; 'I' for Inactive)
REMARK       I    between atoms: N1_1  and  C1_5 
REMARK       I    between atoms: C1_5  and  N2_6 
REMARK       I    between atoms: C1_5  and  N3_10 
REMARK    1  A    between atoms: N3_10  and  N4_11 
REMARK       I    between atoms: N4_11  and  C2_13 
REMARK    2  A    between atoms: C2_13  and  C3_15 
REMARK    3  A    between atoms: C5_18  and  C6_19 
REMARK    4  A    between atoms: C9_26  and  C10_27 
ROOT
HETATM    1  C3  UNL     1      39.652   2.189  14.592  1.00  0.00     0.190 A 
HETATM    2  S1  UNL     1      39.168   2.092  16.376  1.00  0.00    -0.100 SA
HETATM    3  C4  UNL     1      37.408   2.359  16.009  1.00  0.00     0.078 C 
HETATM    4  C5  UNL     1      37.409   3.002  14.869  1.00  0.00     0.098 C 
HETATM    5  N5  UNL     1      38.646   3.311  14.318  1.00  0.00    -0.221 NA
HETATM    6  C7  UNL     1      40.022   3.310  13.894  1.00  0.00     0.139 A 
HETATM    7  S2  UNL     1      40.423   3.338  12.188  1.00  0.00    -0.106 SA
HETATM    8  C8  UNL     1      41.261   4.671  13.000  1.00  0.00     0.055 A 
HETATM    9  C9  UNL     1      40.829   4.465  14.236  1.00  0.00    -0.008 A 
ENDROOT
BRANCH   1  10
HETATM   10  C2  UNL     1      39.199   0.960  13.869  1.00  0.00     0.271 C 
HETATM   11  N4  UNL     1      38.702   1.028  12.539  1.00  0.00    -0.268 N 
ATOM     12  H4  UNL     1      38.653   1.930  12.065  1.00  0.00     0.185 HD
HETATM   13  O1  UNL     1      39.241  -0.174  14.409  1.00  0.00    -0.269 OA
BRANCH  11  14
HETATM   14  N3  UNL     1      38.289  -0.106  11.886  1.00  0.00    -0.078 NA
HETATM   15  C1  UNL     1      36.842  -0.193  11.730  1.00  0.00     0.490 C 
HETATM   16  N1  UNL     1      36.575  -1.428  11.027  1.00  0.00    -0.035 N 
HETATM   17  N2  UNL     1      36.212  -0.201  13.049  1.00  0.00    -0.035 N 
ATOM     18  H13 UNL     1      36.853  -2.243  11.575  1.00  0.00     0.278 HD
ATOM     19  H12 UNL     1      35.575  -1.619  10.967  1.00  0.00     0.278 HD
ATOM     20  H11 UNL     1      37.014  -1.423  10.107  1.00  0.00     0.278 HD
ATOM     21  H23 UNL     1      35.212  -0.392  12.988  1.00  0.00     0.278 HD
ATOM     22  H22 UNL     1      36.490  -1.015  13.596  1.00  0.00     0.278 HD
ATOM     23  H21 UNL     1      36.401   0.671  13.545  1.00  0.00     0.278 HD
ENDBRANCH  11  14
ENDBRANCH   1  10
BRANCH   4  24
HETATM   24  C6  UNL     1      36.140   3.409  14.214  1.00  0.00     0.221 C 
HETATM   25  O2  UNL     1      35.334   2.574  13.726  1.00  0.00    -0.643 OA
HETATM   26  O3  UNL     1      35.772   4.745  14.105  1.00  0.00    -0.643 OA
ENDBRANCH   4  24
BRANCH   9  27
HETATM   27  C10 UNL     1      41.086   5.170  15.509  1.00  0.00     0.260 C 
HETATM   28  F1  UNL     1      39.939   5.833  15.870  1.00  0.00    -0.251 F 
ENDBRANCH   9  27
TORSDOF 4
ENDMDL
