MODEL 1
REMARK VINA RESULT: -6.487639796      0.000      0.000
REMARK  7 active torsions:
REMARK  status: ('A' for Active; 'I' for Inactive)
REMARK    1  A    between atoms: N1_1  and  C1_4 
REMARK    2  A    between atoms: C2_7  and  O1_8 
REMARK    3  A    between atoms: O1_8  and  C3_9 
REMARK    4  A    between atoms: N4_17  and  N5_19 
REMARK       I    between atoms: N5_19  and  C7_21 
REMARK    5  A    between atoms: C7_21  and  C8_23 
REMARK    6  A    between atoms: C8_23  and  N6_24 
REMARK    7  A    between atoms: C8_23  and  O4_28 
ROOT
HETATM    1  C1  UNL     1      36.920   0.035  13.516  1.00  0.00     0.678 A 
HETATM    2  N2  UNL     1      37.491  -0.684  14.496  1.00  0.00    -0.170 N 
ATOM      3  H2  UNL     1      38.013  -0.178  15.212  1.00  0.00     0.186 HD
HETATM    4  C2  UNL     1      37.426  -2.009  14.600  1.00  0.00     0.177 A 
HETATM    5  C4  UNL     1      36.720  -2.751  13.641  1.00  0.00     0.118 A 
HETATM    6  C5  UNL     1      36.643  -4.123  13.734  1.00  0.00     0.264 A 
HETATM    7  O2  UNL     1      37.257  -4.629  14.745  1.00  0.00    -0.267 OA
HETATM    8  N3  UNL     1      36.014  -4.950  12.905  1.00  0.00    -0.302 N 
ATOM      9  H3  UNL     1      36.063  -5.943  13.134  1.00  0.00     0.171 HD
HETATM   10  C6  UNL     1      35.324  -4.628  11.807  1.00  0.00     0.168 A 
HETATM   11  N4  UNL     1      34.743  -5.490  11.055  1.00  0.00    -0.277 N 
ATOM     12  H4  UNL     1      34.241  -5.143  10.238  1.00  0.00     0.189 HD
HETATM   13  S1  UNL     1      35.283  -2.957  11.487  1.00  0.00    -0.033 SA
HETATM   14  C9  UNL     1      36.137  -2.008  12.640  1.00  0.00     0.114 A 
HETATM   15  N7  UNL     1      36.233  -0.669  12.579  1.00  0.00    -0.184 N 
ATOM     16  H7  UNL     1      35.781  -0.171  11.813  1.00  0.00     0.185 HD
ENDROOT
BRANCH  11  17
HETATM   17  N5  UNL     1      34.747  -6.849  11.270  1.00  0.00    -0.264 N 
HETATM   18  C7  UNL     1      33.723  -7.459  12.027  1.00  0.00     0.292 C 
HETATM   19  O3  UNL     1      32.787  -6.760  12.519  1.00  0.00    -0.267 OA
ATOM     20  H5  UNL     1      35.496  -7.421  10.879  1.00  0.00     0.190 HD
BRANCH  18  21
HETATM   21  C8  UNL     1      33.668  -8.917  12.296  1.00  0.00     0.411 C 
BRANCH  21  22
HETATM   22  N6  UNL     1      33.226  -9.208  13.644  1.00  0.00    -0.044 N 
ATOM     23  H63 UNL     1      33.630  -8.554  14.314  1.00  0.00     0.278 HD
ATOM     24  H62 UNL     1      32.240  -8.977  13.768  1.00  0.00     0.278 HD
ATOM     25  H61 UNL     1      33.415 -10.174  13.911  1.00  0.00     0.278 HD
ENDBRANCH  21  22
BRANCH  21  26
HETATM   26  O4  UNL     1      32.826  -9.573  11.412  1.00  0.00    -0.363 OA
ATOM     27  H4  UNL     1      33.132 -10.451  11.217  1.00  0.00     0.212 HD
ENDBRANCH  21  26
ENDBRANCH  18  21
ENDBRANCH  11  17
BRANCH   4  28
HETATM   28  O1  UNL     1      38.053  -2.683  15.657  1.00  0.00    -0.320 OA
BRANCH  28  29
HETATM   29  C3  UNL     1      38.144  -2.118  16.931  1.00  0.00     0.291 C 
HETATM   30 CL1  UNL     1      39.389  -2.935  17.885  1.00  0.00    -0.101 Cl
ENDBRANCH  28  29
ENDBRANCH   4  28
BRANCH   1  31
HETATM   31  N1  UNL     1      36.971   1.303  13.400  1.00  0.00    -0.234 N 
ATOM     32  H12 UNL     1      37.876   1.735  13.209  1.00  0.00     0.174 HD
ATOM     33  H11 UNL     1      36.178   1.939  13.483  1.00  0.00     0.174 HD
ENDBRANCH   1  31
TORSDOF 7
ENDMDL
MODEL 2
REMARK VINA RESULT: -6.411606058      2.910      7.388
REMARK  7 active torsions:
REMARK  status: ('A' for Active; 'I' for Inactive)
REMARK    1  A    between atoms: N1_1  and  C1_4 
REMARK    2  A    between atoms: C2_7  and  O1_8 
REMARK    3  A    between atoms: O1_8  and  C3_9 
REMARK    4  A    between atoms: N4_17  and  N5_19 
REMARK       I    between atoms: N5_19  and  C7_21 
REMARK    5  A    between atoms: C7_21  and  C8_23 
REMARK    6  A    between atoms: C8_23  and  N6_24 
REMARK    7  A    between atoms: C8_23  and  O4_28 
ROOT
HETATM    1  C1  UNL     1      35.043  -5.874  11.701  1.00  0.00     0.678 A 
HETATM    2  N2  UNL     1      35.948  -6.153  12.654  1.00  0.00    -0.170 N 
ATOM      3  H2  UNL     1      36.121  -7.135  12.870  1.00  0.00     0.186 HD
HETATM    4  C2  UNL     1      36.635  -5.241  13.337  1.00  0.00     0.177 A 
HETATM    5  C4  UNL     1      36.435  -3.877  13.077  1.00  0.00     0.118 A 
HETATM    6  C5  UNL     1      37.138  -2.920  13.774  1.00  0.00     0.264 A 
HETATM    7  O2  UNL     1      37.959  -3.385  14.648  1.00  0.00    -0.267 OA
HETATM    8  N3  UNL     1      37.052  -1.600  13.636  1.00  0.00    -0.302 N 
ATOM      9  H3  UNL     1      37.654  -1.042  14.242  1.00  0.00     0.171 HD
HETATM   10  C6  UNL     1      36.268  -0.922  12.794  1.00  0.00     0.168 A 
HETATM   11  N4  UNL     1      36.243   0.358  12.721  1.00  0.00    -0.277 N 
ATOM     12  H4  UNL     1      35.608   0.781  12.044  1.00  0.00     0.189 HD
HETATM   13  S1  UNL     1      35.292  -1.915  11.814  1.00  0.00    -0.033 SA
HETATM   14  C9  UNL     1      35.507  -3.598  12.100  1.00  0.00     0.114 A 
HETATM   15  N7  UNL     1      34.838  -4.558  11.439  1.00  0.00    -0.184 N 
ATOM     16  H7  UNL     1      34.160  -4.291  10.725  1.00  0.00     0.185 HD
ENDROOT
BRANCH  11  17
HETATM   17  N5  UNL     1      37.009   1.204  13.489  1.00  0.00    -0.264 N 
HETATM   18  C7  UNL     1      36.454   2.386  14.026  1.00  0.00     0.292 C 
HETATM   19  O3  UNL     1      35.242   2.682  13.805  1.00  0.00    -0.267 OA
ATOM     20  H5  UNL     1      37.986   0.976  13.672  1.00  0.00     0.190 HD
BRANCH  18  21
HETATM   21  C8  UNL     1      37.224   3.341  14.861  1.00  0.00     0.411 C 
BRANCH  21  22
HETATM   22  N6  UNL     1      38.653   3.140  14.744  1.00  0.00    -0.044 N 
ATOM     23  H63 UNL     1      38.907   2.822  13.810  1.00  0.00     0.278 HD
ATOM     24  H62 UNL     1      39.153   4.030  14.752  1.00  0.00     0.278 HD
ATOM     25  H61 UNL     1      39.014   2.509  15.460  1.00  0.00     0.278 HD
ENDBRANCH  21  22
BRANCH  21  26
HETATM   26  O4  UNL     1      36.941   4.657  14.533  1.00  0.00    -0.363 OA
ATOM     27  H4  UNL     1      37.387   5.269  15.108  1.00  0.00     0.212 HD
ENDBRANCH  21  26
ENDBRANCH  18  21
ENDBRANCH  11  17
BRANCH   4  28
HETATM   28  O1  UNL     1      37.564  -5.618  14.318  1.00  0.00    -0.320 OA
BRANCH  28  29
HETATM   29  C3  UNL     1      38.569  -6.550  14.050  1.00  0.00     0.291 C 
HETATM   30 CL1  UNL     1      39.505  -6.061  12.631  1.00  0.00    -0.101 Cl
ENDBRANCH  28  29
ENDBRANCH   4  28
BRANCH   1  31
HETATM   31  N1  UNL     1      34.377  -6.734  11.038  1.00  0.00    -0.234 N 
ATOM     32  H12 UNL     1      34.886  -7.379  10.433  1.00  0.00     0.174 HD
ATOM     33  H11 UNL     1      33.362  -6.839  11.055  1.00  0.00     0.174 HD
ENDBRANCH   1  31
TORSDOF 7
ENDMDL
MODEL 3
REMARK VINA RESULT: -6.240830308      1.108      1.229
REMARK  7 active torsions:
REMARK  status: ('A' for Active; 'I' for Inactive)
REMARK    1  A    between atoms: N1_1  and  C1_4 
REMARK    2  A    between atoms: C2_7  and  O1_8 
REMARK    3  A    between atoms: O1_8  and  C3_9 
REMARK    4  A    between atoms: N4_17  and  N5_19 
REMARK       I    between atoms: N5_19  and  C7_21 
REMARK    5  A    between atoms: C7_21  and  C8_23 
REMARK    6  A    between atoms: C8_23  and  N6_24 
REMARK    7  A    between atoms: C8_23  and  O4_28 
ROOT
HETATM    1  C1  UNL     1      37.402  -1.188  14.260  1.00  0.00     0.678 A 
HETATM    2  N2  UNL     1      38.024  -2.127  14.993  1.00  0.00    -0.170 N 
ATOM      3  H2  UNL     1      38.671  -1.811  15.715  1.00  0.00     0.186 HD
HETATM    4  C2  UNL     1      37.857  -3.438  14.844  1.00  0.00     0.177 A 
HETATM    5  C4  UNL     1      36.977  -3.923  13.865  1.00  0.00     0.118 A 
HETATM    6  C5  UNL     1      36.792  -5.278  13.698  1.00  0.00     0.264 A 
HETATM    7  O2  UNL     1      37.478  -6.017  14.496  1.00  0.00    -0.267 OA
HETATM    8  N3  UNL     1      35.996  -5.878  12.818  1.00  0.00    -0.302 N 
ATOM      9  H3  UNL     1      35.986  -6.898  12.839  1.00  0.00     0.171 HD
HETATM   10  C6  UNL     1      35.208  -5.296  11.909  1.00  0.00     0.168 A 
HETATM   11  N4  UNL     1      34.467  -5.949  11.090  1.00  0.00    -0.277 N 
ATOM     12  H4  UNL     1      33.901  -5.411  10.433  1.00  0.00     0.189 HD
HETATM   13  S1  UNL     1      35.275  -3.595  11.930  1.00  0.00    -0.033 SA
HETATM   14  C9  UNL     1      36.343  -2.957  13.118  1.00  0.00     0.114 A 
HETATM   15  N7  UNL     1      36.547  -1.643  13.307  1.00  0.00    -0.184 N 
ATOM     16  H7  UNL     1      36.050  -0.971  12.722  1.00  0.00     0.185 HD
ENDROOT
BRANCH  11  17
HETATM   17  N5  UNL     1      34.378  -7.320  11.032  1.00  0.00    -0.264 N 
HETATM   18  C7  UNL     1      33.648  -8.034  12.008  1.00  0.00     0.292 C 
HETATM   19  O3  UNL     1      33.065  -7.418  12.950  1.00  0.00    -0.267 OA
ATOM     20  H5  UNL     1      34.844  -7.826  10.279  1.00  0.00     0.190 HD
BRANCH  18  21
HETATM   21  C8  UNL     1      33.513  -9.511  12.005  1.00  0.00     0.411 C 
BRANCH  21  22
HETATM   22  N6  UNL     1      33.165 -10.031  13.311  1.00  0.00    -0.044 N 
ATOM     23  H63 UNL     1      32.164  -9.949  13.486  1.00  0.00     0.278 HD
ATOM     24  H62 UNL     1      33.251 -11.048  13.338  1.00  0.00     0.278 HD
ATOM     25  H61 UNL     1      33.708  -9.595  14.057  1.00  0.00     0.278 HD
ENDBRANCH  21  22
BRANCH  21  26
HETATM   26  O4  UNL     1      32.558  -9.940  11.097  1.00  0.00    -0.363 OA
ATOM     27  H4  UNL     1      32.952 -10.288  10.306  1.00  0.00     0.212 HD
ENDBRANCH  21  26
ENDBRANCH  18  21
ENDBRANCH  11  17
BRANCH   4  28
HETATM   28  O1  UNL     1      38.547  -4.352  15.653  1.00  0.00    -0.320 OA
BRANCH  28  29
HETATM   29  C3  UNL     1      39.805  -4.054  16.180  1.00  0.00     0.291 C 
HETATM   30 CL1  UNL     1      39.652  -3.369  17.804  1.00  0.00    -0.101 Cl
ENDBRANCH  28  29
ENDBRANCH   4  28
BRANCH   1  31
HETATM   31  N1  UNL     1      37.550   0.071  14.388  1.00  0.00    -0.234 N 
ATOM     32  H12 UNL     1      36.791   0.607  14.811  1.00  0.00     0.174 HD
ATOM     33  H11 UNL     1      38.371   0.603  14.102  1.00  0.00     0.174 HD
ENDBRANCH   1  31
TORSDOF 7
ENDMDL
MODEL 4
REMARK VINA RESULT: -6.198970358      2.401      2.518
REMARK  7 active torsions:
REMARK  status: ('A' for Active; 'I' for Inactive)
REMARK    1  A    between atoms: N1_1  and  C1_4 
REMARK    2  A    between atoms: C2_7  and  O1_8 
REMARK    3  A    between atoms: O1_8  and  C3_9 
REMARK    4  A    between atoms: N4_17  and  N5_19 
REMARK       I    between atoms: N5_19  and  C7_21 
REMARK    5  A    between atoms: C7_21  and  C8_23 
REMARK    6  A    between atoms: C8_23  and  N6_24 
REMARK    7  A    between atoms: C8_23  and  O4_28 
ROOT
HETATM    1  C1  UNL     1      37.822   0.929  12.634  1.00  0.00     0.678 A 
HETATM    2  N2  UNL     1      38.913   0.178  12.857  1.00  0.00    -0.170 N 
ATOM      3  H2  UNL     1      39.787   0.661  13.065  1.00  0.00     0.186 HD
HETATM    4  C2  UNL     1      38.936  -1.152  12.825  1.00  0.00     0.177 A 
HETATM    5  C4  UNL     1      37.761  -1.865  12.545  1.00  0.00     0.118 A 
HETATM    6  C5  UNL     1      37.766  -3.241  12.509  1.00  0.00     0.264 A 
HETATM    7  O2  UNL     1      38.909  -3.781  12.748  1.00  0.00    -0.267 OA
HETATM    8  N3  UNL     1      36.736  -4.043  12.258  1.00  0.00    -0.302 N 
ATOM      9  H3  UNL     1      36.928  -5.045  12.274  1.00  0.00     0.171 HD
HETATM   10  C6  UNL     1      35.477  -3.686  11.988  1.00  0.00     0.168 A 
HETATM   11  N4  UNL     1      34.535  -4.525  11.755  1.00  0.00    -0.277 N 
ATOM     12  H4  UNL     1      33.607  -4.150  11.559  1.00  0.00     0.189 HD
HETATM   13  S1  UNL     1      35.229  -2.002  11.977  1.00  0.00    -0.033 SA
HETATM   14  C9  UNL     1      36.646  -1.089  12.318  1.00  0.00     0.114 A 
HETATM   15  N7  UNL     1      36.676   0.254  12.360  1.00  0.00    -0.184 N 
ATOM     16  H7  UNL     1      35.819   0.778  12.182  1.00  0.00     0.185 HD
ENDROOT
BRANCH  11  17
HETATM   17  N5  UNL     1      34.684  -5.893  11.751  1.00  0.00    -0.264 N 
HETATM   18  C7  UNL     1      33.630  -6.730  12.175  1.00  0.00     0.292 C 
HETATM   19  O3  UNL     1      32.532  -6.231  12.566  1.00  0.00    -0.267 OA
ATOM     20  H5  UNL     1      35.563  -6.305  11.439  1.00  0.00     0.190 HD
BRANCH  18  21
HETATM   21  C8  UNL     1      33.724  -8.210  12.196  1.00  0.00     0.411 C 
BRANCH  21  22
HETATM   22  N6  UNL     1      33.402  -8.761  13.497  1.00  0.00    -0.044 N 
ATOM     23  H63 UNL     1      32.940  -9.666  13.411  1.00  0.00     0.278 HD
ATOM     24  H62 UNL     1      34.244  -9.056  13.991  1.00  0.00     0.278 HD
ATOM     25  H61 UNL     1      32.850  -8.116  14.062  1.00  0.00     0.278 HD
ENDBRANCH  21  22
BRANCH  21  26
HETATM   26  O4  UNL     1      32.888  -8.794  11.259  1.00  0.00    -0.363 OA
ATOM     27  H4  UNL     1      32.382  -8.145  10.783  1.00  0.00     0.212 HD
ENDBRANCH  21  26
ENDBRANCH  18  21
ENDBRANCH  11  17
BRANCH   4  28
HETATM   28  O1  UNL     1      40.121  -1.862  13.070  1.00  0.00    -0.320 OA
BRANCH  28  29
HETATM   29  C3  UNL     1      41.316  -1.528  12.430  1.00  0.00     0.291 C 
HETATM   30 CL1  UNL     1      41.213  -1.880  10.700  1.00  0.00    -0.101 Cl
ENDBRANCH  28  29
ENDBRANCH   4  28
BRANCH   1  31
HETATM   31  N1  UNL     1      37.782   2.202  12.660  1.00  0.00    -0.234 N 
ATOM     32  H12 UNL     1      38.220   2.685  13.445  1.00  0.00     0.174 HD
ATOM     33  H11 UNL     1      37.343   2.796  11.955  1.00  0.00     0.174 HD
ENDBRANCH   1  31
TORSDOF 7
ENDMDL
MODEL 5
REMARK VINA RESULT: -6.138006615      4.556      6.355
REMARK  7 active torsions:
REMARK  status: ('A' for Active; 'I' for Inactive)
REMARK    1  A    between atoms: N1_1  and  C1_4 
REMARK    2  A    between atoms: C2_7  and  O1_8 
REMARK    3  A    between atoms: O1_8  and  C3_9 
REMARK    4  A    between atoms: N4_17  and  N5_19 
REMARK       I    between atoms: N5_19  and  C7_21 
REMARK    5  A    between atoms: C7_21  and  C8_23 
REMARK    6  A    between atoms: C8_23  and  N6_24 
REMARK    7  A    between atoms: C8_23  and  O4_28 
ROOT
HETATM    1  C1  UNL     1      39.546   4.762  12.756  1.00  0.00     0.678 A 
HETATM    2  N2  UNL     1      38.353   5.168  13.222  1.00  0.00    -0.170 N 
ATOM      3  H2  UNL     1      38.222   6.166  13.384  1.00  0.00     0.186 HD
HETATM    4  C2  UNL     1      37.330   4.360  13.488  1.00  0.00     0.177 A 
HETATM    5  C4  UNL     1      37.458   2.978  13.281  1.00  0.00     0.118 A 
HETATM    6  C5  UNL     1      36.409   2.128  13.550  1.00  0.00     0.264 A 
HETATM    7  O2  UNL     1      35.348   2.706  13.991  1.00  0.00    -0.267 OA
HETATM    8  N3  UNL     1      36.387   0.807  13.404  1.00  0.00    -0.302 N 
ATOM      9  H3  UNL     1      35.515   0.339  13.655  1.00  0.00     0.171 HD
HETATM   10  C6  UNL     1      37.375   0.023  12.965  1.00  0.00     0.168 A 
HETATM   11  N4  UNL     1      37.275  -1.251  12.852  1.00  0.00    -0.277 N 
ATOM     12  H4  UNL     1      38.089  -1.760  12.507  1.00  0.00     0.189 HD
HETATM   13  S1  UNL     1      38.797   0.870  12.565  1.00  0.00    -0.033 SA
HETATM   14  C9  UNL     1      38.682   2.570  12.804  1.00  0.00     0.114 A 
HETATM   15  N7  UNL     1      39.686   3.427  12.552  1.00  0.00    -0.184 N 
ATOM     16  H7  UNL     1      40.573   3.067  12.199  1.00  0.00     0.185 HD
ENDROOT
BRANCH  11  17
HETATM   17  N5  UNL     1      36.151  -1.981  13.162  1.00  0.00    -0.264 N 
HETATM   18  C7  UNL     1      36.186  -3.392  13.147  1.00  0.00     0.292 C 
HETATM   19  O3  UNL     1      37.255  -4.004  12.846  1.00  0.00    -0.267 OA
ATOM     20  H5  UNL     1      35.286  -1.499  13.405  1.00  0.00     0.190 HD
BRANCH  18  21
HETATM   21  C8  UNL     1      35.012  -4.239  13.470  1.00  0.00     0.411 C 
BRANCH  21  22
HETATM   22  N6  UNL     1      34.426  -4.837  12.287  1.00  0.00    -0.044 N 
ATOM     23  H63 UNL     1      33.767  -4.202  11.840  1.00  0.00     0.278 HD
ATOM     24  H62 UNL     1      35.111  -4.915  11.535  1.00  0.00     0.278 HD
ATOM     25  H61 UNL     1      33.993  -5.740  12.486  1.00  0.00     0.278 HD
ENDBRANCH  21  22
BRANCH  21  26
HETATM   26  O4  UNL     1      35.336  -5.255  14.355  1.00  0.00    -0.363 OA
ATOM     27  H4  UNL     1      36.262  -5.257  14.568  1.00  0.00     0.212 HD
ENDBRANCH  21  26
ENDBRANCH  18  21
ENDBRANCH  11  17
BRANCH   4  28
HETATM   28  O1  UNL     1      36.115   4.866  13.973  1.00  0.00    -0.320 OA
BRANCH  28  29
HETATM   29  C3  UNL     1      35.692   6.162  13.670  1.00  0.00     0.291 C 
HETATM   30 CL1  UNL     1      34.093   6.132  12.915  1.00  0.00    -0.101 Cl
ENDBRANCH  28  29
ENDBRANCH   4  28
BRANCH   1  31
HETATM   31  N1  UNL     1      40.537   5.520  12.497  1.00  0.00    -0.234 N 
ATOM     32  H12 UNL     1      41.478   5.161  12.660  1.00  0.00     0.174 HD
ATOM     33  H11 UNL     1      40.475   6.472  12.134  1.00  0.00     0.174 HD
ENDBRANCH   1  31
TORSDOF 7
ENDMDL
