MODEL 1
REMARK VINA RESULT: -5.549372842      0.000      0.000
REMARK  6 active torsions:
REMARK  status: ('A' for Active; 'I' for Inactive)
REMARK    1  A    between atoms: C4_6  and  N2_7 
REMARK    2  A    between atoms: N2_7  and  C5_8 
REMARK    3  A    between atoms: N2_7  and  C6_10 
REMARK       I    between atoms: N6_18  and  C9_19 
REMARK    4  A    between atoms: C9_19  and  C10_21 
REMARK    5  A    between atoms: C10_21  and  N7_22 
REMARK    6  A    between atoms: C10_21  and  C11_26 
ROOT
HETATM    1  C6  UNL     1      37.640  -1.125  13.765  1.00  0.00     0.712 C 
HETATM    2  N3  UNL     1      37.133  -2.063  14.576  1.00  0.00    -0.119 N 
ATOM      3  H3  UNL     1      36.910  -2.977  14.183  1.00  0.00     0.207 HD
HETATM    4  N4  UNL     1      36.894  -1.843  15.952  1.00  0.00    -0.232 N 
ATOM      5  H4  UNL     1      36.222  -2.464  16.403  1.00  0.00     0.204 HD
HETATM    6  N5  UNL     1      37.485  -0.860  16.766  1.00  0.00    -0.124 NA
HETATM    7  C7  UNL     1      38.796  -0.500  16.260  1.00  0.00     0.157 C 
HETATM    8  C8  UNL     1      38.736   0.638  15.223  1.00  0.00     0.169 C 
HETATM    9  N6  UNL     1      37.927   0.242  14.112  1.00  0.00    -0.145 N 
HETATM   10  C9  UNL     1      37.243   1.167  13.292  1.00  0.00     0.279 C 
HETATM   11  O2  UNL     1      36.345   0.873  12.442  1.00  0.00    -0.270 OA
ENDROOT
BRANCH   1  12
HETATM   12  N2  UNL     1      37.799  -1.558  12.450  1.00  0.00    -0.119 N 
BRANCH  12  13
HETATM   13  C4  UNL     1      39.182  -1.702  11.978  1.00  0.00     0.091 A 
HETATM   14  C1  UNL     1      39.831  -2.886  12.179  1.00  0.00     0.114 A 
HETATM   15  N1  UNL     1      39.341  -4.086  12.819  1.00  0.00    -0.092 NA
HETATM   16  S1  UNL     1      41.367  -2.608  11.492  1.00  0.00    -0.085 SA
HETATM   17  C2  UNL     1      41.145  -0.999  10.968  1.00  0.00     0.054 A 
HETATM   18  C3  UNL     1      39.859  -0.728  11.354  1.00  0.00     0.040 A 
ENDBRANCH  12  13
BRANCH  12  19
HETATM   19  C5  UNL     1      36.762  -1.922  11.606  1.00  0.00     0.377 C 
HETATM   20  O1  UNL     1      35.677  -2.482  11.831  1.00  0.00    -0.282 OA
ENDBRANCH  12  19
ENDBRANCH   1  12
BRANCH  10  21
HETATM   21  C10 UNL     1      37.535   2.617  13.363  1.00  0.00     0.375 C 
BRANCH  21  22
HETATM   22  N7  UNL     1      37.523   3.298  12.107  1.00  0.00    -0.056 N 
ATOM     23  H73 UNL     1      36.638   3.790  11.982  1.00  0.00     0.275 HD
ATOM     24  H72 UNL     1      38.165   4.090  12.129  1.00  0.00     0.275 HD
ATOM     25  H71 UNL     1      37.716   2.710  11.296  1.00  0.00     0.275 HD
ENDBRANCH  21  22
BRANCH  21  26
HETATM   26  C11 UNL     1      36.611   3.321  14.282  1.00  0.00     0.214 C 
HETATM   27  O3  UNL     1      37.015   3.710  15.396  1.00  0.00    -0.646 OA
HETATM   28  O4  UNL     1      35.310   3.549  13.907  1.00  0.00    -0.646 OA
ENDBRANCH  21  26
ENDBRANCH  10  21
TORSDOF 6
ENDMDL
MODEL 2
REMARK VINA RESULT: -5.537554884      1.251      1.444
REMARK  6 active torsions:
REMARK  status: ('A' for Active; 'I' for Inactive)
REMARK    1  A    between atoms: C4_6  and  N2_7 
REMARK    2  A    between atoms: N2_7  and  C5_8 
REMARK    3  A    between atoms: N2_7  and  C6_10 
REMARK       I    between atoms: N6_18  and  C9_19 
REMARK    4  A    between atoms: C9_19  and  C10_21 
REMARK    5  A    between atoms: C10_21  and  N7_22 
REMARK    6  A    between atoms: C10_21  and  C11_26 
ROOT
HETATM    1  C6  UNL     1      37.675  -1.656  14.702  1.00  0.00     0.712 C 
HETATM    2  N3  UNL     1      37.159  -2.332  15.738  1.00  0.00    -0.119 N 
ATOM      3  H3  UNL     1      36.826  -3.283  15.580  1.00  0.00     0.207 HD
HETATM    4  N4  UNL     1      37.056  -1.787  17.038  1.00  0.00    -0.232 N 
ATOM      5  H4  UNL     1      36.372  -2.218  17.660  1.00  0.00     0.204 HD
HETATM    6  N5  UNL     1      37.796  -0.712  17.566  1.00  0.00    -0.124 NA
HETATM    7  C7  UNL     1      39.086  -0.612  16.910  1.00  0.00     0.157 C 
HETATM    8  C8  UNL     1      39.038   0.265  15.644  1.00  0.00     0.169 C 
HETATM    9  N6  UNL     1      38.108  -0.283  14.706  1.00  0.00    -0.145 N 
HETATM   10  C9  UNL     1      37.440   0.500  13.739  1.00  0.00     0.279 C 
HETATM   11  O2  UNL     1      36.452   0.118  13.037  1.00  0.00    -0.270 OA
ENDROOT
BRANCH   1  12
HETATM   12  N2  UNL     1      37.686  -2.387  13.515  1.00  0.00    -0.119 N 
BRANCH  12  13
HETATM   13  C4  UNL     1      39.003  -2.620  12.910  1.00  0.00     0.091 A 
HETATM   14  C1  UNL     1      39.821  -3.572  13.447  1.00  0.00     0.114 A 
HETATM   15  N1  UNL     1      39.577  -4.434  14.582  1.00  0.00    -0.092 NA
HETATM   16  S1  UNL     1      41.205  -3.499  12.454  1.00  0.00    -0.085 SA
HETATM   17  C2  UNL     1      40.711  -2.264  11.386  1.00  0.00     0.054 A 
HETATM   18  C3  UNL     1      39.461  -1.945  11.847  1.00  0.00     0.040 A 
ENDBRANCH  12  13
BRANCH  12  19
HETATM   19  C5  UNL     1      36.568  -2.954  12.927  1.00  0.00     0.377 C 
HETATM   20  O1  UNL     1      35.425  -3.165  13.365  1.00  0.00    -0.282 OA
ENDBRANCH  12  19
ENDBRANCH   1  12
BRANCH  10  21
HETATM   21  C10 UNL     1      37.861   1.891  13.456  1.00  0.00     0.375 C 
BRANCH  21  22
HETATM   22  N7  UNL     1      38.922   2.019  12.507  1.00  0.00    -0.056 N 
ATOM     23  H73 UNL     1      39.825   1.934  12.975  1.00  0.00     0.275 HD
ATOM     24  H72 UNL     1      38.957   1.197  11.904  1.00  0.00     0.275 HD
ATOM     25  H71 UNL     1      38.896   2.869  11.944  1.00  0.00     0.275 HD
ENDBRANCH  21  22
BRANCH  21  26
HETATM   26  C11 UNL     1      36.729   2.729  13.001  1.00  0.00     0.214 C 
HETATM   27  O3  UNL     1      36.705   3.165  11.832  1.00  0.00    -0.646 OA
HETATM   28  O4  UNL     1      35.703   3.026  13.864  1.00  0.00    -0.646 OA
ENDBRANCH  21  26
ENDBRANCH  10  21
TORSDOF 6
ENDMDL
MODEL 3
REMARK VINA RESULT: -5.534362074      1.991      2.633
REMARK  6 active torsions:
REMARK  status: ('A' for Active; 'I' for Inactive)
REMARK    1  A    between atoms: C4_6  and  N2_7 
REMARK    2  A    between atoms: N2_7  and  C5_8 
REMARK    3  A    between atoms: N2_7  and  C6_10 
REMARK       I    between atoms: N6_18  and  C9_19 
REMARK    4  A    between atoms: C9_19  and  C10_21 
REMARK    5  A    between atoms: C10_21  and  N7_22 
REMARK    6  A    between atoms: C10_21  and  C11_26 
ROOT
HETATM    1  C6  UNL     1      37.769  -0.123  14.253  1.00  0.00     0.712 C 
HETATM    2  N3  UNL     1      37.313  -1.007  15.151  1.00  0.00    -0.119 N 
ATOM      3  H3  UNL     1      37.162  -1.970  14.851  1.00  0.00     0.207 HD
HETATM    4  N4  UNL     1      37.032  -0.665  16.494  1.00  0.00    -0.232 N 
ATOM      5  H4  UNL     1      36.396  -1.283  16.998  1.00  0.00     0.204 HD
HETATM    6  N5  UNL     1      37.537   0.436  17.209  1.00  0.00    -0.124 NA
HETATM    7  C7  UNL     1      38.829   0.835  16.685  1.00  0.00     0.157 C 
HETATM    8  C8  UNL     1      38.711   1.853  15.534  1.00  0.00     0.169 C 
HETATM    9  N6  UNL     1      37.954   1.289  14.460  1.00  0.00    -0.145 N 
HETATM   10  C9  UNL     1      37.223   2.074  13.540  1.00  0.00     0.279 C 
HETATM   11  O2  UNL     1      36.365   1.631  12.714  1.00  0.00    -0.270 OA
ENDROOT
BRANCH   1  12
HETATM   12  N2  UNL     1      37.984  -0.676  12.992  1.00  0.00    -0.119 N 
BRANCH  12  13
HETATM   13  C4  UNL     1      36.971  -1.630  12.521  1.00  0.00     0.091 A 
HETATM   14  C1  UNL     1      37.139  -2.959  12.785  1.00  0.00     0.114 A 
HETATM   15  N1  UNL     1      38.219  -3.609  13.494  1.00  0.00    -0.092 NA
HETATM   16  S1  UNL     1      35.765  -3.673  12.071  1.00  0.00    -0.085 SA
HETATM   17  C2  UNL     1      35.014  -2.268  11.459  1.00  0.00     0.054 A 
HETATM   18  C3  UNL     1      35.876  -1.273  11.838  1.00  0.00     0.040 A 
ENDBRANCH  12  13
BRANCH  12  19
HETATM   19  C5  UNL     1      39.027  -0.336  12.147  1.00  0.00     0.377 C 
HETATM   20  O1  UNL     1      39.909  -1.025  11.609  1.00  0.00    -0.282 OA
ENDBRANCH  12  19
ENDBRANCH   1  12
BRANCH  10  21
HETATM   21  C10 UNL     1      37.412   3.540  13.465  1.00  0.00     0.375 C 
BRANCH  21  22
HETATM   22  N7  UNL     1      37.892   4.023  12.208  1.00  0.00    -0.056 N 
ATOM     23  H73 UNL     1      38.727   4.594  12.346  1.00  0.00     0.275 HD
ATOM     24  H72 UNL     1      38.289   3.257  11.665  1.00  0.00     0.275 HD
ATOM     25  H71 UNL     1      37.206   4.532  11.651  1.00  0.00     0.275 HD
ENDBRANCH  21  22
BRANCH  21  26
HETATM   26  C11 UNL     1      36.171   4.275  13.800  1.00  0.00     0.214 C 
HETATM   27  O3  UNL     1      35.076   3.677  13.813  1.00  0.00    -0.646 OA
HETATM   28  O4  UNL     1      36.224   5.614  14.099  1.00  0.00    -0.646 OA
ENDBRANCH  21  26
ENDBRANCH  10  21
TORSDOF 6
ENDMDL
MODEL 4
REMARK VINA RESULT: -5.471367156      2.247      2.939
REMARK  6 active torsions:
REMARK  status: ('A' for Active; 'I' for Inactive)
REMARK    1  A    between atoms: C4_6  and  N2_7 
REMARK    2  A    between atoms: N2_7  and  C5_8 
REMARK    3  A    between atoms: N2_7  and  C6_10 
REMARK       I    between atoms: N6_18  and  C9_19 
REMARK    4  A    between atoms: C9_19  and  C10_21 
REMARK    5  A    between atoms: C10_21  and  N7_22 
REMARK    6  A    between atoms: C10_21  and  C11_26 
ROOT
HETATM    1  C6  UNL     1      37.922  -1.685  14.862  1.00  0.00     0.712 C 
HETATM    2  N3  UNL     1      37.366  -2.359  15.878  1.00  0.00    -0.119 N 
ATOM      3  H3  UNL     1      37.130  -3.341  15.738  1.00  0.00     0.207 HD
HETATM    4  N4  UNL     1      37.093  -1.771  17.135  1.00  0.00    -0.232 N 
ATOM      5  H4  UNL     1      36.391  -2.235  17.711  1.00  0.00     0.204 HD
HETATM    6  N5  UNL     1      37.685  -0.615  17.674  1.00  0.00    -0.124 NA
HETATM    7  C7  UNL     1      39.020  -0.429  17.137  1.00  0.00     0.157 C 
HETATM    8  C8  UNL     1      39.022   0.387  15.829  1.00  0.00     0.169 C 
HETATM    9  N6  UNL     1      38.236  -0.280  14.838  1.00  0.00    -0.145 N 
HETATM   10  C9  UNL     1      37.601   0.401  13.775  1.00  0.00     0.279 C 
HETATM   11  O2  UNL     1      36.721  -0.096  13.004  1.00  0.00    -0.270 OA
ENDROOT
BRANCH   1  12
HETATM   12  N2  UNL     1      38.108  -2.460  13.719  1.00  0.00    -0.119 N 
BRANCH  12  13
HETATM   13  C4  UNL     1      37.037  -3.413  13.402  1.00  0.00     0.091 A 
HETATM   14  C1  UNL     1      37.110  -4.682  13.901  1.00  0.00     0.114 A 
HETATM   15  N1  UNL     1      38.133  -5.264  14.741  1.00  0.00    -0.092 NA
HETATM   16  S1  UNL     1      35.698  -5.419  13.293  1.00  0.00    -0.085 SA
HETATM   17  C2  UNL     1      35.054  -4.101  12.422  1.00  0.00     0.054 A 
HETATM   18  C3  UNL     1      35.978  -3.113  12.638  1.00  0.00     0.040 A 
ENDBRANCH  12  13
BRANCH  12  19
HETATM   19  C5  UNL     1      39.177  -2.338  12.847  1.00  0.00     0.377 C 
HETATM   20  O1  UNL     1      39.267  -1.819  11.723  1.00  0.00    -0.282 OA
ENDBRANCH  12  19
ENDBRANCH   1  12
BRANCH  10  21
HETATM   21  C10 UNL     1      37.930   1.810  13.463  1.00  0.00     0.375 C 
BRANCH  21  22
HETATM   22  N7  UNL     1      38.961   1.989  12.490  1.00  0.00    -0.056 N 
ATOM     23  H73 UNL     1      39.749   1.374  12.696  1.00  0.00     0.275 HD
ATOM     24  H72 UNL     1      38.667   1.605  11.591  1.00  0.00     0.275 HD
ATOM     25  H71 UNL     1      39.284   2.949  12.375  1.00  0.00     0.275 HD
ENDBRANCH  21  22
BRANCH  21  26
HETATM   26  C11 UNL     1      36.738   2.570  13.021  1.00  0.00     0.214 C 
HETATM   27  O3  UNL     1      36.684   3.026  11.861  1.00  0.00    -0.646 OA
HETATM   28  O4  UNL     1      35.692   2.773  13.887  1.00  0.00    -0.646 OA
ENDBRANCH  21  26
ENDBRANCH  10  21
TORSDOF 6
ENDMDL
MODEL 5
REMARK VINA RESULT: -5.452212038      2.139      2.809
REMARK  6 active torsions:
REMARK  status: ('A' for Active; 'I' for Inactive)
REMARK    1  A    between atoms: C4_6  and  N2_7 
REMARK    2  A    between atoms: N2_7  and  C5_8 
REMARK    3  A    between atoms: N2_7  and  C6_10 
REMARK       I    between atoms: N6_18  and  C9_19 
REMARK    4  A    between atoms: C9_19  and  C10_21 
REMARK    5  A    between atoms: C10_21  and  N7_22 
REMARK    6  A    between atoms: C10_21  and  C11_26 
ROOT
HETATM    1  C6  UNL     1      37.618  -2.563  14.781  1.00  0.00     0.712 C 
HETATM    2  N3  UNL     1      37.257  -2.718  16.062  1.00  0.00    -0.119 N 
ATOM      3  H3  UNL     1      37.057  -3.660  16.400  1.00  0.00     0.207 HD
HETATM    4  N4  UNL     1      37.140  -1.637  16.966  1.00  0.00    -0.232 N 
ATOM      5  H4  UNL     1      36.558  -1.792  17.789  1.00  0.00     0.204 HD
HETATM    6  N5  UNL     1      37.742  -0.371  16.851  1.00  0.00    -0.124 NA
HETATM    7  C7  UNL     1      38.970  -0.458  16.084  1.00  0.00     0.157 C 
HETATM    8  C8  UNL     1      38.734  -0.295  14.569  1.00  0.00     0.169 C 
HETATM    9  N6  UNL     1      37.848  -1.315  14.102  1.00  0.00    -0.145 N 
HETATM   10  C9  UNL     1      37.027  -1.156  12.963  1.00  0.00     0.279 C 
HETATM   11  O2  UNL     1      36.071  -1.927  12.633  1.00  0.00    -0.270 OA
ENDROOT
BRANCH   1  12
HETATM   12  N2  UNL     1      37.676  -3.763  14.074  1.00  0.00    -0.119 N 
BRANCH  12  13
HETATM   13  C4  UNL     1      39.019  -4.253  13.738  1.00  0.00     0.091 A 
HETATM   14  C1  UNL     1      39.693  -5.015  14.647  1.00  0.00     0.114 A 
HETATM   15  N1  UNL     1      39.267  -5.438  15.963  1.00  0.00    -0.092 NA
HETATM   16  S1  UNL     1      41.167  -5.349  13.858  1.00  0.00    -0.085 SA
HETATM   17  C2  UNL     1      40.888  -4.514  12.396  1.00  0.00     0.054 A 
HETATM   18  C3  UNL     1      39.634  -3.993  12.576  1.00  0.00     0.040 A 
ENDBRANCH  12  13
BRANCH  12  19
HETATM   19  C5  UNL     1      36.577  -4.537  13.741  1.00  0.00     0.377 C 
HETATM   20  O1  UNL     1      35.887  -5.319  14.415  1.00  0.00    -0.282 OA
ENDBRANCH  12  19
ENDBRANCH   1  12
BRANCH  10  21
HETATM   21  C10 UNL     1      37.228  -0.030  12.025  1.00  0.00     0.375 C 
BRANCH  21  22
HETATM   22  N7  UNL     1      36.677  -0.225  10.720  1.00  0.00    -0.056 N 
ATOM     23  H73 UNL     1      36.226  -1.138  10.662  1.00  0.00     0.275 HD
ATOM     24  H72 UNL     1      35.868   0.381  10.585  1.00  0.00     0.275 HD
ATOM     25  H71 UNL     1      37.338  -0.108   9.952  1.00  0.00     0.275 HD
ENDBRANCH  21  22
BRANCH  21  26
HETATM   26  C11 UNL     1      36.697   1.242  12.567  1.00  0.00     0.214 C 
HETATM   27  O3  UNL     1      35.681   1.236  13.291  1.00  0.00    -0.646 OA
HETATM   28  O4  UNL     1      37.323   2.428  12.274  1.00  0.00    -0.646 OA
ENDBRANCH  21  26
ENDBRANCH  10  21
TORSDOF 6
ENDMDL
