MODEL 1
REMARK VINA RESULT: -6.965512518      0.000      0.000
REMARK  8 active torsions:
REMARK  status: ('A' for Active; 'I' for Inactive)
REMARK    1  A    between atoms: C2_2  and  O1_3 
REMARK    2  A    between atoms: O1_3  and  C3_4 
REMARK    3  A    between atoms: C3_4  and  C4_6 
REMARK    4  A    between atoms: C5_8  and  N1_9 
REMARK    5  A    between atoms: N1_9  and  C6_11 
REMARK    6  A    between atoms: C6_11  and  C8_15 
REMARK    7  A    between atoms: C10_19  and  O3_20 
REMARK    8  A    between atoms: C11_22  and  O4_23 
ROOT
HETATM    1  C4  UNL     1      28.929   9.955   2.458  1.00  0.00     0.118 A 
HETATM    2  S1  UNL     1      28.968  11.607   2.053  1.00  0.00    -0.060 SA
HETATM    3  C5  UNL     1      27.999  11.571   0.654  1.00  0.00     0.113 A 
HETATM    4  C10 UNL     1      27.666  10.243   0.540  1.00  0.00     0.134 A 
HETATM    5  C11 UNL     1      28.147   9.410   1.472  1.00  0.00     0.125 A 
ENDROOT
BRANCH   3   6
HETATM    6  N1  UNL     1      27.604  12.652  -0.225  1.00  0.00    -0.336 N 
ATOM      7  H1  UNL     1      26.671  13.058  -0.145  1.00  0.00     0.168 HD
BRANCH   6   8
HETATM    8  C6  UNL     1      28.507  13.146  -1.190  1.00  0.00     0.117 C 
HETATM    9  N2  UNL     1      29.281  14.142  -0.962  1.00  0.00    -0.381 N 
HETATM   10  C7  UNL     1      29.359  14.888   0.244  1.00  0.00     0.147 C 
ATOM     11  H2  UNL     1      29.900  14.427  -1.720  1.00  0.00     0.160 HD
BRANCH   8  12
HETATM   12  C8  UNL     1      28.593  12.516  -2.524  1.00  0.00     0.167 C 
HETATM   13  C9  UNL     1      29.325  13.404  -3.494  1.00  0.00     0.059 C 
HETATM   14 CL1  UNL     1      29.570  11.008  -2.399  1.00  0.00    -0.093 Cl
HETATM   15 CL2  UNL     1      27.009  12.032  -3.149  1.00  0.00    -0.093 Cl
ENDBRANCH   8  12
ENDBRANCH   6   8
ENDBRANCH   3   6
BRANCH   4  16
HETATM   16  O3  UNL     1      26.843   9.778  -0.527  1.00  0.00    -0.356 OA
ATOM     17  H3  UNL     1      26.454   8.911  -0.505  1.00  0.00     0.218 HD
ENDBRANCH   4  16
BRANCH   1  18
HETATM   18  C3  UNL     1      29.580   9.268   3.597  1.00  0.00     0.303 C 
HETATM   19  O2  UNL     1      29.410   9.719   4.748  1.00  0.00    -0.259 OA
BRANCH  18  20
HETATM   20  O1  UNL     1      30.352   8.161   3.379  1.00  0.00    -0.317 OA
BRANCH  20  21
HETATM   21  C2  UNL     1      30.407   7.056   4.264  1.00  0.00     0.174 C 
HETATM   22  C1  UNL     1      29.197   6.161   4.144  1.00  0.00     0.034 C 
ENDBRANCH  20  21
ENDBRANCH  18  20
ENDBRANCH   1  18
BRANCH   5  23
HETATM   23  O4  UNL     1      27.896   8.007   1.498  1.00  0.00    -0.356 OA
ATOM     24  H4  UNL     1      27.046   7.704   1.795  1.00  0.00     0.218 HD
ENDBRANCH   5  23
TORSDOF 8
ENDMDL
MODEL 2
REMARK VINA RESULT: -6.958840822      0.756      1.080
REMARK  8 active torsions:
REMARK  status: ('A' for Active; 'I' for Inactive)
REMARK    1  A    between atoms: C2_2  and  O1_3 
REMARK    2  A    between atoms: O1_3  and  C3_4 
REMARK    3  A    between atoms: C3_4  and  C4_6 
REMARK    4  A    between atoms: C5_8  and  N1_9 
REMARK    5  A    between atoms: N1_9  and  C6_11 
REMARK    6  A    between atoms: C6_11  and  C8_15 
REMARK    7  A    between atoms: C10_19  and  O3_20 
REMARK    8  A    between atoms: C11_22  and  O4_23 
ROOT
HETATM    1  C4  UNL     1      29.009   9.905   2.436  1.00  0.00     0.118 A 
HETATM    2  S1  UNL     1      28.958  11.562   2.053  1.00  0.00    -0.060 SA
HETATM    3  C5  UNL     1      28.074  11.482   0.601  1.00  0.00     0.113 A 
HETATM    4  C10 UNL     1      27.841  10.137   0.452  1.00  0.00     0.134 A 
HETATM    5  C11 UNL     1      28.324   9.323   1.400  1.00  0.00     0.125 A 
ENDROOT
BRANCH   3   6
HETATM    6  N1  UNL     1      27.656  12.547  -0.286  1.00  0.00    -0.336 N 
ATOM      7  H1  UNL     1      26.706  12.914  -0.229  1.00  0.00     0.168 HD
BRANCH   6   8
HETATM    8  C6  UNL     1      28.561  13.078  -1.230  1.00  0.00     0.117 C 
HETATM    9  N2  UNL     1      29.292  14.101  -0.981  1.00  0.00    -0.381 N 
HETATM   10  C7  UNL     1      29.317  14.844   0.229  1.00  0.00     0.147 C 
ATOM     11  H2  UNL     1      29.917  14.413  -1.725  1.00  0.00     0.160 HD
BRANCH   8  12
HETATM   12  C8  UNL     1      28.699  12.459  -2.564  1.00  0.00     0.167 C 
HETATM   13  C9  UNL     1      27.351  12.162  -3.164  1.00  0.00     0.059 C 
HETATM   14 CL1  UNL     1      29.490  13.633  -3.677  1.00  0.00    -0.093 Cl
HETATM   15 CL2  UNL     1      29.734  11.022  -2.540  1.00  0.00    -0.093 Cl
ENDBRANCH   8  12
ENDBRANCH   6   8
ENDBRANCH   3   6
BRANCH   4  16
HETATM   16  O3  UNL     1      27.113   9.633  -0.665  1.00  0.00    -0.356 OA
ATOM     17  H3  UNL     1      27.075   8.701  -0.848  1.00  0.00     0.218 HD
ENDBRANCH   4  16
BRANCH   1  18
HETATM   18  C3  UNL     1      29.641   9.245   3.603  1.00  0.00     0.303 C 
HETATM   19  O2  UNL     1      29.410   9.694   4.745  1.00  0.00    -0.259 OA
BRANCH  18  20
HETATM   20  O1  UNL     1      30.460   8.167   3.420  1.00  0.00    -0.317 OA
BRANCH  20  21
HETATM   21  C2  UNL     1      30.513   7.062   4.306  1.00  0.00     0.174 C 
HETATM   22  C1  UNL     1      29.308   6.161   4.174  1.00  0.00     0.034 C 
ENDBRANCH  20  21
ENDBRANCH  18  20
ENDBRANCH   1  18
BRANCH   5  23
HETATM   23  O4  UNL     1      28.169   7.906   1.396  1.00  0.00    -0.356 OA
ATOM     24  H4  UNL     1      28.615   7.403   0.725  1.00  0.00     0.218 HD
ENDBRANCH   5  23
TORSDOF 8
ENDMDL
MODEL 3
REMARK VINA RESULT: -6.936832881      1.054      1.471
REMARK  8 active torsions:
REMARK  status: ('A' for Active; 'I' for Inactive)
REMARK    1  A    between atoms: C2_2  and  O1_3 
REMARK    2  A    between atoms: O1_3  and  C3_4 
REMARK    3  A    between atoms: C3_4  and  C4_6 
REMARK    4  A    between atoms: C5_8  and  N1_9 
REMARK    5  A    between atoms: N1_9  and  C6_11 
REMARK    6  A    between atoms: C6_11  and  C8_15 
REMARK    7  A    between atoms: C10_19  and  O3_20 
REMARK    8  A    between atoms: C11_22  and  O4_23 
ROOT
HETATM    1  C4  UNL     1      28.807  10.077   2.564  1.00  0.00     0.118 A 
HETATM    2  S1  UNL     1      28.877  11.721   2.135  1.00  0.00    -0.060 SA
HETATM    3  C5  UNL     1      27.988  11.666   0.684  1.00  0.00     0.113 A 
HETATM    4  C10 UNL     1      27.657  10.338   0.573  1.00  0.00     0.134 A 
HETATM    5  C11 UNL     1      28.080   9.519   1.544  1.00  0.00     0.125 A 
ENDROOT
BRANCH   3   6
HETATM    6  N1  UNL     1      27.649  12.735  -0.233  1.00  0.00    -0.336 N 
ATOM      7  H1  UNL     1      26.722  13.159  -0.198  1.00  0.00     0.168 HD
BRANCH   6   8
HETATM    8  C6  UNL     1      28.598  13.188  -1.173  1.00  0.00     0.117 C 
HETATM    9  N2  UNL     1      29.397  14.161  -0.929  1.00  0.00    -0.381 N 
HETATM   10  C7  UNL     1      29.461  14.916   0.272  1.00  0.00     0.147 C 
ATOM     11  H2  UNL     1      30.049  14.418  -1.670  1.00  0.00     0.160 HD
BRANCH   8  12
HETATM   12  C8  UNL     1      28.706  12.543  -2.498  1.00  0.00     0.167 C 
HETATM   13  C9  UNL     1      29.440  13.426  -3.470  1.00  0.00     0.059 C 
HETATM   14 CL1  UNL     1      29.695  11.046  -2.343  1.00  0.00    -0.093 Cl
HETATM   15 CL2  UNL     1      27.133  12.036  -3.134  1.00  0.00    -0.093 Cl
ENDBRANCH   8  12
ENDBRANCH   6   8
ENDBRANCH   3   6
BRANCH   4  16
HETATM   16  O3  UNL     1      26.893   9.858  -0.531  1.00  0.00    -0.356 OA
ATOM     17  H3  UNL     1      25.943   9.893  -0.525  1.00  0.00     0.218 HD
ENDBRANCH   4  16
BRANCH   1  18
HETATM   18  C3  UNL     1      29.390   9.405   3.749  1.00  0.00     0.303 C 
HETATM   19  O2  UNL     1      28.654   8.681   4.452  1.00  0.00    -0.259 OA
BRANCH  18  20
HETATM   20  O1  UNL     1      30.709   9.584   4.058  1.00  0.00    -0.317 OA
BRANCH  20  21
HETATM   21  C2  UNL     1      31.774   9.175   3.218  1.00  0.00     0.174 C 
HETATM   22  C1  UNL     1      32.701  10.315   2.868  1.00  0.00     0.034 C 
ENDBRANCH  20  21
ENDBRANCH  18  20
ENDBRANCH   1  18
BRANCH   5  23
HETATM   23  O4  UNL     1      27.821   8.117   1.579  1.00  0.00    -0.356 OA
ATOM     24  H4  UNL     1      28.521   7.533   1.846  1.00  0.00     0.218 HD
ENDBRANCH   5  23
TORSDOF 8
ENDMDL
MODEL 4
REMARK VINA RESULT: -6.920633848      1.125      1.337
REMARK  8 active torsions:
REMARK  status: ('A' for Active; 'I' for Inactive)
REMARK    1  A    between atoms: C2_2  and  O1_3 
REMARK    2  A    between atoms: O1_3  and  C3_4 
REMARK    3  A    between atoms: C3_4  and  C4_6 
REMARK    4  A    between atoms: C5_8  and  N1_9 
REMARK    5  A    between atoms: N1_9  and  C6_11 
REMARK    6  A    between atoms: C6_11  and  C8_15 
REMARK    7  A    between atoms: C10_19  and  O3_20 
REMARK    8  A    between atoms: C11_22  and  O4_23 
ROOT
HETATM    1  C4  UNL     1      28.208   9.789   1.931  1.00  0.00     0.118 A 
HETATM    2  S1  UNL     1      28.612  11.424   1.697  1.00  0.00    -0.060 SA
HETATM    3  C5  UNL     1      27.751  11.719   0.259  1.00  0.00     0.113 A 
HETATM    4  C10 UNL     1      27.161  10.506  -0.003  1.00  0.00     0.134 A 
HETATM    5  C11 UNL     1      27.397   9.511   0.861  1.00  0.00     0.125 A 
ENDROOT
BRANCH   3   6
HETATM    6  N1  UNL     1      27.645  12.933  -0.523  1.00  0.00    -0.336 N 
ATOM      7  H1  UNL     1      26.784  13.479  -0.501  1.00  0.00     0.168 HD
BRANCH   6   8
HETATM    8  C6  UNL     1      28.731  13.360  -1.317  1.00  0.00     0.117 C 
HETATM    9  N2  UNL     1      29.558  14.257  -0.924  1.00  0.00    -0.381 N 
HETATM   10  C7  UNL     1      29.527  14.944   0.318  1.00  0.00     0.147 C 
ATOM     11  H2  UNL     1      30.313  14.500  -1.566  1.00  0.00     0.160 HD
BRANCH   8  12
HETATM   12  C8  UNL     1      28.956  12.774  -2.655  1.00  0.00     0.167 C 
HETATM   13  C9  UNL     1      29.804  13.681  -3.505  1.00  0.00     0.059 C 
HETATM   14 CL1  UNL     1      29.888  11.245  -2.477  1.00  0.00    -0.093 Cl
HETATM   15 CL2  UNL     1      27.443  12.343  -3.468  1.00  0.00    -0.093 Cl
ENDBRANCH   8  12
ENDBRANCH   6   8
ENDBRANCH   3   6
BRANCH   4  16
HETATM   16  O3  UNL     1      26.331  10.322  -1.148  1.00  0.00    -0.356 OA
ATOM     17  H3  UNL     1      25.389  10.438  -1.097  1.00  0.00     0.218 HD
ENDBRANCH   4  16
BRANCH   1  18
HETATM   18  C3  UNL     1      28.628   8.880   3.024  1.00  0.00     0.303 C 
HETATM   19  O2  UNL     1      28.797   7.670   2.768  1.00  0.00    -0.259 OA
BRANCH  18  20
HETATM   20  O1  UNL     1      28.822   9.370   4.286  1.00  0.00    -0.317 OA
BRANCH  20  21
HETATM   21  C2  UNL     1      29.930   9.026   5.098  1.00  0.00     0.174 C 
HETATM   22  C1  UNL     1      29.520   8.277   6.344  1.00  0.00     0.034 C 
ENDBRANCH  20  21
ENDBRANCH  18  20
ENDBRANCH   1  18
BRANCH   5  23
HETATM   23  O4  UNL     1      26.862   8.196   0.734  1.00  0.00    -0.356 OA
ATOM     24  H4  UNL     1      25.919   8.091   0.703  1.00  0.00     0.218 HD
ENDBRANCH   5  23
TORSDOF 8
ENDMDL
MODEL 5
REMARK VINA RESULT: -6.784926057      1.530      2.433
REMARK  8 active torsions:
REMARK  status: ('A' for Active; 'I' for Inactive)
REMARK    1  A    between atoms: C2_2  and  O1_3 
REMARK    2  A    between atoms: O1_3  and  C3_4 
REMARK    3  A    between atoms: C3_4  and  C4_6 
REMARK    4  A    between atoms: C5_8  and  N1_9 
REMARK    5  A    between atoms: N1_9  and  C6_11 
REMARK    6  A    between atoms: C6_11  and  C8_15 
REMARK    7  A    between atoms: C10_19  and  O3_20 
REMARK    8  A    between atoms: C11_22  and  O4_23 
ROOT
HETATM    1  C4  UNL     1      28.328   9.848   2.201  1.00  0.00     0.118 A 
HETATM    2  S1  UNL     1      28.418  10.410   0.598  1.00  0.00    -0.060 SA
HETATM    3  C5  UNL     1      29.726  11.488   0.757  1.00  0.00     0.113 A 
HETATM    4  C10 UNL     1      30.061  11.377   2.084  1.00  0.00     0.134 A 
HETATM    5  C11 UNL     1      29.339  10.530   2.829  1.00  0.00     0.125 A 
ENDROOT
BRANCH   3   6
HETATM    6  N1  UNL     1      30.355  12.331  -0.239  1.00  0.00    -0.336 N 
ATOM      7  H1  UNL     1      31.371  12.339  -0.331  1.00  0.00     0.168 HD
BRANCH   6   8
HETATM    8  C6  UNL     1      29.564  13.141  -1.081  1.00  0.00     0.117 C 
HETATM    9  N2  UNL     1      29.160  14.307  -0.732  1.00  0.00    -0.381 N 
HETATM   10  C7  UNL     1      29.426  14.955   0.503  1.00  0.00     0.147 C 
ATOM     11  H2  UNL     1      28.594  14.819  -1.407  1.00  0.00     0.160 HD
BRANCH   8  12
HETATM   12  C8  UNL     1      29.166  12.663  -2.421  1.00  0.00     0.167 C 
HETATM   13  C9  UNL     1      29.589  13.635  -3.489  1.00  0.00     0.059 C 
HETATM   14 CL1  UNL     1      30.035  11.126  -2.777  1.00  0.00    -0.093 Cl
HETATM   15 CL2  UNL     1      27.437  12.292  -2.523  1.00  0.00    -0.093 Cl
ENDBRANCH   8  12
ENDBRANCH   6   8
ENDBRANCH   3   6
BRANCH   4  16
HETATM   16  O3  UNL     1      31.135  12.133   2.640  1.00  0.00    -0.356 OA
ATOM     17  H3  UNL     1      31.603  11.830   3.410  1.00  0.00     0.218 HD
ENDBRANCH   4  16
BRANCH   1  18
HETATM   18  C3  UNL     1      27.387   8.863   2.784  1.00  0.00     0.303 C 
HETATM   19  O2  UNL     1      26.374   8.540   2.129  1.00  0.00    -0.259 OA
BRANCH  18  20
HETATM   20  O1  UNL     1      27.633   8.326   4.016  1.00  0.00    -0.317 OA
BRANCH  20  21
HETATM   21  C2  UNL     1      27.973   6.966   4.225  1.00  0.00     0.174 C 
HETATM   22  C1  UNL     1      29.365   6.639   3.739  1.00  0.00     0.034 C 
ENDBRANCH  20  21
ENDBRANCH  18  20
ENDBRANCH   1  18
BRANCH   5  23
HETATM   23  O4  UNL     1      29.557  10.299   4.219  1.00  0.00    -0.356 OA
ATOM     24  H4  UNL     1      29.984  10.976   4.730  1.00  0.00     0.218 HD
ENDBRANCH   5  23
TORSDOF 8
ENDMDL
