MODEL 1
REMARK VINA RESULT: -7.849643165      0.000      0.000
REMARK  7 active torsions:
REMARK  status: ('A' for Active; 'I' for Inactive)
REMARK    1  A    between atoms: O1_2  and  C2_3 
REMARK    2  A    between atoms: C2_3  and  C3_5 
REMARK    3  A    between atoms: C4_6  and  O3_7 
REMARK    4  A    between atoms: C5_9  and  O4_10 
REMARK    5  A    between atoms: C7_14  and  N1_15 
REMARK    6  A    between atoms: N2_17  and  N3_19 
REMARK    7  A    between atoms: C14_26  and  O5_27 
ROOT
HETATM    1  C3  UNL     1      29.401   7.519   4.710  1.00  0.00     0.111 A 
HETATM    2  C4  UNL     1      30.605   6.850   4.784  1.00  0.00     0.121 A 
HETATM    3  C5  UNL     1      31.787   7.342   4.250  1.00  0.00     0.141 A 
HETATM    4  C6  UNL     1      31.711   8.574   3.618  1.00  0.00     0.183 A 
HETATM    5  F1  UNL     1      32.849   9.080   3.087  1.00  0.00    -0.200 F 
HETATM    6  C7  UNL     1      30.517   9.259   3.533  1.00  0.00     0.125 A 
HETATM    7  C14 UNL     1      29.361   8.739   4.076  1.00  0.00     0.116 A 
ENDROOT
BRANCH   6   8
HETATM    8  N1  UNL     1      30.436  10.522   2.885  1.00  0.00    -0.281 N 
HETATM    9  N2  UNL     1      29.878  10.653   1.739  1.00  0.00    -0.244 N 
ATOM     10  H2  UNL     1      29.475   9.847   1.260  1.00  0.00     0.208 HD
ATOM     11  H1  UNL     1      30.832  11.343   3.343  1.00  0.00     0.188 HD
BRANCH   9  12
HETATM   12  N3  UNL     1      29.833  11.919   1.161  1.00  0.00    -0.314 N 
HETATM   13  C8  UNL     1      29.643  12.035  -0.259  1.00  0.00     0.144 C 
HETATM   14  C9  UNL     1      28.638  13.117  -0.589  1.00  0.00     0.021 C 
HETATM   15  C10 UNL     1      29.107  14.489  -0.240  1.00  0.00     0.002 C 
HETATM   16  C11 UNL     1      28.694  14.937   1.138  1.00  0.00     0.002 C 
HETATM   17  C12 UNL     1      28.679  13.819   2.137  1.00  0.00     0.021 C 
HETATM   18  C13 UNL     1      29.988  13.051   2.080  1.00  0.00     0.144 C 
ENDBRANCH   9  12
ENDBRANCH   6   8
BRANCH   7  19
HETATM   19  O5  UNL     1      28.158   9.462   3.972  1.00  0.00    -0.357 OA
ATOM     20  H5  UNL     1      28.099  10.237   3.426  1.00  0.00     0.217 HD
ENDBRANCH   7  19
BRANCH   3  21
HETATM   21  O4  UNL     1      32.983   6.639   4.345  1.00  0.00    -0.355 OA
ATOM     22  H4  UNL     1      33.812   7.078   4.496  1.00  0.00     0.218 HD
ENDBRANCH   3  21
BRANCH   1  23
HETATM   23  C2  UNL     1      28.182   6.986   5.274  1.00  0.00     0.298 C 
HETATM   24  O2  UNL     1      27.625   6.014   4.723  1.00  0.00    -0.259 OA
BRANCH  23  25
HETATM   25  O1  UNL     1      27.636   7.539   6.405  1.00  0.00    -0.322 OA
HETATM   26  C1  UNL     1      27.505   6.828   7.635  1.00  0.00     0.213 C 
ENDBRANCH  23  25
ENDBRANCH   1  23
BRANCH   2  27
HETATM   27  O3  UNL     1      30.653   5.622   5.422  1.00  0.00    -0.357 OA
ATOM     28  H3  UNL     1      30.649   5.595   6.371  1.00  0.00     0.218 HD
ENDBRANCH   2  27
TORSDOF 7
ENDMDL
MODEL 2
REMARK VINA RESULT: -7.755267501      3.395      7.346
REMARK  7 active torsions:
REMARK  status: ('A' for Active; 'I' for Inactive)
REMARK    1  A    between atoms: O1_2  and  C2_3 
REMARK    2  A    between atoms: C2_3  and  C3_5 
REMARK    3  A    between atoms: C4_6  and  O3_7 
REMARK    4  A    between atoms: C5_9  and  O4_10 
REMARK    5  A    between atoms: C7_14  and  N1_15 
REMARK    6  A    between atoms: N2_17  and  N3_19 
REMARK    7  A    between atoms: C14_26  and  O5_27 
ROOT
HETATM    1  C3  UNL     1      29.636  11.654   0.197  1.00  0.00     0.111 A 
HETATM    2  C4  UNL     1      29.083  11.050  -0.913  1.00  0.00     0.121 A 
HETATM    3  C5  UNL     1      28.536   9.775  -0.897  1.00  0.00     0.141 A 
HETATM    4  C6  UNL     1      28.566   9.108   0.318  1.00  0.00     0.183 A 
HETATM    5  F1  UNL     1      28.038   7.861   0.364  1.00  0.00    -0.200 F 
HETATM    6  C7  UNL     1      29.113   9.694   1.440  1.00  0.00     0.125 A 
HETATM    7  C14 UNL     1      29.649  10.964   1.386  1.00  0.00     0.116 A 
ENDROOT
BRANCH   6   8
HETATM    8  N1  UNL     1      29.145   9.012   2.687  1.00  0.00    -0.281 N 
HETATM    9  N2  UNL     1      30.129   8.258   3.013  1.00  0.00    -0.244 N 
ATOM     10  H2  UNL     1      30.919   8.129   2.381  1.00  0.00     0.208 HD
ATOM     11  H1  UNL     1      28.367   9.124   3.336  1.00  0.00     0.188 HD
BRANCH   9  12
HETATM   12  N3  UNL     1      30.096   7.620   4.251  1.00  0.00    -0.314 N 
HETATM   13  C8  UNL     1      30.646   8.289   5.399  1.00  0.00     0.144 C 
HETATM   14  C9  UNL     1      29.735   8.148   6.600  1.00  0.00     0.021 C 
HETATM   15  C10 UNL     1      29.623   6.746   7.098  1.00  0.00     0.002 C 
HETATM   16  C11 UNL     1      28.467   5.984   6.504  1.00  0.00     0.002 C 
HETATM   17  C12 UNL     1      28.199   6.347   5.074  1.00  0.00     0.021 C 
HETATM   18  C13 UNL     1      29.487   6.287   4.271  1.00  0.00     0.144 C 
ENDBRANCH   9  12
ENDBRANCH   6   8
BRANCH   7  19
HETATM   19  O5  UNL     1      30.201  11.535   2.549  1.00  0.00    -0.357 OA
ATOM     20  H5  UNL     1      29.966  11.211   3.410  1.00  0.00     0.217 HD
ENDBRANCH   7  19
BRANCH   3  21
HETATM   21  O4  UNL     1      27.987   9.199  -2.038  1.00  0.00    -0.355 OA
ATOM     22  H4  UNL     1      28.139   8.288  -2.261  1.00  0.00     0.218 HD
ENDBRANCH   3  21
BRANCH   1  23
HETATM   23  C2  UNL     1      30.199  12.983   0.156  1.00  0.00     0.298 C 
HETATM   24  O2  UNL     1      31.429  13.133   0.311  1.00  0.00    -0.259 OA
BRANCH  23  25
HETATM   25  O1  UNL     1      29.395  14.077  -0.051  1.00  0.00    -0.322 OA
HETATM   26  C1  UNL     1      29.180  15.082   0.938  1.00  0.00     0.213 C 
ENDBRANCH  23  25
ENDBRANCH   1  23
BRANCH   2  27
HETATM   27  O3  UNL     1      29.066  11.739  -2.114  1.00  0.00    -0.357 OA
ATOM     28  H3  UNL     1      29.875  11.832  -2.603  1.00  0.00     0.218 HD
ENDBRANCH   2  27
TORSDOF 7
ENDMDL
MODEL 3
REMARK VINA RESULT: -7.627718765      3.416      7.313
REMARK  7 active torsions:
REMARK  status: ('A' for Active; 'I' for Inactive)
REMARK    1  A    between atoms: O1_2  and  C2_3 
REMARK    2  A    between atoms: C2_3  and  C3_5 
REMARK    3  A    between atoms: C4_6  and  O3_7 
REMARK    4  A    between atoms: C5_9  and  O4_10 
REMARK    5  A    between atoms: C7_14  and  N1_15 
REMARK    6  A    between atoms: N2_17  and  N3_19 
REMARK    7  A    between atoms: C14_26  and  O5_27 
ROOT
HETATM    1  C3  UNL     1      29.538  11.605   0.327  1.00  0.00     0.111 A 
HETATM    2  C4  UNL     1      29.032  11.023  -0.817  1.00  0.00     0.121 A 
HETATM    3  C5  UNL     1      28.489   9.747  -0.850  1.00  0.00     0.141 A 
HETATM    4  C6  UNL     1      28.472   9.055   0.350  1.00  0.00     0.183 A 
HETATM    5  F1  UNL     1      27.947   7.806   0.349  1.00  0.00    -0.200 F 
HETATM    6  C7  UNL     1      28.972   9.618   1.506  1.00  0.00     0.125 A 
HETATM    7  C14 UNL     1      29.506  10.889   1.501  1.00  0.00     0.116 A 
ENDROOT
BRANCH   6   8
HETATM    8  N1  UNL     1      28.956   8.909   2.738  1.00  0.00    -0.281 N 
HETATM    9  N2  UNL     1      29.988   8.276   3.160  1.00  0.00    -0.244 N 
ATOM     10  H2  UNL     1      30.852   8.266   2.618  1.00  0.00     0.208 HD
ATOM     11  H1  UNL     1      28.105   8.903   3.299  1.00  0.00     0.188 HD
BRANCH   9  12
HETATM   12  N3  UNL     1      29.903   7.603   4.377  1.00  0.00    -0.314 N 
HETATM   13  C8  UNL     1      30.175   6.191   4.416  1.00  0.00     0.144 C 
HETATM   14  C9  UNL     1      31.047   5.837   5.601  1.00  0.00     0.021 C 
HETATM   15  C10 UNL     1      30.375   6.047   6.917  1.00  0.00     0.002 C 
HETATM   16  C11 UNL     1      30.629   7.407   7.514  1.00  0.00     0.002 C 
HETATM   17  C12 UNL     1      30.723   8.492   6.482  1.00  0.00     0.021 C 
HETATM   18  C13 UNL     1      29.535   8.418   5.538  1.00  0.00     0.144 C 
ENDBRANCH   9  12
ENDBRANCH   6   8
BRANCH   7  19
HETATM   19  O5  UNL     1      30.009  11.436   2.696  1.00  0.00    -0.357 OA
ATOM     20  H5  UNL     1      29.697  11.134   3.540  1.00  0.00     0.217 HD
ENDBRANCH   7  19
BRANCH   3  21
HETATM   21  O4  UNL     1      27.988   9.194  -2.024  1.00  0.00    -0.355 OA
ATOM     22  H4  UNL     1      27.056   9.072  -2.162  1.00  0.00     0.218 HD
ENDBRANCH   3  21
BRANCH   1  23
HETATM   23  C2  UNL     1      30.099  12.936   0.336  1.00  0.00     0.298 C 
HETATM   24  O2  UNL     1      31.315  13.088   0.577  1.00  0.00    -0.259 OA
BRANCH  23  25
HETATM   25  O1  UNL     1      29.307  14.029   0.086  1.00  0.00    -0.322 OA
HETATM   26  C1  UNL     1      29.263  15.171   0.940  1.00  0.00     0.213 C 
ENDBRANCH  23  25
ENDBRANCH   1  23
BRANCH   2  27
HETATM   27  O3  UNL     1      29.061  11.738  -2.003  1.00  0.00    -0.357 OA
ATOM     28  H3  UNL     1      28.809  11.303  -2.809  1.00  0.00     0.218 HD
ENDBRANCH   2  27
TORSDOF 7
ENDMDL
MODEL 4
REMARK VINA RESULT: -7.603890254      3.583      5.214
REMARK  7 active torsions:
REMARK  status: ('A' for Active; 'I' for Inactive)
REMARK    1  A    between atoms: O1_2  and  C2_3 
REMARK    2  A    between atoms: C2_3  and  C3_5 
REMARK    3  A    between atoms: C4_6  and  O3_7 
REMARK    4  A    between atoms: C5_9  and  O4_10 
REMARK    5  A    between atoms: C7_14  and  N1_15 
REMARK    6  A    between atoms: N2_17  and  N3_19 
REMARK    7  A    between atoms: C14_26  and  O5_27 
ROOT
HETATM    1  C3  UNL     1      28.604  10.033   2.106  1.00  0.00     0.111 A 
HETATM    2  C4  UNL     1      27.513  10.075   1.262  1.00  0.00     0.121 A 
HETATM    3  C5  UNL     1      27.352  11.029   0.268  1.00  0.00     0.141 A 
HETATM    4  C6  UNL     1      28.362  11.971   0.150  1.00  0.00     0.183 A 
HETATM    5  F1  UNL     1      28.232  12.916  -0.813  1.00  0.00    -0.200 F 
HETATM    6  C7  UNL     1      29.461  11.947   0.983  1.00  0.00     0.125 A 
HETATM    7  C14 UNL     1      29.587  10.983   1.961  1.00  0.00     0.116 A 
ENDROOT
BRANCH   6   8
HETATM    8  N1  UNL     1      30.498  12.912   0.864  1.00  0.00    -0.281 N 
HETATM    9  N2  UNL     1      31.723  12.564   0.719  1.00  0.00    -0.244 N 
ATOM     10  H2  UNL     1      31.985  11.579   0.686  1.00  0.00     0.208 HD
ATOM     11  H1  UNL     1      30.261  13.904   0.894  1.00  0.00     0.188 HD
BRANCH   9  12
HETATM   12  N3  UNL     1      32.688  13.562   0.607  1.00  0.00    -0.314 N 
HETATM   13  C8  UNL     1      33.924  13.425   1.330  1.00  0.00     0.144 C 
HETATM   14  C9  UNL     1      35.108  13.792   0.461  1.00  0.00     0.021 C 
HETATM   15  C10 UNL     1      35.142  15.235   0.085  1.00  0.00     0.002 C 
HETATM   16  C11 UNL     1      34.464  15.535  -1.227  1.00  0.00     0.002 C 
HETATM   17  C12 UNL     1      33.261  14.673  -1.474  1.00  0.00     0.021 C 
HETATM   18  C13 UNL     1      32.348  14.693  -0.261  1.00  0.00     0.144 C 
ENDBRANCH   9  12
ENDBRANCH   6   8
BRANCH   7  19
HETATM   19  O5  UNL     1      30.720  10.985   2.796  1.00  0.00    -0.357 OA
ATOM     20  H5  UNL     1      31.586  11.153   2.444  1.00  0.00     0.217 HD
ENDBRANCH   7  19
BRANCH   3  21
HETATM   21  O4  UNL     1      26.238  11.039  -0.565  1.00  0.00    -0.355 OA
ATOM     22  H4  UNL     1      25.826  10.235  -0.861  1.00  0.00     0.218 HD
ENDBRANCH   3  21
BRANCH   1  23
HETATM   23  C2  UNL     1      28.749   9.028   3.134  1.00  0.00     0.298 C 
HETATM   24  O2  UNL     1      28.830   9.381   4.329  1.00  0.00    -0.259 OA
BRANCH  23  25
HETATM   25  O1  UNL     1      28.801   7.696   2.806  1.00  0.00    -0.322 OA
HETATM   26  C1  UNL     1      29.238   6.688   3.715  1.00  0.00     0.213 C 
ENDBRANCH  23  25
ENDBRANCH   1  23
BRANCH   2  27
HETATM   27  O3  UNL     1      26.519   9.121   1.401  1.00  0.00    -0.357 OA
ATOM     28  H3  UNL     1      25.700   9.366   1.816  1.00  0.00     0.218 HD
ENDBRANCH   2  27
TORSDOF 7
ENDMDL
MODEL 5
REMARK VINA RESULT: -7.587687685      3.605      7.629
REMARK  7 active torsions:
REMARK  status: ('A' for Active; 'I' for Inactive)
REMARK    1  A    between atoms: O1_2  and  C2_3 
REMARK    2  A    between atoms: C2_3  and  C3_5 
REMARK    3  A    between atoms: C4_6  and  O3_7 
REMARK    4  A    between atoms: C5_9  and  O4_10 
REMARK    5  A    between atoms: C7_14  and  N1_15 
REMARK    6  A    between atoms: N2_17  and  N3_19 
REMARK    7  A    between atoms: C14_26  and  O5_27 
ROOT
HETATM    1  C3  UNL     1      28.413  11.832  -0.916  1.00  0.00     0.111 A 
HETATM    2  C4  UNL     1      28.790  13.129  -0.632  1.00  0.00     0.121 A 
HETATM    3  C5  UNL     1      29.101  13.571   0.646  1.00  0.00     0.141 A 
HETATM    4  C6  UNL     1      29.018  12.630   1.660  1.00  0.00     0.183 A 
HETATM    5  F1  UNL     1      29.318  13.033   2.918  1.00  0.00    -0.200 F 
HETATM    6  C7  UNL     1      28.645  11.328   1.397  1.00  0.00     0.125 A 
HETATM    7  C14 UNL     1      28.341  10.924   0.114  1.00  0.00     0.116 A 
ENDROOT
BRANCH   6   8
HETATM    8  N1  UNL     1      28.559  10.361   2.435  1.00  0.00    -0.281 N 
HETATM    9  N2  UNL     1      29.454   9.456   2.583  1.00  0.00    -0.244 N 
ATOM     10  H2  UNL     1      30.256   9.408   1.954  1.00  0.00     0.208 HD
ATOM     11  H1  UNL     1      27.767  10.389   3.077  1.00  0.00     0.188 HD
BRANCH   9  12
HETATM   12  N3  UNL     1      29.309   8.541   3.623  1.00  0.00    -0.314 N 
HETATM   13  C8  UNL     1      28.735   7.252   3.345  1.00  0.00     0.144 C 
HETATM   14  C9  UNL     1      29.515   6.149   4.028  1.00  0.00     0.021 C 
HETATM   15  C10 UNL     1      29.431   6.197   5.517  1.00  0.00     0.002 C 
HETATM   16  C11 UNL     1      30.546   6.979   6.160  1.00  0.00     0.002 C 
HETATM   17  C12 UNL     1      30.977   8.163   5.345  1.00  0.00     0.021 C 
HETATM   18  C13 UNL     1      29.767   8.987   4.942  1.00  0.00     0.144 C 
ENDBRANCH   9  12
ENDBRANCH   6   8
BRANCH   7  19
HETATM   19  O5  UNL     1      27.962   9.590  -0.123  1.00  0.00    -0.357 OA
ATOM     20  H5  UNL     1      27.060   9.366  -0.319  1.00  0.00     0.217 HD
ENDBRANCH   7  19
BRANCH   3  21
HETATM   21  O4  UNL     1      29.477  14.887   0.895  1.00  0.00    -0.355 OA
ATOM     22  H4  UNL     1      30.264  15.263   0.517  1.00  0.00     0.218 HD
ENDBRANCH   3  21
BRANCH   1  23
HETATM   23  C2  UNL     1      28.094  11.395  -2.256  1.00  0.00     0.298 C 
HETATM   24  O2  UNL     1      28.677  10.399  -2.731  1.00  0.00    -0.259 OA
BRANCH  23  25
HETATM   25  O1  UNL     1      27.159  12.066  -3.005  1.00  0.00    -0.322 OA
HETATM   26  C1  UNL     1      27.285  12.263  -4.412  1.00  0.00     0.213 C 
ENDBRANCH  23  25
ENDBRANCH   1  23
BRANCH   2  27
HETATM   27  O3  UNL     1      28.865  14.049  -1.664  1.00  0.00    -0.357 OA
ATOM     28  H3  UNL     1      29.715  14.264  -2.028  1.00  0.00     0.218 HD
ENDBRANCH   2  27
TORSDOF 7
ENDMDL
