MODEL 1
REMARK VINA RESULT: -7.170482296      0.000      0.000
REMARK  6 active torsions:
REMARK  status: ('A' for Active; 'I' for Inactive)
REMARK    1  A    between atoms: C2_2  and  O1_3 
REMARK    2  A    between atoms: O1_3  and  C3_4 
REMARK    3  A    between atoms: C3_4  and  C4_5 
REMARK    4  A    between atoms: C5_11  and  C6_12 
REMARK    5  A    between atoms: C6_12  and  O2_13 
REMARK    6  A    between atoms: N2_15  and  O3_17 
ROOT
HETATM    1  C3  UNL     1      29.752  12.206   0.783  1.00  0.00     0.262 C 
HETATM    2  N1  UNL     1      29.917  11.027   1.431  1.00  0.00    -0.368 N 
ATOM      3  H1  UNL     1      30.803  11.050   1.937  1.00  0.00     0.157 HD
HETATM    4  C5  UNL     1      29.334   9.853   1.640  1.00  0.00     0.166 C 
HETATM    5  C7  UNL     1      28.204   9.264   0.898  1.00  0.00     0.113 C 
HETATM    6  S1  UNL     1      28.603   9.344  -0.856  1.00  0.00    -0.119 SA
HETATM    7  C8  UNL     1      28.770  11.065  -1.261  1.00  0.00     0.052 A 
HETATM    8  S2  UNL     1      28.328  11.639  -2.806  1.00  0.00    -0.094 SA
HETATM    9  C9  UNL     1      28.743  13.271  -2.616  1.00  0.00     0.051 A 
HETATM   10  C10 UNL     1      29.226  13.335  -1.333  1.00  0.00     0.021 A 
HETATM   11  C11 UNL     1      29.232  12.166  -0.631  1.00  0.00     0.030 A 
ENDROOT
BRANCH   1  12
HETATM   12  O1  UNL     1      30.994  12.805   0.625  1.00  0.00    -0.350 OA
BRANCH  12  13
HETATM   13  C2  UNL     1      32.006  12.552   1.448  1.00  0.00     0.167 C 
HETATM   14  C1  UNL     1      32.414  13.942   2.017  1.00  0.00     0.033 C 
ENDBRANCH  12  13
ENDBRANCH   1  12
BRANCH   1  15
HETATM   15  C4  UNL     1      28.859  13.091   1.612  1.00  0.00     0.442 C 
HETATM   16  F1  UNL     1      27.533  12.823   1.590  1.00  0.00    -0.166 F 
HETATM   17  F2  UNL     1      29.047  14.437   1.403  1.00  0.00    -0.166 F 
HETATM   18  F3  UNL     1      29.230  12.839   2.962  1.00  0.00    -0.166 F 
ENDBRANCH   1  15
BRANCH   4  19
HETATM   19  C6  UNL     1      28.971   9.683   3.108  1.00  0.00     0.159 C 
HETATM   20  N2  UNL     1      29.849   9.775   4.032  1.00  0.00    -0.249 N 
ATOM     21  H2  UNL     1      30.822   9.968   3.795  1.00  0.00     0.196 HD
BRANCH  19  22
HETATM   22  O2  UNL     1      27.664   9.421   3.486  1.00  0.00    -0.347 OA
ATOM     23  H2  UNL     1      27.375   9.586   4.375  1.00  0.00     0.219 HD
ENDBRANCH  19  22
BRANCH  20  24
HETATM   24  O3  UNL     1      29.484   9.616   5.335  1.00  0.00    -0.288 OA
ATOM     25  H3  UNL     1      29.994  10.026   6.024  1.00  0.00     0.244 HD
ENDBRANCH  20  24
ENDBRANCH   4  19
TORSDOF 6
ENDMDL
MODEL 2
REMARK VINA RESULT: -7.168514599      1.181      1.349
REMARK  6 active torsions:
REMARK  status: ('A' for Active; 'I' for Inactive)
REMARK    1  A    between atoms: C2_2  and  O1_3 
REMARK    2  A    between atoms: O1_3  and  C3_4 
REMARK    3  A    between atoms: C3_4  and  C4_5 
REMARK    4  A    between atoms: C5_11  and  C6_12 
REMARK    5  A    between atoms: C6_12  and  O2_13 
REMARK    6  A    between atoms: N2_15  and  O3_17 
ROOT
HETATM    1  C3  UNL     1      29.638  12.574   0.274  1.00  0.00     0.262 C 
HETATM    2  N1  UNL     1      29.644  11.365   0.887  1.00  0.00    -0.368 N 
ATOM      3  H1  UNL     1      30.391  11.351   1.581  1.00  0.00     0.157 HD
HETATM    4  C5  UNL     1      29.021  10.193   0.903  1.00  0.00     0.166 C 
HETATM    5  C7  UNL     1      28.087   9.656  -0.104  1.00  0.00     0.113 C 
HETATM    6  S1  UNL     1      28.876   9.806  -1.715  1.00  0.00    -0.119 SA
HETATM    7  C8  UNL     1      29.141  11.540  -1.990  1.00  0.00     0.052 A 
HETATM    8  S2  UNL     1      29.067  12.189  -3.567  1.00  0.00    -0.094 SA
HETATM    9  C9  UNL     1      29.437  13.804  -3.212  1.00  0.00     0.051 A 
HETATM   10  C10 UNL     1      29.615  13.803  -1.851  1.00  0.00     0.021 A 
HETATM   11  C11 UNL     1      29.454  12.604  -1.222  1.00  0.00     0.030 A 
ENDROOT
BRANCH   1  12
HETATM   12  O1  UNL     1      30.887  13.159   0.431  1.00  0.00    -0.350 OA
BRANCH  12  13
HETATM   13  C2  UNL     1      31.748  12.741   1.353  1.00  0.00     0.167 C 
HETATM   14  C1  UNL     1      32.062  14.004   2.207  1.00  0.00     0.033 C 
ENDBRANCH  12  13
ENDBRANCH   1  12
BRANCH   1  15
HETATM   15  C4  UNL     1      28.585  13.436   0.919  1.00  0.00     0.442 C 
HETATM   16  F1  UNL     1      27.295  13.175   0.601  1.00  0.00    -0.166 F 
HETATM   17  F2  UNL     1      28.811  14.787   0.799  1.00  0.00    -0.166 F 
HETATM   18  F3  UNL     1      28.655  13.139   2.308  1.00  0.00    -0.166 F 
ENDBRANCH   1  15
BRANCH   4  19
HETATM   19  C6  UNL     1      28.332   9.964   2.240  1.00  0.00     0.159 C 
HETATM   20  N2  UNL     1      27.126   9.546   2.312  1.00  0.00    -0.249 N 
ATOM     21  H2  UNL     1      26.599   9.358   1.459  1.00  0.00     0.196 HD
BRANCH  19  22
HETATM   22  O2  UNL     1      29.002  10.203   3.429  1.00  0.00    -0.347 OA
ATOM     23  H2  UNL     1      28.553  10.601   4.165  1.00  0.00     0.219 HD
ENDBRANCH  19  22
BRANCH  20  24
HETATM   24  O3  UNL     1      26.544   9.354   3.528  1.00  0.00    -0.288 OA
ATOM     25  H3  UNL     1      27.085   9.205   4.294  1.00  0.00     0.244 HD
ENDBRANCH  20  24
ENDBRANCH   4  19
TORSDOF 6
ENDMDL
MODEL 3
REMARK VINA RESULT: -7.110744655      3.164      5.023
REMARK  6 active torsions:
REMARK  status: ('A' for Active; 'I' for Inactive)
REMARK    1  A    between atoms: C2_2  and  O1_3 
REMARK    2  A    between atoms: O1_3  and  C3_4 
REMARK    3  A    between atoms: C3_4  and  C4_5 
REMARK    4  A    between atoms: C5_11  and  C6_12 
REMARK    5  A    between atoms: C6_12  and  O2_13 
REMARK    6  A    between atoms: N2_15  and  O3_17 
ROOT
HETATM    1  C3  UNL     1      28.822  12.543   0.044  1.00  0.00     0.262 C 
HETATM    2  N1  UNL     1      27.705  12.284  -0.676  1.00  0.00    -0.368 N 
ATOM      3  H1  UNL     1      27.088  13.096  -0.632  1.00  0.00     0.157 HD
HETATM    4  C5  UNL     1      27.127  11.348  -1.419  1.00  0.00     0.166 C 
HETATM    5  C7  UNL     1      27.500   9.926  -1.525  1.00  0.00     0.113 C 
HETATM    6  S1  UNL     1      27.617   9.267   0.147  1.00  0.00    -0.119 SA
HETATM    7  C8  UNL     1      28.904  10.178   0.962  1.00  0.00     0.052 A 
HETATM    8  S2  UNL     1      29.883   9.428   2.142  1.00  0.00    -0.094 SA
HETATM    9  C9  UNL     1      30.847  10.753   2.574  1.00  0.00     0.051 A 
HETATM   10  C10 UNL     1      30.378  11.768   1.778  1.00  0.00     0.021 A 
HETATM   11  C11 UNL     1      29.356  11.449   0.934  1.00  0.00     0.030 A 
ENDROOT
BRANCH   1  12
HETATM   12  O1  UNL     1      28.543  13.554   0.953  1.00  0.00    -0.350 OA
BRANCH  12  13
HETATM   13  C2  UNL     1      27.325  13.729   1.456  1.00  0.00     0.167 C 
HETATM   14  C1  UNL     1      27.353  15.154   2.081  1.00  0.00     0.033 C 
ENDBRANCH  12  13
ENDBRANCH   1  12
BRANCH   1  15
HETATM   15  C4  UNL     1      29.910  12.988  -0.898  1.00  0.00     0.442 C 
HETATM   16  F1  UNL     1      30.415  12.057  -1.740  1.00  0.00    -0.166 F 
HETATM   17  F2  UNL     1      30.950  13.648  -0.286  1.00  0.00    -0.166 F 
HETATM   18  F3  UNL     1      29.293  13.929  -1.767  1.00  0.00    -0.166 F 
ENDBRANCH   1  15
BRANCH   4  19
HETATM   19  C6  UNL     1      26.968  11.820  -2.858  1.00  0.00     0.159 C 
HETATM   20  N2  UNL     1      27.948  11.816  -3.679  1.00  0.00    -0.249 N 
ATOM     21  H2  UNL     1      28.866  11.490  -3.376  1.00  0.00     0.196 HD
BRANCH  19  22
HETATM   22  O2  UNL     1      25.743  12.270  -3.321  1.00  0.00    -0.347 OA
ATOM     23  H2  UNL     1      25.580  13.199  -3.435  1.00  0.00     0.219 HD
ENDBRANCH  19  22
BRANCH  20  24
HETATM   24  O3  UNL     1      27.765  12.246  -4.958  1.00  0.00    -0.288 OA
ATOM     25  H3  UNL     1      27.173  12.968  -5.136  1.00  0.00     0.244 HD
ENDBRANCH  20  24
ENDBRANCH   4  19
TORSDOF 6
ENDMDL
MODEL 4
REMARK VINA RESULT: -7.071681344      3.543      5.679
REMARK  6 active torsions:
REMARK  status: ('A' for Active; 'I' for Inactive)
REMARK    1  A    between atoms: C2_2  and  O1_3 
REMARK    2  A    between atoms: O1_3  and  C3_4 
REMARK    3  A    between atoms: C3_4  and  C4_5 
REMARK    4  A    between atoms: C5_11  and  C6_12 
REMARK    5  A    between atoms: C6_12  and  O2_13 
REMARK    6  A    between atoms: N2_15  and  O3_17 
ROOT
HETATM    1  C3  UNL     1      28.658  11.328  -0.915  1.00  0.00     0.262 C 
HETATM    2  N1  UNL     1      28.598  11.257  -2.266  1.00  0.00    -0.368 N 
ATOM      3  H1  UNL     1      28.400  10.293  -2.538  1.00  0.00     0.157 HD
HETATM    4  C5  UNL     1      28.704  11.998  -3.363  1.00  0.00     0.166 C 
HETATM    5  C7  UNL     1      29.259  13.359  -3.479  1.00  0.00     0.113 C 
HETATM    6  S1  UNL     1      30.878  13.357  -2.691  1.00  0.00    -0.119 SA
HETATM    7  C8  UNL     1      30.611  12.949  -0.984  1.00  0.00     0.052 A 
HETATM    8  S2  UNL     1      31.613  13.605   0.232  1.00  0.00    -0.094 SA
HETATM    9  C9  UNL     1      30.931  12.845   1.584  1.00  0.00     0.051 A 
HETATM   10  C10 UNL     1      29.921  12.083   1.051  1.00  0.00     0.021 A 
HETATM   11  C11 UNL     1      29.763  12.150  -0.302  1.00  0.00     0.030 A 
ENDROOT
BRANCH   1  12
HETATM   12  O1  UNL     1      28.920  10.060  -0.413  1.00  0.00    -0.350 OA
BRANCH  12  13
HETATM   13  C2  UNL     1      28.453   8.963  -1.000  1.00  0.00     0.167 C 
HETATM   14  C1  UNL     1      27.692   8.203   0.124  1.00  0.00     0.033 C 
ENDBRANCH  12  13
ENDBRANCH   1  12
BRANCH   1  15
HETATM   15  C4  UNL     1      27.332  11.819  -0.397  1.00  0.00     0.442 C 
HETATM   16  F1  UNL     1      26.220  11.228  -0.893  1.00  0.00    -0.166 F 
HETATM   17  F2  UNL     1      27.176  13.184  -0.453  1.00  0.00    -0.166 F 
HETATM   18  F3  UNL     1      27.314  11.468   0.981  1.00  0.00    -0.166 F 
ENDBRANCH   1  15
BRANCH   4  19
HETATM   19  C6  UNL     1      27.381  12.048  -4.113  1.00  0.00     0.159 C 
HETATM   20  N2  UNL     1      27.332  12.032  -5.391  1.00  0.00    -0.249 N 
ATOM     21  H2  UNL     1      28.194  11.984  -5.934  1.00  0.00     0.196 HD
BRANCH  19  22
HETATM   22  O2  UNL     1      26.181  12.112  -3.425  1.00  0.00    -0.347 OA
ATOM     23  H2  UNL     1      25.460  12.632  -3.758  1.00  0.00     0.219 HD
ENDBRANCH  19  22
BRANCH  20  24
HETATM   24  O3  UNL     1      26.129  12.078  -6.026  1.00  0.00    -0.288 OA
ATOM     25  H3  UNL     1      25.667  11.272  -6.226  1.00  0.00     0.244 HD
ENDBRANCH  20  24
ENDBRANCH   4  19
TORSDOF 6
ENDMDL
MODEL 5
REMARK VINA RESULT: -6.948876434      3.015      4.258
REMARK  6 active torsions:
REMARK  status: ('A' for Active; 'I' for Inactive)
REMARK    1  A    between atoms: C2_2  and  O1_3 
REMARK    2  A    between atoms: O1_3  and  C3_4 
REMARK    3  A    between atoms: C3_4  and  C4_5 
REMARK    4  A    between atoms: C5_11  and  C6_12 
REMARK    5  A    between atoms: C6_12  and  O2_13 
REMARK    6  A    between atoms: N2_15  and  O3_17 
ROOT
HETATM    1  C3  UNL     1      30.088  13.272   0.863  1.00  0.00     0.262 C 
HETATM    2  N1  UNL     1      28.929  12.659   1.205  1.00  0.00    -0.368 N 
ATOM      3  H1  UNL     1      28.232  13.371   1.425  1.00  0.00     0.157 HD
HETATM    4  C5  UNL     1      28.380  11.460   1.356  1.00  0.00     0.166 C 
HETATM    5  C7  UNL     1      29.068  10.158   1.433  1.00  0.00     0.113 C 
HETATM    6  S1  UNL     1      30.365  10.299   2.673  1.00  0.00    -0.119 SA
HETATM    7  C8  UNL     1      31.485  11.549   2.097  1.00  0.00     0.052 A 
HETATM    8  S2  UNL     1      33.153  11.446   2.445  1.00  0.00    -0.094 SA
HETATM    9  C9  UNL     1      33.671  12.883   1.711  1.00  0.00     0.051 A 
HETATM   10  C10 UNL     1      32.515  13.422   1.203  1.00  0.00     0.021 A 
HETATM   11  C11 UNL     1      31.373  12.707   1.413  1.00  0.00     0.030 A 
ENDROOT
BRANCH   1  12
HETATM   12  O1  UNL     1      30.083  14.559   1.385  1.00  0.00    -0.350 OA
BRANCH  12  13
HETATM   13  C2  UNL     1      29.020  15.351   1.289  1.00  0.00     0.167 C 
HETATM   14  C1  UNL     1      29.604  16.777   1.073  1.00  0.00     0.033 C 
ENDBRANCH  12  13
ENDBRANCH   1  12
BRANCH   1  15
HETATM   15  C4  UNL     1      30.178  13.330  -0.639  1.00  0.00     0.442 C 
HETATM   16  F1  UNL     1      31.169  14.083  -1.169  1.00  0.00    -0.166 F 
HETATM   17  F2  UNL     1      28.993  13.645  -1.264  1.00  0.00    -0.166 F 
HETATM   18  F3  UNL     1      30.507  12.007  -1.047  1.00  0.00    -0.166 F 
ENDBRANCH   1  15
BRANCH   4  19
HETATM   19  C6  UNL     1      27.253  11.251   0.355  1.00  0.00     0.159 C 
HETATM   20  N2  UNL     1      26.457  12.197   0.032  1.00  0.00    -0.249 N 
ATOM     21  H2  UNL     1      26.568  13.122   0.448  1.00  0.00     0.196 HD
BRANCH  19  22
HETATM   22  O2  UNL     1      27.058  10.015  -0.240  1.00  0.00    -0.347 OA
ATOM     23  H2  UNL     1      26.861   9.250   0.287  1.00  0.00     0.219 HD
ENDBRANCH  19  22
BRANCH  20  24
HETATM   24  O3  UNL     1      25.460  11.970  -0.868  1.00  0.00    -0.288 OA
ATOM     25  H3  UNL     1      24.720  12.564  -0.916  1.00  0.00     0.244 HD
ENDBRANCH  20  24
ENDBRANCH   4  19
TORSDOF 6
ENDMDL
