MODEL 1
REMARK VINA RESULT: -8.822232725      0.000      0.000
REMARK  6 active torsions:
REMARK  status: ('A' for Active; 'I' for Inactive)
REMARK    1  A    between atoms: C4_4  and  N1_5 
REMARK    2  A    between atoms: C7_9  and  O2_10 
REMARK    3  A    between atoms: C8_12  and  N2_13 
REMARK    4  A    between atoms: N2_13  and  O3_15 
REMARK    5  A    between atoms: C9_17  and  C10_18 
REMARK    6  A    between atoms: C11_21  and  O4_22 
ROOT
HETATM    1  N1  UNL     1      29.473  12.591   1.337  1.00  0.00    -0.297 N 
HETATM    2  C5  UNL     1      30.375  11.755   2.016  1.00  0.00     0.265 C 
HETATM    3  O1  UNL     1      31.542  12.080   2.216  1.00  0.00    -0.267 OA
HETATM    4  C6  UNL     1      29.982  10.420   2.529  1.00  0.00     0.097 A 
HETATM    5  C7  UNL     1      30.883   9.622   3.206  1.00  0.00     0.113 A 
HETATM    6  C8  UNL     1      30.427   8.404   3.647  1.00  0.00     0.102 A 
HETATM    7  C9  UNL     1      29.145   7.941   3.456  1.00  0.00     0.072 A 
HETATM    8  C11 UNL     1      28.274   8.783   2.767  1.00  0.00     0.107 A 
HETATM    9  C12 UNL     1      28.687  10.018   2.304  1.00  0.00     0.083 A 
HETATM   10  N3  UNL     1      27.826  10.893   1.601  1.00  0.00    -0.361 N 
ATOM     11  H3  UNL     1      26.819  10.820   1.746  1.00  0.00     0.162 HD
HETATM   12  C13 UNL     1      28.339  11.895   0.676  1.00  0.00     0.105 C 
HETATM   13  C14 UNL     1      28.813  11.177  -0.559  1.00  0.00     0.063 C 
HETATM   14  C15 UNL     1      27.234  12.857   0.389  1.00  0.00     0.063 C 
ENDROOT
BRANCH   1  15
HETATM   15  C4  UNL     1      29.500  13.971   1.285  1.00  0.00     0.099 C 
HETATM   16  C2  UNL     1      30.223  14.914   0.816  1.00  0.00    -0.072 C 
HETATM   17  C1  UNL     1      31.462  14.831   0.060  1.00  0.00     0.044 C 
HETATM   18  C3  UNL     1      29.741  16.355   1.067  1.00  0.00     0.044 C 
ENDBRANCH   1  15
BRANCH   5  19
HETATM   19  O2  UNL     1      32.161  10.086   3.395  1.00  0.00    -0.357 OA
ATOM     20  H2  UNL     1      32.674  10.331   2.634  1.00  0.00     0.217 HD
ENDBRANCH   5  19
BRANCH   6  21
HETATM   21  N2  UNL     1      31.326   7.553   4.348  1.00  0.00    -0.266 N 
ATOM     22  H2  UNL     1      31.046   7.068   5.201  1.00  0.00     0.194 HD
BRANCH  21  23
HETATM   23  O3  UNL     1      32.472   7.427   3.872  1.00  0.00    -0.289 OA
ATOM     24  H3  UNL     1      32.803   6.541   3.776  1.00  0.00     0.244 HD
ENDBRANCH  21  23
ENDBRANCH   6  21
BRANCH   8  25
HETATM   25  O4  UNL     1      26.978   8.372   2.546  1.00  0.00    -0.358 OA
ATOM     26  H4  UNL     1      26.291   9.024   2.478  1.00  0.00     0.217 HD
ENDBRANCH   8  25
BRANCH   7  27
HETATM   27  C10 UNL     1      28.743   6.607   3.970  1.00  0.00     0.392 C 
HETATM   28  F1  UNL     1      28.787   6.701   5.363  1.00  0.00    -0.209 F 
HETATM   29  F2  UNL     1      29.668   5.678   3.572  1.00  0.00    -0.209 F 
ENDBRANCH   7  27
TORSDOF 6
ENDMDL
MODEL 2
REMARK VINA RESULT: -8.693475990      2.342      4.010
REMARK  6 active torsions:
REMARK  status: ('A' for Active; 'I' for Inactive)
REMARK    1  A    between atoms: C4_4  and  N1_5 
REMARK    2  A    between atoms: C7_9  and  O2_10 
REMARK    3  A    between atoms: C8_12  and  N2_13 
REMARK    4  A    between atoms: N2_13  and  O3_15 
REMARK    5  A    between atoms: C9_17  and  C10_18 
REMARK    6  A    between atoms: C11_21  and  O4_22 
ROOT
HETATM    1  N1  UNL     1      27.668  11.780  -0.994  1.00  0.00    -0.297 N 
HETATM    2  C5  UNL     1      27.432  10.545  -0.367  1.00  0.00     0.265 C 
HETATM    3  O1  UNL     1      26.553   9.777  -0.749  1.00  0.00    -0.267 OA
HETATM    4  C6  UNL     1      28.220  10.090   0.804  1.00  0.00     0.097 A 
HETATM    5  C7  UNL     1      27.977   8.866   1.396  1.00  0.00     0.113 A 
HETATM    6  C8  UNL     1      28.760   8.527   2.472  1.00  0.00     0.102 A 
HETATM    7  C9  UNL     1      29.756   9.327   2.987  1.00  0.00     0.072 A 
HETATM    8  C11 UNL     1      29.961  10.552   2.356  1.00  0.00     0.107 A 
HETATM    9  C12 UNL     1      29.198  10.935   1.269  1.00  0.00     0.083 A 
HETATM   10  N3  UNL     1      29.383  12.173   0.609  1.00  0.00    -0.361 N 
ATOM     11  H3  UNL     1      30.294  12.630   0.658  1.00  0.00     0.162 HD
HETATM   12  C13 UNL     1      28.309  12.812  -0.139  1.00  0.00     0.105 C 
HETATM   13  C14 UNL     1      27.319  13.355   0.856  1.00  0.00     0.063 C 
HETATM   14  C15 UNL     1      28.916  13.883  -0.982  1.00  0.00     0.063 C 
ENDROOT
BRANCH   1  15
HETATM   15  C4  UNL     1      27.433  12.095  -2.318  1.00  0.00     0.099 C 
HETATM   16  C2  UNL     1      28.028  12.062  -3.448  1.00  0.00    -0.072 C 
HETATM   17  C1  UNL     1      29.372  11.607  -3.763  1.00  0.00     0.044 C 
HETATM   18  C3  UNL     1      27.236  12.562  -4.670  1.00  0.00     0.044 C 
ENDBRANCH   1  15
BRANCH   5  19
HETATM   19  O2  UNL     1      26.983   8.071   0.880  1.00  0.00    -0.357 OA
ATOM     20  H2  UNL     1      27.219   7.228   0.511  1.00  0.00     0.217 HD
ENDBRANCH   5  19
BRANCH   6  21
HETATM   21  N2  UNL     1      28.540   7.274   3.108  1.00  0.00    -0.266 N 
ATOM     22  H2  UNL     1      29.185   6.494   2.986  1.00  0.00     0.194 HD
BRANCH  21  23
HETATM   23  O3  UNL     1      27.522   7.175   3.823  1.00  0.00    -0.289 OA
ATOM     24  H3  UNL     1      26.892   7.885   3.775  1.00  0.00     0.244 HD
ENDBRANCH  21  23
ENDBRANCH   6  21
BRANCH   8  25
HETATM   25  O4  UNL     1      30.945  11.393   2.828  1.00  0.00    -0.358 OA
ATOM     26  H4  UNL     1      31.288  12.069   2.256  1.00  0.00     0.217 HD
ENDBRANCH   8  25
BRANCH   7  27
HETATM   27  C10 UNL     1      30.552   8.876   4.156  1.00  0.00     0.392 C 
HETATM   28  F1  UNL     1      30.007   9.523   5.268  1.00  0.00    -0.209 F 
HETATM   29  F2  UNL     1      31.846   9.299   4.005  1.00  0.00    -0.209 F 
ENDBRANCH   7  27
TORSDOF 6
ENDMDL
MODEL 3
REMARK VINA RESULT: -8.632750339      2.044      2.398
REMARK  6 active torsions:
REMARK  status: ('A' for Active; 'I' for Inactive)
REMARK    1  A    between atoms: C4_4  and  N1_5 
REMARK    2  A    between atoms: C7_9  and  O2_10 
REMARK    3  A    between atoms: C8_12  and  N2_13 
REMARK    4  A    between atoms: N2_13  and  O3_15 
REMARK    5  A    between atoms: C9_17  and  C10_18 
REMARK    6  A    between atoms: C11_21  and  O4_22 
ROOT
HETATM    1  N1  UNL     1      30.706  13.425   0.802  1.00  0.00    -0.297 N 
HETATM    2  C5  UNL     1      30.951  12.306   1.615  1.00  0.00     0.265 C 
HETATM    3  O1  UNL     1      31.979  12.191   2.276  1.00  0.00    -0.267 OA
HETATM    4  C6  UNL     1      29.989  11.181   1.721  1.00  0.00     0.097 A 
HETATM    5  C7  UNL     1      30.245  10.097   2.537  1.00  0.00     0.113 A 
HETATM    6  C8  UNL     1      29.295   9.107   2.575  1.00  0.00     0.102 A 
HETATM    7  C9  UNL     1      28.120   9.133   1.856  1.00  0.00     0.072 A 
HETATM    8  C11 UNL     1      27.908  10.248   1.048  1.00  0.00     0.107 A 
HETATM    9  C12 UNL     1      28.836  11.270   0.978  1.00  0.00     0.083 A 
HETATM   10  N3  UNL     1      28.648  12.412   0.165  1.00  0.00    -0.361 N 
ATOM     11  H3  UNL     1      27.700  12.696  -0.081  1.00  0.00     0.162 HD
HETATM   12  C13 UNL     1      29.773  13.194  -0.331  1.00  0.00     0.105 C 
HETATM   13  C14 UNL     1      30.449  12.391  -1.410  1.00  0.00     0.063 C 
HETATM   14  C15 UNL     1      29.237  14.492  -0.837  1.00  0.00     0.063 C 
ENDROOT
BRANCH   1  15
HETATM   15  C4  UNL     1      31.183  14.708   0.993  1.00  0.00     0.099 C 
HETATM   16  C2  UNL     1      32.190  15.429   0.679  1.00  0.00    -0.072 C 
HETATM   17  C1  UNL     1      33.359  15.078  -0.111  1.00  0.00     0.044 C 
HETATM   18  C3  UNL     1      32.195  16.881   1.191  1.00  0.00     0.044 C 
ENDBRANCH   1  15
BRANCH   5  19
HETATM   19  O2  UNL     1      31.418  10.074   3.252  1.00  0.00    -0.357 OA
ATOM     20  H2  UNL     1      31.421  10.431   4.131  1.00  0.00     0.217 HD
ENDBRANCH   5  19
BRANCH   6  21
HETATM   21  N2  UNL     1      29.523   7.973   3.404  1.00  0.00    -0.266 N 
ATOM     22  H2  UNL     1      28.824   7.653   4.073  1.00  0.00     0.194 HD
BRANCH  21  23
HETATM   23  O3  UNL     1      30.618   7.390   3.273  1.00  0.00    -0.289 OA
ATOM     24  H3  UNL     1      30.823   7.048   2.410  1.00  0.00     0.244 HD
ENDBRANCH  21  23
ENDBRANCH   6  21
BRANCH   8  25
HETATM   25  O4  UNL     1      26.750  10.328   0.307  1.00  0.00    -0.358 OA
ATOM     26  H4  UNL     1      25.971  10.697   0.705  1.00  0.00     0.217 HD
ENDBRANCH   8  25
BRANCH   7  27
HETATM   27  C10 UNL     1      27.150   8.014   1.961  1.00  0.00     0.392 C 
HETATM   28  F1  UNL     1      26.788   7.692   0.651  1.00  0.00    -0.209 F 
HETATM   29  F2  UNL     1      26.033   8.452   2.621  1.00  0.00    -0.209 F 
ENDBRANCH   7  27
TORSDOF 6
ENDMDL
MODEL 4
REMARK VINA RESULT: -8.558143177      2.820      4.744
REMARK  6 active torsions:
REMARK  status: ('A' for Active; 'I' for Inactive)
REMARK    1  A    between atoms: C4_4  and  N1_5 
REMARK    2  A    between atoms: C7_9  and  O2_10 
REMARK    3  A    between atoms: C8_12  and  N2_13 
REMARK    4  A    between atoms: N2_13  and  O3_15 
REMARK    5  A    between atoms: C9_17  and  C10_18 
REMARK    6  A    between atoms: C11_21  and  O4_22 
ROOT
HETATM    1  N1  UNL     1      31.763  13.616  -0.018  1.00  0.00    -0.297 N 
HETATM    2  C5  UNL     1      30.465  13.408  -0.514  1.00  0.00     0.265 C 
HETATM    3  O1  UNL     1      29.979  14.121  -1.389  1.00  0.00    -0.267 OA
HETATM    4  C6  UNL     1      29.591  12.322  -0.009  1.00  0.00     0.097 A 
HETATM    5  C7  UNL     1      28.323  12.129  -0.523  1.00  0.00     0.113 A 
HETATM    6  C8  UNL     1      27.588  11.096   0.003  1.00  0.00     0.102 A 
HETATM    7  C9  UNL     1      28.036  10.255   0.998  1.00  0.00     0.072 A 
HETATM    8  C11 UNL     1      29.321  10.490   1.482  1.00  0.00     0.107 A 
HETATM    9  C12 UNL     1      30.098  11.519   0.983  1.00  0.00     0.083 A 
HETATM   10  N3  UNL     1      31.405  11.782   1.456  1.00  0.00    -0.361 N 
ATOM     11  H3  UNL     1      31.942  11.024   1.879  1.00  0.00     0.162 HD
HETATM   12  C13 UNL     1      32.005  13.105   1.356  1.00  0.00     0.105 C 
HETATM   13  C14 UNL     1      31.331  13.991   2.369  1.00  0.00     0.063 C 
HETATM   14  C15 UNL     1      33.469  12.962   1.608  1.00  0.00     0.063 C 
ENDROOT
BRANCH   1  15
HETATM   15  C4  UNL     1      32.831  14.172  -0.696  1.00  0.00     0.099 C 
HETATM   16  C2  UNL     1      33.533  15.239  -0.699  1.00  0.00    -0.072 C 
HETATM   17  C1  UNL     1      33.420  16.414   0.149  1.00  0.00     0.044 C 
HETATM   18  C3  UNL     1      34.672  15.322  -1.733  1.00  0.00     0.044 C 
ENDBRANCH   1  15
BRANCH   5  19
HETATM   19  O2  UNL     1      27.880  12.970  -1.513  1.00  0.00    -0.357 OA
ATOM     20  H2  UNL     1      27.370  13.733  -1.269  1.00  0.00     0.217 HD
ENDBRANCH   5  19
BRANCH   6  21
HETATM   21  N2  UNL     1      26.277  10.865  -0.499  1.00  0.00    -0.266 N 
ATOM     22  H2  UNL     1      25.982   9.942  -0.814  1.00  0.00     0.194 HD
BRANCH  21  23
HETATM   23  O3  UNL     1      25.507  11.846  -0.535  1.00  0.00    -0.289 OA
ATOM     24  H3  UNL     1      25.848  12.647  -0.915  1.00  0.00     0.244 HD
ENDBRANCH  21  23
ENDBRANCH   6  21
BRANCH   8  25
HETATM   25  O4  UNL     1      29.822   9.679   2.477  1.00  0.00    -0.358 OA
ATOM     26  H4  UNL     1      30.213  10.078   3.245  1.00  0.00     0.217 HD
ENDBRANCH   8  25
BRANCH   7  27
HETATM   27  C10 UNL     1      27.168   9.162   1.505  1.00  0.00     0.392 C 
HETATM   28  F1  UNL     1      27.013   9.395   2.873  1.00  0.00    -0.209 F 
HETATM   29  F2  UNL     1      27.817   7.966   1.344  1.00  0.00    -0.209 F 
ENDBRANCH   7  27
TORSDOF 6
ENDMDL
MODEL 5
REMARK VINA RESULT: -8.306117111      1.875      3.493
REMARK  6 active torsions:
REMARK  status: ('A' for Active; 'I' for Inactive)
REMARK    1  A    between atoms: C4_4  and  N1_5 
REMARK    2  A    between atoms: C7_9  and  O2_10 
REMARK    3  A    between atoms: C8_12  and  N2_13 
REMARK    4  A    between atoms: N2_13  and  O3_15 
REMARK    5  A    between atoms: C9_17  and  C10_18 
REMARK    6  A    between atoms: C11_21  and  O4_22 
ROOT
HETATM    1  N1  UNL     1      29.388  11.870   0.367  1.00  0.00    -0.297 N 
HETATM    2  C5  UNL     1      28.768  10.685   0.798  1.00  0.00     0.265 C 
HETATM    3  O1  UNL     1      27.685  10.316   0.353  1.00  0.00    -0.267 OA
HETATM    4  C6  UNL     1      29.375   9.805   1.827  1.00  0.00     0.097 A 
HETATM    5  C7  UNL     1      28.752   8.638   2.224  1.00  0.00     0.113 A 
HETATM    6  C8  UNL     1      29.390   7.885   3.179  1.00  0.00     0.102 A 
HETATM    7  C9  UNL     1      30.596   8.222   3.753  1.00  0.00     0.072 A 
HETATM    8  C11 UNL     1      31.183   9.408   3.318  1.00  0.00     0.107 A 
HETATM    9  C12 UNL     1      30.578  10.199   2.359  1.00  0.00     0.083 A 
HETATM   10  N3  UNL     1      31.150  11.409   1.900  1.00  0.00    -0.361 N 
ATOM     11  H3  UNL     1      32.160  11.536   1.966  1.00  0.00     0.162 HD
HETATM   12  C13 UNL     1      30.336  12.477   1.337  1.00  0.00     0.105 C 
HETATM   13  C14 UNL     1      29.583  13.124   2.469  1.00  0.00     0.063 C 
HETATM   14  C15 UNL     1      31.252  13.430   0.643  1.00  0.00     0.063 C 
ENDROOT
BRANCH   1  15
HETATM   15  C4  UNL     1      29.258  12.471  -0.870  1.00  0.00     0.099 C 
HETATM   16  C2  UNL     1      29.395  12.189  -2.108  1.00  0.00    -0.072 C 
HETATM   17  C1  UNL     1      29.802  10.937  -2.725  1.00  0.00     0.044 C 
HETATM   18  C3  UNL     1      29.089  13.312  -3.117  1.00  0.00     0.044 C 
ENDBRANCH   1  15
BRANCH   5  19
HETATM   19  O2  UNL     1      27.550   8.304   1.650  1.00  0.00    -0.357 OA
ATOM     20  H2  UNL     1      27.279   7.394   1.657  1.00  0.00     0.217 HD
ENDBRANCH   5  19
BRANCH   6  21
HETATM   21  N2  UNL     1      28.780   6.676   3.615  1.00  0.00    -0.266 N 
ATOM     22  H2  UNL     1      29.181   5.765   3.390  1.00  0.00     0.194 HD
BRANCH  21  23
HETATM   23  O3  UNL     1      27.733   6.782   4.284  1.00  0.00    -0.289 OA
ATOM     24  H3  UNL     1      27.533   6.072   4.884  1.00  0.00     0.244 HD
ENDBRANCH  21  23
ENDBRANCH   6  21
BRANCH   8  25
HETATM   25  O4  UNL     1      32.390   9.796   3.858  1.00  0.00    -0.358 OA
ATOM     26  H4  UNL     1      32.499  10.693   4.151  1.00  0.00     0.217 HD
ENDBRANCH   8  25
BRANCH   7  27
HETATM   27  C10 UNL     1      31.211   7.344   4.780  1.00  0.00     0.392 C 
HETATM   28  F1  UNL     1      31.321   8.120   5.936  1.00  0.00    -0.209 F 
HETATM   29  F2  UNL     1      32.472   6.997   4.372  1.00  0.00    -0.209 F 
ENDBRANCH   7  27
TORSDOF 6
ENDMDL
