MODEL 1
REMARK VINA RESULT: -6.049459859      0.000      0.000
REMARK  4 active torsions:
REMARK  status: ('A' for Active; 'I' for Inactive)
REMARK    1  A    between atoms: C2_2  and  O2_4 
REMARK    2  A    between atoms: O2_4  and  C3_5 
REMARK    3  A    between atoms: C3_5  and  N1_6 
REMARK    4  A    between atoms: C5_9  and  C6_10 
ROOT
HETATM    1  N1  UNL     1     -39.260  -8.552  41.289  1.00  0.00    -0.240 N 
HETATM    2  C4  UNL     1     -38.729  -8.152  40.140  1.00  0.00     0.147 A 
HETATM    3  N2  UNL     1     -38.139  -9.053  39.243  1.00  0.00    -0.081 NA
HETATM    4  C5  UNL     1     -38.785  -6.820  39.721  1.00  0.00     0.118 A 
HETATM    5  C10 UNL     1     -39.413  -5.929  40.539  1.00  0.00     0.266 A 
HETATM    6  O3  UNL     1     -39.507  -4.693  40.228  1.00  0.00    -0.267 OA
HETATM    7  N8  UNL     1     -39.963  -6.340  41.722  1.00  0.00    -0.274 N 
ATOM      8  H8  UNL     1     -40.433  -5.674  42.334  1.00  0.00     0.173 HD
HETATM    9  C11 UNL     1     -39.873  -7.625  42.061  1.00  0.00     0.336 A 
HETATM   10  O4  UNL     1     -40.375  -8.017  43.146  1.00  0.00    -0.246 OA
ENDROOT
BRANCH   4  11
HETATM   11  C6  UNL     1     -38.187  -6.429  38.446  1.00  0.00     0.127 A 
HETATM   12  N3  UNL     1     -38.898  -5.944  37.374  1.00  0.00    -0.325 N 
HETATM   13  C7  UNL     1     -38.074  -5.673  36.355  1.00  0.00     0.152 A 
ATOM     14  H3  UNL     1     -39.908  -5.811  37.357  1.00  0.00     0.169 HD
HETATM   15  C8  UNL     1     -36.804  -5.978  36.755  1.00  0.00     0.125 A 
HETATM   16  N7  UNL     1     -37.956  -5.191  35.005  1.00  0.00    -0.282 N 
HETATM   17  N4  UNL     1     -36.918  -6.434  38.030  1.00  0.00    -0.335 N 
HETATM   18  C9  UNL     1     -35.904  -5.684  35.649  1.00  0.00     0.144 A 
ATOM     19  H4  UNL     1     -36.130  -6.741  38.600  1.00  0.00     0.168 HD
HETATM   20  N5  UNL     1     -34.628  -5.821  35.588  1.00  0.00    -0.382 N 
HETATM   21  N6  UNL     1     -36.750  -5.199  34.619  1.00  0.00    -0.282 N 
ATOM     22  H52 UNL     1     -34.019  -6.169  36.329  1.00  0.00     0.157 HD
ATOM     23  H51 UNL     1     -33.998  -5.615  34.813  1.00  0.00     0.157 HD
ATOM     24  H6  UNL     1     -36.431  -4.899  33.698  1.00  0.00     0.188 HD
ATOM     25  H7  UNL     1     -38.742  -4.882  34.433  1.00  0.00     0.188 HD
ENDBRANCH   4  11
BRANCH   1  26
HETATM   26  C3  UNL     1     -39.159  -9.896  41.779  1.00  0.00     0.250 C 
BRANCH  26  27
HETATM   27  O2  UNL     1     -40.059 -10.827  41.404  1.00  0.00    -0.274 OA
BRANCH  27  28
HETATM   28  C2  UNL     1     -40.008 -12.121  41.101  1.00  0.00     0.260 C 
HETATM   29  C1  UNL     1     -38.795 -12.994  41.407  1.00  0.00     0.126 C 
HETATM   30  O1  UNL     1     -40.983 -12.669  40.542  1.00  0.00    -0.265 OA
ENDBRANCH  27  28
ENDBRANCH  26  27
ENDBRANCH   1  26
TORSDOF 4
ENDMDL
MODEL 2
REMARK VINA RESULT: -5.956064879      0.925      1.559
REMARK  4 active torsions:
REMARK  status: ('A' for Active; 'I' for Inactive)
REMARK    1  A    between atoms: C2_2  and  O2_4 
REMARK    2  A    between atoms: O2_4  and  C3_5 
REMARK    3  A    between atoms: C3_5  and  N1_6 
REMARK    4  A    between atoms: C5_9  and  C6_10 
ROOT
HETATM    1  N1  UNL     1     -39.400  -8.537  40.671  1.00  0.00    -0.240 N 
HETATM    2  C4  UNL     1     -38.529  -8.160  39.742  1.00  0.00     0.147 A 
HETATM    3  N2  UNL     1     -37.626  -9.063  39.164  1.00  0.00    -0.081 NA
HETATM    4  C5  UNL     1     -38.503  -6.858  39.235  1.00  0.00     0.118 A 
HETATM    5  C10 UNL     1     -39.414  -5.973  39.727  1.00  0.00     0.266 A 
HETATM    6  O3  UNL     1     -39.455  -4.763  39.315  1.00  0.00    -0.267 OA
HETATM    7  N8  UNL     1     -40.313  -6.360  40.682  1.00  0.00    -0.274 N 
ATOM      8  H8  UNL     1     -40.996  -5.697  41.051  1.00  0.00     0.173 HD
HETATM    9  C11 UNL     1     -40.283  -7.617  41.122  1.00  0.00     0.336 A 
HETATM   10  O4  UNL     1     -41.105  -7.987  42.001  1.00  0.00    -0.246 OA
ENDROOT
BRANCH   4  11
HETATM   11  C6  UNL     1     -37.526  -6.492  38.211  1.00  0.00     0.127 A 
HETATM   12  N3  UNL     1     -36.223  -6.927  38.193  1.00  0.00    -0.325 N 
HETATM   13  C7  UNL     1     -35.580  -6.426  37.132  1.00  0.00     0.152 A 
ATOM     14  H3  UNL     1     -35.805  -7.544  38.889  1.00  0.00     0.169 HD
HETATM   15  C8  UNL     1     -36.465  -5.652  36.438  1.00  0.00     0.125 A 
HETATM   16  N7  UNL     1     -34.341  -6.356  36.404  1.00  0.00    -0.282 N 
HETATM   17  N4  UNL     1     -37.635  -5.719  37.126  1.00  0.00    -0.335 N 
HETATM   18  C9  UNL     1     -35.770  -5.104  35.281  1.00  0.00     0.144 A 
ATOM     19  H4  UNL     1     -38.491  -5.239  36.850  1.00  0.00     0.168 HD
HETATM   20  N5  UNL     1     -36.219  -4.327  34.363  1.00  0.00    -0.382 N 
HETATM   21  N6  UNL     1     -34.453  -5.621  35.379  1.00  0.00    -0.282 N 
ATOM     22  H52 UNL     1     -37.167  -3.955  34.293  1.00  0.00     0.157 HD
ATOM     23  H51 UNL     1     -35.732  -3.944  33.553  1.00  0.00     0.157 HD
ATOM     24  H6  UNL     1     -33.702  -5.429  34.716  1.00  0.00     0.188 HD
ATOM     25  H7  UNL     1     -33.484  -6.835  36.679  1.00  0.00     0.188 HD
ENDBRANCH   4  11
BRANCH   1  26
HETATM   26  C3  UNL     1     -39.407  -9.844  41.261  1.00  0.00     0.250 C 
BRANCH  26  27
HETATM   27  O2  UNL     1     -39.955 -10.885  40.603  1.00  0.00    -0.274 OA
BRANCH  27  28
HETATM   28  C2  UNL     1     -40.009 -12.200  40.795  1.00  0.00     0.260 C 
HETATM   29  C1  UNL     1     -38.859 -12.993  41.408  1.00  0.00     0.126 C 
HETATM   30  O1  UNL     1     -41.035 -12.836  40.470  1.00  0.00    -0.265 OA
ENDBRANCH  27  28
ENDBRANCH  26  27
ENDBRANCH   1  26
TORSDOF 4
ENDMDL
MODEL 3
REMARK VINA RESULT: -5.871448593      1.609      2.510
REMARK  4 active torsions:
REMARK  status: ('A' for Active; 'I' for Inactive)
REMARK    1  A    between atoms: C2_2  and  O2_4 
REMARK    2  A    between atoms: O2_4  and  C3_5 
REMARK    3  A    between atoms: C3_5  and  N1_6 
REMARK    4  A    between atoms: C5_9  and  C6_10 
ROOT
HETATM    1  N1  UNL     1     -39.616  -8.596  40.412  1.00  0.00    -0.240 N 
HETATM    2  C4  UNL     1     -38.664  -8.189  39.579  1.00  0.00     0.147 A 
HETATM    3  N2  UNL     1     -37.634  -9.041  39.160  1.00  0.00    -0.081 NA
HETATM    4  C5  UNL     1     -38.667  -6.909  39.018  1.00  0.00     0.118 A 
HETATM    5  C10 UNL     1     -39.694  -6.078  39.352  1.00  0.00     0.266 A 
HETATM    6  O3  UNL     1     -39.769  -4.892  38.881  1.00  0.00    -0.267 OA
HETATM    7  N8  UNL     1     -40.676  -6.496  40.206  1.00  0.00    -0.274 N 
ATOM      8  H8  UNL     1     -41.445  -5.874  40.456  1.00  0.00     0.173 HD
HETATM    9  C11 UNL     1     -40.612  -7.729  40.706  1.00  0.00     0.336 A 
HETATM   10  O4  UNL     1     -41.510  -8.127  41.494  1.00  0.00    -0.246 OA
ENDROOT
BRANCH   4  11
HETATM   11  C6  UNL     1     -37.598  -6.509  38.105  1.00  0.00     0.127 A 
HETATM   12  N3  UNL     1     -36.279  -6.866  38.253  1.00  0.00    -0.325 N 
HETATM   13  C7  UNL     1     -35.544  -6.351  37.261  1.00  0.00     0.152 A 
ATOM     14  H3  UNL     1     -35.913  -7.441  39.012  1.00  0.00     0.169 HD
HETATM   15  C8  UNL     1     -36.383  -5.648  36.445  1.00  0.00     0.125 A 
HETATM   16  N7  UNL     1     -34.234  -6.224  36.682  1.00  0.00    -0.282 N 
HETATM   17  N4  UNL     1     -37.620  -5.769  36.993  1.00  0.00    -0.335 N 
HETATM   18  C9  UNL     1     -35.587  -5.086  35.362  1.00  0.00     0.144 A 
ATOM     19  H4  UNL     1     -38.463  -5.347  36.603  1.00  0.00     0.168 HD
HETATM   20  N5  UNL     1     -35.967  -4.358  34.374  1.00  0.00    -0.382 N 
HETATM   21  N6  UNL     1     -34.264  -5.521  35.629  1.00  0.00    -0.282 N 
ATOM     22  H52 UNL     1     -36.919  -4.046  34.182  1.00  0.00     0.157 HD
ATOM     23  H51 UNL     1     -35.410  -3.965  33.617  1.00  0.00     0.157 HD
ATOM     24  H6  UNL     1     -33.452  -5.299  35.054  1.00  0.00     0.188 HD
ATOM     25  H7  UNL     1     -33.389  -6.645  37.069  1.00  0.00     0.188 HD
ENDBRANCH   4  11
BRANCH   1  26
HETATM   26  C3  UNL     1     -39.604  -9.875  41.058  1.00  0.00     0.250 C 
BRANCH  26  27
HETATM   27  O2  UNL     1     -39.278  -9.976  42.363  1.00  0.00    -0.274 OA
BRANCH  27  28
HETATM   28  C2  UNL     1     -38.955  -9.115  43.323  1.00  0.00     0.260 C 
HETATM   29  C1  UNL     1     -39.784  -8.939  44.591  1.00  0.00     0.126 C 
HETATM   30  O1  UNL     1     -37.930  -8.407  43.206  1.00  0.00    -0.265 OA
ENDBRANCH  27  28
ENDBRANCH  26  27
ENDBRANCH   1  26
TORSDOF 4
ENDMDL
MODEL 4
REMARK VINA RESULT: -5.763782915      1.292      1.365
REMARK  4 active torsions:
REMARK  status: ('A' for Active; 'I' for Inactive)
REMARK    1  A    between atoms: C2_2  and  O2_4 
REMARK    2  A    between atoms: O2_4  and  C3_5 
REMARK    3  A    between atoms: C3_5  and  N1_6 
REMARK    4  A    between atoms: C5_9  and  C6_10 
ROOT
HETATM    1  N1  UNL     1     -40.123  -9.112  41.438  1.00  0.00    -0.240 N 
HETATM    2  C4  UNL     1     -39.742  -8.567  40.288  1.00  0.00     0.147 A 
HETATM    3  N2  UNL     1     -40.395  -8.855  39.082  1.00  0.00    -0.081 NA
HETATM    4  C5  UNL     1     -38.713  -7.625  40.219  1.00  0.00     0.118 A 
HETATM    5  C10 UNL     1     -38.103  -7.272  41.385  1.00  0.00     0.266 A 
HETATM    6  O3  UNL     1     -37.153  -6.417  41.406  1.00  0.00    -0.267 OA
HETATM    7  N8  UNL     1     -38.495  -7.830  42.570  1.00  0.00    -0.274 N 
ATOM      8  H8  UNL     1     -38.038  -7.566  43.444  1.00  0.00     0.173 HD
HETATM    9  C11 UNL     1     -39.483  -8.723  42.565  1.00  0.00     0.336 A 
HETATM   10  O4  UNL     1     -39.854  -9.244  43.649  1.00  0.00    -0.246 OA
ENDROOT
BRANCH   4  11
HETATM   11  C6  UNL     1     -38.332  -7.053  38.929  1.00  0.00     0.127 A 
HETATM   12  N3  UNL     1     -39.200  -6.408  38.081  1.00  0.00    -0.325 N 
HETATM   13  C7  UNL     1     -38.556  -5.994  36.983  1.00  0.00     0.152 A 
ATOM     14  H3  UNL     1     -40.193  -6.265  38.262  1.00  0.00     0.169 HD
HETATM   15  C8  UNL     1     -37.248  -6.366  37.104  1.00  0.00     0.125 A 
HETATM   16  N7  UNL     1     -38.657  -5.317  35.719  1.00  0.00    -0.282 N 
HETATM   17  N4  UNL     1     -37.154  -7.006  38.299  1.00  0.00    -0.335 N 
HETATM   18  C9  UNL     1     -36.543  -5.917  35.912  1.00  0.00     0.144 A 
ATOM     19  H4  UNL     1     -36.291  -7.401  38.671  1.00  0.00     0.168 HD
HETATM   20  N5  UNL     1     -35.302  -6.053  35.608  1.00  0.00    -0.382 N 
HETATM   21  N6  UNL     1     -37.537  -5.277  35.129  1.00  0.00    -0.282 N 
ATOM     22  H52 UNL     1     -34.587  -6.514  36.171  1.00  0.00     0.157 HD
ATOM     23  H51 UNL     1     -34.809  -5.739  34.773  1.00  0.00     0.157 HD
ATOM     24  H6  UNL     1     -37.373  -4.845  34.220  1.00  0.00     0.188 HD
ATOM     25  H7  UNL     1     -39.519  -4.920  35.345  1.00  0.00     0.188 HD
ENDBRANCH   4  11
BRANCH   1  26
HETATM   26  C3  UNL     1     -41.126 -10.131  41.534  1.00  0.00     0.250 C 
BRANCH  26  27
HETATM   27  O2  UNL     1     -40.776 -11.409  41.786  1.00  0.00    -0.274 OA
BRANCH  27  28
HETATM   28  C2  UNL     1     -40.100 -12.349  41.132  1.00  0.00     0.260 C 
HETATM   29  C1  UNL     1     -38.610 -12.596  41.347  1.00  0.00     0.126 C 
HETATM   30  O1  UNL     1     -40.688 -13.075  40.301  1.00  0.00    -0.265 OA
ENDBRANCH  27  28
ENDBRANCH  26  27
ENDBRANCH   1  26
TORSDOF 4
ENDMDL
MODEL 5
REMARK VINA RESULT: -5.708672336      0.679      1.418
REMARK  4 active torsions:
REMARK  status: ('A' for Active; 'I' for Inactive)
REMARK    1  A    between atoms: C2_2  and  O2_4 
REMARK    2  A    between atoms: O2_4  and  C3_5 
REMARK    3  A    between atoms: C3_5  and  N1_6 
REMARK    4  A    between atoms: C5_9  and  C6_10 
ROOT
HETATM    1  N1  UNL     1     -39.296  -8.756  41.667  1.00  0.00    -0.240 N 
HETATM    2  C4  UNL     1     -38.842  -8.360  40.483  1.00  0.00     0.147 A 
HETATM    3  N2  UNL     1     -38.350  -9.269  39.537  1.00  0.00    -0.081 NA
HETATM    4  C5  UNL     1     -38.888  -7.022  40.081  1.00  0.00     0.118 A 
HETATM    5  C10 UNL     1     -39.425  -6.122  40.952  1.00  0.00     0.266 A 
HETATM    6  O3  UNL     1     -39.504  -4.880  40.659  1.00  0.00    -0.267 OA
HETATM    7  N8  UNL     1     -39.896  -6.528  42.169  1.00  0.00    -0.274 N 
ATOM      8  H8  UNL     1     -40.298  -5.854  42.821  1.00  0.00     0.173 HD
HETATM    9  C11 UNL     1     -39.820  -7.819  42.490  1.00  0.00     0.336 A 
HETATM   10  O4  UNL     1     -40.250  -8.207  43.607  1.00  0.00    -0.246 OA
ENDROOT
BRANCH   4  11
HETATM   11  C6  UNL     1     -38.378  -6.636  38.767  1.00  0.00     0.127 A 
HETATM   12  N3  UNL     1     -37.080  -6.823  38.355  1.00  0.00    -0.325 N 
HETATM   13  C7  UNL     1     -36.920  -6.372  37.106  1.00  0.00     0.152 A 
ATOM     14  H3  UNL     1     -36.345  -7.246  38.921  1.00  0.00     0.169 HD
HETATM   15  C8  UNL     1     -38.123  -5.882  36.683  1.00  0.00     0.125 A 
HETATM   16  N7  UNL     1     -36.011  -6.182  36.008  1.00  0.00    -0.282 N 
HETATM   17  N4  UNL     1     -38.980  -6.062  37.722  1.00  0.00    -0.335 N 
HETATM   18  C9  UNL     1     -37.953  -5.391  35.323  1.00  0.00     0.144 A 
ATOM     19  H4  UNL     1     -39.964  -5.792  37.706  1.00  0.00     0.168 HD
HETATM   20  N5  UNL     1     -38.822  -4.851  34.546  1.00  0.00    -0.382 N 
HETATM   21  N6  UNL     1     -36.590  -5.638  35.021  1.00  0.00    -0.282 N 
ATOM     22  H52 UNL     1     -39.802  -4.673  34.763  1.00  0.00     0.157 HD
ATOM     23  H51 UNL     1     -38.702  -4.506  33.594  1.00  0.00     0.157 HD
ATOM     24  H6  UNL     1     -36.140  -5.409  34.136  1.00  0.00     0.188 HD
ATOM     25  H7  UNL     1     -35.027  -6.452  36.021  1.00  0.00     0.188 HD
ENDBRANCH   4  11
BRANCH   1  26
HETATM   26  C3  UNL     1     -39.199 -10.107  42.136  1.00  0.00     0.250 C 
BRANCH  26  27
HETATM   27  O2  UNL     1     -40.086 -11.036  41.724  1.00  0.00    -0.274 OA
BRANCH  27  28
HETATM   28  C2  UNL     1     -39.999 -12.248  41.184  1.00  0.00     0.260 C 
HETATM   29  C1  UNL     1     -38.764 -13.132  41.328  1.00  0.00     0.126 C 
HETATM   30  O1  UNL     1     -40.959 -12.708  40.527  1.00  0.00    -0.265 OA
ENDBRANCH  27  28
ENDBRANCH  26  27
ENDBRANCH   1  26
TORSDOF 4
ENDMDL
