MODEL 1
REMARK VINA RESULT: -2.475051411      0.000      0.000
REMARK  4 active torsions:
REMARK  status: ('A' for Active; 'I' for Inactive)
REMARK    1  A    between atoms: O1_2  and  C2_3 
REMARK    2  A    between atoms: C2_3  and  C3_4 
REMARK    3  A    between atoms: C5_8  and  S1_9 
REMARK    4  A    between atoms: S1_9  and  N2_10 
ROOT
HETATM    1  C3  UNL     1     -34.489  -6.557  38.429  1.00  0.00     0.076 A 
HETATM    2  N1  UNL     1     -35.740  -6.725  38.801  1.00  0.00    -0.350 N 
ATOM      3  H1  UNL     1     -35.946  -7.129  39.715  1.00  0.00     0.166 HD
HETATM    4  C4  UNL     1     -36.716  -6.379  38.012  1.00  0.00     0.077 A 
HETATM    5  C5  UNL     1     -38.092  -6.504  38.290  1.00  0.00     0.133 A 
HETATM    6  C6  UNL     1     -39.006  -6.096  37.363  1.00  0.00     0.098 A 
HETATM    7  N3  UNL     1     -40.396  -6.223  37.641  1.00  0.00    -0.099 NA
HETATM    8  C7  UNL     1     -38.679  -5.546  36.119  1.00  0.00     0.097 A 
HETATM    9  N4  UNL     1     -39.620  -5.132  35.176  1.00  0.00    -0.098 NA
HETATM   10  C8  UNL     1     -37.345  -5.429  35.860  1.00  0.00     0.092 A 
HETATM   11  N5  UNL     1     -36.816  -4.894  34.653  1.00  0.00    -0.099 NA
HETATM   12  C9  UNL     1     -36.392  -5.841  36.797  1.00  0.00     0.061 A 
HETATM   13  S2  UNL     1     -34.664  -5.871  36.876  1.00  0.00    -0.070 SA
ENDROOT
BRANCH   5  14
HETATM   14  S1  UNL     1     -38.669  -7.173  39.800  1.00  0.00     0.261 S 
HETATM   15  O2  UNL     1     -37.668  -7.040  40.893  1.00  0.00    -0.201 OA
HETATM   16  O3  UNL     1     -38.892  -8.658  39.583  1.00  0.00    -0.201 OA
BRANCH  14  17
HETATM   17  N2  UNL     1     -40.175  -6.494  40.253  1.00  0.00    -0.324 N 
ATOM     18  H22 UNL     1     -40.720  -5.881  39.647  1.00  0.00     0.169 HD
ATOM     19  H21 UNL     1     -40.447  -6.781  41.193  1.00  0.00     0.169 HD
ENDBRANCH  14  17
ENDBRANCH   5  14
BRANCH   1  20
HETATM   20  C2  UNL     1     -33.225  -6.876  39.136  1.00  0.00     0.231 C 
BRANCH  20  21
HETATM   21  O1  UNL     1     -32.907  -8.211  39.107  1.00  0.00    -0.390 OA
HETATM   22  C1  UNL     1     -31.607  -8.498  38.784  1.00  0.00     0.201 C 
ENDBRANCH  20  21
ENDBRANCH   1  20
TORSDOF 4
ENDMDL
MODEL 2
REMARK VINA RESULT: -2.411306083      2.267      4.675
REMARK  4 active torsions:
REMARK  status: ('A' for Active; 'I' for Inactive)
REMARK    1  A    between atoms: O1_2  and  C2_3 
REMARK    2  A    between atoms: C2_3  and  C3_4 
REMARK    3  A    between atoms: C5_8  and  S1_9 
REMARK    4  A    between atoms: S1_9  and  N2_10 
ROOT
HETATM    1  C3  UNL     1     -38.764  -7.191  39.979  1.00  0.00     0.076 A 
HETATM    2  N1  UNL     1     -37.678  -6.949  39.276  1.00  0.00    -0.350 N 
ATOM      3  H1  UNL     1     -36.762  -7.171  39.666  1.00  0.00     0.166 HD
HETATM    4  C4  UNL     1     -37.765  -6.430  38.085  1.00  0.00     0.077 A 
HETATM    5  C5  UNL     1     -36.685  -6.124  37.232  1.00  0.00     0.133 A 
HETATM    6  C6  UNL     1     -36.930  -5.580  36.004  1.00  0.00     0.098 A 
HETATM    7  N3  UNL     1     -35.841  -5.270  35.142  1.00  0.00    -0.099 NA
HETATM    8  C7  UNL     1     -38.204  -5.292  35.508  1.00  0.00     0.097 A 
HETATM    9  N4  UNL     1     -38.446  -4.734  34.252  1.00  0.00    -0.098 NA
HETATM   10  C8  UNL     1     -39.243  -5.591  36.341  1.00  0.00     0.092 A 
HETATM   11  N5  UNL     1     -40.609  -5.371  36.015  1.00  0.00    -0.099 NA
HETATM   12  C9  UNL     1     -39.014  -6.149  37.603  1.00  0.00     0.061 A 
HETATM   13  S2  UNL     1     -39.999  -6.664  38.928  1.00  0.00    -0.070 SA
ENDROOT
BRANCH   5  14
HETATM   14  S1  UNL     1     -35.027  -6.423  37.702  1.00  0.00     0.261 S 
HETATM   15  O2  UNL     1     -34.922  -7.465  38.761  1.00  0.00    -0.201 OA
HETATM   16  O3  UNL     1     -34.483  -5.136  38.292  1.00  0.00    -0.201 OA
BRANCH  14  17
HETATM   17  N2  UNL     1     -34.051  -6.815  36.350  1.00  0.00    -0.324 N 
ATOM     18  H22 UNL     1     -34.234  -6.472  35.407  1.00  0.00     0.169 HD
ATOM     19  H21 UNL     1     -33.278  -7.426  36.611  1.00  0.00     0.169 HD
ENDBRANCH  14  17
ENDBRANCH   5  14
BRANCH   1  20
HETATM   20  C2  UNL     1     -38.919  -7.760  41.340  1.00  0.00     0.231 C 
BRANCH  20  21
HETATM   21  O1  UNL     1     -39.977  -8.627  41.451  1.00  0.00    -0.390 OA
HETATM   22  C1  UNL     1     -39.665  -9.876  41.920  1.00  0.00     0.201 C 
ENDBRANCH  20  21
ENDBRANCH   1  20
TORSDOF 4
ENDMDL
MODEL 3
REMARK VINA RESULT: -1.880291014      5.029      7.268
REMARK  4 active torsions:
REMARK  status: ('A' for Active; 'I' for Inactive)
REMARK    1  A    between atoms: O1_2  and  C2_3 
REMARK    2  A    between atoms: C2_3  and  C3_4 
REMARK    3  A    between atoms: C5_8  and  S1_9 
REMARK    4  A    between atoms: S1_9  and  N2_10 
ROOT
HETATM    1  C3  UNL     1     -40.061  -8.166  44.456  1.00  0.00     0.076 A 
HETATM    2  N1  UNL     1     -39.870  -7.636  43.266  1.00  0.00    -0.350 N 
ATOM      3  H1  UNL     1     -39.892  -6.622  43.154  1.00  0.00     0.166 HD
HETATM    4  C4  UNL     1     -39.653  -8.396  42.232  1.00  0.00     0.077 A 
HETATM    5  C5  UNL     1     -39.434  -7.958  40.910  1.00  0.00     0.133 A 
HETATM    6  C6  UNL     1     -39.218  -8.875  39.923  1.00  0.00     0.098 A 
HETATM    7  N3  UNL     1     -38.998  -8.434  38.588  1.00  0.00    -0.099 NA
HETATM    8  C7  UNL     1     -39.196 -10.259  40.121  1.00  0.00     0.097 A 
HETATM    9  N4  UNL     1     -38.976 -11.190  39.106  1.00  0.00    -0.098 NA
HETATM   10  C8  UNL     1     -39.410 -10.674  41.403  1.00  0.00     0.092 A 
HETATM   11  N5  UNL     1     -39.425 -12.038  41.803  1.00  0.00    -0.099 NA
HETATM   12  C9  UNL     1     -39.633  -9.750  42.430  1.00  0.00     0.061 A 
HETATM   13  S2  UNL     1     -39.934  -9.836  44.131  1.00  0.00    -0.070 SA
ENDROOT
BRANCH   5  14
HETATM   14  S1  UNL     1     -39.430  -6.259  40.493  1.00  0.00     0.261 S 
HETATM   15  O2  UNL     1     -39.386  -5.384  41.697  1.00  0.00    -0.201 OA
HETATM   16  O3  UNL     1     -40.735  -5.963  39.779  1.00  0.00    -0.201 OA
BRANCH  14  17
HETATM   17  N2  UNL     1     -38.159  -5.882  39.408  1.00  0.00    -0.324 N 
ATOM     18  H22 UNL     1     -37.758  -6.556  38.757  1.00  0.00     0.169 HD
ATOM     19  H21 UNL     1     -37.865  -4.909  39.500  1.00  0.00     0.169 HD
ENDBRANCH  14  17
ENDBRANCH   5  14
BRANCH   1  20
HETATM   20  C2  UNL     1     -40.332  -7.519  45.763  1.00  0.00     0.231 C 
BRANCH  20  21
HETATM   21  O1  UNL     1     -41.638  -7.128  45.917  1.00  0.00    -0.390 OA
HETATM   22  C1  UNL     1     -41.834  -6.038  46.723  1.00  0.00     0.201 C 
ENDBRANCH  20  21
ENDBRANCH   1  20
TORSDOF 4
ENDMDL
MODEL 4
REMARK VINA RESULT: -1.043807470      5.134      7.032
REMARK  4 active torsions:
REMARK  status: ('A' for Active; 'I' for Inactive)
REMARK    1  A    between atoms: O1_2  and  C2_3 
REMARK    2  A    between atoms: C2_3  and  C3_4 
REMARK    3  A    between atoms: C5_8  and  S1_9 
REMARK    4  A    between atoms: S1_9  and  N2_10 
ROOT
HETATM    1  C3  UNL     1     -39.993  -8.511  44.502  1.00  0.00     0.076 A 
HETATM    2  N1  UNL     1     -39.897  -9.431  43.566  1.00  0.00    -0.350 N 
ATOM      3  H1  UNL     1     -39.980 -10.417  43.815  1.00  0.00     0.166 HD
HETATM    4  C4  UNL     1     -39.696  -9.093  42.326  1.00  0.00     0.077 A 
HETATM    5  C5  UNL     1     -39.575  -9.976  41.233  1.00  0.00     0.133 A 
HETATM    6  C6  UNL     1     -39.365  -9.475  39.982  1.00  0.00     0.098 A 
HETATM    7  N3  UNL     1     -39.242 -10.364  38.878  1.00  0.00    -0.099 NA
HETATM    8  C7  UNL     1     -39.256  -8.113  39.684  1.00  0.00     0.097 A 
HETATM    9  N4  UNL     1     -39.040  -7.608  38.401  1.00  0.00    -0.098 NA
HETATM   10  C8  UNL     1     -39.374  -7.266  40.747  1.00  0.00     0.092 A 
HETATM   11  N5  UNL     1     -39.292  -5.850  40.646  1.00  0.00    -0.099 NA
HETATM   12  C9  UNL     1     -39.590  -7.760  42.039  1.00  0.00     0.061 A 
HETATM   13  S2  UNL     1     -39.792  -7.070  43.611  1.00  0.00    -0.070 SA
ENDROOT
BRANCH   5  14
HETATM   14  S1  UNL     1     -39.687 -11.710  41.435  1.00  0.00     0.261 S 
HETATM   15  O2  UNL     1     -39.990 -12.094  42.841  1.00  0.00    -0.201 OA
HETATM   16  O3  UNL     1     -38.327 -12.295  41.100  1.00  0.00    -0.201 OA
BRANCH  14  17
HETATM   17  N2  UNL     1     -40.817 -12.397  40.347  1.00  0.00    -0.324 N 
ATOM     18  H22 UNL     1     -41.755 -12.690  40.622  1.00  0.00     0.169 HD
ATOM     19  H21 UNL     1     -40.433 -12.471  39.405  1.00  0.00     0.169 HD
ENDBRANCH  14  17
ENDBRANCH   5  14
BRANCH   1  20
HETATM   20  C2  UNL     1     -40.209  -8.646  45.963  1.00  0.00     0.231 C 
BRANCH  20  21
HETATM   21  O1  UNL     1     -41.382  -8.080  46.396  1.00  0.00    -0.390 OA
HETATM   22  C1  UNL     1     -41.241  -6.985  47.207  1.00  0.00     0.201 C 
ENDBRANCH  20  21
ENDBRANCH   1  20
TORSDOF 4
ENDMDL
MODEL 5
REMARK VINA RESULT: -0.855740331      5.231      7.131
REMARK  4 active torsions:
REMARK  status: ('A' for Active; 'I' for Inactive)
REMARK    1  A    between atoms: O1_2  and  C2_3 
REMARK    2  A    between atoms: C2_3  and  C3_4 
REMARK    3  A    between atoms: C5_8  and  S1_9 
REMARK    4  A    between atoms: S1_9  and  N2_10 
ROOT
HETATM    1  C3  UNL     1     -39.999  -8.535  44.465  1.00  0.00     0.076 A 
HETATM    2  N1  UNL     1     -39.938  -9.474  43.545  1.00  0.00    -0.350 N 
ATOM      3  H1  UNL     1     -40.093 -10.448  43.804  1.00  0.00     0.166 HD
HETATM    4  C4  UNL     1     -39.680  -9.168  42.306  1.00  0.00     0.077 A 
HETATM    5  C5  UNL     1     -39.588 -10.074  41.229  1.00  0.00     0.133 A 
HETATM    6  C6  UNL     1     -39.311  -9.606  39.977  1.00  0.00     0.098 A 
HETATM    7  N3  UNL     1     -39.217 -10.519  38.890  1.00  0.00    -0.099 NA
HETATM    8  C7  UNL     1     -39.104  -8.259  39.665  1.00  0.00     0.097 A 
HETATM    9  N4  UNL     1     -38.820  -7.790  38.383  1.00  0.00    -0.098 NA
HETATM   10  C8  UNL     1     -39.195  -7.391  40.713  1.00  0.00     0.092 A 
HETATM   11  N5  UNL     1     -39.017  -5.985  40.596  1.00  0.00    -0.099 NA
HETATM   12  C9  UNL     1     -39.478  -7.850  42.004  1.00  0.00     0.061 A 
HETATM   13  S2  UNL     1     -39.678  -7.124  43.561  1.00  0.00    -0.070 SA
ENDROOT
BRANCH   5  14
HETATM   14  S1  UNL     1     -39.820 -11.794  41.450  1.00  0.00     0.261 S 
HETATM   15  O2  UNL     1     -40.956 -12.317  40.641  1.00  0.00    -0.201 OA
HETATM   16  O3  UNL     1     -40.175 -12.020  42.908  1.00  0.00    -0.201 OA
BRANCH  14  17
HETATM   17  N2  UNL     1     -38.381 -12.667  41.136  1.00  0.00    -0.324 N 
ATOM     18  H22 UNL     1     -38.115 -13.513  41.640  1.00  0.00     0.169 HD
ATOM     19  H21 UNL     1     -37.837 -12.235  40.389  1.00  0.00     0.169 HD
ENDBRANCH  14  17
ENDBRANCH   5  14
BRANCH   1  20
HETATM   20  C2  UNL     1     -40.263  -8.633  45.921  1.00  0.00     0.231 C 
BRANCH  20  21
HETATM   21  O1  UNL     1     -41.439  -8.038  46.303  1.00  0.00    -0.390 OA
HETATM   22  C1  UNL     1     -41.387  -7.337  47.479  1.00  0.00     0.201 C 
ENDBRANCH  20  21
ENDBRANCH   1  20
TORSDOF 4
ENDMDL
