MODEL 1
REMARK VINA RESULT: -7.185192478      0.000      0.000
REMARK  7 active torsions:
REMARK  status: ('A' for Active; 'I' for Inactive)
REMARK    1  A    between atoms: N1_2  and  N2_4 
REMARK    2  A    between atoms: N2_4  and  C3_6 
REMARK    3  A    between atoms: C6_15  and  N5_16 
REMARK    4  A    between atoms: N5_16  and  N6_18 
REMARK    5  A    between atoms: N6_18  and  C7_20 
REMARK    6  A    between atoms: C8_21  and  O3_22 
REMARK    7  A    between atoms: N8_27  and  O4_28 
ROOT
HETATM    1  C3  UNL     1     -39.538  -9.104  40.860  1.00  0.00     0.154 A 
HETATM    2  N3  UNL     1     -39.570  -9.195  42.194  1.00  0.00    -0.292 N 
ATOM      3  H3  UNL     1     -39.550 -10.106  42.652  1.00  0.00     0.172 HD
HETATM    4  C4  UNL     1     -39.629  -8.068  42.921  1.00  0.00     0.328 A 
HETATM    5  O1  UNL     1     -39.660  -8.139  44.183  1.00  0.00    -0.247 OA
HETATM    6  N4  UNL     1     -39.657  -6.843  42.369  1.00  0.00    -0.273 N 
ATOM      7  H4  UNL     1     -39.702  -6.013  42.960  1.00  0.00     0.173 HD
HETATM    8  C5  UNL     1     -39.625  -6.721  41.029  1.00  0.00     0.281 A 
HETATM    9  O2  UNL     1     -39.649  -5.595  40.470  1.00  0.00    -0.265 OA
HETATM   10  C6  UNL     1     -39.566  -7.865  40.268  1.00  0.00     0.162 A 
ENDROOT
BRANCH  10  11
HETATM   11  N5  UNL     1     -39.531  -7.740  38.822  1.00  0.00    -0.291 N 
ATOM     12  H5  UNL     1     -39.594  -8.547  38.201  1.00  0.00     0.187 HD
BRANCH  11  13
HETATM   13  N6  UNL     1     -39.416  -6.546  38.381  1.00  0.00    -0.279 N 
ATOM     14  H6  UNL     1     -40.085  -5.810  38.609  1.00  0.00     0.189 HD
BRANCH  13  15
HETATM   15  C7  UNL     1     -38.270  -6.319  37.538  1.00  0.00     0.200 A 
HETATM   16  C8  UNL     1     -36.946  -6.566  37.836  1.00  0.00     0.192 A 
HETATM   17  N7  UNL     1     -36.153  -6.229  36.802  1.00  0.00    -0.323 N 
HETATM   18  C9  UNL     1     -34.703  -6.327  36.697  1.00  0.00     0.159 C 
HETATM   19  C10 UNL     1     -36.985  -5.766  35.845  1.00  0.00     0.220 A 
HETATM   20  N8  UNL     1     -38.260  -5.821  36.288  1.00  0.00    -0.198 N 
BRANCH  16  21
HETATM   21  O3  UNL     1     -36.488  -7.088  39.032  1.00  0.00    -0.343 OA
ATOM     22  H3  UNL     1     -35.757  -7.688  39.118  1.00  0.00     0.219 HD
ENDBRANCH  16  21
BRANCH  20  23
HETATM   23  O4  UNL     1     -39.416  -5.440  35.616  1.00  0.00    -0.280 OA
ATOM     24  H4  UNL     1     -39.673  -4.533  35.503  1.00  0.00     0.245 HD
ENDBRANCH  20  23
ENDBRANCH  13  15
ENDBRANCH  11  13
ENDBRANCH  10  11
BRANCH   1  25
HETATM   25  N2  UNL     1     -39.476 -10.267  40.058  1.00  0.00    -0.303 N 
ATOM     26  H2  UNL     1     -39.152 -10.133  39.101  1.00  0.00     0.182 HD
BRANCH  25  27
HETATM   27  N1  UNL     1     -39.800 -11.551  40.410  1.00  0.00    -0.238 NA
HETATM   28  C1  UNL     1     -41.132 -11.569  40.953  1.00  0.00     0.135 C 
HETATM   29  C2  UNL     1     -38.875 -12.269  41.206  1.00  0.00     0.135 C 
ENDBRANCH  25  27
ENDBRANCH   1  25
TORSDOF 7
ENDMDL
MODEL 2
REMARK VINA RESULT: -6.773538515      0.743      1.719
REMARK  7 active torsions:
REMARK  status: ('A' for Active; 'I' for Inactive)
REMARK    1  A    between atoms: N1_2  and  N2_4 
REMARK    2  A    between atoms: N2_4  and  C3_6 
REMARK    3  A    between atoms: C6_15  and  N5_16 
REMARK    4  A    between atoms: N5_16  and  N6_18 
REMARK    5  A    between atoms: N6_18  and  C7_20 
REMARK    6  A    between atoms: C8_21  and  O3_22 
REMARK    7  A    between atoms: N8_27  and  O4_28 
ROOT
HETATM    1  C3  UNL     1     -39.443  -9.111  40.830  1.00  0.00     0.154 A 
HETATM    2  N3  UNL     1     -39.601  -9.143  42.157  1.00  0.00    -0.292 N 
ATOM      3  H3  UNL     1     -39.603 -10.032  42.657  1.00  0.00     0.172 HD
HETATM    4  C4  UNL     1     -39.759  -7.987  42.821  1.00  0.00     0.328 A 
HETATM    5  O1  UNL     1     -39.910  -8.003  44.076  1.00  0.00    -0.247 OA
HETATM    6  N4  UNL     1     -39.764  -6.790  42.211  1.00  0.00    -0.273 N 
ATOM      7  H4  UNL     1     -39.887  -5.935  42.755  1.00  0.00     0.173 HD
HETATM    8  C5  UNL     1     -39.605  -6.727  40.877  1.00  0.00     0.281 A 
HETATM    9  O2  UNL     1     -39.604  -5.628  40.265  1.00  0.00    -0.265 OA
HETATM   10  C6  UNL     1     -39.444  -7.901  40.179  1.00  0.00     0.162 A 
ENDROOT
BRANCH  10  11
HETATM   11  N5  UNL     1     -39.273  -7.840  38.739  1.00  0.00    -0.291 N 
ATOM     12  H5  UNL     1     -39.305  -8.672  38.148  1.00  0.00     0.187 HD
BRANCH  11  13
HETATM   13  N6  UNL     1     -39.080  -6.670  38.263  1.00  0.00    -0.279 N 
ATOM     14  H6  UNL     1     -39.819  -5.969  38.212  1.00  0.00     0.189 HD
BRANCH  13  15
HETATM   15  C7  UNL     1     -37.738  -6.416  37.804  1.00  0.00     0.200 A 
HETATM   16  C8  UNL     1     -37.337  -6.063  36.531  1.00  0.00     0.192 A 
HETATM   17  N7  UNL     1     -36.002  -5.908  36.476  1.00  0.00    -0.323 N 
HETATM   18  C9  UNL     1     -35.174  -5.541  35.335  1.00  0.00     0.159 C 
HETATM   19  C10 UNL     1     -35.557  -6.165  37.725  1.00  0.00     0.220 A 
HETATM   20  N8  UNL     1     -36.602  -6.471  38.524  1.00  0.00    -0.198 N 
BRANCH  16  21
HETATM   21  O3  UNL     1     -38.187  -5.891  35.454  1.00  0.00    -0.343 OA
ATOM     22  H3  UNL     1     -37.959  -5.443  34.648  1.00  0.00     0.219 HD
ENDBRANCH  16  21
BRANCH  20  23
HETATM   23  O4  UNL     1     -36.579  -6.799  39.875  1.00  0.00    -0.280 OA
ATOM     24  H4  UNL     1     -37.363  -7.009  40.368  1.00  0.00     0.245 HD
ENDBRANCH  20  23
ENDBRANCH  13  15
ENDBRANCH  11  13
ENDBRANCH  10  11
BRANCH   1  25
HETATM   25  N2  UNL     1     -39.274 -10.306  40.093  1.00  0.00    -0.303 N 
ATOM     26  H2  UNL     1     -38.766 -10.221  39.213  1.00  0.00     0.182 HD
BRANCH  25  27
HETATM   27  N1  UNL     1     -39.710 -11.564  40.418  1.00  0.00    -0.238 NA
HETATM   28  C1  UNL     1     -41.049 -11.479  40.938  1.00  0.00     0.135 C 
HETATM   29  C2  UNL     1     -38.864 -12.369  41.217  1.00  0.00     0.135 C 
ENDBRANCH  25  27
ENDBRANCH   1  25
TORSDOF 7
ENDMDL
MODEL 3
REMARK VINA RESULT: -6.438532787      1.032      1.093
REMARK  7 active torsions:
REMARK  status: ('A' for Active; 'I' for Inactive)
REMARK    1  A    between atoms: N1_2  and  N2_4 
REMARK    2  A    between atoms: N2_4  and  C3_6 
REMARK    3  A    between atoms: C6_15  and  N5_16 
REMARK    4  A    between atoms: N5_16  and  N6_18 
REMARK    5  A    between atoms: N6_18  and  C7_20 
REMARK    6  A    between atoms: C8_21  and  O3_22 
REMARK    7  A    between atoms: N8_27  and  O4_28 
ROOT
HETATM    1  C3  UNL     1     -39.278  -9.110  40.842  1.00  0.00     0.154 A 
HETATM    2  N3  UNL     1     -39.691  -9.100  42.114  1.00  0.00    -0.292 N 
ATOM      3  H3  UNL     1     -39.861  -9.974  42.611  1.00  0.00     0.172 HD
HETATM    4  C4  UNL     1     -39.878  -7.921  42.727  1.00  0.00     0.328 A 
HETATM    5  O1  UNL     1     -40.268  -7.896  43.930  1.00  0.00    -0.247 OA
HETATM    6  N4  UNL     1     -39.668  -6.740  42.120  1.00  0.00    -0.273 N 
ATOM      7  H4  UNL     1     -39.823  -5.867  42.624  1.00  0.00     0.173 HD
HETATM    8  C5  UNL     1     -39.252  -6.721  40.840  1.00  0.00     0.281 A 
HETATM    9  O2  UNL     1     -39.043  -5.639  40.232  1.00  0.00    -0.265 OA
HETATM   10  C6  UNL     1     -39.056  -7.919  40.196  1.00  0.00     0.162 A 
ENDROOT
BRANCH  10  11
HETATM   11  N5  UNL     1     -38.607  -7.904  38.815  1.00  0.00    -0.291 N 
ATOM     12  H5  UNL     1     -39.237  -8.085  38.033  1.00  0.00     0.187 HD
BRANCH  11  13
HETATM   13  N6  UNL     1     -37.366  -7.649  38.648  1.00  0.00    -0.279 N 
ATOM     14  H6  UNL     1     -36.641  -8.027  39.259  1.00  0.00     0.189 HD
BRANCH  13  15
HETATM   15  C7  UNL     1     -37.069  -6.787  37.533  1.00  0.00     0.200 A 
HETATM   16  C8  UNL     1     -35.834  -6.535  36.971  1.00  0.00     0.192 A 
HETATM   17  N7  UNL     1     -35.943  -5.675  35.942  1.00  0.00    -0.323 N 
HETATM   18  C9  UNL     1     -34.894  -5.147  35.080  1.00  0.00     0.159 C 
HETATM   19  C10 UNL     1     -37.259  -5.383  35.854  1.00  0.00     0.220 A 
HETATM   20  N8  UNL     1     -37.937  -6.053  36.812  1.00  0.00    -0.198 N 
BRANCH  16  21
HETATM   21  O3  UNL     1     -34.642  -7.086  37.403  1.00  0.00    -0.343 OA
ATOM     22  H3  UNL     1     -34.437  -8.014  37.394  1.00  0.00     0.219 HD
ENDBRANCH  16  21
BRANCH  20  23
HETATM   23  O4  UNL     1     -39.303  -6.032  37.067  1.00  0.00    -0.280 OA
ATOM     24  H4  UNL     1     -39.798  -6.810  37.293  1.00  0.00     0.245 HD
ENDBRANCH  20  23
ENDBRANCH  13  15
ENDBRANCH  11  13
ENDBRANCH  10  11
BRANCH   1  25
HETATM   25  N2  UNL     1     -39.070 -10.332  40.161  1.00  0.00    -0.303 N 
ATOM     26  H2  UNL     1     -38.451 -10.292  39.351  1.00  0.00     0.182 HD
BRANCH  25  27
HETATM   27  N1  UNL     1     -39.598 -11.561  40.455  1.00  0.00    -0.238 NA
HETATM   28  C1  UNL     1     -40.961 -11.398  40.885  1.00  0.00     0.135 C 
HETATM   29  C2  UNL     1     -38.854 -12.411  41.308  1.00  0.00     0.135 C 
ENDBRANCH  25  27
ENDBRANCH   1  25
TORSDOF 7
ENDMDL
MODEL 4
REMARK VINA RESULT: -6.421531461      1.631      6.414
REMARK  7 active torsions:
REMARK  status: ('A' for Active; 'I' for Inactive)
REMARK    1  A    between atoms: N1_2  and  N2_4 
REMARK    2  A    between atoms: N2_4  and  C3_6 
REMARK    3  A    between atoms: C6_15  and  N5_16 
REMARK    4  A    between atoms: N5_16  and  N6_18 
REMARK    5  A    between atoms: N6_18  and  C7_20 
REMARK    6  A    between atoms: C8_21  and  O3_22 
REMARK    7  A    between atoms: N8_27  and  O4_28 
ROOT
HETATM    1  C3  UNL     1     -37.075  -6.450  37.941  1.00  0.00     0.154 A 
HETATM    2  N3  UNL     1     -37.238  -6.039  36.679  1.00  0.00    -0.292 N 
ATOM      3  H3  UNL     1     -36.443  -5.998  36.041  1.00  0.00     0.172 HD
HETATM    4  C4  UNL     1     -38.463  -5.682  36.264  1.00  0.00     0.328 A 
HETATM    5  O1  UNL     1     -38.631  -5.292  35.073  1.00  0.00    -0.247 OA
HETATM    6  N4  UNL     1     -39.544  -5.718  37.062  1.00  0.00    -0.273 N 
ATOM      7  H4  UNL     1     -40.457  -5.437  36.705  1.00  0.00     0.173 HD
HETATM    8  C5  UNL     1     -39.410  -6.128  38.337  1.00  0.00     0.281 A 
HETATM    9  O2  UNL     1     -40.394  -6.177  39.119  1.00  0.00    -0.265 OA
HETATM   10  C6  UNL     1     -38.162  -6.497  38.780  1.00  0.00     0.162 A 
ENDROOT
BRANCH  10  11
HETATM   11  N5  UNL     1     -38.011  -6.939  40.155  1.00  0.00    -0.291 N 
ATOM     12  H5  UNL     1     -37.101  -7.146  40.566  1.00  0.00     0.187 HD
BRANCH  11  13
HETATM   13  N6  UNL     1     -39.100  -7.051  40.813  1.00  0.00    -0.279 N 
ATOM     14  H6  UNL     1     -39.718  -6.259  40.992  1.00  0.00     0.189 HD
BRANCH  13  15
HETATM   15  C7  UNL     1     -39.390  -8.382  41.283  1.00  0.00     0.200 A 
HETATM   16  C8  UNL     1     -40.091  -9.372  40.625  1.00  0.00     0.192 A 
HETATM   17  N7  UNL     1     -40.162 -10.487  41.375  1.00  0.00    -0.323 N 
HETATM   18  C9  UNL     1     -40.804 -11.756  41.061  1.00  0.00     0.159 C 
HETATM   19  C10 UNL     1     -39.500 -10.197  42.516  1.00  0.00     0.220 A 
HETATM   20  N8  UNL     1     -39.035  -8.930  42.460  1.00  0.00    -0.198 N 
BRANCH  16  21
HETATM   21  O3  UNL     1     -40.648  -9.243  39.366  1.00  0.00    -0.343 OA
ATOM     22  H3  UNL     1     -40.590  -8.466  38.823  1.00  0.00     0.219 HD
ENDBRANCH  16  21
BRANCH  20  23
HETATM   23  O4  UNL     1     -38.305  -8.243  43.423  1.00  0.00    -0.280 OA
ATOM     24  H4  UNL     1     -38.662  -7.519  43.923  1.00  0.00     0.245 HD
ENDBRANCH  20  23
ENDBRANCH  13  15
ENDBRANCH  11  13
ENDBRANCH  10  11
BRANCH   1  25
HETATM   25  N2  UNL     1     -35.801  -6.834  38.417  1.00  0.00    -0.303 N 
ATOM     26  H2  UNL     1     -35.702  -6.898  39.430  1.00  0.00     0.182 HD
BRANCH  25  27
HETATM   27  N1  UNL     1     -34.682  -7.130  37.684  1.00  0.00    -0.238 NA
HETATM   28  C1  UNL     1     -33.536  -7.134  38.554  1.00  0.00     0.135 C 
HETATM   29  C2  UNL     1     -34.461  -6.399  36.493  1.00  0.00     0.135 C 
ENDBRANCH  25  27
ENDBRANCH   1  25
TORSDOF 7
ENDMDL
MODEL 5
REMARK VINA RESULT: -6.266762738      1.043      1.950
REMARK  7 active torsions:
REMARK  status: ('A' for Active; 'I' for Inactive)
REMARK    1  A    between atoms: N1_2  and  N2_4 
REMARK    2  A    between atoms: N2_4  and  C3_6 
REMARK    3  A    between atoms: C6_15  and  N5_16 
REMARK    4  A    between atoms: N5_16  and  N6_18 
REMARK    5  A    between atoms: N6_18  and  C7_20 
REMARK    6  A    between atoms: C8_21  and  O3_22 
REMARK    7  A    between atoms: N8_27  and  O4_28 
ROOT
HETATM    1  C3  UNL     1     -39.144  -9.352  41.340  1.00  0.00     0.154 A 
HETATM    2  N3  UNL     1     -39.503  -9.402  42.627  1.00  0.00    -0.292 N 
ATOM      3  H3  UNL     1     -39.541 -10.294  43.120  1.00  0.00     0.172 HD
HETATM    4  C4  UNL     1     -39.812  -8.260  43.260  1.00  0.00     0.328 A 
HETATM    5  O1  UNL     1     -40.153  -8.292  44.477  1.00  0.00    -0.247 OA
HETATM    6  N4  UNL     1     -39.777  -7.058  42.658  1.00  0.00    -0.273 N 
ATOM      7  H4  UNL     1     -40.020  -6.215  43.178  1.00  0.00     0.173 HD
HETATM    8  C5  UNL     1     -39.419  -6.978  41.364  1.00  0.00     0.281 A 
HETATM    9  O2  UNL     1     -39.373  -5.875  40.761  1.00  0.00    -0.265 OA
HETATM   10  C6  UNL     1     -39.100  -8.138  40.698  1.00  0.00     0.162 A 
ENDROOT
BRANCH  10  11
HETATM   11  N5  UNL     1     -38.713  -8.058  39.301  1.00  0.00    -0.291 N 
ATOM     12  H5  UNL     1     -39.273  -8.468  38.554  1.00  0.00     0.187 HD
BRANCH  11  13
HETATM   13  N6  UNL     1     -37.619  -7.437  39.074  1.00  0.00    -0.279 N 
ATOM     14  H6  UNL     1     -36.850  -7.417  39.744  1.00  0.00     0.189 HD
BRANCH  13  15
HETATM   15  C7  UNL     1     -37.556  -6.768  37.800  1.00  0.00     0.200 A 
HETATM   16  C8  UNL     1     -38.584  -6.137  37.130  1.00  0.00     0.192 A 
HETATM   17  N7  UNL     1     -38.151  -5.622  35.964  1.00  0.00    -0.323 N 
HETATM   18  C9  UNL     1     -38.902  -4.883  34.959  1.00  0.00     0.159 C 
HETATM   19  C10 UNL     1     -36.837  -5.932  35.900  1.00  0.00     0.220 A 
HETATM   20  N8  UNL     1     -36.480  -6.621  37.005  1.00  0.00    -0.198 N 
BRANCH  16  21
HETATM   21  O3  UNL     1     -39.886  -6.042  37.587  1.00  0.00    -0.343 OA
ATOM     22  H3  UNL     1     -40.522  -5.405  37.286  1.00  0.00     0.219 HD
ENDBRANCH  16  21
BRANCH  20  23
HETATM   23  O4  UNL     1     -35.226  -7.125  37.330  1.00  0.00    -0.280 OA
ATOM     24  H4  UNL     1     -34.847  -7.046  38.198  1.00  0.00     0.245 HD
ENDBRANCH  20  23
ENDBRANCH  13  15
ENDBRANCH  11  13
ENDBRANCH  10  11
BRANCH   1  25
HETATM   25  N2  UNL     1     -38.811 -10.533  40.636  1.00  0.00    -0.303 N 
ATOM     26  H2  UNL     1     -37.974 -10.487  40.057  1.00  0.00     0.182 HD
BRANCH  25  27
HETATM   27  N1  UNL     1     -39.477 -11.730  40.638  1.00  0.00    -0.238 NA
HETATM   28  C1  UNL     1     -40.860 -11.500  40.960  1.00  0.00     0.135 C 
HETATM   29  C2  UNL     1     -38.914 -12.796  41.379  1.00  0.00     0.135 C 
ENDBRANCH  25  27
ENDBRANCH   1  25
TORSDOF 7
ENDMDL
