MODEL 1
REMARK VINA RESULT: -5.899139826      0.000      0.000
REMARK  4 active torsions:
REMARK  status: ('A' for Active; 'I' for Inactive)
REMARK    1  A    between atoms: C5_7  and  N2_8 
REMARK    2  A    between atoms: N2_8  and  N3_10 
REMARK    3  A    between atoms: N4_12  and  C6_14 
REMARK    4  A    between atoms: C7_20  and  C8_21 
REMARK       I    between atoms: C8_21  and  N7_23 
ROOT
HETATM    1  N3  UNL     1     -38.875  -8.123  44.127  1.00  0.00    -0.227 N 
ATOM      2  H3  UNL     1     -38.208  -7.736  44.795  1.00  0.00     0.209 HD
HETATM    3  N4  UNL     1     -38.483  -8.667  43.049  1.00  0.00    -0.268 N 
ATOM      4  H4  UNL     1     -37.484  -8.717  42.848  1.00  0.00     0.190 HD
ENDROOT
BRANCH   3   5
HETATM    5  C6  UNL     1     -39.433  -9.222  42.092  1.00  0.00     0.162 A 
HETATM    6  N5  UNL     1     -39.781 -10.499  42.181  1.00  0.00    -0.295 N 
HETATM    7  S1  UNL     1     -40.861 -10.713  40.921  1.00  0.00     0.069 SA
ATOM      8  H5  UNL     1     -39.463 -11.190  42.860  1.00  0.00     0.177 HD
HETATM    9  N6  UNL     1     -40.850  -9.160  40.299  1.00  0.00    -0.305 N 
HETATM   10  C7  UNL     1     -40.000  -8.497  41.087  1.00  0.00     0.154 A 
ATOM     11  H6  UNL     1     -41.373  -8.801  39.500  1.00  0.00     0.176 HD
BRANCH  10  12
HETATM   12  C8  UNL     1     -39.706  -7.050  40.861  1.00  0.00     0.278 C 
HETATM   13  O1  UNL     1     -39.432  -6.278  41.822  1.00  0.00    -0.265 OA
HETATM   14  N7  UNL     1     -39.737  -6.547  39.546  1.00  0.00    -0.298 N 
HETATM   15  C9  UNL     1     -38.794  -6.766  38.694  1.00  0.00     0.203 C 
ATOM     16  H7  UNL     1     -40.538  -5.986  39.256  1.00  0.00     0.171 HD
HETATM   17  N8  UNL     1     -37.636  -7.544  39.025  1.00  0.00    -0.066 NA
HETATM   18  N9  UNL     1     -38.850  -6.248  37.374  1.00  0.00    -0.066 NA
ENDBRANCH  10  12
ENDBRANCH   3   5
BRANCH   1  19
HETATM   19  N2  UNL     1     -40.250  -8.074  44.366  1.00  0.00    -0.118 N 
ATOM     20  H2  UNL     1     -40.880  -8.410  43.639  1.00  0.00     0.207 HD
BRANCH  19  21
HETATM   21  C5  UNL     1     -40.818  -7.577  45.573  1.00  0.00     0.690 C 
HETATM   22  N1  UNL     1     -41.334  -8.394  46.598  1.00  0.00    -0.223 N 
HETATM   23  C4  UNL     1     -41.403  -7.561  47.778  1.00  0.00     0.168 C 
ATOM     24  H1  UNL     1     -41.605  -9.374  46.523  1.00  0.00     0.177 HD
HETATM   25  C2  UNL     1     -41.558  -6.180  47.182  1.00  0.00     0.056 C 
HETATM   26  C1  UNL     1     -40.860  -5.168  48.060  1.00  0.00     0.040 C 
HETATM   27  C3  UNL     1     -43.024  -5.858  47.005  1.00  0.00     0.040 C 
HETATM   28  N10 UNL     1     -40.937  -6.322  45.888  1.00  0.00    -0.215 N 
ATOM     29  H10 UNL     1     -40.633  -5.545  45.301  1.00  0.00     0.178 HD
ENDBRANCH  19  21
ENDBRANCH   1  19
TORSDOF 4
ENDMDL
MODEL 2
REMARK VINA RESULT: -5.549993197      3.741      7.303
REMARK  4 active torsions:
REMARK  status: ('A' for Active; 'I' for Inactive)
REMARK    1  A    between atoms: C5_7  and  N2_8 
REMARK    2  A    between atoms: N2_8  and  N3_10 
REMARK    3  A    between atoms: N4_12  and  C6_14 
REMARK    4  A    between atoms: C7_20  and  C8_21 
REMARK       I    between atoms: C8_21  and  N7_23 
ROOT
HETATM    1  N3  UNL     1     -39.783  -6.439  39.332  1.00  0.00    -0.227 N 
ATOM      2  H3  UNL     1     -40.153  -5.954  38.514  1.00  0.00     0.209 HD
HETATM    3  N4  UNL     1     -40.550  -7.066  40.125  1.00  0.00    -0.268 N 
ATOM      4  H4  UNL     1     -41.553  -7.084  39.942  1.00  0.00     0.190 HD
ENDROOT
BRANCH   3   5
HETATM    5  C6  UNL     1     -40.024  -7.761  41.295  1.00  0.00     0.162 A 
HETATM    6  N5  UNL     1     -39.994  -7.140  42.467  1.00  0.00    -0.295 N 
HETATM    7  S1  UNL     1     -39.333  -8.271  43.508  1.00  0.00     0.069 SA
ATOM      8  H5  UNL     1     -40.303  -6.192  42.683  1.00  0.00     0.177 HD
HETATM    9  N6  UNL     1     -39.105  -9.524  42.423  1.00  0.00    -0.305 N 
HETATM   10  C7  UNL     1     -39.550  -9.038  41.262  1.00  0.00     0.154 A 
ATOM     11  H6  UNL     1     -38.716 -10.449  42.607  1.00  0.00     0.176 HD
BRANCH  10  12
HETATM   12  C8  UNL     1     -39.519  -9.864  40.017  1.00  0.00     0.278 C 
HETATM   13  O1  UNL     1     -38.827  -9.519  39.018  1.00  0.00    -0.265 OA
HETATM   14  N7  UNL     1     -40.279 -11.047  39.967  1.00  0.00    -0.298 N 
HETATM   15  C9  UNL     1     -39.923 -12.130  40.572  1.00  0.00     0.203 C 
ATOM     16  H7  UNL     1     -41.146 -11.050  39.431  1.00  0.00     0.171 HD
HETATM   17  N8  UNL     1     -38.716 -12.207  41.344  1.00  0.00    -0.066 NA
HETATM   18  N9  UNL     1     -40.707 -13.311  40.506  1.00  0.00    -0.066 NA
ENDBRANCH  10  12
ENDBRANCH   3   5
BRANCH   1  19
HETATM   19  N2  UNL     1     -38.416  -6.437  39.616  1.00  0.00    -0.118 N 
ATOM     20  H2  UNL     1     -38.125  -6.445  40.594  1.00  0.00     0.207 HD
BRANCH  19  21
HETATM   21  C5  UNL     1     -37.407  -6.424  38.613  1.00  0.00     0.690 C 
HETATM   22  N1  UNL     1     -37.472  -7.166  37.417  1.00  0.00    -0.223 N 
HETATM   23  C4  UNL     1     -36.514  -6.561  36.518  1.00  0.00     0.168 C 
ATOM     24  H1  UNL     1     -38.072  -7.967  37.225  1.00  0.00     0.177 HD
HETATM   25  C2  UNL     1     -35.512  -5.961  37.479  1.00  0.00     0.056 C 
HETATM   26  C1  UNL     1     -34.954  -4.685  36.897  1.00  0.00     0.040 C 
HETATM   27  C3  UNL     1     -34.425  -6.966  37.782  1.00  0.00     0.040 C 
HETATM   28  N10 UNL     1     -36.305  -5.737  38.663  1.00  0.00    -0.215 N 
ATOM     29  H10 UNL     1     -36.037  -5.124  39.433  1.00  0.00     0.178 HD
ENDBRANCH  19  21
ENDBRANCH   1  19
TORSDOF 4
ENDMDL
MODEL 3
REMARK VINA RESULT: -5.270986640      3.981      7.607
REMARK  4 active torsions:
REMARK  status: ('A' for Active; 'I' for Inactive)
REMARK    1  A    between atoms: C5_7  and  N2_8 
REMARK    2  A    between atoms: N2_8  and  N3_10 
REMARK    3  A    between atoms: N4_12  and  C6_14 
REMARK    4  A    between atoms: C7_20  and  C8_21 
REMARK       I    between atoms: C8_21  and  N7_23 
ROOT
HETATM    1  N3  UNL     1     -39.237  -6.662  38.786  1.00  0.00    -0.227 N 
ATOM      2  H3  UNL     1     -39.430  -6.233  37.880  1.00  0.00     0.209 HD
HETATM    3  N4  UNL     1     -40.180  -7.029  39.553  1.00  0.00    -0.268 N 
ATOM      4  H4  UNL     1     -41.146  -6.893  39.258  1.00  0.00     0.190 HD
ENDROOT
BRANCH   3   5
HETATM    5  C6  UNL     1     -39.907  -7.643  40.847  1.00  0.00     0.162 A 
HETATM    6  N5  UNL     1     -39.974  -6.904  41.948  1.00  0.00    -0.295 N 
HETATM    7  S1  UNL     1     -39.599  -7.977  43.177  1.00  0.00     0.069 SA
ATOM      8  H5  UNL     1     -40.201  -5.913  42.026  1.00  0.00     0.177 HD
HETATM    9  N6  UNL     1     -39.362  -9.356  42.260  1.00  0.00    -0.305 N 
HETATM   10  C7  UNL     1     -39.580  -8.956  41.005  1.00  0.00     0.154 A 
ATOM     11  H6  UNL     1     -39.110 -10.289  42.585  1.00  0.00     0.176 HD
BRANCH  10  12
HETATM   12  C8  UNL     1     -39.467  -9.910  39.861  1.00  0.00     0.278 C 
HETATM   13  O1  UNL     1     -38.688  -9.683  38.892  1.00  0.00    -0.265 OA
HETATM   14  N7  UNL     1     -40.245 -11.082  39.872  1.00  0.00    -0.298 N 
HETATM   15  C9  UNL     1     -39.963 -12.099  40.615  1.00  0.00     0.203 C 
ATOM     16  H7  UNL     1     -41.066 -11.130  39.269  1.00  0.00     0.171 HD
HETATM   17  N8  UNL     1     -38.826 -12.109  41.489  1.00  0.00    -0.066 NA
HETATM   18  N9  UNL     1     -40.765 -13.269  40.609  1.00  0.00    -0.066 NA
ENDBRANCH  10  12
ENDBRANCH   3   5
BRANCH   1  19
HETATM   19  N2  UNL     1     -37.927  -6.866  39.225  1.00  0.00    -0.118 N 
ATOM     20  H2  UNL     1     -37.783  -7.242  40.161  1.00  0.00     0.207 HD
BRANCH  19  21
HETATM   21  C5  UNL     1     -36.781  -6.575  38.433  1.00  0.00     0.690 C 
HETATM   22  N1  UNL     1     -35.461  -6.579  38.921  1.00  0.00    -0.223 N 
HETATM   23  C4  UNL     1     -34.603  -6.668  37.760  1.00  0.00     0.168 C 
ATOM     24  H1  UNL     1     -35.168  -6.530  39.897  1.00  0.00     0.177 HD
HETATM   25  C2  UNL     1     -35.459  -6.035  36.686  1.00  0.00     0.056 C 
HETATM   26  C1  UNL     1     -35.188  -6.707  35.361  1.00  0.00     0.040 C 
HETATM   27  C3  UNL     1     -35.196  -4.547  36.628  1.00  0.00     0.040 C 
HETATM   28  N10 UNL     1     -36.798  -6.269  37.170  1.00  0.00    -0.215 N 
ATOM     29  H10 UNL     1     -37.641  -6.203  36.599  1.00  0.00     0.178 HD
ENDBRANCH  19  21
ENDBRANCH   1  19
TORSDOF 4
ENDMDL
MODEL 4
REMARK VINA RESULT: -4.712245822      2.108      6.926
REMARK  4 active torsions:
REMARK  status: ('A' for Active; 'I' for Inactive)
REMARK    1  A    between atoms: C5_7  and  N2_8 
REMARK    2  A    between atoms: N2_8  and  N3_10 
REMARK    3  A    between atoms: N4_12  and  C6_14 
REMARK    4  A    between atoms: C7_20  and  C8_21 
REMARK       I    between atoms: C8_21  and  N7_23 
ROOT
HETATM    1  N3  UNL     1     -40.516  -7.139  40.013  1.00  0.00    -0.227 N 
ATOM      2  H3  UNL     1     -40.823  -6.179  39.855  1.00  0.00     0.209 HD
HETATM    3  N4  UNL     1     -41.004  -7.838  40.952  1.00  0.00    -0.268 N 
ATOM      4  H4  UNL     1     -41.715  -7.432  41.560  1.00  0.00     0.190 HD
ENDROOT
BRANCH   3   5
HETATM    5  C6  UNL     1     -40.569  -9.211  41.180  1.00  0.00     0.162 A 
HETATM    6  N5  UNL     1     -41.194 -10.206  40.564  1.00  0.00    -0.295 N 
HETATM    7  S1  UNL     1     -40.394 -11.577  41.095  1.00  0.00     0.069 SA
ATOM      8  H5  UNL     1     -41.981 -10.149  39.917  1.00  0.00     0.177 HD
HETATM    9  N6  UNL     1     -39.269 -10.852  42.099  1.00  0.00    -0.305 N 
HETATM   10  C7  UNL     1     -39.537  -9.547  42.004  1.00  0.00     0.154 A 
ATOM     11  H6  UNL     1     -38.544 -11.303  42.657  1.00  0.00     0.176 HD
BRANCH  10  12
HETATM   12  C8  UNL     1     -38.740  -8.538  42.764  1.00  0.00     0.278 C 
HETATM   13  O1  UNL     1     -38.049  -7.664  42.168  1.00  0.00    -0.265 OA
HETATM   14  N7  UNL     1     -38.765  -8.570  44.171  1.00  0.00    -0.298 N 
HETATM   15  C9  UNL     1     -39.770  -8.143  44.859  1.00  0.00     0.203 C 
ATOM     16  H7  UNL     1     -37.957  -8.945  44.667  1.00  0.00     0.171 HD
HETATM   17  N8  UNL     1     -40.942  -7.600  44.237  1.00  0.00    -0.066 NA
HETATM   18  N9  UNL     1     -39.771  -8.187  46.277  1.00  0.00    -0.066 NA
ENDBRANCH  10  12
ENDBRANCH   3   5
BRANCH   1  19
HETATM   19  N2  UNL     1     -39.544  -7.730  39.201  1.00  0.00    -0.118 N 
ATOM     20  H2  UNL     1     -39.637  -8.721  38.978  1.00  0.00     0.207 HD
BRANCH  19  21
HETATM   21  C5  UNL     1     -38.431  -7.021  38.670  1.00  0.00     0.690 C 
HETATM   22  N1  UNL     1     -38.344  -5.617  38.607  1.00  0.00    -0.223 N 
HETATM   23  C4  UNL     1     -36.943  -5.310  38.422  1.00  0.00     0.168 C 
ATOM     24  H1  UNL     1     -39.114  -4.952  38.678  1.00  0.00     0.177 HD
HETATM   25  C2  UNL     1     -36.436  -6.552  37.727  1.00  0.00     0.056 C 
HETATM   26  C1  UNL     1     -35.013  -6.825  38.153  1.00  0.00     0.040 C 
HETATM   27  C3  UNL     1     -36.555  -6.389  36.228  1.00  0.00     0.040 C 
HETATM   28  N10 UNL     1     -37.359  -7.565  38.176  1.00  0.00    -0.215 N 
ATOM     29  H10 UNL     1     -37.194  -8.570  38.114  1.00  0.00     0.178 HD
ENDBRANCH  19  21
ENDBRANCH   1  19
TORSDOF 4
ENDMDL
MODEL 5
REMARK VINA RESULT: -4.586761565      3.221      6.642
REMARK  4 active torsions:
REMARK  status: ('A' for Active; 'I' for Inactive)
REMARK    1  A    between atoms: C5_7  and  N2_8 
REMARK    2  A    between atoms: N2_8  and  N3_10 
REMARK    3  A    between atoms: N4_12  and  C6_14 
REMARK    4  A    between atoms: C7_20  and  C8_21 
REMARK       I    between atoms: C8_21  and  N7_23 
ROOT
HETATM    1  N3  UNL     1     -40.192  -8.034  39.207  1.00  0.00    -0.227 N 
ATOM      2  H3  UNL     1     -40.673  -7.259  38.751  1.00  0.00     0.209 HD
HETATM    3  N4  UNL     1     -40.786  -8.769  40.054  1.00  0.00    -0.268 N 
ATOM      4  H4  UNL     1     -41.762  -8.581  40.282  1.00  0.00     0.190 HD
ENDROOT
BRANCH   3   5
HETATM    5  C6  UNL     1     -40.101  -9.878  40.707  1.00  0.00     0.162 A 
HETATM    6  N5  UNL     1     -39.869 -10.995  40.029  1.00  0.00    -0.295 N 
HETATM    7  S1  UNL     1     -39.083 -11.981  41.129  1.00  0.00     0.069 SA
ATOM      8  H5  UNL     1     -40.114 -11.204  39.061  1.00  0.00     0.177 HD
HETATM    9  N6  UNL     1     -39.064 -10.945  42.443  1.00  0.00    -0.305 N 
HETATM   10  C7  UNL     1     -39.674  -9.843  42.001  1.00  0.00     0.154 A 
ATOM     11  H6  UNL     1     -38.675 -11.116  43.370  1.00  0.00     0.176 HD
BRANCH  10  12
HETATM   12  C8  UNL     1     -39.863  -8.657  42.889  1.00  0.00     0.278 C 
HETATM   13  O1  UNL     1     -39.781  -8.758  44.145  1.00  0.00    -0.265 OA
HETATM   14  N7  UNL     1     -40.137  -7.406  42.304  1.00  0.00    -0.298 N 
HETATM   15  C9  UNL     1     -39.231  -6.696  41.720  1.00  0.00     0.203 C 
ATOM     16  H7  UNL     1     -41.090  -7.045  42.344  1.00  0.00     0.171 HD
HETATM   17  N8  UNL     1     -37.868  -7.133  41.625  1.00  0.00    -0.066 NA
HETATM   18  N9  UNL     1     -39.533  -5.438  41.138  1.00  0.00    -0.066 NA
ENDBRANCH  10  12
ENDBRANCH   3   5
BRANCH   1  19
HETATM   19  N2  UNL     1     -38.855  -8.324  38.921  1.00  0.00    -0.118 N 
ATOM     20  H2  UNL     1     -38.526  -9.279  39.063  1.00  0.00     0.207 HD
BRANCH  19  21
HETATM   21  C5  UNL     1     -37.929  -7.356  38.443  1.00  0.00     0.690 C 
HETATM   22  N1  UNL     1     -38.149  -5.965  38.481  1.00  0.00    -0.223 N 
HETATM   23  C4  UNL     1     -36.850  -5.350  38.320  1.00  0.00     0.168 C 
ATOM     24  H1  UNL     1     -39.043  -5.489  38.599  1.00  0.00     0.177 HD
HETATM   25  C2  UNL     1     -36.096  -6.401  37.539  1.00  0.00     0.056 C 
HETATM   26  C1  UNL     1     -34.641  -6.389  37.946  1.00  0.00     0.040 C 
HETATM   27  C3  UNL     1     -36.269  -6.163  36.056  1.00  0.00     0.040 C 
HETATM   28  N10 UNL     1     -36.772  -7.619  37.913  1.00  0.00    -0.215 N 
ATOM     29  H10 UNL     1     -36.394  -8.557  37.780  1.00  0.00     0.178 HD
ENDBRANCH  19  21
ENDBRANCH   1  19
TORSDOF 4
ENDMDL
