MODEL 1
REMARK VINA RESULT: -7.182560617      0.000      0.000
REMARK  5 active torsions:
REMARK  status: ('A' for Active; 'I' for Inactive)
REMARK    1  A    between atoms: C2_3  and  C7_20 
REMARK    2  A    between atoms: N2_4  and  N3_6 
REMARK    3  A    between atoms: N3_6  and  C3_8 
REMARK    4  A    between atoms: C6_14  and  N6_15 
REMARK    5  A    between atoms: C9_24  and  N9_25 
ROOT
HETATM    1  N1  UNL     1     -39.502  -5.363  40.842  1.00  0.00    -0.190 NA
HETATM    2  C1  UNL     1     -39.325  -6.329  40.216  1.00  0.00     0.122 C 
HETATM    3  C2  UNL     1     -39.130  -7.499  39.461  1.00  0.00     0.162 C 
HETATM    4  N2  UNL     1     -38.525  -7.471  38.334  1.00  0.00    -0.287 N 
ATOM      5  H2  UNL     1     -38.389  -8.326  37.793  1.00  0.00     0.188 HD
ENDROOT
BRANCH   3   6
HETATM    6  C7  UNL     1     -39.623  -8.794  39.957  1.00  0.00     0.115 A 
HETATM    7  N8  UNL     1     -40.731  -9.111  40.576  1.00  0.00    -0.355 N 
HETATM    8  C8  UNL     1     -40.969 -10.333  40.929  1.00  0.00     0.132 A 
ATOM      9  H8  UNL     1     -41.417  -8.385  40.783  1.00  0.00     0.166 HD
HETATM   10  C9  UNL     1     -40.024 -11.280  40.632  1.00  0.00     0.161 A 
HETATM   11  S1  UNL     1     -38.832 -10.325  39.850  1.00  0.00    -0.044 SA
BRANCH  10  12
HETATM   12  N9  UNL     1     -40.032 -12.674  40.902  1.00  0.00    -0.107 N 
HETATM   13  O1  UNL     1     -40.982 -13.354  40.488  1.00  0.00    -0.531 OA
HETATM   14  O2  UNL     1     -39.036 -13.295  41.599  1.00  0.00    -0.531 OA
ENDBRANCH  10  12
ENDBRANCH   3   6
BRANCH   4  15
HETATM   15  N3  UNL     1     -38.056  -6.245  37.861  1.00  0.00    -0.284 N 
ATOM     16  H3  UNL     1     -38.671  -5.435  37.793  1.00  0.00     0.188 HD
BRANCH  15  17
HETATM   17  C3  UNL     1     -36.807  -6.175  37.510  1.00  0.00     0.138 A 
HETATM   18  C4  UNL     1     -35.790  -6.610  38.336  1.00  0.00     0.096 A 
HETATM   19  C5  UNL     1     -34.478  -6.530  37.957  1.00  0.00     0.135 A 
HETATM   20  N4  UNL     1     -33.452  -6.985  38.827  1.00  0.00    -0.082 NA
HETATM   21  N5  UNL     1     -34.208  -6.008  36.738  1.00  0.00    -0.179 N 
HETATM   22  C6  UNL     1     -35.182  -5.580  35.918  1.00  0.00     0.678 A 
ATOM     23  H5  UNL     1     -33.237  -5.938  36.433  1.00  0.00     0.185 HD
HETATM   24  N7  UNL     1     -36.471  -5.659  36.294  1.00  0.00    -0.175 N 
ATOM     25  H7  UNL     1     -37.202  -5.330  35.663  1.00  0.00     0.186 HD
BRANCH  22  26
HETATM   26  N6  UNL     1     -34.864  -5.084  34.749  1.00  0.00    -0.234 N 
ATOM     27  H62 UNL     1     -34.530  -5.695  34.005  1.00  0.00     0.174 HD
ATOM     28  H61 UNL     1     -34.955  -4.080  34.591  1.00  0.00     0.174 HD
ENDBRANCH  22  26
ENDBRANCH  15  17
ENDBRANCH   4  15
TORSDOF 5
ENDMDL
MODEL 2
REMARK VINA RESULT: -6.688468580      0.594      1.784
REMARK  5 active torsions:
REMARK  status: ('A' for Active; 'I' for Inactive)
REMARK    1  A    between atoms: C2_3  and  C7_20 
REMARK    2  A    between atoms: N2_4  and  N3_6 
REMARK    3  A    between atoms: N3_6  and  C3_8 
REMARK    4  A    between atoms: C6_14  and  N6_15 
REMARK    5  A    between atoms: C9_24  and  N9_25 
ROOT
HETATM    1  N1  UNL     1     -39.539  -5.346  40.860  1.00  0.00    -0.190 NA
HETATM    2  C1  UNL     1     -39.336  -6.313  40.243  1.00  0.00     0.122 C 
HETATM    3  C2  UNL     1     -39.111  -7.484  39.498  1.00  0.00     0.162 C 
HETATM    4  N2  UNL     1     -38.480  -7.454  38.385  1.00  0.00    -0.287 N 
ATOM      5  H2  UNL     1     -38.321  -8.310  37.852  1.00  0.00     0.188 HD
ENDROOT
BRANCH   3   6
HETATM    6  C7  UNL     1     -39.599  -8.782  39.989  1.00  0.00     0.115 A 
HETATM    7  N8  UNL     1     -40.700  -9.102  40.620  1.00  0.00    -0.355 N 
HETATM    8  C8  UNL     1     -40.936 -10.327  40.965  1.00  0.00     0.132 A 
ATOM      9  H8  UNL     1     -41.381  -8.377  40.843  1.00  0.00     0.166 HD
HETATM   10  C9  UNL     1     -39.997 -11.273  40.647  1.00  0.00     0.161 A 
HETATM   11  S1  UNL     1     -38.814 -10.314  39.858  1.00  0.00    -0.044 SA
BRANCH  10  12
HETATM   12  N9  UNL     1     -40.005 -12.670  40.905  1.00  0.00    -0.107 N 
HETATM   13  O1  UNL     1     -40.952 -13.347  40.482  1.00  0.00    -0.531 OA
HETATM   14  O2  UNL     1     -39.010 -13.295  41.601  1.00  0.00    -0.531 OA
ENDBRANCH  10  12
ENDBRANCH   3   6
BRANCH   4  15
HETATM   15  N3  UNL     1     -38.014  -6.225  37.917  1.00  0.00    -0.284 N 
ATOM     16  H3  UNL     1     -38.614  -5.401  37.911  1.00  0.00     0.188 HD
BRANCH  15  17
HETATM   17  C3  UNL     1     -36.789  -6.171  37.489  1.00  0.00     0.138 A 
HETATM   18  C4  UNL     1     -36.469  -5.669  36.243  1.00  0.00     0.096 A 
HETATM   19  C5  UNL     1     -35.176  -5.618  35.803  1.00  0.00     0.135 A 
HETATM   20  N4  UNL     1     -34.878  -5.096  34.516  1.00  0.00    -0.082 NA
HETATM   21  N5  UNL     1     -34.212  -6.077  36.633  1.00  0.00    -0.179 N 
HETATM   22  C6  UNL     1     -34.499  -6.568  37.850  1.00  0.00     0.678 A 
ATOM     23  H5  UNL     1     -33.239  -6.049  36.327  1.00  0.00     0.185 HD
HETATM   24  N7  UNL     1     -35.772  -6.619  38.281  1.00  0.00    -0.175 N 
ATOM     25  H7  UNL     1     -35.979  -6.994  39.206  1.00  0.00     0.186 HD
BRANCH  22  26
HETATM   26  N6  UNL     1     -33.527  -6.999  38.614  1.00  0.00    -0.234 N 
ATOM     27  H62 UNL     1     -33.442  -6.668  39.575  1.00  0.00     0.174 HD
ATOM     28  H61 UNL     1     -32.855  -7.669  38.238  1.00  0.00     0.174 HD
ENDBRANCH  22  26
ENDBRANCH  15  17
ENDBRANCH   4  15
TORSDOF 5
ENDMDL
MODEL 3
REMARK VINA RESULT: -6.102971306      3.927      7.246
REMARK  5 active torsions:
REMARK  status: ('A' for Active; 'I' for Inactive)
REMARK    1  A    between atoms: C2_3  and  C7_20 
REMARK    2  A    between atoms: N2_4  and  N3_6 
REMARK    3  A    between atoms: N3_6  and  C3_8 
REMARK    4  A    between atoms: C6_14  and  N6_15 
REMARK    5  A    between atoms: C9_24  and  N9_25 
ROOT
HETATM    1  N1  UNL     1     -39.133  -5.344  41.281  1.00  0.00    -0.190 NA
HETATM    2  C1  UNL     1     -39.242  -5.928  40.279  1.00  0.00     0.122 C 
HETATM    3  C2  UNL     1     -39.356  -6.637  39.070  1.00  0.00     0.162 C 
HETATM    4  N2  UNL     1     -40.202  -7.587  38.933  1.00  0.00    -0.287 N 
ATOM      5  H2  UNL     1     -40.276  -8.096  38.051  1.00  0.00     0.188 HD
ENDROOT
BRANCH   3   6
HETATM    6  C7  UNL     1     -38.496  -6.297  37.926  1.00  0.00     0.115 A 
HETATM    7  N8  UNL     1     -38.791  -5.845  36.734  1.00  0.00    -0.355 N 
HETATM    8  C8  UNL     1     -37.864  -5.609  35.864  1.00  0.00     0.132 A 
ATOM      9  H8  UNL     1     -39.767  -5.676  36.488  1.00  0.00     0.166 HD
HETATM   10  C9  UNL     1     -36.565  -5.847  36.233  1.00  0.00     0.161 A 
HETATM   11  S1  UNL     1     -36.775  -6.408  37.840  1.00  0.00    -0.044 SA
BRANCH  10  12
HETATM   12  N9  UNL     1     -35.372  -5.676  35.482  1.00  0.00    -0.107 N 
HETATM   13  O1  UNL     1     -34.492  -6.545  35.557  1.00  0.00    -0.531 OA
HETATM   14  O2  UNL     1     -35.155  -4.590  34.683  1.00  0.00    -0.531 OA
ENDBRANCH  10  12
ENDBRANCH   3   6
BRANCH   4  15
HETATM   15  N3  UNL     1     -41.020  -7.912  40.015  1.00  0.00    -0.284 N 
ATOM     16  H3  UNL     1     -41.971  -7.550  40.086  1.00  0.00     0.188 HD
BRANCH  15  17
HETATM   17  C3  UNL     1     -40.526  -8.692  40.929  1.00  0.00     0.138 A 
HETATM   18  C4  UNL     1     -40.255 -10.024  40.687  1.00  0.00     0.096 A 
HETATM   19  C5  UNL     1     -39.736 -10.836  41.657  1.00  0.00     0.135 A 
HETATM   20  N4  UNL     1     -39.468 -12.203  41.378  1.00  0.00    -0.082 NA
HETATM   21  N5  UNL     1     -39.493 -10.289  42.870  1.00  0.00    -0.179 N 
HETATM   22  C6  UNL     1     -39.748  -8.995  43.127  1.00  0.00     0.678 A 
ATOM     23  H5  UNL     1     -39.106 -10.874  43.610  1.00  0.00     0.185 HD
HETATM   24  N7  UNL     1     -40.259  -8.198  42.172  1.00  0.00    -0.175 N 
ATOM     25  H7  UNL     1     -40.450  -7.218  42.379  1.00  0.00     0.186 HD
BRANCH  22  26
HETATM   26  N6  UNL     1     -39.494  -8.517  44.319  1.00  0.00    -0.234 N 
ATOM     27  H62 UNL     1     -38.567  -8.153  44.541  1.00  0.00     0.174 HD
ATOM     28  H61 UNL     1     -40.232  -8.511  45.023  1.00  0.00     0.174 HD
ENDBRANCH  22  26
ENDBRANCH  15  17
ENDBRANCH   4  15
TORSDOF 5
ENDMDL
MODEL 4
REMARK VINA RESULT: -5.985234388      1.505      1.949
REMARK  5 active torsions:
REMARK  status: ('A' for Active; 'I' for Inactive)
REMARK    1  A    between atoms: C2_3  and  C7_20 
REMARK    2  A    between atoms: N2_4  and  N3_6 
REMARK    3  A    between atoms: N3_6  and  C3_8 
REMARK    4  A    between atoms: C6_14  and  N6_15 
REMARK    5  A    between atoms: C9_24  and  N9_25 
ROOT
HETATM    1  N1  UNL     1     -39.467  -5.593  41.687  1.00  0.00    -0.190 NA
HETATM    2  C1  UNL     1     -39.457  -6.533  41.000  1.00  0.00     0.122 C 
HETATM    3  C2  UNL     1     -39.462  -7.675  40.180  1.00  0.00     0.162 C 
HETATM    4  N2  UNL     1     -39.460  -7.579  38.904  1.00  0.00    -0.287 N 
ATOM      5  H2  UNL     1     -39.463  -8.414  38.318  1.00  0.00     0.188 HD
ENDROOT
BRANCH   3   6
HETATM    6  C7  UNL     1     -39.468  -9.019  40.778  1.00  0.00     0.115 A 
HETATM    7  N8  UNL     1     -39.699  -9.412  42.005  1.00  0.00    -0.355 N 
HETATM    8  C8  UNL     1     -39.652 -10.666  42.321  1.00  0.00     0.132 A 
ATOM      9  H8  UNL     1     -39.919  -8.721  42.722  1.00  0.00     0.166 HD
HETATM   10  C9  UNL     1     -39.354 -11.565  41.330  1.00  0.00     0.161 A 
HETATM   11  S1  UNL     1     -39.156 -10.520  39.984  1.00  0.00    -0.044 SA
BRANCH  10  12
HETATM   12  N9  UNL     1     -39.240 -12.978  41.404  1.00  0.00    -0.107 N 
HETATM   13  O1  UNL     1     -39.936 -13.671  40.649  1.00  0.00    -0.531 OA
HETATM   14  O2  UNL     1     -38.393 -13.604  42.273  1.00  0.00    -0.531 OA
ENDBRANCH  10  12
ENDBRANCH   3   6
BRANCH   4  15
HETATM   15  N3  UNL     1     -39.453  -6.306  38.333  1.00  0.00    -0.284 N 
ATOM     16  H3  UNL     1     -40.075  -5.572  38.671  1.00  0.00     0.188 HD
BRANCH  15  17
HETATM   17  C3  UNL     1     -38.626  -6.091  37.355  1.00  0.00     0.138 A 
HETATM   18  C4  UNL     1     -37.295  -6.453  37.429  1.00  0.00     0.096 A 
HETATM   19  C5  UNL     1     -36.433  -6.220  36.393  1.00  0.00     0.135 A 
HETATM   20  N4  UNL     1     -35.069  -6.603  36.497  1.00  0.00    -0.082 NA
HETATM   21  N5  UNL     1     -36.928  -5.621  35.286  1.00  0.00    -0.179 N 
HETATM   22  C6  UNL     1     -38.219  -5.261  35.192  1.00  0.00     0.678 A 
ATOM     23  H5  UNL     1     -36.304  -5.437  34.500  1.00  0.00     0.185 HD
HETATM   24  N7  UNL     1     -39.065  -5.490  36.213  1.00  0.00    -0.175 N 
ATOM     25  H7  UNL     1     -40.043  -5.212  36.131  1.00  0.00     0.186 HD
BRANCH  22  26
HETATM   26  N6  UNL     1     -38.646  -4.684  34.098  1.00  0.00    -0.234 N 
ATOM     27  H62 UNL     1     -38.292  -3.766  33.829  1.00  0.00     0.174 HD
ATOM     28  H61 UNL     1     -39.336  -5.161  33.517  1.00  0.00     0.174 HD
ENDBRANCH  22  26
ENDBRANCH  15  17
ENDBRANCH   4  15
TORSDOF 5
ENDMDL
MODEL 5
REMARK VINA RESULT: -5.901221494      3.946      7.199
REMARK  5 active torsions:
REMARK  status: ('A' for Active; 'I' for Inactive)
REMARK    1  A    between atoms: C2_3  and  C7_20 
REMARK    2  A    between atoms: N2_4  and  N3_6 
REMARK    3  A    between atoms: N3_6  and  C3_8 
REMARK    4  A    between atoms: C6_14  and  N6_15 
REMARK    5  A    between atoms: C9_24  and  N9_25 
ROOT
HETATM    1  N1  UNL     1     -39.410  -5.051  41.075  1.00  0.00    -0.190 NA
HETATM    2  C1  UNL     1     -39.387  -5.751  40.144  1.00  0.00     0.122 C 
HETATM    3  C2  UNL     1     -39.340  -6.597  39.022  1.00  0.00     0.162 C 
HETATM    4  N2  UNL     1     -40.063  -7.650  38.952  1.00  0.00    -0.287 N 
ATOM      5  H2  UNL     1     -40.021  -8.258  38.134  1.00  0.00     0.188 HD
ENDROOT
BRANCH   3   6
HETATM    6  C7  UNL     1     -38.450  -6.285  37.893  1.00  0.00     0.115 A 
HETATM    7  N8  UNL     1     -38.713  -5.845  36.689  1.00  0.00    -0.355 N 
HETATM    8  C8  UNL     1     -37.763  -5.634  35.837  1.00  0.00     0.132 A 
ATOM      9  H8  UNL     1     -39.680  -5.666  36.419  1.00  0.00     0.166 HD
HETATM   10  C9  UNL     1     -36.477  -5.885  36.237  1.00  0.00     0.161 A 
HETATM   11  S1  UNL     1     -36.730  -6.421  37.847  1.00  0.00    -0.044 SA
BRANCH  10  12
HETATM   12  N9  UNL     1     -35.264  -5.740  35.512  1.00  0.00    -0.107 N 
HETATM   13  O1  UNL     1     -34.371  -6.585  35.671  1.00  0.00    -0.531 OA
HETATM   14  O2  UNL     1     -35.044  -4.707  34.647  1.00  0.00    -0.531 OA
ENDBRANCH  10  12
ENDBRANCH   3   6
BRANCH   4  15
HETATM   15  N3  UNL     1     -40.909  -7.949  40.021  1.00  0.00    -0.284 N 
ATOM     16  H3  UNL     1     -41.860  -7.584  40.059  1.00  0.00     0.188 HD
BRANCH  15  17
HETATM   17  C3  UNL     1     -40.440  -8.710  40.964  1.00  0.00     0.138 A 
HETATM   18  C4  UNL     1     -40.152  -8.222  42.223  1.00  0.00     0.096 A 
HETATM   19  C5  UNL     1     -39.658  -9.032  43.208  1.00  0.00     0.135 A 
HETATM   20  N4  UNL     1     -39.371  -8.502  44.494  1.00  0.00    -0.082 NA
HETATM   21  N5  UNL     1     -39.459 -10.336  42.907  1.00  0.00    -0.179 N 
HETATM   22  C6  UNL     1     -39.733 -10.832  41.689  1.00  0.00     0.678 A 
ATOM     23  H5  UNL     1     -39.091 -10.960  43.625  1.00  0.00     0.185 HD
HETATM   24  N7  UNL     1     -40.218 -10.033  40.722  1.00  0.00    -0.175 N 
ATOM     25  H7  UNL     1     -40.422 -10.421  39.801  1.00  0.00     0.186 HD
BRANCH  22  26
HETATM   26  N6  UNL     1     -39.522 -12.102  41.452  1.00  0.00    -0.234 N 
ATOM     27  H62 UNL     1     -39.021 -12.676  42.131  1.00  0.00     0.174 HD
ATOM     28  H61 UNL     1     -39.863 -12.512  40.583  1.00  0.00     0.174 HD
ENDBRANCH  22  26
ENDBRANCH  15  17
ENDBRANCH   4  15
TORSDOF 5
ENDMDL
