MODEL 1
REMARK VINA RESULT: -5.821829587      0.000      0.000
REMARK  1 active torsions:
REMARK  status: ('A' for Active; 'I' for Inactive)
REMARK       I    between atoms: N1_2  and  C2_3 
REMARK    1  A    between atoms: N1_2  and  C3_8 
ROOT
HETATM    1  C1  UNL     1       6.574   3.990  49.057  1.00  0.00     0.120 C 
HETATM    2  N1  UNL     1       6.235   3.176  47.884  1.00  0.00    -0.257 NA
HETATM    3  C2  UNL     1       6.302   4.051  46.783  1.00  0.00     0.162 C 
HETATM    4  N2  UNL     1       7.393   4.729  46.653  1.00  0.00    -0.378 N 
ATOM      5  H21 UNL     1       7.441   5.363  45.855  1.00  0.00     0.158 HD
ATOM      6  H22 UNL     1       8.121   4.597  47.356  1.00  0.00     0.158 HD
HETATM    7  N3  UNL     1       5.300   4.232  45.815  1.00  0.00    -0.070 NA
ENDROOT
BRANCH   2   8
HETATM    8  C3  UNL     1       5.006   2.456  48.028  1.00  0.00     0.065 C 
HETATM    9  C4  UNL     1       5.035   1.071  47.403  1.00  0.00     0.020 C 
HETATM   10  C5  UNL     1       3.674   0.455  47.728  1.00  0.00     0.002 C 
HETATM   11  C6  UNL     1       3.685  -0.042  49.172  1.00  0.00     0.000 C 
HETATM   12  C7  UNL     1       4.701   0.793  49.897  1.00  0.00     0.002 C 
HETATM   13  C8  UNL     1       4.570   2.248  49.459  1.00  0.00     0.020 C 
ENDBRANCH   2   8
TORSDOF 1
ENDMDL
MODEL 2
REMARK VINA RESULT: -5.714521006      2.099      4.113
REMARK  1 active torsions:
REMARK  status: ('A' for Active; 'I' for Inactive)
REMARK       I    between atoms: N1_2  and  C2_3 
REMARK    1  A    between atoms: N1_2  and  C3_8 
ROOT
HETATM    1  C1  UNL     1       4.393   1.148  48.708  1.00  0.00     0.120 C 
HETATM    2  N1  UNL     1       4.469   1.876  47.437  1.00  0.00    -0.257 NA
HETATM    3  C2  UNL     1       4.303   0.903  46.432  1.00  0.00     0.162 C 
HETATM    4  N2  UNL     1       3.268   0.139  46.538  1.00  0.00    -0.378 N 
ATOM      5  H21 UNL     1       3.148  -0.566  45.810  1.00  0.00     0.158 HD
ATOM      6  H22 UNL     1       2.654   0.280  47.340  1.00  0.00     0.158 HD
HETATM    7  N3  UNL     1       5.149   0.709  45.327  1.00  0.00    -0.070 NA
ENDROOT
BRANCH   2   8
HETATM    8  C3  UNL     1       5.638   2.693  47.318  1.00  0.00     0.065 C 
HETATM    9  C4  UNL     1       5.440   3.917  46.440  1.00  0.00     0.020 C 
HETATM   10  C5  UNL     1       6.763   4.679  46.505  1.00  0.00     0.002 C 
HETATM   11  C6  UNL     1       6.825   5.457  47.818  1.00  0.00     0.000 C 
HETATM   12  C7  UNL     1       5.946   4.718  48.787  1.00  0.00     0.002 C 
HETATM   13  C8  UNL     1       6.167   3.217  48.632  1.00  0.00     0.020 C 
ENDBRANCH   2   8
TORSDOF 1
ENDMDL
MODEL 3
REMARK VINA RESULT: -5.599656240      5.530      7.247
REMARK  1 active torsions:
REMARK  status: ('A' for Active; 'I' for Inactive)
REMARK       I    between atoms: N1_2  and  C2_3 
REMARK    1  A    between atoms: N1_2  and  C3_8 
ROOT
HETATM    1  C1  UNL     1       7.729  10.692  49.196  1.00  0.00     0.120 C 
HETATM    2  N1  UNL     1       7.064   9.693  50.039  1.00  0.00    -0.257 NA
HETATM    3  C2  UNL     1       7.685   9.786  51.300  1.00  0.00     0.162 C 
HETATM    4  N2  UNL     1       7.741  10.964  51.827  1.00  0.00    -0.378 N 
ATOM      5  H21 UNL     1       8.191  11.032  52.740  1.00  0.00     0.158 HD
ATOM      6  H22 UNL     1       7.347  11.741  51.296  1.00  0.00     0.158 HD
HETATM    7  N3  UNL     1       8.226   8.716  52.032  1.00  0.00    -0.070 NA
ENDROOT
BRANCH   2   8
HETATM    8  C3  UNL     1       7.039   8.384  49.459  1.00  0.00     0.065 C 
HETATM    9  C4  UNL     1       5.670   7.728  49.495  1.00  0.00     0.020 C 
HETATM   10  C5  UNL     1       5.844   6.392  48.771  1.00  0.00     0.002 C 
HETATM   11  C6  UNL     1       5.841   6.639  47.264  1.00  0.00     0.000 C 
HETATM   12  C7  UNL     1       6.313   8.052  47.068  1.00  0.00     0.002 C 
HETATM   13  C8  UNL     1       7.476   8.337  48.014  1.00  0.00     0.020 C 
ENDBRANCH   2   8
TORSDOF 1
ENDMDL
MODEL 4
REMARK VINA RESULT: -5.538306146      3.391      5.072
REMARK  1 active torsions:
REMARK  status: ('A' for Active; 'I' for Inactive)
REMARK       I    between atoms: N1_2  and  C2_3 
REMARK    1  A    between atoms: N1_2  and  C3_8 
ROOT
HETATM    1  C1  UNL     1       6.559   8.509  47.289  1.00  0.00     0.120 C 
HETATM    2  N1  UNL     1       6.366   7.719  48.511  1.00  0.00    -0.257 NA
HETATM    3  C2  UNL     1       7.025   8.432  49.531  1.00  0.00     0.162 C 
HETATM    4  N2  UNL     1       6.711   9.678  49.657  1.00  0.00    -0.378 N 
ATOM      5  H21 UNL     1       7.189  10.194  50.396  1.00  0.00     0.158 HD
ATOM      6  H22 UNL     1       6.024  10.062  49.009  1.00  0.00     0.158 HD
HETATM    7  N3  UNL     1       7.971   7.902  50.425  1.00  0.00    -0.070 NA
ENDROOT
BRANCH   2   8
HETATM    8  C3  UNL     1       6.750   6.348  48.368  1.00  0.00     0.065 C 
HETATM    9  C4  UNL     1       5.840   5.380  49.104  1.00  0.00     0.020 C 
HETATM   10  C5  UNL     1       6.374   3.988  48.767  1.00  0.00     0.002 C 
HETATM   11  C6  UNL     1       5.893   3.597  47.370  1.00  0.00     0.000 C 
HETATM   12  C7  UNL     1       5.663   4.883  46.629  1.00  0.00     0.002 C 
HETATM   13  C8  UNL     1       6.793   5.859  46.939  1.00  0.00     0.020 C 
ENDBRANCH   2   8
TORSDOF 1
ENDMDL
MODEL 5
REMARK VINA RESULT: -5.526814042      2.098      3.864
REMARK  1 active torsions:
REMARK  status: ('A' for Active; 'I' for Inactive)
REMARK       I    between atoms: N1_2  and  C2_3 
REMARK    1  A    between atoms: N1_2  and  C3_8 
ROOT
HETATM    1  C1  UNL     1       3.782   0.196  48.933  1.00  0.00     0.120 C 
HETATM    2  N1  UNL     1       4.095   1.321  48.044  1.00  0.00    -0.257 NA
HETATM    3  C2  UNL     1       4.162   0.773  46.748  1.00  0.00     0.162 C 
HETATM    4  N2  UNL     1       3.148   0.071  46.368  1.00  0.00    -0.378 N 
ATOM      5  H21 UNL     1       3.197  -0.326  45.429  1.00  0.00     0.158 HD
ATOM      6  H22 UNL     1       2.380  -0.050  47.028  1.00  0.00     0.158 HD
HETATM    7  N3  UNL     1       5.220   0.940  45.839  1.00  0.00    -0.070 NA
ENDROOT
BRANCH   2   8
HETATM    8  C3  UNL     1       5.242   2.070  48.458  1.00  0.00     0.065 C 
HETATM    9  C4  UNL     1       5.428   3.370  47.694  1.00  0.00     0.020 C 
HETATM   10  C5  UNL     1       6.646   4.041  48.331  1.00  0.00     0.002 C 
HETATM   11  C6  UNL     1       6.221   4.706  49.638  1.00  0.00     0.000 C 
HETATM   12  C7  UNL     1       5.018   3.948  50.125  1.00  0.00     0.002 C 
HETATM   13  C8  UNL     1       5.241   2.453  49.919  1.00  0.00     0.020 C 
ENDBRANCH   2   8
TORSDOF 1
ENDMDL
