MODEL 1
REMARK VINA RESULT: -5.138792672      0.000      0.000
REMARK  2 active torsions:
REMARK  status: ('A' for Active; 'I' for Inactive)
REMARK    1  A    between atoms: C2_2  and  N1_3 
REMARK    2  A    between atoms: C2_2  and  C3_7 
ROOT
HETATM    1  C3  UNL     1       8.567   9.671  50.826  1.00  0.00     0.222 C 
HETATM    2  C4  UNL     1       8.057  11.045  50.354  1.00  0.00     0.063 C 
HETATM    3  C5  UNL     1       7.636  10.201  49.139  1.00  0.00     0.240 C 
HETATM    4  N2  UNL     1       8.789   9.385  49.468  1.00  0.00    -0.061 N 
HETATM    5  C6  UNL     1       9.980  10.076  48.991  1.00  0.00     0.238 C 
HETATM    6  C7  UNL     1      10.909   9.049  48.415  1.00  0.00     0.029 C 
HETATM    7  C8  UNL     1      10.326   7.755  48.945  1.00  0.00     0.029 C 
HETATM    8  C9  UNL     1       8.851   8.097  48.935  1.00  0.00     0.238 C 
ENDROOT
BRANCH   1   9
HETATM    9  C2  UNL     1       7.544   8.921  51.616  1.00  0.00     0.210 C 
HETATM   10  C1  UNL     1       8.174   7.803  52.421  1.00  0.00     0.042 C 
BRANCH   9  11
HETATM   11  N1  UNL     1       6.879   9.790  52.565  1.00  0.00    -0.073 N 
ATOM     12  H13 UNL     1       6.701   9.344  53.465  1.00  0.00     0.274 HD
ATOM     13  H12 UNL     1       7.475  10.542  52.909  1.00  0.00     0.274 HD
ATOM     14  H11 UNL     1       6.030  10.126  52.108  1.00  0.00     0.274 HD
ENDBRANCH   9  11
ENDBRANCH   1   9
TORSDOF 2
ENDMDL
MODEL 2
REMARK VINA RESULT: -5.138088286      7.879      8.997
REMARK  2 active torsions:
REMARK  status: ('A' for Active; 'I' for Inactive)
REMARK    1  A    between atoms: C2_2  and  N1_3 
REMARK    2  A    between atoms: C2_2  and  C3_7 
ROOT
HETATM    1  C3  UNL     1       4.505   2.367  49.392  1.00  0.00     0.222 C 
HETATM    2  C4  UNL     1       3.836   1.590  50.542  1.00  0.00     0.063 C 
HETATM    3  C5  UNL     1       4.761   0.483  50.009  1.00  0.00     0.240 C 
HETATM    4  N2  UNL     1       4.586   1.133  48.724  1.00  0.00    -0.061 N 
HETATM    5  C6  UNL     1       3.281   0.751  48.201  1.00  0.00     0.238 C 
HETATM    6  C7  UNL     1       3.425   0.520  46.726  1.00  0.00     0.029 C 
HETATM    7  C8  UNL     1       4.768   1.157  46.431  1.00  0.00     0.029 C 
HETATM    8  C9  UNL     1       5.506   0.844  47.715  1.00  0.00     0.238 C 
ENDROOT
BRANCH   1   9
HETATM    9  C2  UNL     1       5.737   3.091  49.830  1.00  0.00     0.210 C 
HETATM   10  C1  UNL     1       6.042   4.264  48.923  1.00  0.00     0.042 C 
BRANCH   9  11
HETATM   11  N1  UNL     1       5.577   3.630  51.165  1.00  0.00    -0.073 N 
ATOM     12  H13 UNL     1       5.089   2.997  51.800  1.00  0.00     0.274 HD
ATOM     13  H12 UNL     1       6.453   3.683  51.686  1.00  0.00     0.274 HD
ATOM     14  H11 UNL     1       5.114   4.533  51.063  1.00  0.00     0.274 HD
ENDBRANCH   9  11
ENDBRANCH   1   9
TORSDOF 2
ENDMDL
MODEL 3
REMARK VINA RESULT: -5.055440559      7.839      8.854
REMARK  2 active torsions:
REMARK  status: ('A' for Active; 'I' for Inactive)
REMARK    1  A    between atoms: C2_2  and  N1_3 
REMARK    2  A    between atoms: C2_2  and  C3_7 
ROOT
HETATM    1  C3  UNL     1       4.071   1.680  47.753  1.00  0.00     0.222 C 
HETATM    2  C4  UNL     1       4.161   0.733  46.541  1.00  0.00     0.063 C 
HETATM    3  C5  UNL     1       5.662   0.912  46.819  1.00  0.00     0.240 C 
HETATM    4  N2  UNL     1       5.286   2.225  47.304  1.00  0.00    -0.061 N 
HETATM    5  C6  UNL     1       5.062   3.084  46.148  1.00  0.00     0.238 C 
HETATM    6  C7  UNL     1       5.626   4.438  46.463  1.00  0.00     0.029 C 
HETATM    7  C8  UNL     1       5.819   4.364  47.964  1.00  0.00     0.029 C 
HETATM    8  C9  UNL     1       6.192   2.905  48.119  1.00  0.00     0.238 C 
ENDROOT
BRANCH   1   9
HETATM    9  C2  UNL     1       3.988   0.943  49.051  1.00  0.00     0.210 C 
HETATM   10  C1  UNL     1       3.703   1.883  50.204  1.00  0.00     0.042 C 
BRANCH   9  11
HETATM   11  N1  UNL     1       2.913  -0.027  49.030  1.00  0.00    -0.073 N 
ATOM     12  H13 UNL     1       2.341   0.022  48.187  1.00  0.00     0.274 HD
ATOM     13  H12 UNL     1       3.238  -0.986  48.909  1.00  0.00     0.274 HD
ATOM     14  H11 UNL     1       2.378   0.111  49.888  1.00  0.00     0.274 HD
ENDBRANCH   9  11
ENDBRANCH   1   9
TORSDOF 2
ENDMDL
MODEL 4
REMARK VINA RESULT: -5.016541962      2.072      3.529
REMARK  2 active torsions:
REMARK  status: ('A' for Active; 'I' for Inactive)
REMARK    1  A    between atoms: C2_2  and  N1_3 
REMARK    2  A    between atoms: C2_2  and  C3_7 
ROOT
HETATM    1  C3  UNL     1       6.909   8.905  48.601  1.00  0.00     0.222 C 
HETATM    2  C4  UNL     1       7.573   9.803  47.541  1.00  0.00     0.063 C 
HETATM    3  C5  UNL     1       8.839   9.232  48.200  1.00  0.00     0.240 C 
HETATM    4  N2  UNL     1       8.031   9.173  49.403  1.00  0.00    -0.061 N 
HETATM    5  C6  UNL     1       7.952  10.519  49.956  1.00  0.00     0.238 C 
HETATM    6  C7  UNL     1       8.053  10.409  51.449  1.00  0.00     0.029 C 
HETATM    7  C8  UNL     1       7.814   8.931  51.680  1.00  0.00     0.029 C 
HETATM    8  C9  UNL     1       8.468   8.353  50.444  1.00  0.00     0.238 C 
ENDROOT
BRANCH   1   9
HETATM    9  C2  UNL     1       6.633   7.526  48.093  1.00  0.00     0.210 C 
HETATM   10  C1  UNL     1       5.697   6.773  49.014  1.00  0.00     0.042 C 
BRANCH   9  11
HETATM   11  N1  UNL     1       5.993   7.568  46.794  1.00  0.00    -0.073 N 
ATOM     12  H13 UNL     1       6.343   8.318  46.196  1.00  0.00     0.274 HD
ATOM     13  H12 UNL     1       6.256   6.789  46.190  1.00  0.00     0.274 HD
ATOM     14  H11 UNL     1       4.989   7.625  46.965  1.00  0.00     0.274 HD
ENDBRANCH   9  11
ENDBRANCH   1   9
TORSDOF 2
ENDMDL
MODEL 5
REMARK VINA RESULT: -4.917475821      2.050      3.061
REMARK  2 active torsions:
REMARK  status: ('A' for Active; 'I' for Inactive)
REMARK    1  A    between atoms: C2_2  and  N1_3 
REMARK    2  A    between atoms: C2_2  and  C3_7 
ROOT
HETATM    1  C3  UNL     1       7.308   9.302  48.488  1.00  0.00     0.222 C 
HETATM    2  C4  UNL     1       7.750  10.009  47.193  1.00  0.00     0.063 C 
HETATM    3  C5  UNL     1       8.978   9.108  47.407  1.00  0.00     0.240 C 
HETATM    4  N2  UNL     1       8.673   9.245  48.818  1.00  0.00    -0.061 N 
HETATM    5  C6  UNL     1       9.146  10.553  49.255  1.00  0.00     0.238 C 
HETATM    6  C7  UNL     1       9.748  10.393  50.619  1.00  0.00     0.029 C 
HETATM    7  C8  UNL     1       9.239   9.028  51.037  1.00  0.00     0.029 C 
HETATM    8  C9  UNL     1       9.231   8.319  49.700  1.00  0.00     0.238 C 
ENDROOT
BRANCH   1   9
HETATM    9  C2  UNL     1       6.525   8.057  48.222  1.00  0.00     0.210 C 
HETATM   10  C1  UNL     1       5.743   7.622  49.444  1.00  0.00     0.042 C 
BRANCH   9  11
HETATM   11  N1  UNL     1       5.558   8.266  47.164  1.00  0.00    -0.073 N 
ATOM     12  H13 UNL     1       4.944   9.064  47.331  1.00  0.00     0.274 HD
ATOM     13  H12 UNL     1       5.976   8.605  46.298  1.00  0.00     0.274 HD
ATOM     14  H11 UNL     1       5.054   7.386  47.051  1.00  0.00     0.274 HD
ENDBRANCH   9  11
ENDBRANCH   1   9
TORSDOF 2
ENDMDL
