MODEL 1
REMARK VINA RESULT: -6.376218546      0.000      0.000
REMARK  2 active torsions:
REMARK  status: ('A' for Active; 'I' for Inactive)
REMARK    1  A    between atoms: C1_2  and  C2_4 
REMARK    2  A    between atoms: C2_4  and  C3_5 
ROOT
HETATM    1  C3  UNL     1      33.248 -14.265   3.012  1.00  0.00     0.076 C 
HETATM    2  C4  UNL     1      32.406 -14.162   1.759  1.00  0.00     0.043 C 
HETATM    3  C5  UNL     1      30.993 -14.630   2.038  1.00  0.00    -0.005 C 
HETATM    4  C6  UNL     1      30.937 -16.018   2.596  1.00  0.00     0.048 C 
HETATM    5  C7  UNL     1      31.851 -16.099   3.780  1.00  0.00     0.110 C 
HETATM    6  F1  UNL     1      31.832 -17.367   4.321  1.00  0.00    -0.243 F 
HETATM    7  C8  UNL     1      31.334 -15.160   4.858  1.00  0.00     0.093 C 
HETATM    8  C9  UNL     1      31.374 -13.765   4.283  1.00  0.00     0.122 C 
HETATM    9 BR1  UNL     1      30.737 -12.470   5.585  1.00  0.00    -0.054 Br
HETATM   10  C10 UNL     1      30.423 -13.690   3.094  1.00  0.00     0.055 C 
HETATM   11  O3  UNL     1      32.660 -13.433   3.964  1.00  0.00    -0.357 OA
HETATM   12  C11 UNL     1      33.276 -15.704   3.440  1.00  0.00     0.082 C 
ENDROOT
BRANCH   1  13
HETATM   13  C2  UNL     1      34.615 -13.695   2.755  1.00  0.00     0.151 C 
BRANCH  13  14
HETATM   14  C1  UNL     1      34.641 -12.424   2.051  1.00  0.00     0.175 C 
HETATM   15  O1  UNL     1      35.269 -12.370   0.962  1.00  0.00    -0.648 OA
HETATM   16  O2  UNL     1      34.045 -11.234   2.439  1.00  0.00    -0.648 OA
ENDBRANCH  13  14
ENDBRANCH   1  13
TORSDOF 2
ENDMDL
MODEL 2
REMARK VINA RESULT: -6.279459854      3.401      5.482
REMARK  2 active torsions:
REMARK  status: ('A' for Active; 'I' for Inactive)
REMARK    1  A    between atoms: C1_2  and  C2_4 
REMARK    2  A    between atoms: C2_4  and  C3_5 
ROOT
HETATM    1  C3  UNL     1      29.149 -14.107   5.022  1.00  0.00     0.076 C 
HETATM    2  C4  UNL     1      29.503 -12.649   5.225  1.00  0.00     0.043 C 
HETATM    3  C5  UNL     1      31.002 -12.457   5.134  1.00  0.00    -0.005 C 
HETATM    4  C6  UNL     1      31.761 -13.321   6.093  1.00  0.00     0.048 C 
HETATM    5  C7  UNL     1      31.317 -14.741   5.918  1.00  0.00     0.110 C 
HETATM    6  F1  UNL     1      31.991 -15.569   6.789  1.00  0.00    -0.243 F 
HETATM    7  C8  UNL     1      31.684 -15.196   4.514  1.00  0.00     0.093 C 
HETATM    8  C9  UNL     1      30.932 -14.309   3.553  1.00  0.00     0.122 C 
HETATM    9 BR1  UNL     1      31.322 -14.808   1.715  1.00  0.00    -0.054 Br
HETATM   10  C10 UNL     1      31.410 -12.871   3.725  1.00  0.00     0.055 C 
HETATM   11  O3  UNL     1      29.588 -14.454   3.745  1.00  0.00    -0.357 OA
HETATM   12  C11 UNL     1      29.820 -14.906   6.102  1.00  0.00     0.082 C 
ENDROOT
BRANCH   1  13
HETATM   13  C2  UNL     1      27.655 -14.269   5.003  1.00  0.00     0.151 C 
BRANCH  13  14
HETATM   14  C1  UNL     1      27.157 -15.536   5.512  1.00  0.00     0.175 C 
HETATM   15  O1  UNL     1      26.426 -15.509   6.537  1.00  0.00    -0.648 OA
HETATM   16  O2  UNL     1      27.391 -16.802   4.998  1.00  0.00    -0.648 OA
ENDBRANCH  13  14
ENDBRANCH   1  13
TORSDOF 2
ENDMDL
MODEL 3
REMARK VINA RESULT: -6.180728430      1.825      2.445
REMARK  2 active torsions:
REMARK  status: ('A' for Active; 'I' for Inactive)
REMARK    1  A    between atoms: C1_2  and  C2_4 
REMARK    2  A    between atoms: C2_4  and  C3_5 
ROOT
HETATM    1  C3  UNL     1      33.220 -13.863   2.981  1.00  0.00     0.076 C 
HETATM    2  C4  UNL     1      32.557 -12.853   3.892  1.00  0.00     0.043 C 
HETATM    3  C5  UNL     1      31.149 -13.298   4.229  1.00  0.00    -0.005 C 
HETATM    4  C6  UNL     1      30.308 -13.542   3.014  1.00  0.00     0.048 C 
HETATM    5  C7  UNL     1      31.040 -14.476   2.101  1.00  0.00     0.110 C 
HETATM    6  F1  UNL     1      30.298 -14.722   0.965  1.00  0.00    -0.243 F 
HETATM    7  C8  UNL     1      31.210 -15.812   2.806  1.00  0.00     0.093 C 
HETATM    8  C9  UNL     1      32.041 -15.556   4.039  1.00  0.00     0.122 C 
HETATM    9 BR1  UNL     1      32.331 -17.207   5.024  1.00  0.00    -0.054 Br
HETATM   10  C10 UNL     1      31.275 -14.623   4.971  1.00  0.00     0.055 C 
HETATM   11  O3  UNL     1      33.265 -15.069   3.679  1.00  0.00    -0.357 OA
HETATM   12  C11 UNL     1      32.412 -13.955   1.718  1.00  0.00     0.082 C 
ENDROOT
BRANCH   1  13
HETATM   13  C2  UNL     1      34.651 -13.471   2.743  1.00  0.00     0.151 C 
BRANCH  13  14
HETATM   14  C1  UNL     1      34.848 -12.276   1.939  1.00  0.00     0.175 C 
HETATM   15  O1  UNL     1      35.388 -12.412   0.810  1.00  0.00    -0.648 OA
HETATM   16  O2  UNL     1      34.507 -10.974   2.268  1.00  0.00    -0.648 OA
ENDBRANCH  13  14
ENDBRANCH   1  13
TORSDOF 2
ENDMDL
MODEL 4
REMARK VINA RESULT: -6.144937998      1.818      2.335
REMARK  2 active torsions:
REMARK  status: ('A' for Active; 'I' for Inactive)
REMARK    1  A    between atoms: C1_2  and  C2_4 
REMARK    2  A    between atoms: C2_4  and  C3_5 
ROOT
HETATM    1  C3  UNL     1      31.822 -13.605   3.190  1.00  0.00     0.076 C 
HETATM    2  C4  UNL     1      30.487 -14.150   2.731  1.00  0.00     0.043 C 
HETATM    3  C5  UNL     1      29.436 -13.927   3.798  1.00  0.00    -0.005 C 
HETATM    4  C6  UNL     1      29.816 -14.511   5.123  1.00  0.00     0.048 C 
HETATM    5  C7  UNL     1      31.178 -14.014   5.496  1.00  0.00     0.110 C 
HETATM    6  F1  UNL     1      31.567 -14.536   6.712  1.00  0.00    -0.243 F 
HETATM    7  C8  UNL     1      31.115 -12.505   5.672  1.00  0.00     0.093 C 
HETATM    8  C9  UNL     1      30.713 -11.924   4.339  1.00  0.00     0.122 C 
HETATM    9 BR1  UNL     1      30.605  -9.986   4.442  1.00  0.00    -0.054 Br
HETATM   10  C10 UNL     1      29.315 -12.419   3.982  1.00  0.00     0.055 C 
HETATM   11  O3  UNL     1      31.650 -12.237   3.396  1.00  0.00    -0.357 OA
HETATM   12  C11 UNL     1      32.220 -14.333   4.441  1.00  0.00     0.082 C 
ENDROOT
BRANCH   1  13
HETATM   13  C2  UNL     1      32.831 -13.731   2.082  1.00  0.00     0.151 C 
BRANCH  13  14
HETATM   14  C1  UNL     1      34.200 -13.404   2.442  1.00  0.00     0.175 C 
HETATM   15  O1  UNL     1      34.994 -14.358   2.652  1.00  0.00    -0.648 OA
HETATM   16  O2  UNL     1      34.755 -12.142   2.587  1.00  0.00    -0.648 OA
ENDBRANCH  13  14
ENDBRANCH   1  13
TORSDOF 2
ENDMDL
MODEL 5
REMARK VINA RESULT: -6.144294872      2.440      3.798
REMARK  2 active torsions:
REMARK  status: ('A' for Active; 'I' for Inactive)
REMARK    1  A    between atoms: C1_2  and  C2_4 
REMARK    2  A    between atoms: C2_4  and  C3_5 
ROOT
HETATM    1  C3  UNL     1      31.084 -13.387   4.081  1.00  0.00     0.076 C 
HETATM    2  C4  UNL     1      31.252 -14.673   4.860  1.00  0.00     0.043 C 
HETATM    3  C5  UNL     1      31.860 -15.743   3.978  1.00  0.00    -0.005 C 
HETATM    4  C6  UNL     1      31.074 -15.985   2.727  1.00  0.00     0.048 C 
HETATM    5  C7  UNL     1      30.856 -14.675   2.034  1.00  0.00     0.110 C 
HETATM    6  F1  UNL     1      30.129 -14.855   0.877  1.00  0.00    -0.243 F 
HETATM    7  C8  UNL     1      32.207 -14.116   1.616  1.00  0.00     0.093 C 
HETATM    8  C9  UNL     1      33.001 -13.893   2.879  1.00  0.00     0.122 C 
HETATM    9 BR1  UNL     1      34.756 -13.167   2.464  1.00  0.00    -0.054 Br
HETATM   10  C10 UNL     1      33.236 -15.236   3.562  1.00  0.00     0.055 C 
HETATM   11  O3  UNL     1      32.358 -12.990   3.677  1.00  0.00    -0.357 OA
HETATM   12  C11 UNL     1      30.167 -13.658   2.923  1.00  0.00     0.082 C 
ENDROOT
BRANCH   1  13
HETATM   13  C2  UNL     1      30.584 -12.301   4.993  1.00  0.00     0.151 C 
BRANCH  13  14
HETATM   14  C1  UNL     1      30.183 -11.068   4.338  1.00  0.00     0.175 C 
HETATM   15  O1  UNL     1      31.050 -10.164   4.207  1.00  0.00    -0.648 OA
HETATM   16  O2  UNL     1      28.934 -10.754   3.826  1.00  0.00    -0.648 OA
ENDBRANCH  13  14
ENDBRANCH   1  13
TORSDOF 2
ENDMDL
