MODEL 1
REMARK VINA RESULT: -7.107287040      0.000      0.000
REMARK  3 active torsions:
REMARK  status: ('A' for Active; 'I' for Inactive)
REMARK    1  A    between atoms: C2_2  and  C4_6 
REMARK    2  A    between atoms: N1_9  and  C7_10 
REMARK    3  A    between atoms: C10_13  and  O1_14 
ROOT
HETATM    1  C4  UNL     1      32.803 -12.705   3.711  1.00  0.00     0.020 C 
HETATM    2  C5  UNL     1      31.722 -13.412   2.934  1.00  0.00     0.028 C 
HETATM    3  C6  UNL     1      30.841 -14.256   3.826  1.00  0.00     0.118 C 
HETATM    4  N1  UNL     1      30.371 -13.501   4.929  1.00  0.00    -0.408 N 
HETATM    5  C12 UNL     1      31.373 -12.811   5.668  1.00  0.00     0.118 C 
HETATM    6  C13 UNL     1      32.152 -11.846   4.774  1.00  0.00     0.028 C 
ENDROOT
BRANCH   4   7
HETATM    7  C7  UNL     1      29.350 -14.095   5.703  1.00  0.00     0.081 C 
HETATM    8  C8  UNL     1      27.953 -13.784   5.308  1.00  0.00     0.027 C 
HETATM    9  C9  UNL     1      27.138 -15.022   5.680  1.00  0.00     0.034 C 
HETATM   10  C10 UNL     1      28.135 -16.011   6.254  1.00  0.00     0.120 C 
HETATM   11  C11 UNL     1      29.401 -15.613   5.484  1.00  0.00     0.056 C 
BRANCH  10  12
HETATM   12  O1  UNL     1      28.364 -15.664   7.582  1.00  0.00    -0.396 OA
ATOM     13  H1  UNL     1      27.776 -16.180   8.123  1.00  0.00     0.210 HD
ENDBRANCH  10  12
ENDBRANCH   4   7
BRANCH   1  14
HETATM   14  C2  UNL     1      33.699 -11.919   2.861  1.00  0.00    -0.046 C 
HETATM   15  C1  UNL     1      33.459 -10.473   2.680  1.00  0.00     0.046 C 
HETATM   16  C3  UNL     1      34.721 -12.503   2.257  1.00  0.00     0.105 C 
HETATM   17 CL1  UNL     1      35.788 -11.539   1.239  1.00  0.00    -0.071 Cl
HETATM   18 CL2  UNL     1      35.011 -14.225   2.468  1.00  0.00    -0.071 Cl
ENDBRANCH   1  14
TORSDOF 3
ENDMDL
MODEL 2
REMARK VINA RESULT: -7.096970454      1.890      2.519
REMARK  3 active torsions:
REMARK  status: ('A' for Active; 'I' for Inactive)
REMARK    1  A    between atoms: C2_2  and  C4_6 
REMARK    2  A    between atoms: N1_9  and  C7_10 
REMARK    3  A    between atoms: C10_13  and  O1_14 
ROOT
HETATM    1  C4  UNL     1      32.165 -12.149   3.490  1.00  0.00     0.020 C 
HETATM    2  C5  UNL     1      32.241 -12.290   4.989  1.00  0.00     0.028 C 
HETATM    3  C6  UNL     1      31.126 -13.151   5.536  1.00  0.00     0.118 C 
HETATM    4  N1  UNL     1      31.048 -14.380   4.835  1.00  0.00    -0.408 N 
HETATM    5  C12 UNL     1      30.991 -14.272   3.417  1.00  0.00     0.118 C 
HETATM    6  C13 UNL     1      32.212 -13.530   2.870  1.00  0.00     0.028 C 
ENDROOT
BRANCH   4   7
HETATM    7  C7  UNL     1      30.213 -15.369   5.400  1.00  0.00     0.081 C 
HETATM    8  C8  UNL     1      29.336 -14.937   6.517  1.00  0.00     0.027 C 
HETATM    9  C9  UNL     1      28.088 -15.816   6.421  1.00  0.00     0.034 C 
HETATM   10  C10 UNL     1      28.308 -16.705   5.211  1.00  0.00     0.120 C 
HETATM   11  C11 UNL     1      29.182 -15.790   4.344  1.00  0.00     0.056 C 
BRANCH  10  12
HETATM   12  O1  UNL     1      29.122 -17.764   5.601  1.00  0.00    -0.396 OA
ATOM     13  H1  UNL     1      28.969 -18.485   5.002  1.00  0.00     0.210 HD
ENDBRANCH  10  12
ENDBRANCH   4   7
BRANCH   1  14
HETATM   14  C2  UNL     1      33.208 -11.280   2.942  1.00  0.00    -0.046 C 
HETATM   15  C1  UNL     1      34.508 -11.856   2.543  1.00  0.00     0.046 C 
HETATM   16  C3  UNL     1      32.985  -9.984   2.805  1.00  0.00     0.105 C 
HETATM   17 CL1  UNL     1      34.254  -8.955   2.143  1.00  0.00    -0.071 Cl
HETATM   18 CL2  UNL     1      31.439  -9.293   3.280  1.00  0.00    -0.071 Cl
ENDBRANCH   1  14
TORSDOF 3
ENDMDL
MODEL 3
REMARK VINA RESULT: -7.037924601      3.698      4.400
REMARK  3 active torsions:
REMARK  status: ('A' for Active; 'I' for Inactive)
REMARK    1  A    between atoms: C2_2  and  C4_6 
REMARK    2  A    between atoms: N1_9  and  C7_10 
REMARK    3  A    between atoms: C10_13  and  O1_14 
ROOT
HETATM    1  C4  UNL     1      30.654 -10.666   4.451  1.00  0.00     0.020 C 
HETATM    2  C5  UNL     1      31.926 -11.349   4.017  1.00  0.00     0.028 C 
HETATM    3  C6  UNL     1      31.900 -12.833   4.305  1.00  0.00     0.118 C 
HETATM    4  N1  UNL     1      30.715 -13.424   3.801  1.00  0.00    -0.408 N 
HETATM    5  C12 UNL     1      29.502 -12.785   4.185  1.00  0.00     0.118 C 
HETATM    6  C13 UNL     1      29.487 -11.321   3.745  1.00  0.00     0.028 C 
ENDROOT
BRANCH   4   7
HETATM    7  C7  UNL     1      30.678 -14.836   3.789  1.00  0.00     0.081 C 
HETATM    8  C8  UNL     1      31.931 -15.535   4.167  1.00  0.00     0.027 C 
HETATM    9  C9  UNL     1      31.488 -16.843   4.822  1.00  0.00     0.034 C 
HETATM   10  C10 UNL     1      29.972 -16.812   4.811  1.00  0.00     0.120 C 
HETATM   11  C11 UNL     1      29.719 -15.301   4.894  1.00  0.00     0.056 C 
BRANCH  10  12
HETATM   12  O1  UNL     1      29.545 -17.208   3.546  1.00  0.00    -0.396 OA
ATOM     13  H1  UNL     1      30.287 -17.594   3.096  1.00  0.00     0.210 HD
ENDBRANCH  10  12
ENDBRANCH   4   7
BRANCH   1  14
HETATM   14  C2  UNL     1      30.675  -9.219   4.225  1.00  0.00    -0.046 C 
HETATM   15  C1  UNL     1      31.526  -8.656   3.157  1.00  0.00     0.046 C 
HETATM   16  C3  UNL     1      29.934  -8.421   4.975  1.00  0.00     0.105 C 
HETATM   17 CL1  UNL     1      29.973  -6.683   4.686  1.00  0.00    -0.071 Cl
HETATM   18 CL2  UNL     1      28.920  -9.087   6.248  1.00  0.00    -0.071 Cl
ENDBRANCH   1  14
TORSDOF 3
ENDMDL
MODEL 4
REMARK VINA RESULT: -6.910168912      0.972      1.240
REMARK  3 active torsions:
REMARK  status: ('A' for Active; 'I' for Inactive)
REMARK    1  A    between atoms: C2_2  and  C4_6 
REMARK    2  A    between atoms: N1_9  and  C7_10 
REMARK    3  A    between atoms: C10_13  and  O1_14 
ROOT
HETATM    1  C4  UNL     1      32.598 -13.158   3.648  1.00  0.00     0.020 C 
HETATM    2  C5  UNL     1      31.625 -13.850   2.727  1.00  0.00     0.028 C 
HETATM    3  C6  UNL     1      30.729 -14.816   3.469  1.00  0.00     0.118 C 
HETATM    4  N1  UNL     1      30.131 -14.189   4.589  1.00  0.00    -0.408 N 
HETATM    5  C12 UNL     1      31.029 -13.516   5.465  1.00  0.00     0.118 C 
HETATM    6  C13 UNL     1      31.816 -12.434   4.723  1.00  0.00     0.028 C 
ENDROOT
BRANCH   4   7
HETATM    7  C7  UNL     1      29.091 -14.904   5.223  1.00  0.00     0.081 C 
HETATM    8  C8  UNL     1      29.035 -14.817   6.704  1.00  0.00     0.027 C 
HETATM    9  C9  UNL     1      27.554 -14.939   7.065  1.00  0.00     0.034 C 
HETATM   10  C10 UNL     1      26.821 -15.065   5.743  1.00  0.00     0.120 C 
HETATM   11  C11 UNL     1      27.754 -14.264   4.826  1.00  0.00     0.056 C 
BRANCH  10  12
HETATM   12  O1  UNL     1      26.912 -16.390   5.327  1.00  0.00    -0.396 OA
ATOM     13  H1  UNL     1      27.135 -16.918   6.084  1.00  0.00     0.210 HD
ENDBRANCH  10  12
ENDBRANCH   4   7
BRANCH   1  14
HETATM   14  C2  UNL     1      33.508 -12.253   2.944  1.00  0.00    -0.046 C 
HETATM   15  C1  UNL     1      33.174 -10.818   2.832  1.00  0.00     0.046 C 
HETATM   16  C3  UNL     1      34.625 -12.719   2.411  1.00  0.00     0.105 C 
HETATM   17 CL1  UNL     1      35.708 -11.612   1.570  1.00  0.00    -0.071 Cl
HETATM   18 CL2  UNL     1      35.026 -14.426   2.542  1.00  0.00    -0.071 Cl
ENDBRANCH   1  14
TORSDOF 3
ENDMDL
MODEL 5
REMARK VINA RESULT: -6.760933665      1.403      2.264
REMARK  3 active torsions:
REMARK  status: ('A' for Active; 'I' for Inactive)
REMARK    1  A    between atoms: C2_2  and  C4_6 
REMARK    2  A    between atoms: N1_9  and  C7_10 
REMARK    3  A    between atoms: C10_13  and  O1_14 
ROOT
HETATM    1  C4  UNL     1      32.048 -12.806   3.528  1.00  0.00     0.020 C 
HETATM    2  C5  UNL     1      32.081 -12.885   5.033  1.00  0.00     0.028 C 
HETATM    3  C6  UNL     1      30.693 -12.894   5.632  1.00  0.00     0.118 C 
HETATM    4  N1  UNL     1      29.883 -13.876   5.011  1.00  0.00    -0.408 N 
HETATM    5  C12 UNL     1      29.850 -13.832   3.588  1.00  0.00     0.118 C 
HETATM    6  C13 UNL     1      31.253 -13.980   2.998  1.00  0.00     0.028 C 
ENDROOT
BRANCH   4   7
HETATM    7  C7  UNL     1      28.647 -14.154   5.636  1.00  0.00     0.081 C 
HETATM    8  C8  UNL     1      28.025 -13.040   6.394  1.00  0.00     0.027 C 
HETATM    9  C9  UNL     1      26.516 -13.263   6.283  1.00  0.00     0.034 C 
HETATM   10  C10 UNL     1      26.349 -14.502   5.425  1.00  0.00     0.120 C 
HETATM   11  C11 UNL     1      27.600 -14.406   4.543  1.00  0.00     0.056 C 
BRANCH  10  12
HETATM   12  O1  UNL     1      26.534 -15.615   6.240  1.00  0.00    -0.396 OA
ATOM     13  H1  UNL     1      27.343 -16.037   5.978  1.00  0.00     0.210 HD
ENDBRANCH  10  12
ENDBRANCH   4   7
BRANCH   1  14
HETATM   14  C2  UNL     1      33.383 -12.747   2.928  1.00  0.00    -0.046 C 
HETATM   15  C1  UNL     1      34.159 -13.990   2.742  1.00  0.00     0.046 C 
HETATM   16  C3  UNL     1      33.890 -11.585   2.554  1.00  0.00     0.105 C 
HETATM   17 CL1  UNL     1      35.497 -11.536   1.833  1.00  0.00    -0.071 Cl
HETATM   18 CL2  UNL     1      32.970 -10.102   2.774  1.00  0.00    -0.071 Cl
ENDBRANCH   1  14
TORSDOF 3
ENDMDL
