MODEL 1
REMARK VINA RESULT: -8.347163669      0.000      0.000
REMARK  2 active torsions:
REMARK  status: ('A' for Active; 'I' for Inactive)
REMARK    1  A    between atoms: O1_2  and  N1_3 
REMARK       I    between atoms: N1_3  and  C2_5 
REMARK       I    between atoms: C2_5  and  N2_7 
REMARK    2  A    between atoms: C5_10  and  C6_11 
ROOT
HETATM    1  N1  UNL     1      29.390 -18.720   4.483  1.00  0.00    -0.217 N 
ATOM      2  H1  UNL     1      30.197 -19.032   3.943  1.00  0.00     0.199 HD
HETATM    3  C2  UNL     1      29.258 -17.351   4.804  1.00  0.00     0.342 C 
HETATM    4  O2  UNL     1      28.223 -17.028   5.486  1.00  0.00    -0.245 OA
HETATM    5  N2  UNL     1      30.201 -16.376   4.410  1.00  0.00    -0.322 N 
HETATM    6  C3  UNL     1      31.344 -16.740   3.621  1.00  0.00     0.129 C 
HETATM    7  C4  UNL     1      32.186 -15.581   3.221  1.00  0.00     0.036 C 
HETATM    8  C5  UNL     1      31.808 -14.294   3.969  1.00  0.00     0.035 C 
HETATM    9  C12 UNL     1      30.368 -14.051   3.660  1.00  0.00     0.047 C 
HETATM   10  C13 UNL     1      30.037 -15.016   4.802  1.00  0.00     0.163 C 
HETATM   11  C14 UNL     1      31.421 -14.607   5.367  1.00  0.00     0.272 C 
HETATM   12  F1  UNL     1      31.325 -13.627   6.291  1.00  0.00    -0.203 F 
HETATM   13  F2  UNL     1      32.170 -15.697   5.807  1.00  0.00    -0.203 F 
ENDROOT
BRANCH   1  14
HETATM   14  O1  UNL     1      28.482 -19.608   4.870  1.00  0.00    -0.281 OA
HETATM   15  C1  UNL     1      28.955 -20.902   4.607  1.00  0.00     0.237 C 
ENDBRANCH   1  14
BRANCH   8  16
HETATM   16  C6  UNL     1      32.792 -13.203   3.778  1.00  0.00     0.000 C 
HETATM   17  C7  UNL     1      32.248 -11.818   3.704  1.00  0.00     0.005 C 
HETATM   18  C8  UNL     1      33.264 -10.778   3.280  1.00  0.00     0.000 C 
HETATM   19  C9  UNL     1      34.156 -11.184   2.163  1.00  0.00     0.000 C 
HETATM   20  C10 UNL     1      34.811 -12.483   2.558  1.00  0.00     0.000 C 
HETATM   21  C11 UNL     1      33.721 -13.518   2.593  1.00  0.00     0.005 C 
ENDBRANCH   8  16
TORSDOF 2
ENDMDL
MODEL 2
REMARK VINA RESULT: -8.276403410      2.734      3.023
REMARK  2 active torsions:
REMARK  status: ('A' for Active; 'I' for Inactive)
REMARK    1  A    between atoms: O1_2  and  N1_3 
REMARK       I    between atoms: N1_3  and  C2_5 
REMARK       I    between atoms: C2_5  and  N2_7 
REMARK    2  A    between atoms: C5_10  and  C6_11 
ROOT
HETATM    1  N1  UNL     1      26.854 -14.957   4.845  1.00  0.00    -0.217 N 
ATOM      2  H1  UNL     1      27.107 -15.405   3.965  1.00  0.00     0.199 HD
HETATM    3  C2  UNL     1      27.746 -14.035   5.435  1.00  0.00     0.342 C 
HETATM    4  O2  UNL     1      27.368 -13.512   6.542  1.00  0.00    -0.245 OA
HETATM    5  N2  UNL     1      28.989 -13.693   4.859  1.00  0.00    -0.322 N 
HETATM    6  C3  UNL     1      29.395 -14.261   3.603  1.00  0.00     0.129 C 
HETATM    7  C4  UNL     1      30.689 -13.728   3.098  1.00  0.00     0.036 C 
HETATM    8  C5  UNL     1      31.439 -12.906   4.156  1.00  0.00     0.035 C 
HETATM    9  C12 UNL     1      30.513 -11.802   4.545  1.00  0.00     0.047 C 
HETATM   10  C13 UNL     1      29.867 -12.789   5.523  1.00  0.00     0.163 C 
HETATM   11  C14 UNL     1      31.244 -13.500   5.502  1.00  0.00     0.272 C 
HETATM   12  F1  UNL     1      32.025 -13.128   6.539  1.00  0.00    -0.203 F 
HETATM   13  F2  UNL     1      31.137 -14.883   5.371  1.00  0.00    -0.203 F 
ENDROOT
BRANCH   1  14
HETATM   14  O1  UNL     1      25.693 -15.253   5.417  1.00  0.00    -0.281 OA
HETATM   15  C1  UNL     1      24.668 -14.533   4.787  1.00  0.00     0.237 C 
ENDBRANCH   1  14
BRANCH   8  16
HETATM   16  C6  UNL     1      32.832 -12.589   3.762  1.00  0.00     0.000 C 
HETATM   17  C7  UNL     1      33.089 -11.208   3.269  1.00  0.00     0.005 C 
HETATM   18  C8  UNL     1      34.466 -11.012   2.669  1.00  0.00     0.000 C 
HETATM   19  C9  UNL     1      34.931 -12.112   1.785  1.00  0.00     0.000 C 
HETATM   20  C10 UNL     1      34.836 -13.394   2.573  1.00  0.00     0.000 C 
HETATM   21  C11 UNL     1      33.371 -13.654   2.792  1.00  0.00     0.005 C 
ENDBRANCH   8  16
TORSDOF 2
ENDMDL
MODEL 3
REMARK VINA RESULT: -8.258191053      1.284      1.429
REMARK  2 active torsions:
REMARK  status: ('A' for Active; 'I' for Inactive)
REMARK    1  A    between atoms: O1_2  and  N1_3 
REMARK       I    between atoms: N1_3  and  C2_5 
REMARK       I    between atoms: C2_5  and  N2_7 
REMARK    2  A    between atoms: C5_10  and  C6_11 
ROOT
HETATM    1  N1  UNL     1      29.120 -17.143   4.032  1.00  0.00    -0.217 N 
ATOM      2  H1  UNL     1      29.740 -17.442   3.279  1.00  0.00     0.199 HD
HETATM    3  C2  UNL     1      29.260 -15.845   4.570  1.00  0.00     0.342 C 
HETATM    4  O2  UNL     1      28.452 -15.535   5.514  1.00  0.00    -0.245 OA
HETATM    5  N2  UNL     1      30.228 -14.925   4.112  1.00  0.00    -0.322 N 
HETATM    6  C3  UNL     1      31.113 -15.268   3.034  1.00  0.00     0.129 C 
HETATM    7  C4  UNL     1      32.009 -14.155   2.620  1.00  0.00     0.036 C 
HETATM    8  C5  UNL     1      31.990 -12.984   3.614  1.00  0.00     0.035 C 
HETATM    9  C12 UNL     1      30.568 -12.537   3.688  1.00  0.00     0.047 C 
HETATM   10  C13 UNL     1      30.351 -13.644   4.725  1.00  0.00     0.163 C 
HETATM   11  C14 UNL     1      31.868 -13.492   5.004  1.00  0.00     0.272 C 
HETATM   12  F1  UNL     1      32.113 -12.683   6.057  1.00  0.00    -0.203 F 
HETATM   13  F2  UNL     1      32.527 -14.717   5.094  1.00  0.00    -0.203 F 
ENDROOT
BRANCH   1  14
HETATM   14  O1  UNL     1      28.197 -17.981   4.487  1.00  0.00    -0.281 OA
HETATM   15  C1  UNL     1      28.816 -19.159   4.931  1.00  0.00     0.237 C 
ENDBRANCH   1  14
BRANCH   8  16
HETATM   16  C6  UNL     1      33.058 -11.990   3.359  1.00  0.00     0.000 C 
HETATM   17  C7  UNL     1      32.619 -10.594   3.083  1.00  0.00     0.005 C 
HETATM   18  C8  UNL     1      33.729  -9.680   2.606  1.00  0.00     0.000 C 
HETATM   19  C9  UNL     1      34.652 -10.278   1.606  1.00  0.00     0.000 C 
HETATM   20  C10 UNL     1      35.189 -11.557   2.197  1.00  0.00     0.000 C 
HETATM   21  C11 UNL     1      34.028 -12.509   2.284  1.00  0.00     0.005 C 
ENDBRANCH   8  16
TORSDOF 2
ENDMDL
MODEL 4
REMARK VINA RESULT: -8.194171534      2.342      3.015
REMARK  2 active torsions:
REMARK  status: ('A' for Active; 'I' for Inactive)
REMARK    1  A    between atoms: O1_2  and  N1_3 
REMARK       I    between atoms: N1_3  and  C2_5 
REMARK       I    between atoms: C2_5  and  N2_7 
REMARK    2  A    between atoms: C5_10  and  C6_11 
ROOT
HETATM    1  N1  UNL     1      26.635 -14.813   4.705  1.00  0.00    -0.217 N 
ATOM      2  H1  UNL     1      26.563 -14.138   3.945  1.00  0.00     0.199 HD
HETATM    3  C2  UNL     1      27.889 -15.039   5.314  1.00  0.00     0.342 C 
HETATM    4  O2  UNL     1      27.910 -15.901   6.261  1.00  0.00    -0.245 OA
HETATM    5  N2  UNL     1      29.067 -14.368   4.918  1.00  0.00    -0.322 N 
HETATM    6  C3  UNL     1      29.032 -13.381   3.875  1.00  0.00     0.129 C 
HETATM    7  C4  UNL     1      30.340 -12.710   3.645  1.00  0.00     0.036 C 
HETATM    8  C5  UNL     1      31.497 -13.412   4.371  1.00  0.00     0.035 C 
HETATM    9  C12 UNL     1      31.132 -13.407   5.818  1.00  0.00     0.047 C 
HETATM   10  C13 UNL     1      30.313 -14.671   5.541  1.00  0.00     0.163 C 
HETATM   11  C14 UNL     1      31.294 -14.883   4.360  1.00  0.00     0.272 C 
HETATM   12  F1  UNL     1      32.304 -15.720   4.680  1.00  0.00    -0.203 F 
HETATM   13  F2  UNL     1      30.648 -15.238   3.176  1.00  0.00    -0.203 F 
ENDROOT
BRANCH   1  14
HETATM   14  O1  UNL     1      25.549 -15.462   5.106  1.00  0.00    -0.281 OA
HETATM   15  C1  UNL     1      24.429 -14.632   4.957  1.00  0.00     0.237 C 
ENDBRANCH   1  14
BRANCH   8  16
HETATM   16  C6  UNL     1      32.829 -12.920   3.949  1.00  0.00     0.000 C 
HETATM   17  C7  UNL     1      32.959 -11.454   3.724  1.00  0.00     0.005 C 
HETATM   18  C8  UNL     1      34.265 -11.041   3.078  1.00  0.00     0.000 C 
HETATM   19  C9  UNL     1      34.719 -11.911   1.961  1.00  0.00     0.000 C 
HETATM   20  C10 UNL     1      34.769 -13.324   2.482  1.00  0.00     0.000 C 
HETATM   21  C11 UNL     1      33.347 -13.732   2.750  1.00  0.00     0.005 C 
ENDBRANCH   8  16
TORSDOF 2
ENDMDL
MODEL 5
REMARK VINA RESULT: -8.112225555      2.144      3.065
REMARK  2 active torsions:
REMARK  status: ('A' for Active; 'I' for Inactive)
REMARK    1  A    between atoms: O1_2  and  N1_3 
REMARK       I    between atoms: N1_3  and  C2_5 
REMARK       I    between atoms: C2_5  and  N2_7 
REMARK    2  A    between atoms: C5_10  and  C6_11 
ROOT
HETATM    1  N1  UNL     1      28.163 -15.660   6.887  1.00  0.00    -0.217 N 
ATOM      2  H1  UNL     1      28.374 -14.791   7.376  1.00  0.00     0.199 HD
HETATM    3  C2  UNL     1      28.859 -15.973   5.699  1.00  0.00     0.342 C 
HETATM    4  O2  UNL     1      28.544 -17.078   5.134  1.00  0.00    -0.245 OA
HETATM    5  N2  UNL     1      29.849 -15.131   5.144  1.00  0.00    -0.322 N 
HETATM    6  C3  UNL     1      30.218 -13.907   5.798  1.00  0.00     0.129 C 
HETATM    7  C4  UNL     1      31.334 -13.186   5.128  1.00  0.00     0.036 C 
HETATM    8  C5  UNL     1      31.654 -13.759   3.740  1.00  0.00     0.035 C 
HETATM    9  C12 UNL     1      31.991 -15.196   3.960  1.00  0.00     0.047 C 
HETATM   10  C13 UNL     1      30.486 -15.479   3.919  1.00  0.00     0.163 C 
HETATM   11  C14 UNL     1      30.406 -14.190   3.061  1.00  0.00     0.272 C 
HETATM   12  F1  UNL     1      30.399 -14.459   1.738  1.00  0.00    -0.203 F 
HETATM   13  F2  UNL     1      29.369 -13.345   3.450  1.00  0.00    -0.203 F 
ENDROOT
BRANCH   1  14
HETATM   14  O1  UNL     1      27.240 -16.477   7.379  1.00  0.00    -0.281 OA
HETATM   15  C1  UNL     1      26.903 -16.071   8.678  1.00  0.00     0.237 C 
ENDBRANCH   1  14
BRANCH   8  16
HETATM   16  C6  UNL     1      32.576 -12.902   2.958  1.00  0.00     0.000 C 
HETATM   17  C7  UNL     1      33.830 -13.541   2.470  1.00  0.00     0.005 C 
HETATM   18  C8  UNL     1      34.831 -12.568   1.883  1.00  0.00     0.000 C 
HETATM   19  C9  UNL     1      35.002 -11.303   2.644  1.00  0.00     0.000 C 
HETATM   20  C10 UNL     1      33.637 -10.683   2.800  1.00  0.00     0.000 C 
HETATM   21  C11 UNL     1      32.856 -11.590   3.709  1.00  0.00     0.005 C 
ENDBRANCH   8  16
TORSDOF 2
ENDMDL
