MODEL 1
REMARK VINA RESULT: -5.354712769      0.000      0.000
REMARK  2 active torsions:
REMARK  status: ('A' for Active; 'I' for Inactive)
REMARK    1  A    between atoms: C2_2  and  O1_4 
REMARK    2  A    between atoms: O1_4  and  C4_5 
ROOT
HETATM    1  C4  UNL     1      33.148 -13.012   3.401  1.00  0.00     0.161 A 
HETATM    2  N1  UNL     1      33.646 -12.093   2.555  1.00  0.00    -0.330 N 
ATOM      3  H1  UNL     1      34.258 -12.285   1.763  1.00  0.00     0.168 HD
HETATM    4  C5  UNL     1      33.200 -10.869   2.930  1.00  0.00     0.083 A 
HETATM    5 BR1  UNL     1      33.607  -9.219   2.069  1.00  0.00    -0.031 Br
HETATM    6  C6  UNL     1      32.402 -11.031   4.041  1.00  0.00     0.061 A 
HETATM    7  C7  UNL     1      32.369 -12.368   4.335  1.00  0.00     0.064 A 
HETATM    8 BR2  UNL     1      31.418 -13.217   5.782  1.00  0.00    -0.046 Br
ENDROOT
BRANCH   1   9
HETATM    9  O1  UNL     1      33.372 -14.378   3.352  1.00  0.00    -0.330 OA
BRANCH   9  10
HETATM   10  C2  UNL     1      32.628 -15.278   2.599  1.00  0.00     0.122 C 
HETATM   11  C1  UNL     1      31.658 -14.596   1.650  1.00  0.00     0.040 C 
HETATM   12  C3  UNL     1      31.812 -16.149   3.558  1.00  0.00     0.040 C 
ENDBRANCH   9  10
ENDBRANCH   1   9
TORSDOF 2
ENDMDL
MODEL 2
REMARK VINA RESULT: -5.310710223      1.497      1.907
REMARK  2 active torsions:
REMARK  status: ('A' for Active; 'I' for Inactive)
REMARK    1  A    between atoms: C2_2  and  O1_4 
REMARK    2  A    between atoms: O1_4  and  C4_5 
ROOT
HETATM    1  C4  UNL     1      33.129 -13.824   3.005  1.00  0.00     0.161 A 
HETATM    2  N1  UNL     1      34.078 -13.579   2.084  1.00  0.00    -0.330 N 
ATOM      3  H1  UNL     1      34.472 -14.265   1.440  1.00  0.00     0.168 HD
HETATM    4  C5  UNL     1      34.426 -12.270   2.154  1.00  0.00     0.083 A 
HETATM    5 BR1  UNL     1      35.729 -11.400   1.070  1.00  0.00    -0.031 Br
HETATM    6  C6  UNL     1      33.672 -11.684   3.147  1.00  0.00     0.061 A 
HETATM    7  C7  UNL     1      32.863 -12.654   3.678  1.00  0.00     0.064 A 
HETATM    8 BR2  UNL     1      31.580 -12.444   5.103  1.00  0.00    -0.046 Br
ENDROOT
BRANCH   1   9
HETATM    9  O1  UNL     1      32.515 -15.042   3.245  1.00  0.00    -0.330 OA
BRANCH   9  10
HETATM   10  C2  UNL     1      31.208 -15.355   2.895  1.00  0.00     0.122 C 
HETATM   11  C1  UNL     1      30.813 -16.769   3.283  1.00  0.00     0.040 C 
HETATM   12  C3  UNL     1      31.074 -15.232   1.374  1.00  0.00     0.040 C 
ENDBRANCH   9  10
ENDBRANCH   1   9
TORSDOF 2
ENDMDL
MODEL 3
REMARK VINA RESULT: -5.224597015      2.269      4.768
REMARK  2 active torsions:
REMARK  status: ('A' for Active; 'I' for Inactive)
REMARK    1  A    between atoms: C2_2  and  O1_4 
REMARK    2  A    between atoms: O1_4  and  C4_5 
ROOT
HETATM    1  C4  UNL     1      33.036 -12.182   3.463  1.00  0.00     0.161 A 
HETATM    2  N1  UNL     1      32.263 -13.137   4.009  1.00  0.00    -0.330 N 
ATOM      3  H1  UNL     1      31.497 -12.979   4.664  1.00  0.00     0.168 HD
HETATM    4  C5  UNL     1      32.669 -14.345   3.545  1.00  0.00     0.083 A 
HETATM    5 BR1  UNL     1      31.910 -16.031   4.003  1.00  0.00    -0.031 Br
HETATM    6  C6  UNL     1      33.725 -14.135   2.687  1.00  0.00     0.061 A 
HETATM    7  C7  UNL     1      33.954 -12.785   2.635  1.00  0.00     0.064 A 
HETATM    8 BR2  UNL     1      35.305 -11.875   1.603  1.00  0.00    -0.046 Br
ENDROOT
BRANCH   1   9
HETATM    9  O1  UNL     1      32.936 -10.819   3.688  1.00  0.00    -0.330 OA
BRANCH   9  10
HETATM   10  C2  UNL     1      32.233  -9.931   2.882  1.00  0.00     0.122 C 
HETATM   11  C1  UNL     1      33.099  -8.803   2.348  1.00  0.00     0.040 C 
HETATM   12  C3  UNL     1      31.113  -9.306   3.719  1.00  0.00     0.040 C 
ENDBRANCH   9  10
ENDBRANCH   1   9
TORSDOF 2
ENDMDL
MODEL 4
REMARK VINA RESULT: -5.214141608      1.479      1.584
REMARK  2 active torsions:
REMARK  status: ('A' for Active; 'I' for Inactive)
REMARK    1  A    between atoms: C2_2  and  O1_4 
REMARK    2  A    between atoms: O1_4  and  C4_5 
ROOT
HETATM    1  C4  UNL     1      33.197 -13.987   3.107  1.00  0.00     0.161 A 
HETATM    2  N1  UNL     1      34.131 -13.708   2.181  1.00  0.00    -0.330 N 
ATOM      3  H1  UNL     1      34.573 -14.386   1.559  1.00  0.00     0.168 HD
HETATM    4  C5  UNL     1      34.389 -12.377   2.208  1.00  0.00     0.083 A 
HETATM    5 BR1  UNL     1      35.633 -11.456   1.097  1.00  0.00    -0.031 Br
HETATM    6  C6  UNL     1      33.593 -11.812   3.180  1.00  0.00     0.061 A 
HETATM    7  C7  UNL     1      32.849 -12.816   3.740  1.00  0.00     0.064 A 
HETATM    8 BR2  UNL     1      31.550 -12.648   5.155  1.00  0.00    -0.046 Br
ENDROOT
BRANCH   1   9
HETATM    9  O1  UNL     1      32.667 -15.236   3.386  1.00  0.00    -0.330 OA
BRANCH   9  10
HETATM   10  C2  UNL     1      31.589 -15.807   2.721  1.00  0.00     0.122 C 
HETATM   11  C1  UNL     1      31.096 -14.963   1.559  1.00  0.00     0.040 C 
HETATM   12  C3  UNL     1      30.434 -15.957   3.715  1.00  0.00     0.040 C 
ENDBRANCH   9  10
ENDBRANCH   1   9
TORSDOF 2
ENDMDL
MODEL 5
REMARK VINA RESULT: -5.213243835      2.156      2.690
REMARK  2 active torsions:
REMARK  status: ('A' for Active; 'I' for Inactive)
REMARK    1  A    between atoms: C2_2  and  O1_4 
REMARK    2  A    between atoms: O1_4  and  C4_5 
ROOT
HETATM    1  C4  UNL     1      32.923 -11.971   3.336  1.00  0.00     0.161 A 
HETATM    2  N1  UNL     1      31.939 -11.191   3.817  1.00  0.00    -0.330 N 
ATOM      3  H1  UNL     1      31.176 -11.499   4.418  1.00  0.00     0.168 HD
HETATM    4  C5  UNL     1      32.130  -9.924   3.371  1.00  0.00     0.083 A 
HETATM    5 BR1  UNL     1      31.022  -8.423   3.757  1.00  0.00    -0.031 Br
HETATM    6  C6  UNL     1      33.265  -9.917   2.589  1.00  0.00     0.061 A 
HETATM    7  C7  UNL     1      33.759 -11.194   2.568  1.00  0.00     0.064 A 
HETATM    8 BR2  UNL     1      35.333 -11.815   1.642  1.00  0.00    -0.046 Br
ENDROOT
BRANCH   1   9
HETATM    9  O1  UNL     1      33.080 -13.328   3.567  1.00  0.00    -0.330 OA
BRANCH   9  10
HETATM   10  C2  UNL     1      32.116 -14.294   3.304  1.00  0.00     0.122 C 
HETATM   11  C1  UNL     1      32.486 -15.663   3.849  1.00  0.00     0.040 C 
HETATM   12  C3  UNL     1      31.963 -14.420   1.786  1.00  0.00     0.040 C 
ENDBRANCH   9  10
ENDBRANCH   1   9
TORSDOF 2
ENDMDL
