MODEL 1
REMARK VINA RESULT: -6.463932565      0.000      0.000
REMARK  3 active torsions:
REMARK  status: ('A' for Active; 'I' for Inactive)
REMARK       I    between atoms: N1_2  and  C2_3 
REMARK    1  A    between atoms: N1_2  and  C7_13 
REMARK    2  A    between atoms: C2_3  and  C3_5 
REMARK    3  A    between atoms: C5_7  and  N2_8 
ROOT
HETATM    1  C1  UNL     1      28.851 -12.006   5.387  1.00  0.00     0.153 C 
HETATM    2  N1  UNL     1      29.408 -13.334   5.714  1.00  0.00    -0.346 N 
HETATM    3  C2  UNL     1      28.658 -14.072   6.634  1.00  0.00     0.224 C 
HETATM    4  O1  UNL     1      29.030 -15.221   6.967  1.00  0.00    -0.273 OA
ENDROOT
BRANCH   2   5
HETATM    5  C7  UNL     1      30.640 -13.694   5.069  1.00  0.00     0.159 C 
HETATM    6  C8  UNL     1      31.616 -12.598   5.191  1.00  0.00     0.031 C 
HETATM    7  C9  UNL     1      32.671 -12.484   4.150  1.00  0.00     0.003 C 
HETATM    8  C10 UNL     1      32.347 -13.061   2.824  1.00  0.00     0.015 C 
HETATM    9  C11 UNL     1      31.772 -14.438   2.965  1.00  0.00     0.020 C 
HETATM   10  C12 UNL     1      31.421 -14.918   1.551  1.00  0.00     0.021 C 
HETATM   11  C13 UNL     1      32.691 -15.437   3.572  1.00  0.00     0.021 C 
HETATM   12  C14 UNL     1      30.465 -14.289   3.700  1.00  0.00     0.270 C 
HETATM   13  F1  UNL     1      29.605 -13.647   2.870  1.00  0.00    -0.203 F 
HETATM   14  F2  UNL     1      29.975 -15.602   3.817  1.00  0.00    -0.203 F 
ENDBRANCH   2   5
BRANCH   3  15
HETATM   15  C3  UNL     1      27.412 -13.571   7.263  1.00  0.00     0.082 C 
HETATM   16  C4  UNL     1      27.131 -14.201   8.608  1.00  0.00     0.046 C 
HETATM   17  C5  UNL     1      25.651 -14.219   8.203  1.00  0.00     0.185 C 
HETATM   18  C6  UNL     1      26.143 -14.231   6.764  1.00  0.00     0.046 C 
BRANCH  17  19
HETATM   19  N2  UNL     1      24.946 -15.405   8.600  1.00  0.00    -0.075 N 
ATOM     20  H23 UNL     1      25.247 -16.203   8.040  1.00  0.00     0.274 HD
ATOM     21  H22 UNL     1      25.257 -15.713   9.521  1.00  0.00     0.274 HD
ATOM     22  H21 UNL     1      23.930 -15.316   8.578  1.00  0.00     0.274 HD
ENDBRANCH  17  19
ENDBRANCH   3  15
TORSDOF 3
ENDMDL
MODEL 2
REMARK VINA RESULT: -6.418873613      2.578      6.318
REMARK  3 active torsions:
REMARK  status: ('A' for Active; 'I' for Inactive)
REMARK       I    between atoms: N1_2  and  C2_3 
REMARK    1  A    between atoms: N1_2  and  C7_13 
REMARK    2  A    between atoms: C2_3  and  C3_5 
REMARK    3  A    between atoms: C5_7  and  N2_8 
ROOT
HETATM    1  C1  UNL     1      31.439 -12.275   5.648  1.00  0.00     0.153 C 
HETATM    2  N1  UNL     1      30.789 -13.064   4.581  1.00  0.00    -0.346 N 
HETATM    3  C2  UNL     1      31.656 -13.530   3.588  1.00  0.00     0.224 C 
HETATM    4  O1  UNL     1      31.212 -14.226   2.646  1.00  0.00    -0.273 OA
ENDROOT
BRANCH   2   5
HETATM    5  C7  UNL     1      29.367 -13.239   4.684  1.00  0.00     0.159 C 
HETATM    6  C8  UNL     1      28.720 -11.957   5.010  1.00  0.00     0.031 C 
HETATM    7  C9  UNL     1      27.419 -11.996   5.728  1.00  0.00     0.003 C 
HETATM    8  C10 UNL     1      27.160 -13.202   6.549  1.00  0.00     0.015 C 
HETATM    9  C11 UNL     1      27.473 -14.450   5.781  1.00  0.00     0.020 C 
HETATM   10  C12 UNL     1      27.228 -15.628   6.732  1.00  0.00     0.021 C 
HETATM   11  C13 UNL     1      26.638 -14.660   4.569  1.00  0.00     0.021 C 
HETATM   12  C14 UNL     1      28.954 -14.429   5.503  1.00  0.00     0.270 C 
HETATM   13  F1  UNL     1      29.590 -14.595   6.690  1.00  0.00    -0.203 F 
HETATM   14  F2  UNL     1      29.192 -15.608   4.773  1.00  0.00    -0.203 F 
ENDBRANCH   2   5
BRANCH   3  15
HETATM   15  C3  UNL     1      33.111 -13.248   3.575  1.00  0.00     0.082 C 
HETATM   16  C4  UNL     1      33.489 -12.121   2.642  1.00  0.00     0.046 C 
HETATM   17  C5  UNL     1      34.731 -12.944   2.275  1.00  0.00     0.185 C 
HETATM   18  C6  UNL     1      33.925 -14.166   2.686  1.00  0.00     0.046 C 
BRANCH  17  19
HETATM   19  N2  UNL     1      35.076 -12.900   0.882  1.00  0.00    -0.075 N 
ATOM     20  H23 UNL     1      34.934 -11.962   0.508  1.00  0.00     0.274 HD
ATOM     21  H22 UNL     1      36.085 -12.983   0.762  1.00  0.00     0.274 HD
ATOM     22  H21 UNL     1      34.590 -13.591   0.309  1.00  0.00     0.274 HD
ENDBRANCH  17  19
ENDBRANCH   3  15
TORSDOF 3
ENDMDL
MODEL 3
REMARK VINA RESULT: -6.362027533      2.873      4.204
REMARK  3 active torsions:
REMARK  status: ('A' for Active; 'I' for Inactive)
REMARK       I    between atoms: N1_2  and  C2_3 
REMARK    1  A    between atoms: N1_2  and  C7_13 
REMARK    2  A    between atoms: C2_3  and  C3_5 
REMARK    3  A    between atoms: C5_7  and  N2_8 
ROOT
HETATM    1  C1  UNL     1      29.404 -13.168   6.174  1.00  0.00     0.153 C 
HETATM    2  N1  UNL     1      29.563 -12.683   4.788  1.00  0.00    -0.346 N 
HETATM    3  C2  UNL     1      29.114 -11.377   4.571  1.00  0.00     0.224 C 
HETATM    4  O1  UNL     1      29.219 -10.860   3.435  1.00  0.00    -0.273 OA
ENDROOT
BRANCH   2   5
HETATM    5  C7  UNL     1      30.136 -13.602   3.844  1.00  0.00     0.159 C 
HETATM    6  C8  UNL     1      29.640 -14.966   4.098  1.00  0.00     0.031 C 
HETATM    7  C9  UNL     1      30.497 -16.107   3.685  1.00  0.00     0.003 C 
HETATM    8  C10 UNL     1      31.952 -15.838   3.602  1.00  0.00     0.015 C 
HETATM    9  C11 UNL     1      32.219 -14.569   2.852  1.00  0.00     0.020 C 
HETATM   10  C12 UNL     1      33.738 -14.354   2.872  1.00  0.00     0.021 C 
HETATM   11  C13 UNL     1      31.780 -14.582   1.431  1.00  0.00     0.021 C 
HETATM   12  C14 UNL     1      31.620 -13.450   3.664  1.00  0.00     0.270 C 
HETATM   13  F1  UNL     1      32.357 -13.333   4.797  1.00  0.00    -0.203 F 
HETATM   14  F2  UNL     1      31.886 -12.290   2.914  1.00  0.00    -0.203 F 
ENDBRANCH   2   5
BRANCH   3  15
HETATM   15  C3  UNL     1      28.502 -10.537   5.627  1.00  0.00     0.082 C 
HETATM   16  C4  UNL     1      27.371  -9.673   5.118  1.00  0.00     0.046 C 
HETATM   17  C5  UNL     1      27.901  -8.568   6.042  1.00  0.00     0.185 C 
HETATM   18  C6  UNL     1      29.253  -9.257   5.931  1.00  0.00     0.046 C 
BRANCH  17  19
HETATM   19  N2  UNL     1      27.857  -7.252   5.473  1.00  0.00    -0.075 N 
ATOM     20  H23 UNL     1      27.356  -7.264   4.584  1.00  0.00     0.274 HD
ATOM     21  H22 UNL     1      27.235  -6.650   6.013  1.00  0.00     0.274 HD
ATOM     22  H21 UNL     1      28.771  -6.812   5.362  1.00  0.00     0.274 HD
ENDBRANCH  17  19
ENDBRANCH   3  15
TORSDOF 3
ENDMDL
MODEL 4
REMARK VINA RESULT: -6.254541222      2.766      6.451
REMARK  3 active torsions:
REMARK  status: ('A' for Active; 'I' for Inactive)
REMARK       I    between atoms: N1_2  and  C2_3 
REMARK    1  A    between atoms: N1_2  and  C7_13 
REMARK    2  A    between atoms: C2_3  and  C3_5 
REMARK    3  A    between atoms: C5_7  and  N2_8 
ROOT
HETATM    1  C1  UNL     1      30.846 -15.223   2.181  1.00  0.00     0.153 C 
HETATM    2  N1  UNL     1      31.027 -14.659   3.534  1.00  0.00    -0.346 N 
HETATM    3  C2  UNL     1      32.044 -13.706   3.638  1.00  0.00     0.224 C 
HETATM    4  O1  UNL     1      32.270 -13.150   4.738  1.00  0.00    -0.273 OA
ENDROOT
BRANCH   2   5
HETATM    5  C7  UNL     1      30.161 -15.163   4.563  1.00  0.00     0.159 C 
HETATM    6  C8  UNL     1      29.902 -16.597   4.354  1.00  0.00     0.031 C 
HETATM    7  C9  UNL     1      28.635 -17.162   4.886  1.00  0.00     0.003 C 
HETATM    8  C10 UNL     1      27.512 -16.210   5.051  1.00  0.00     0.015 C 
HETATM    9  C11 UNL     1      27.966 -14.963   5.747  1.00  0.00     0.020 C 
HETATM   10  C12 UNL     1      26.752 -14.028   5.817  1.00  0.00     0.021 C 
HETATM   11  C13 UNL     1      28.463 -15.169   7.133  1.00  0.00     0.021 C 
HETATM   12  C14 UNL     1      28.964 -14.296   4.835  1.00  0.00     0.270 C 
HETATM   13  F1  UNL     1      28.284 -13.849   3.750  1.00  0.00    -0.203 F 
HETATM   14  F2  UNL     1      29.366 -13.145   5.535  1.00  0.00    -0.203 F 
ENDBRANCH   2   5
BRANCH   3  15
HETATM   15  C3  UNL     1      32.900 -13.295   2.500  1.00  0.00     0.082 C 
HETATM   16  C4  UNL     1      34.341 -13.724   2.656  1.00  0.00     0.046 C 
HETATM   17  C5  UNL     1      34.729 -12.369   2.049  1.00  0.00     0.185 C 
HETATM   18  C6  UNL     1      33.390 -11.863   2.563  1.00  0.00     0.046 C 
BRANCH  17  19
HETATM   19  N2  UNL     1      35.872 -11.754   2.662  1.00  0.00    -0.075 N 
ATOM     20  H23 UNL     1      36.419 -11.245   1.968  1.00  0.00     0.274 HD
ATOM     21  H22 UNL     1      35.583 -10.978   3.257  1.00  0.00     0.274 HD
ATOM     22  H21 UNL     1      36.467 -12.400   3.182  1.00  0.00     0.274 HD
ENDBRANCH  17  19
ENDBRANCH   3  15
TORSDOF 3
ENDMDL
MODEL 5
REMARK VINA RESULT: -6.145107004      3.496      6.374
REMARK  3 active torsions:
REMARK  status: ('A' for Active; 'I' for Inactive)
REMARK       I    between atoms: N1_2  and  C2_3 
REMARK    1  A    between atoms: N1_2  and  C7_13 
REMARK    2  A    between atoms: C2_3  and  C3_5 
REMARK    3  A    between atoms: C5_7  and  N2_8 
ROOT
HETATM    1  C1  UNL     1      31.364 -12.084   5.115  1.00  0.00     0.153 C 
HETATM    2  N1  UNL     1      31.677 -12.928   3.944  1.00  0.00    -0.346 N 
HETATM    3  C2  UNL     1      32.675 -12.420   3.108  1.00  0.00     0.224 C 
HETATM    4  O1  UNL     1      33.033 -13.066   2.096  1.00  0.00    -0.273 OA
ENDROOT
BRANCH   2   5
HETATM    5  C7  UNL     1      30.919 -14.139   3.801  1.00  0.00     0.159 C 
HETATM    6  C8  UNL     1      29.566 -13.961   4.355  1.00  0.00     0.031 C 
HETATM    7  C9  UNL     1      28.851 -15.165   4.852  1.00  0.00     0.003 C 
HETATM    8  C10 UNL     1      29.702 -16.297   5.290  1.00  0.00     0.015 C 
HETATM    9  C11 UNL     1      30.765 -16.591   4.277  1.00  0.00     0.020 C 
HETATM   10  C12 UNL     1      31.618 -17.731   4.847  1.00  0.00     0.021 C 
HETATM   11  C13 UNL     1      30.256 -17.023   2.948  1.00  0.00     0.021 C 
HETATM   12  C14 UNL     1      31.658 -15.379   4.220  1.00  0.00     0.270 C 
HETATM   13  F1  UNL     1      32.326 -15.312   5.400  1.00  0.00    -0.203 F 
HETATM   14  F2  UNL     1      32.626 -15.699   3.251  1.00  0.00    -0.203 F 
ENDBRANCH   2   5
BRANCH   3  15
HETATM   15  C3  UNL     1      33.362 -11.128   3.345  1.00  0.00     0.082 C 
HETATM   16  C4  UNL     1      32.800  -9.996   2.517  1.00  0.00     0.046 C 
HETATM   17  C5  UNL     1      34.245  -9.509   2.343  1.00  0.00     0.185 C 
HETATM   18  C6  UNL     1      34.659 -10.953   2.583  1.00  0.00     0.046 C 
BRANCH  17  19
HETATM   19  N2  UNL     1      34.546  -9.014   1.030  1.00  0.00    -0.075 N 
ATOM     20  H23 UNL     1      35.289  -9.567   0.602  1.00  0.00     0.274 HD
ATOM     21  H22 UNL     1      33.783  -9.224   0.386  1.00  0.00     0.274 HD
ATOM     22  H21 UNL     1      34.777  -8.021   0.998  1.00  0.00     0.274 HD
ENDBRANCH  17  19
ENDBRANCH   3  15
TORSDOF 3
ENDMDL
