MODEL 1
REMARK VINA RESULT: -8.051528195      0.000      0.000
REMARK  3 active torsions:
REMARK  status: ('A' for Active; 'I' for Inactive)
REMARK       I    between atoms: N1_2  and  C2_3 
REMARK    1  A    between atoms: N1_2  and  C3_6 
REMARK    2  A    between atoms: C8_11  and  N3_12 
REMARK    3  A    between atoms: C13_17  and  C14_18 
ROOT
HETATM    1  C3  UNL     1      13.511 -15.149  23.276  1.00  0.00     0.134 C 
HETATM    2  C4  UNL     1      14.058 -16.523  23.421  1.00  0.00     0.031 C 
HETATM    3  C5  UNL     1      14.863 -16.872  24.607  1.00  0.00     0.003 C 
HETATM    4  C6  UNL     1      14.586 -16.146  25.865  1.00  0.00     0.006 C 
HETATM    5  C7  UNL     1      13.459 -15.136  25.721  1.00  0.00     0.055 C 
HETATM    6  C8  UNL     1      13.743 -14.334  24.485  1.00  0.00     0.012 C 
ENDROOT
BRANCH   6   7
HETATM    7  N3  UNL     1      13.380 -12.978  24.542  1.00  0.00    -0.351 N 
HETATM    8  C9  UNL     1      12.271 -12.352  23.806  1.00  0.00     0.129 C 
HETATM    9  C10 UNL     1      12.925 -11.270  22.921  1.00  0.00     0.024 C 
HETATM   10  C11 UNL     1      13.531 -10.225  23.776  1.00  0.00     0.031 C 
HETATM   11  C12 UNL     1      14.165 -10.762  25.000  1.00  0.00     0.004 C 
HETATM   12  C13 UNL     1      14.086 -12.066  25.354  1.00  0.00     0.072 C 
BRANCH  12  13
HETATM   13  C14 UNL     1      14.709 -12.443  26.589  1.00  0.00     0.402 C 
HETATM   14  F1  UNL     1      15.771 -11.576  26.893  1.00  0.00    -0.208 F 
HETATM   15  F2  UNL     1      13.776 -12.088  27.609  1.00  0.00    -0.208 F 
ENDBRANCH  12  13
ENDBRANCH   6   7
BRANCH   1  16
HETATM   16  N1  UNL     1      13.924 -14.586  22.012  1.00  0.00    -0.331 N 
HETATM   17  C1  UNL     1      15.263 -14.035  21.897  1.00  0.00     0.155 C 
HETATM   18  C2  UNL     1      13.114 -14.545  20.866  1.00  0.00     0.331 C 
HETATM   19  N2  UNL     1      11.779 -14.991  20.755  1.00  0.00    -0.040 NA
HETATM   20  O1  UNL     1      13.624 -14.046  19.792  1.00  0.00    -0.251 OA
ENDBRANCH   1  16
TORSDOF 3
ENDMDL
MODEL 2
REMARK VINA RESULT: -7.528596302      1.823      2.517
REMARK  3 active torsions:
REMARK  status: ('A' for Active; 'I' for Inactive)
REMARK       I    between atoms: N1_2  and  C2_3 
REMARK    1  A    between atoms: N1_2  and  C3_6 
REMARK    2  A    between atoms: C8_11  and  N3_12 
REMARK    3  A    between atoms: C13_17  and  C14_18 
ROOT
HETATM    1  C3  UNL     1      13.001 -13.635  23.141  1.00  0.00     0.134 C 
HETATM    2  C4  UNL     1      13.372 -14.748  24.055  1.00  0.00     0.031 C 
HETATM    3  C5  UNL     1      14.029 -14.452  25.342  1.00  0.00     0.003 C 
HETATM    4  C6  UNL     1      13.734 -13.153  25.983  1.00  0.00     0.006 C 
HETATM    5  C7  UNL     1      12.747 -12.318  25.185  1.00  0.00     0.055 C 
HETATM    6  C8  UNL     1      13.224 -12.314  23.763  1.00  0.00     0.012 C 
ENDROOT
BRANCH   6   7
HETATM    7  N3  UNL     1      13.016 -11.120  23.053  1.00  0.00    -0.351 N 
HETATM    8  C9  UNL     1      11.880 -10.833  22.164  1.00  0.00     0.129 C 
HETATM    9  C10 UNL     1      12.503 -10.562  20.778  1.00  0.00     0.024 C 
HETATM   10  C11 UNL     1      13.335  -9.339  20.836  1.00  0.00     0.031 C 
HETATM   11  C12 UNL     1      14.086  -9.200  22.102  1.00  0.00     0.004 C 
HETATM   12  C13 UNL     1      13.927 -10.048  23.145  1.00  0.00     0.072 C 
BRANCH  12  13
HETATM   13  C14 UNL     1      14.686  -9.770  24.330  1.00  0.00     0.402 C 
HETATM   14  F1  UNL     1      15.557  -8.690  24.117  1.00  0.00    -0.208 F 
HETATM   15  F2  UNL     1      13.760  -9.189  25.247  1.00  0.00    -0.208 F 
ENDBRANCH  12  13
ENDBRANCH   6   7
BRANCH   1  16
HETATM   16  N1  UNL     1      13.579 -13.857  21.837  1.00  0.00    -0.331 N 
HETATM   17  C1  UNL     1      15.022 -13.770  21.689  1.00  0.00     0.155 C 
HETATM   18  C2  UNL     1      12.836 -14.167  20.687  1.00  0.00     0.331 C 
HETATM   19  N2  UNL     1      11.430 -14.274  20.590  1.00  0.00    -0.040 NA
HETATM   20  O1  UNL     1      13.485 -14.377  19.594  1.00  0.00    -0.251 OA
ENDBRANCH   1  16
TORSDOF 3
ENDMDL
MODEL 3
REMARK VINA RESULT: -7.427331045      2.761      4.084
REMARK  3 active torsions:
REMARK  status: ('A' for Active; 'I' for Inactive)
REMARK       I    between atoms: N1_2  and  C2_3 
REMARK    1  A    between atoms: N1_2  and  C3_6 
REMARK    2  A    between atoms: C8_11  and  N3_12 
REMARK    3  A    between atoms: C13_17  and  C14_18 
ROOT
HETATM    1  C3  UNL     1      13.199 -13.581  24.060  1.00  0.00     0.134 C 
HETATM    2  C4  UNL     1      13.776 -13.596  25.429  1.00  0.00     0.031 C 
HETATM    3  C5  UNL     1      14.404 -12.377  25.974  1.00  0.00     0.003 C 
HETATM    4  C6  UNL     1      13.908 -11.071  25.490  1.00  0.00     0.006 C 
HETATM    5  C7  UNL     1      12.773 -11.212  24.488  1.00  0.00     0.055 C 
HETATM    6  C8  UNL     1      13.209 -12.226  23.472  1.00  0.00     0.012 C 
ENDROOT
BRANCH   6   7
HETATM    7  N3  UNL     1      12.784 -11.990  22.154  1.00  0.00    -0.351 N 
HETATM    8  C9  UNL     1      11.487 -12.387  21.583  1.00  0.00     0.129 C 
HETATM    9  C10 UNL     1      11.828 -13.331  20.410  1.00  0.00     0.024 C 
HETATM   10  C11 UNL     1      12.558 -12.581  19.363  1.00  0.00     0.031 C 
HETATM   11  C12 UNL     1      13.511 -11.589  19.908  1.00  0.00     0.004 C 
HETATM   12  C13 UNL     1      13.608 -11.317  21.231  1.00  0.00     0.072 C 
BRANCH  12  13
HETATM   13  C14 UNL     1      14.543 -10.300  21.617  1.00  0.00     0.402 C 
HETATM   14  F1  UNL     1      15.119  -9.701  20.485  1.00  0.00    -0.208 F 
HETATM   15  F2  UNL     1      13.750  -9.223  22.114  1.00  0.00    -0.208 F 
ENDBRANCH  12  13
ENDBRANCH   6   7
BRANCH   1  16
HETATM   16  N1  UNL     1      13.775 -14.646  23.272  1.00  0.00    -0.331 N 
HETATM   17  C1  UNL     1      14.928 -14.353  22.439  1.00  0.00     0.155 C 
HETATM   18  C2  UNL     1      13.300 -15.967  23.265  1.00  0.00     0.331 C 
HETATM   19  N2  UNL     1      12.183 -16.470  23.969  1.00  0.00    -0.040 NA
HETATM   20  O1  UNL     1      13.933 -16.826  22.542  1.00  0.00    -0.251 OA
ENDBRANCH   1  16
TORSDOF 3
ENDMDL
MODEL 4
REMARK VINA RESULT: -7.319665315      0.640      1.289
REMARK  3 active torsions:
REMARK  status: ('A' for Active; 'I' for Inactive)
REMARK       I    between atoms: N1_2  and  C2_3 
REMARK    1  A    between atoms: N1_2  and  C3_6 
REMARK    2  A    between atoms: C8_11  and  N3_12 
REMARK    3  A    between atoms: C13_17  and  C14_18 
ROOT
HETATM    1  C3  UNL     1      13.106 -15.118  23.199  1.00  0.00     0.134 C 
HETATM    2  C4  UNL     1      13.623 -16.511  23.229  1.00  0.00     0.031 C 
HETATM    3  C5  UNL     1      14.639 -16.895  24.227  1.00  0.00     0.003 C 
HETATM    4  C6  UNL     1      14.649 -16.170  25.515  1.00  0.00     0.006 C 
HETATM    5  C7  UNL     1      13.551 -15.121  25.603  1.00  0.00     0.055 C 
HETATM    6  C8  UNL     1      13.607 -14.320  24.336  1.00  0.00     0.012 C 
ENDROOT
BRANCH   6   7
HETATM    7  N3  UNL     1      13.311 -12.953  24.466  1.00  0.00    -0.351 N 
HETATM    8  C9  UNL     1      12.239 -12.233  23.759  1.00  0.00     0.129 C 
HETATM    9  C10 UNL     1      12.955 -11.138  22.938  1.00  0.00     0.024 C 
HETATM   10  C11 UNL     1      13.603 -10.173  23.854  1.00  0.00     0.031 C 
HETATM   11  C12 UNL     1      14.199 -10.807  25.050  1.00  0.00     0.004 C 
HETATM   12  C13 UNL     1      14.053 -12.124  25.331  1.00  0.00     0.072 C 
BRANCH  12  13
HETATM   13  C14 UNL     1      14.645 -12.598  26.547  1.00  0.00     0.402 C 
HETATM   14  F1  UNL     1      15.762 -11.819  26.891  1.00  0.00    -0.208 F 
HETATM   15  F2  UNL     1      13.735 -12.229  27.583  1.00  0.00    -0.208 F 
ENDBRANCH  12  13
ENDBRANCH   6   7
BRANCH   1  16
HETATM   16  N1  UNL     1      13.272 -14.561  21.877  1.00  0.00    -0.331 N 
HETATM   17  C1  UNL     1      12.089 -14.307  21.072  1.00  0.00     0.155 C 
HETATM   18  C2  UNL     1      14.514 -14.230  21.312  1.00  0.00     0.331 C 
HETATM   19  N2  UNL     1      15.787 -14.416  21.895  1.00  0.00    -0.040 NA
HETATM   20  O1  UNL     1      14.513 -13.704  20.135  1.00  0.00    -0.251 OA
ENDBRANCH   1  16
TORSDOF 3
ENDMDL
MODEL 5
REMARK VINA RESULT: -7.242847753      1.391      1.784
REMARK  3 active torsions:
REMARK  status: ('A' for Active; 'I' for Inactive)
REMARK       I    between atoms: N1_2  and  C2_3 
REMARK    1  A    between atoms: N1_2  and  C3_6 
REMARK    2  A    between atoms: C8_11  and  N3_12 
REMARK    3  A    between atoms: C13_17  and  C14_18 
ROOT
HETATM    1  C3  UNL     1      13.109 -13.530  23.536  1.00  0.00     0.134 C 
HETATM    2  C4  UNL     1      13.215 -14.957  23.938  1.00  0.00     0.031 C 
HETATM    3  C5  UNL     1      13.906 -15.316  25.191  1.00  0.00     0.003 C 
HETATM    4  C6  UNL     1      13.894 -14.329  26.292  1.00  0.00     0.006 C 
HETATM    5  C7  UNL     1      13.124 -13.067  25.937  1.00  0.00     0.055 C 
HETATM    6  C8  UNL     1      13.608 -12.622  24.588  1.00  0.00     0.012 C 
ENDROOT
BRANCH   6   7
HETATM    7  N3  UNL     1      13.676 -11.232  24.394  1.00  0.00    -0.351 N 
HETATM    8  C9  UNL     1      12.972 -10.474  23.348  1.00  0.00     0.129 C 
HETATM    9  C10 UNL     1      14.082  -9.797  22.515  1.00  0.00     0.024 C 
HETATM   10  C11 UNL     1      14.807  -8.818  23.355  1.00  0.00     0.031 C 
HETATM   11  C12 UNL     1      15.004  -9.272  24.750  1.00  0.00     0.004 C 
HETATM   12  C13 UNL     1      14.462 -10.415  25.231  1.00  0.00     0.072 C 
BRANCH  12  13
HETATM   13  C14 UNL     1      14.695 -10.712  26.614  1.00  0.00     0.402 C 
HETATM   14  F1  UNL     1      15.929 -11.363  26.780  1.00  0.00    -0.208 F 
HETATM   15  F2  UNL     1      14.972  -9.456  27.231  1.00  0.00    -0.208 F 
ENDBRANCH  12  13
ENDBRANCH   6   7
BRANCH   1  16
HETATM   16  N1  UNL     1      13.641 -13.353  22.205  1.00  0.00    -0.331 N 
HETATM   17  C1  UNL     1      15.074 -13.479  22.004  1.00  0.00     0.155 C 
HETATM   18  C2  UNL     1      12.858 -13.076  21.074  1.00  0.00     0.331 C 
HETATM   19  N2  UNL     1      11.459 -12.883  21.037  1.00  0.00    -0.040 NA
HETATM   20  O1  UNL     1      13.462 -12.978  19.939  1.00  0.00    -0.251 OA
ENDBRANCH   1  16
TORSDOF 3
ENDMDL
