MODEL 1
REMARK VINA RESULT: -8.747006848      0.000      0.000
REMARK  11 active torsions:
REMARK  status: ('A' for Active; 'I' for Inactive)
REMARK    1  A    between atoms: C2_2  and  O1_3 
REMARK    2  A    between atoms: O1_3  and  C3_4 
REMARK    3  A    between atoms: C3_4  and  C4_6 
REMARK    4  A    between atoms: C4_6  and  C5_7 
REMARK    5  A    between atoms: C5_7  and  O3_8 
REMARK    6  A    between atoms: C5_7  and  C17_25 
REMARK    7  A    between atoms: O3_8  and  C6_9 
REMARK    8  A    between atoms: C11_16  and  C12_17 
REMARK    9  A    between atoms: C12_17  and  O7_19 
REMARK   10  A    between atoms: C22_32  and  C23_33 
REMARK   11  A    between atoms: C24_34  and  N1_35 
ROOT
HETATM    1  C5  UNL     1      -3.308 -14.583  16.150  1.00  0.00     0.075 C 
ENDROOT
BRANCH   1   2
HETATM    2  C4  UNL     1      -3.639 -13.390  15.317  1.00  0.00     0.177 C 
BRANCH   2   3
HETATM    3  C3  UNL     1      -4.909 -12.688  15.562  1.00  0.00     0.264 C 
HETATM    4  O2  UNL     1      -5.369 -11.769  14.887  1.00  0.00    -0.265 OA
BRANCH   3   5
HETATM    5  O1  UNL     1      -5.665 -13.091  16.668  1.00  0.00    -0.322 OA
BRANCH   5   6
HETATM    6  C2  UNL     1      -6.821 -13.793  16.814  1.00  0.00     0.174 C 
HETATM    7  C1  UNL     1      -7.714 -13.425  17.978  1.00  0.00     0.034 C 
ENDBRANCH   5   6
ENDBRANCH   3   5
ENDBRANCH   2   3
ENDBRANCH   1   2
BRANCH   1   8
HETATM    8  O3  UNL     1      -3.558 -15.813  15.717  1.00  0.00    -0.312 OA
BRANCH   8   9
HETATM    9  C6  UNL     1      -3.874 -16.441  14.563  1.00  0.00     0.100 A 
HETATM   10  C7  UNL     1      -5.182 -16.332  14.117  1.00  0.00     0.077 A 
HETATM   11  C8  UNL     1      -5.652 -16.909  12.973  1.00  0.00     0.093 A 
HETATM   12  O4  UNL     1      -6.920 -16.762  12.612  1.00  0.00    -0.275 OA
HETATM   13  C14 UNL     1      -4.835 -17.656  12.170  1.00  0.00     0.016 A 
HETATM   14  C9  UNL     1      -7.393 -17.308  11.521  1.00  0.00     0.289 A 
HETATM   15  O5  UNL     1      -8.632 -17.126  11.232  1.00  0.00    -0.260 OA
HETATM   16  C10 UNL     1      -6.652 -18.063  10.667  1.00  0.00     0.101 A 
HETATM   17  C11 UNL     1      -5.292 -18.248  11.015  1.00  0.00     0.058 A 
HETATM   18  C15 UNL     1      -3.525 -17.782  12.587  1.00  0.00     0.042 A 
HETATM   19  C16 UNL     1      -3.047 -17.181  13.770  1.00  0.00     0.069 A 
HETATM   20 CL1  UNL     1      -1.325 -17.424  14.083  1.00  0.00    -0.081 Cl
BRANCH  17  21
HETATM   21  C12 UNL     1      -4.499 -19.091  10.154  1.00  0.00     0.294 C 
HETATM   22  O6  UNL     1      -3.642 -18.746   9.340  1.00  0.00    -0.259 OA
BRANCH  21  23
HETATM   23  O7  UNL     1      -4.707 -20.484  10.217  1.00  0.00    -0.322 OA
HETATM   24  C13 UNL     1      -5.477 -21.172   9.280  1.00  0.00     0.213 C 
ENDBRANCH  21  23
ENDBRANCH  17  21
ENDBRANCH   8   9
ENDBRANCH   1   8
BRANCH   1  25
HETATM   25  C17 UNL     1      -1.947 -14.323  16.778  1.00  0.00     0.019 A 
HETATM   26  C18 UNL     1      -0.787 -14.439  16.006  1.00  0.00     0.058 A 
HETATM   27  C19 UNL     1       0.444 -14.027  16.486  1.00  0.00     0.120 A 
HETATM   28  F1  UNL     1       1.589 -14.119  15.757  1.00  0.00    -0.206 F 
HETATM   29  C20 UNL     1       0.525 -13.491  17.748  1.00  0.00     0.086 A 
HETATM   30  C21 UNL     1      -0.635 -13.387  18.506  1.00  0.00     0.139 A 
HETATM   31  F2  UNL     1      -0.611 -12.864  19.769  1.00  0.00    -0.204 F 
HETATM   32  C22 UNL     1      -1.837 -13.797  18.024  1.00  0.00     0.070 A 
BRANCH  32  33
HETATM   33  C23 UNL     1      -2.985 -13.890  18.929  1.00  0.00    -0.040 C 
HETATM   34  C24 UNL     1      -3.946 -13.903  19.668  1.00  0.00     0.009 C 
BRANCH  34  35
HETATM   35  N1  UNL     1      -5.068 -13.887  20.528  1.00  0.00    -0.359 N 
ATOM     36  H12 UNL     1      -4.091 -13.648  20.700  1.00  0.00     0.166 HD
ATOM     37  H11 UNL     1      -5.891 -13.883  21.131  1.00  0.00     0.166 HD
ENDBRANCH  34  35
ENDBRANCH  32  33
ENDBRANCH   1  25
TORSDOF 11
ENDMDL
MODEL 2
REMARK VINA RESULT: -8.735061575      3.899      8.205
REMARK  11 active torsions:
REMARK  status: ('A' for Active; 'I' for Inactive)
REMARK    1  A    between atoms: C2_2  and  O1_3 
REMARK    2  A    between atoms: O1_3  and  C3_4 
REMARK    3  A    between atoms: C3_4  and  C4_6 
REMARK    4  A    between atoms: C4_6  and  C5_7 
REMARK    5  A    between atoms: C5_7  and  O3_8 
REMARK    6  A    between atoms: C5_7  and  C17_25 
REMARK    7  A    between atoms: O3_8  and  C6_9 
REMARK    8  A    between atoms: C11_16  and  C12_17 
REMARK    9  A    between atoms: C12_17  and  O7_19 
REMARK   10  A    between atoms: C22_32  and  C23_33 
REMARK   11  A    between atoms: C24_34  and  N1_35 
ROOT
HETATM    1  C5  UNL     1      -6.935 -13.810  14.997  1.00  0.00     0.075 C 
ENDROOT
BRANCH   1   2
HETATM    2  C4  UNL     1      -7.293 -15.059  14.261  1.00  0.00     0.177 C 
BRANCH   2   3
HETATM    3  C3  UNL     1      -6.381 -16.211  14.339  1.00  0.00     0.264 C 
HETATM    4  O2  UNL     1      -6.002 -16.766  15.368  1.00  0.00    -0.265 OA
BRANCH   3   5
HETATM    5  O1  UNL     1      -5.886 -16.723  13.134  1.00  0.00    -0.322 OA
BRANCH   5   6
HETATM    6  C2  UNL     1      -4.921 -17.629  12.820  1.00  0.00     0.174 C 
HETATM    7  C1  UNL     1      -3.482 -17.193  12.983  1.00  0.00     0.034 C 
ENDBRANCH   5   6
ENDBRANCH   3   5
ENDBRANCH   2   3
ENDBRANCH   1   2
BRANCH   1   8
HETATM    8  O3  UNL     1      -5.672 -13.417  15.108  1.00  0.00    -0.312 OA
BRANCH   8   9
HETATM    9  C6  UNL     1      -4.634 -13.555  15.962  1.00  0.00     0.100 A 
HETATM   10  C7  UNL     1      -4.922 -13.560  17.318  1.00  0.00     0.077 A 
HETATM   11  C8  UNL     1      -3.983 -13.691  18.300  1.00  0.00     0.093 A 
HETATM   12  O4  UNL     1      -4.336 -13.684  19.579  1.00  0.00    -0.275 OA
HETATM   13  C14 UNL     1      -2.658 -13.828  17.997  1.00  0.00     0.016 A 
HETATM   14  C9  UNL     1      -3.453 -13.804  20.537  1.00  0.00     0.289 A 
HETATM   15  O5  UNL     1      -3.865 -13.788  21.754  1.00  0.00    -0.260 OA
HETATM   16  C10 UNL     1      -2.119 -13.946  20.326  1.00  0.00     0.101 A 
HETATM   17  C11 UNL     1      -1.697 -13.956  18.974  1.00  0.00     0.058 A 
HETATM   18  C15 UNL     1      -2.338 -13.828  16.654  1.00  0.00     0.042 A 
HETATM   19  C16 UNL     1      -3.315 -13.694  15.645  1.00  0.00     0.069 A 
HETATM   20 CL1  UNL     1      -2.693 -13.778  13.993  1.00  0.00    -0.081 Cl
BRANCH  17  21
HETATM   21  C12 UNL     1      -0.279 -14.050  18.725  1.00  0.00     0.294 C 
HETATM   22  O6  UNL     1       0.415 -15.066  18.681  1.00  0.00    -0.259 OA
BRANCH  21  23
HETATM   23  O7  UNL     1       0.436 -12.854  18.509  1.00  0.00    -0.322 OA
HETATM   24  C13 UNL     1       1.140 -12.600  17.332  1.00  0.00     0.213 C 
ENDBRANCH  21  23
ENDBRANCH  17  21
ENDBRANCH   8   9
ENDBRANCH   1   8
BRANCH   1  25
HETATM   25  C17 UNL     1      -7.967 -12.759  14.615  1.00  0.00     0.019 A 
HETATM   26  C18 UNL     1      -8.097 -12.358  13.283  1.00  0.00     0.058 A 
HETATM   27  C19 UNL     1      -9.145 -11.553  12.870  1.00  0.00     0.120 A 
HETATM   28  F1  UNL     1      -9.303 -11.153  11.579  1.00  0.00    -0.206 F 
HETATM   29  C20 UNL     1     -10.076 -11.142  13.791  1.00  0.00     0.086 A 
HETATM   30  C21 UNL     1      -9.931 -11.544  15.114  1.00  0.00     0.139 A 
HETATM   31  F2  UNL     1     -10.828 -11.161  16.072  1.00  0.00    -0.204 F 
HETATM   32  C22 UNL     1      -8.897 -12.333  15.507  1.00  0.00     0.070 A 
BRANCH  32  33
HETATM   33  C23 UNL     1      -8.647 -12.539  16.935  1.00  0.00    -0.040 C 
HETATM   34  C24 UNL     1      -8.445 -12.645  18.125  1.00  0.00     0.009 C 
BRANCH  34  35
HETATM   35  N1  UNL     1      -8.207 -12.738  19.516  1.00  0.00    -0.359 N 
ATOM     36  H12 UNL     1      -8.394 -11.930  18.923  1.00  0.00     0.166 HD
ATOM     37  H11 UNL     1      -8.033 -12.827  20.517  1.00  0.00     0.166 HD
ENDBRANCH  34  35
ENDBRANCH  32  33
ENDBRANCH   1  25
TORSDOF 11
ENDMDL
MODEL 3
REMARK VINA RESULT: -8.639596435      3.856      7.913
REMARK  11 active torsions:
REMARK  status: ('A' for Active; 'I' for Inactive)
REMARK    1  A    between atoms: C2_2  and  O1_3 
REMARK    2  A    between atoms: O1_3  and  C3_4 
REMARK    3  A    between atoms: C3_4  and  C4_6 
REMARK    4  A    between atoms: C4_6  and  C5_7 
REMARK    5  A    between atoms: C5_7  and  O3_8 
REMARK    6  A    between atoms: C5_7  and  C17_25 
REMARK    7  A    between atoms: O3_8  and  C6_9 
REMARK    8  A    between atoms: C11_16  and  C12_17 
REMARK    9  A    between atoms: C12_17  and  O7_19 
REMARK   10  A    between atoms: C22_32  and  C23_33 
REMARK   11  A    between atoms: C24_34  and  N1_35 
ROOT
HETATM    1  C5  UNL     1      -6.613 -13.721  14.668  1.00  0.00     0.075 C 
ENDROOT
BRANCH   1   2
HETATM    2  C4  UNL     1      -6.887 -14.877  13.764  1.00  0.00     0.177 C 
BRANCH   2   3
HETATM    3  C3  UNL     1      -6.507 -16.227  14.208  1.00  0.00     0.264 C 
HETATM    4  O2  UNL     1      -6.226 -16.558  15.357  1.00  0.00    -0.265 OA
BRANCH   3   5
HETATM    5  O1  UNL     1      -6.450 -17.232  13.235  1.00  0.00    -0.322 OA
BRANCH   5   6
HETATM    6  C2  UNL     1      -5.522 -17.595  12.310  1.00  0.00     0.174 C 
HETATM    7  C1  UNL     1      -4.067 -17.512  12.716  1.00  0.00     0.034 C 
ENDBRANCH   5   6
ENDBRANCH   3   5
ENDBRANCH   2   3
ENDBRANCH   1   2
BRANCH   1   8
HETATM    8  O3  UNL     1      -5.370 -13.352  14.953  1.00  0.00    -0.312 OA
BRANCH   8   9
HETATM    9  C6  UNL     1      -4.394 -13.658  15.837  1.00  0.00     0.100 A 
HETATM   10  C7  UNL     1      -4.689 -13.521  17.184  1.00  0.00     0.077 A 
HETATM   11  C8  UNL     1      -3.809 -13.790  18.192  1.00  0.00     0.093 A 
HETATM   12  O4  UNL     1      -4.165 -13.632  19.461  1.00  0.00    -0.275 OA
HETATM   13  C14 UNL     1      -2.542 -14.226  17.927  1.00  0.00     0.016 A 
HETATM   14  C9  UNL     1      -3.338 -13.881  20.443  1.00  0.00     0.289 A 
HETATM   15  O5  UNL     1      -3.747 -13.705  21.648  1.00  0.00    -0.260 OA
HETATM   16  C10 UNL     1      -2.062 -14.318  20.269  1.00  0.00     0.101 A 
HETATM   17  C11 UNL     1      -1.640 -14.499  18.930  1.00  0.00     0.058 A 
HETATM   18  C15 UNL     1      -2.217 -14.374  16.593  1.00  0.00     0.042 A 
HETATM   19  C16 UNL     1      -3.133 -14.095  15.557  1.00  0.00     0.069 A 
HETATM   20 CL1  UNL     1      -2.528 -14.408  13.926  1.00  0.00    -0.081 Cl
BRANCH  17  21
HETATM   21  C12 UNL     1      -0.273 -14.909  18.717  1.00  0.00     0.294 C 
HETATM   22  O6  UNL     1       0.718 -14.192  18.575  1.00  0.00    -0.259 OA
BRANCH  21  23
HETATM   23  O7  UNL     1      -0.000 -16.291  18.649  1.00  0.00    -0.322 OA
HETATM   24  C13 UNL     1       0.388 -16.924  17.469  1.00  0.00     0.213 C 
ENDBRANCH  21  23
ENDBRANCH  17  21
ENDBRANCH   8   9
ENDBRANCH   1   8
BRANCH   1  25
HETATM   25  C17 UNL     1      -7.605 -12.626  14.303  1.00  0.00     0.019 A 
HETATM   26  C18 UNL     1      -7.610 -12.091  13.012  1.00  0.00     0.058 A 
HETATM   27  C19 UNL     1      -8.614 -11.237  12.588  1.00  0.00     0.120 A 
HETATM   28  F1  UNL     1      -8.651 -10.706  11.336  1.00  0.00    -0.206 F 
HETATM   29  C20 UNL     1      -9.627 -10.913  13.457  1.00  0.00     0.086 A 
HETATM   30  C21 UNL     1      -9.606 -11.448  14.739  1.00  0.00     0.139 A 
HETATM   31  F2  UNL     1     -10.587 -11.156  15.645  1.00  0.00    -0.204 F 
HETATM   32  C22 UNL     1      -8.612 -12.283  15.143  1.00  0.00     0.070 A 
BRANCH  32  33
HETATM   33  C23 UNL     1      -8.497 -12.636  16.560  1.00  0.00    -0.040 C 
HETATM   34  C24 UNL     1      -8.374 -12.870  17.743  1.00  0.00     0.009 C 
BRANCH  34  35
HETATM   35  N1  UNL     1      -8.215 -13.117  19.126  1.00  0.00    -0.359 N 
ATOM     36  H12 UNL     1      -8.099 -12.262  18.582  1.00  0.00     0.166 HD
ATOM     37  H11 UNL     1      -8.105 -13.316  20.121  1.00  0.00     0.166 HD
ENDBRANCH  34  35
ENDBRANCH  32  33
ENDBRANCH   1  25
TORSDOF 11
ENDMDL
MODEL 4
REMARK VINA RESULT: -8.615884120      2.156      3.789
REMARK  11 active torsions:
REMARK  status: ('A' for Active; 'I' for Inactive)
REMARK    1  A    between atoms: C2_2  and  O1_3 
REMARK    2  A    between atoms: O1_3  and  C3_4 
REMARK    3  A    between atoms: C3_4  and  C4_6 
REMARK    4  A    between atoms: C4_6  and  C5_7 
REMARK    5  A    between atoms: C5_7  and  O3_8 
REMARK    6  A    between atoms: C5_7  and  C17_25 
REMARK    7  A    between atoms: O3_8  and  C6_9 
REMARK    8  A    between atoms: C11_16  and  C12_17 
REMARK    9  A    between atoms: C12_17  and  O7_19 
REMARK   10  A    between atoms: C22_32  and  C23_33 
REMARK   11  A    between atoms: C24_34  and  N1_35 
ROOT
HETATM    1  C5  UNL     1      -3.153 -14.199  16.148  1.00  0.00     0.075 C 
ENDROOT
BRANCH   1   2
HETATM    2  C4  UNL     1      -2.149 -13.103  16.014  1.00  0.00     0.177 C 
BRANCH   2   3
HETATM    3  C3  UNL     1      -0.787 -13.325  16.523  1.00  0.00     0.264 C 
HETATM    4  O2  UNL     1      -0.161 -12.571  17.265  1.00  0.00    -0.265 OA
BRANCH   3   5
HETATM    5  O1  UNL     1      -0.134 -14.497  16.125  1.00  0.00    -0.322 OA
BRANCH   5   6
HETATM    6  C2  UNL     1       0.638 -15.411  16.772  1.00  0.00     0.174 C 
HETATM    7  C1  UNL     1      -0.071 -16.418  17.651  1.00  0.00     0.034 C 
ENDBRANCH   5   6
ENDBRANCH   3   5
ENDBRANCH   2   3
ENDBRANCH   1   2
BRANCH   1   8
HETATM    8  O3  UNL     1      -2.921 -15.408  15.649  1.00  0.00    -0.312 OA
BRANCH   8   9
HETATM    9  C6  UNL     1      -3.334 -16.181  14.621  1.00  0.00     0.100 A 
HETATM   10  C7  UNL     1      -4.670 -16.103  14.263  1.00  0.00     0.077 A 
HETATM   11  C8  UNL     1      -5.235 -16.821  13.248  1.00  0.00     0.093 A 
HETATM   12  O4  UNL     1      -6.526 -16.695  12.966  1.00  0.00    -0.275 OA
HETATM   13  C14 UNL     1      -4.493 -17.690  12.499  1.00  0.00     0.016 A 
HETATM   14  C9  UNL     1      -7.089 -17.375  12.001  1.00  0.00     0.289 A 
HETATM   15  O5  UNL     1      -8.343 -17.204  11.783  1.00  0.00    -0.260 OA
HETATM   16  C10 UNL     1      -6.426 -18.257  11.208  1.00  0.00     0.101 A 
HETATM   17  C11 UNL     1      -5.046 -18.425  11.476  1.00  0.00     0.058 A 
HETATM   18  C15 UNL     1      -3.156 -17.790  12.830  1.00  0.00     0.042 A 
HETATM   19  C16 UNL     1      -2.580 -17.043  13.879  1.00  0.00     0.069 A 
HETATM   20 CL1  UNL     1      -0.842 -17.281  14.094  1.00  0.00    -0.081 Cl
BRANCH  17  21
HETATM   21  C12 UNL     1      -4.332 -19.397  10.683  1.00  0.00     0.294 C 
HETATM   22  O6  UNL     1      -4.200 -20.601  10.903  1.00  0.00    -0.259 OA
BRANCH  21  23
HETATM   23  O7  UNL     1      -3.687 -18.950   9.511  1.00  0.00    -0.322 OA
HETATM   24  C13 UNL     1      -4.337 -18.869   8.280  1.00  0.00     0.213 C 
ENDBRANCH  21  23
ENDBRANCH  17  21
ENDBRANCH   8   9
ENDBRANCH   1   8
BRANCH   1  25
HETATM   25  C17 UNL     1      -3.713 -14.119  17.561  1.00  0.00     0.019 A 
HETATM   26  C18 UNL     1      -2.850 -14.175  18.659  1.00  0.00     0.058 A 
HETATM   27  C19 UNL     1      -3.297 -13.914  19.942  1.00  0.00     0.120 A 
HETATM   28  F1  UNL     1      -2.480 -13.954  21.030  1.00  0.00    -0.206 F 
HETATM   29  C20 UNL     1      -4.617 -13.591  20.139  1.00  0.00     0.086 A 
HETATM   30  C21 UNL     1      -5.465 -13.544  19.038  1.00  0.00     0.139 A 
HETATM   31  F2  UNL     1      -6.788 -13.231  19.178  1.00  0.00    -0.204 F 
HETATM   32  C22 UNL     1      -5.013 -13.805  17.783  1.00  0.00     0.070 A 
BRANCH  32  33
HETATM   33  C23 UNL     1      -5.975 -13.976  16.691  1.00  0.00    -0.040 C 
HETATM   34  C24 UNL     1      -6.806 -14.154  15.827  1.00  0.00     0.009 C 
BRANCH  34  35
HETATM   35  N1  UNL     1      -7.790 -14.382  14.838  1.00  0.00    -0.359 N 
ATOM     36  H12 UNL     1      -7.878 -14.159  15.829  1.00  0.00     0.166 HD
ATOM     37  H11 UNL     1      -8.483 -14.551  14.109  1.00  0.00     0.166 HD
ENDBRANCH  34  35
ENDBRANCH  32  33
ENDBRANCH   1  25
TORSDOF 11
ENDMDL
MODEL 5
REMARK VINA RESULT: -8.521760194      1.081      1.234
REMARK  11 active torsions:
REMARK  status: ('A' for Active; 'I' for Inactive)
REMARK    1  A    between atoms: C2_2  and  O1_3 
REMARK    2  A    between atoms: O1_3  and  C3_4 
REMARK    3  A    between atoms: C3_4  and  C4_6 
REMARK    4  A    between atoms: C4_6  and  C5_7 
REMARK    5  A    between atoms: C5_7  and  O3_8 
REMARK    6  A    between atoms: C5_7  and  C17_25 
REMARK    7  A    between atoms: O3_8  and  C6_9 
REMARK    8  A    between atoms: C11_16  and  C12_17 
REMARK    9  A    between atoms: C12_17  and  O7_19 
REMARK   10  A    between atoms: C22_32  and  C23_33 
REMARK   11  A    between atoms: C24_34  and  N1_35 
ROOT
HETATM    1  C5  UNL     1      -3.366 -14.464  16.144  1.00  0.00     0.075 C 
ENDROOT
BRANCH   1   2
HETATM    2  C4  UNL     1      -3.683 -13.232  15.363  1.00  0.00     0.177 C 
BRANCH   2   3
HETATM    3  C3  UNL     1      -4.983 -12.577  15.573  1.00  0.00     0.264 C 
HETATM    4  O2  UNL     1      -5.425 -11.623  14.935  1.00  0.00    -0.265 OA
BRANCH   3   5
HETATM    5  O1  UNL     1      -5.796 -13.073  16.598  1.00  0.00    -0.322 OA
BRANCH   5   6
HETATM    6  C2  UNL     1      -7.107 -13.427  16.673  1.00  0.00     0.174 C 
HETATM    7  C1  UNL     1      -7.752 -13.415  18.042  1.00  0.00     0.034 C 
ENDBRANCH   5   6
ENDBRANCH   3   5
ENDBRANCH   2   3
ENDBRANCH   1   2
BRANCH   1   8
HETATM    8  O3  UNL     1      -3.618 -15.671  15.653  1.00  0.00    -0.312 OA
BRANCH   8   9
HETATM    9  C6  UNL     1      -4.346 -16.237  14.665  1.00  0.00     0.100 A 
HETATM   10  C7  UNL     1      -5.706 -15.975  14.647  1.00  0.00     0.077 A 
HETATM   11  C8  UNL     1      -6.571 -16.473  13.715  1.00  0.00     0.093 A 
HETATM   12  O4  UNL     1      -7.863 -16.179  13.765  1.00  0.00    -0.275 OA
HETATM   13  C14 UNL     1      -6.132 -17.289  12.710  1.00  0.00     0.016 A 
HETATM   14  C9  UNL     1      -8.710 -16.647  12.884  1.00  0.00     0.289 A 
HETATM   15  O5  UNL     1      -9.949 -16.323  12.993  1.00  0.00    -0.260 OA
HETATM   16  C10 UNL     1      -8.360 -17.462  11.854  1.00  0.00     0.101 A 
HETATM   17  C11 UNL     1      -6.989 -17.803  11.764  1.00  0.00     0.058 A 
HETATM   18  C15 UNL     1      -4.781 -17.568  12.700  1.00  0.00     0.042 A 
HETATM   19  C16 UNL     1      -3.894 -17.048  13.666  1.00  0.00     0.069 A 
HETATM   20 CL1  UNL     1      -2.198 -17.486  13.431  1.00  0.00    -0.081 Cl
BRANCH  17  21
HETATM   21  C12 UNL     1      -6.602 -18.711  10.711  1.00  0.00     0.294 C 
HETATM   22  O6  UNL     1      -6.462 -18.464   9.513  1.00  0.00    -0.259 OA
BRANCH  21  23
HETATM   23  O7  UNL     1      -6.354 -20.056  11.056  1.00  0.00    -0.322 OA
HETATM   24  C13 UNL     1      -7.378 -20.975  11.285  1.00  0.00     0.213 C 
ENDBRANCH  21  23
ENDBRANCH  17  21
ENDBRANCH   8   9
ENDBRANCH   1   8
BRANCH   1  25
HETATM   25  C17 UNL     1      -2.009 -14.239  16.795  1.00  0.00     0.019 A 
HETATM   26  C18 UNL     1      -0.842 -14.343  16.033  1.00  0.00     0.058 A 
HETATM   27  C19 UNL     1       0.388 -13.961  16.539  1.00  0.00     0.120 A 
HETATM   28  F1  UNL     1       1.541 -14.043  15.820  1.00  0.00    -0.206 F 
HETATM   29  C20 UNL     1       0.461 -13.468  17.819  1.00  0.00     0.086 A 
HETATM   30  C21 UNL     1      -0.706 -13.376  18.567  1.00  0.00     0.139 A 
HETATM   31  F2  UNL     1      -0.691 -12.895  19.847  1.00  0.00    -0.204 F 
HETATM   32  C22 UNL     1      -1.908 -13.757  18.059  1.00  0.00     0.070 A 
BRANCH  32  33
HETATM   33  C23 UNL     1      -3.067 -13.866  18.947  1.00  0.00    -0.040 C 
HETATM   34  C24 UNL     1      -4.021 -13.893  19.695  1.00  0.00     0.009 C 
BRANCH  34  35
HETATM   35  N1  UNL     1      -5.128 -13.894  20.575  1.00  0.00    -0.359 N 
ATOM     36  H12 UNL     1      -4.430 -13.176  20.380  1.00  0.00     0.166 HD
ATOM     37  H11 UNL     1      -5.931 -13.916  21.203  1.00  0.00     0.166 HD
ENDBRANCH  34  35
ENDBRANCH  32  33
ENDBRANCH   1  25
TORSDOF 11
ENDMDL
