MODEL 1
REMARK VINA RESULT: -7.909032718      0.000      0.000
REMARK  10 active torsions:
REMARK  status: ('A' for Active; 'I' for Inactive)
REMARK    1  A    between atoms: C2_2  and  O1_3 
REMARK    2  A    between atoms: O1_3  and  C3_4 
REMARK    3  A    between atoms: C3_4  and  C4_6 
REMARK    4  A    between atoms: C5_7  and  N1_8 
REMARK       I    between atoms: N1_8  and  C6_10 
REMARK    5  A    between atoms: C6_10  and  C7_12 
REMARK    6  A    between atoms: C7_12  and  N2_14 
REMARK       I    between atoms: N2_14  and  C9_16 
REMARK    7  A    between atoms: C9_16  and  O5_18 
REMARK    8  A    between atoms: O5_18  and  C10_19 
REMARK       I    between atoms: N3_28  and  C18_29 
REMARK    9  A    between atoms: C18_29  and  O7_31 
REMARK   10  A    between atoms: O7_31  and  C19_32 
ROOT
HETATM    1  C4  UNL     1      -4.950 -16.509  13.953  1.00  0.00     0.080 A 
HETATM    2  C5  UNL     1      -6.185 -16.369  14.522  1.00  0.00     0.094 A 
HETATM    3  S1  UNL     1      -5.926 -15.173  15.746  1.00  0.00    -0.074 SA
HETATM    4  C14 UNL     1      -4.283 -14.898  15.495  1.00  0.00     0.010 A 
HETATM    5  C15 UNL     1      -3.952 -15.736  14.466  1.00  0.00    -0.023 A 
HETATM    6  C16 UNL     1      -2.472 -15.634  14.101  1.00  0.00     0.061 C 
HETATM    7  C17 UNL     1      -1.631 -15.725  15.371  1.00  0.00     0.133 C 
HETATM    8  N3  UNL     1      -2.095 -14.841  16.387  1.00  0.00    -0.323 N 
HETATM    9  C18 UNL     1      -1.466 -14.779  17.646  1.00  0.00     0.369 C 
HETATM   10  O6  UNL     1      -1.890 -13.992  18.530  1.00  0.00    -0.238 OA
HETATM   11  C20 UNL     1      -3.230 -13.995  16.117  1.00  0.00     0.174 C 
ENDROOT
BRANCH   2  12
HETATM   12  N1  UNL     1      -7.449 -17.010  14.246  1.00  0.00    -0.319 N 
HETATM   13  C6  UNL     1      -8.289 -16.481  13.235  1.00  0.00     0.245 C 
HETATM   14  O3  UNL     1      -7.920 -15.475  12.608  1.00  0.00    -0.271 OA
ATOM     15  H1  UNL     1      -7.735 -17.835  14.773  1.00  0.00     0.169 HD
BRANCH  13  16
HETATM   16  C7  UNL     1      -9.579 -17.105  12.926  1.00  0.00     0.175 C 
HETATM   17  C8  UNL     1     -10.456 -16.190  12.080  1.00  0.00     0.042 C 
BRANCH  16  18
HETATM   18  N2  UNL     1      -9.336 -18.363  12.248  1.00  0.00    -0.324 N 
HETATM   19  C9  UNL     1      -9.108 -19.576  12.974  1.00  0.00     0.362 C 
HETATM   20  O4  UNL     1      -9.126 -19.513  14.225  1.00  0.00    -0.238 OA
ATOM     21  H2  UNL     1      -9.329 -18.386  11.228  1.00  0.00     0.165 HD
BRANCH  19  22
HETATM   22  O5  UNL     1      -8.876 -20.780  12.373  1.00  0.00    -0.294 OA
BRANCH  22  23
HETATM   23  C10 UNL     1      -9.865 -21.719  12.036  1.00  0.00     0.061 C 
HETATM   24  C11 UNL     1      -9.199 -23.066  11.864  1.00  0.00     0.046 C 
HETATM   25  C12 UNL     1     -10.484 -21.344  10.694  1.00  0.00     0.046 C 
HETATM   26  C13 UNL     1     -10.989 -21.787  13.040  1.00  0.00     0.046 C 
ENDBRANCH  22  23
ENDBRANCH  19  22
ENDBRANCH  16  18
ENDBRANCH  13  16
ENDBRANCH   2  12
BRANCH   1  27
HETATM   27  C3  UNL     1      -4.740 -17.464  12.816  1.00  0.00     0.296 C 
HETATM   28  O2  UNL     1      -5.293 -17.317  11.705  1.00  0.00    -0.259 OA
BRANCH  27  29
HETATM   29  O1  UNL     1      -3.924 -18.567  12.918  1.00  0.00    -0.318 OA
BRANCH  29  30
HETATM   30  C2  UNL     1      -2.718 -18.686  12.200  1.00  0.00     0.174 C 
HETATM   31  C1  UNL     1      -1.526 -18.845  13.087  1.00  0.00     0.034 C 
ENDBRANCH  29  30
ENDBRANCH  27  29
ENDBRANCH   1  27
BRANCH   9  32
HETATM   32  O7  UNL     1      -0.374 -15.562  17.973  1.00  0.00    -0.204 OA
BRANCH  32  33
HETATM   33  C19 UNL     1       0.952 -15.034  17.857  1.00  0.00     0.533 C 
HETATM   34  F1  UNL     1       1.114 -14.420  16.641  1.00  0.00    -0.144 F 
HETATM   35  F2  UNL     1       1.256 -14.199  18.904  1.00  0.00    -0.144 F 
HETATM   36  F3  UNL     1       1.840 -16.103  17.915  1.00  0.00    -0.144 F 
ENDBRANCH  32  33
ENDBRANCH   9  32
TORSDOF 10
ENDMDL
MODEL 2
REMARK VINA RESULT: -7.876909029      5.192      6.571
REMARK  10 active torsions:
REMARK  status: ('A' for Active; 'I' for Inactive)
REMARK    1  A    between atoms: C2_2  and  O1_3 
REMARK    2  A    between atoms: O1_3  and  C3_4 
REMARK    3  A    between atoms: C3_4  and  C4_6 
REMARK    4  A    between atoms: C5_7  and  N1_8 
REMARK       I    between atoms: N1_8  and  C6_10 
REMARK    5  A    between atoms: C6_10  and  C7_12 
REMARK    6  A    between atoms: C7_12  and  N2_14 
REMARK       I    between atoms: N2_14  and  C9_16 
REMARK    7  A    between atoms: C9_16  and  O5_18 
REMARK    8  A    between atoms: O5_18  and  C10_19 
REMARK       I    between atoms: N3_28  and  C18_29 
REMARK    9  A    between atoms: C18_29  and  O7_31 
REMARK   10  A    between atoms: O7_31  and  C19_32 
ROOT
HETATM    1  C4  UNL     1      -5.832 -13.316  15.986  1.00  0.00     0.080 A 
HETATM    2  C5  UNL     1      -6.770 -13.788  16.862  1.00  0.00     0.094 A 
HETATM    3  S1  UNL     1      -5.850 -14.121  18.289  1.00  0.00    -0.074 SA
HETATM    4  C14 UNL     1      -4.330 -13.657  17.731  1.00  0.00     0.010 A 
HETATM    5  C15 UNL     1      -4.551 -13.249  16.444  1.00  0.00    -0.023 A 
HETATM    6  C16 UNL     1      -3.262 -12.797  15.760  1.00  0.00     0.061 C 
HETATM    7  C17 UNL     1      -2.177 -13.848  15.981  1.00  0.00     0.133 C 
HETATM    8  N3  UNL     1      -2.068 -14.227  17.349  1.00  0.00    -0.323 N 
HETATM    9  C18 UNL     1      -1.136 -15.196  17.768  1.00  0.00     0.369 C 
HETATM   10  O6  UNL     1      -1.053 -15.518  18.980  1.00  0.00    -0.238 OA
HETATM   11  C20 UNL     1      -2.930 -13.604  18.322  1.00  0.00     0.174 C 
ENDROOT
BRANCH   2  12
HETATM   12  N1  UNL     1      -8.193 -13.995  16.727  1.00  0.00    -0.319 N 
HETATM   13  C6  UNL     1      -9.085 -12.998  17.191  1.00  0.00     0.245 C 
HETATM   14  O3  UNL     1      -8.625 -11.966  17.706  1.00  0.00    -0.271 OA
ATOM     15  H1  UNL     1      -8.551 -14.851  16.302  1.00  0.00     0.169 HD
BRANCH  13  16
HETATM   16  C7  UNL     1     -10.536 -13.172  17.072  1.00  0.00     0.175 C 
HETATM   17  C8  UNL     1     -11.184 -13.426  18.427  1.00  0.00     0.042 C 
BRANCH  16  18
HETATM   18  N2  UNL     1     -11.095 -11.993  16.442  1.00  0.00    -0.324 N 
HETATM   19  C9  UNL     1     -12.181 -12.081  15.513  1.00  0.00     0.362 C 
HETATM   20  O4  UNL     1     -12.636 -13.219  15.262  1.00  0.00    -0.238 OA
ATOM     21  H2  UNL     1     -10.706 -11.077  16.666  1.00  0.00     0.165 HD
BRANCH  19  22
HETATM   22  O5  UNL     1     -12.735 -10.993  14.899  1.00  0.00    -0.294 OA
BRANCH  22  23
HETATM   23  C10 UNL     1     -12.157 -10.288  13.830  1.00  0.00     0.061 C 
HETATM   24  C11 UNL     1     -11.346  -9.146  14.401  1.00  0.00     0.046 C 
HETATM   25  C12 UNL     1     -13.258  -9.676  12.971  1.00  0.00     0.046 C 
HETATM   26  C13 UNL     1     -11.318 -11.157  12.926  1.00  0.00     0.046 C 
ENDBRANCH  22  23
ENDBRANCH  19  22
ENDBRANCH  16  18
ENDBRANCH  13  16
ENDBRANCH   2  12
BRANCH   1  27
HETATM   27  C3  UNL     1      -6.228 -12.892  14.603  1.00  0.00     0.296 C 
HETATM   28  O2  UNL     1      -6.435 -13.713  13.683  1.00  0.00    -0.259 OA
BRANCH  27  29
HETATM   29  O1  UNL     1      -6.391 -11.572  14.252  1.00  0.00    -0.318 OA
BRANCH  29  30
HETATM   30  C2  UNL     1      -7.638 -10.921  14.310  1.00  0.00     0.174 C 
HETATM   31  C1  UNL     1      -7.842  -9.952  13.190  1.00  0.00     0.034 C 
ENDBRANCH  29  30
ENDBRANCH  27  29
ENDBRANCH   1  27
BRANCH   9  32
HETATM   32  O7  UNL     1      -0.279 -15.834  16.889  1.00  0.00    -0.204 OA
BRANCH  32  33
HETATM   33  C19 UNL     1       1.124 -15.543  16.911  1.00  0.00     0.533 C 
HETATM   34  F1  UNL     1       1.446 -14.685  15.892  1.00  0.00    -0.144 F 
HETATM   35  F2  UNL     1       1.520 -15.067  18.136  1.00  0.00    -0.144 F 
HETATM   36  F3  UNL     1       1.807 -16.736  16.695  1.00  0.00    -0.144 F 
ENDBRANCH  32  33
ENDBRANCH   9  32
TORSDOF 10
ENDMDL
MODEL 3
REMARK VINA RESULT: -7.775133391      4.027      6.122
REMARK  10 active torsions:
REMARK  status: ('A' for Active; 'I' for Inactive)
REMARK    1  A    between atoms: C2_2  and  O1_3 
REMARK    2  A    between atoms: O1_3  and  C3_4 
REMARK    3  A    between atoms: C3_4  and  C4_6 
REMARK    4  A    between atoms: C5_7  and  N1_8 
REMARK       I    between atoms: N1_8  and  C6_10 
REMARK    5  A    between atoms: C6_10  and  C7_12 
REMARK    6  A    between atoms: C7_12  and  N2_14 
REMARK       I    between atoms: N2_14  and  C9_16 
REMARK    7  A    between atoms: C9_16  and  O5_18 
REMARK    8  A    between atoms: O5_18  and  C10_19 
REMARK       I    between atoms: N3_28  and  C18_29 
REMARK    9  A    between atoms: C18_29  and  O7_31 
REMARK   10  A    between atoms: O7_31  and  C19_32 
ROOT
HETATM    1  C4  UNL     1      -5.699 -13.941  16.090  1.00  0.00     0.080 A 
HETATM    2  C5  UNL     1      -6.569 -13.945  17.145  1.00  0.00     0.094 A 
HETATM    3  S1  UNL     1      -5.531 -13.748  18.516  1.00  0.00    -0.074 SA
HETATM    4  C14 UNL     1      -4.053 -13.668  17.713  1.00  0.00     0.010 A 
HETATM    5  C15 UNL     1      -4.378 -13.796  16.391  1.00  0.00    -0.023 A 
HETATM    6  C16 UNL     1      -3.142 -13.760  15.493  1.00  0.00     0.061 C 
HETATM    7  C17 UNL     1      -2.088 -14.715  16.046  1.00  0.00     0.133 C 
HETATM    8  N3  UNL     1      -1.865 -14.520  17.439  1.00  0.00    -0.323 N 
HETATM    9  C18 UNL     1      -0.940 -15.309  18.150  1.00  0.00     0.369 C 
HETATM   10  O6  UNL     1      -0.756 -15.122  19.379  1.00  0.00    -0.238 OA
HETATM   11  C20 UNL     1      -2.602 -13.492  18.132  1.00  0.00     0.174 C 
ENDROOT
BRANCH   2  12
HETATM   12  N1  UNL     1      -8.005 -14.076  17.207  1.00  0.00    -0.319 N 
HETATM   13  C6  UNL     1      -8.817 -12.957  16.902  1.00  0.00     0.245 C 
HETATM   14  O3  UNL     1      -8.276 -11.884  16.588  1.00  0.00    -0.271 OA
ATOM     15  H1  UNL     1      -8.431 -14.966  17.467  1.00  0.00     0.169 HD
BRANCH  13  16
HETATM   16  C7  UNL     1     -10.279 -13.051  16.952  1.00  0.00     0.175 C 
HETATM   17  C8  UNL     1     -10.778 -13.282  18.373  1.00  0.00     0.042 C 
BRANCH  16  18
HETATM   18  N2  UNL     1     -10.843 -11.837  16.396  1.00  0.00    -0.324 N 
HETATM   19  C9  UNL     1     -11.856 -11.874  15.385  1.00  0.00     0.362 C 
HETATM   20  O4  UNL     1     -12.244 -12.999  14.996  1.00  0.00    -0.238 OA
ATOM     21  H2  UNL     1     -10.509 -10.933  16.732  1.00  0.00     0.165 HD
BRANCH  19  22
HETATM   22  O5  UNL     1     -12.412 -10.753  14.836  1.00  0.00    -0.294 OA
BRANCH  22  23
HETATM   23  C10 UNL     1     -11.770  -9.896  13.926  1.00  0.00     0.061 C 
HETATM   24  C11 UNL     1     -11.463  -8.596  14.637  1.00  0.00     0.046 C 
HETATM   25  C12 UNL     1     -12.719  -9.572  12.777  1.00  0.00     0.046 C 
HETATM   26  C13 UNL     1     -10.525 -10.495  13.319  1.00  0.00     0.046 C 
ENDBRANCH  22  23
ENDBRANCH  19  22
ENDBRANCH  16  18
ENDBRANCH  13  16
ENDBRANCH   2  12
BRANCH   1  27
HETATM   27  C3  UNL     1      -6.207 -14.078  14.686  1.00  0.00     0.296 C 
HETATM   28  O2  UNL     1      -6.554 -13.095  13.999  1.00  0.00    -0.259 OA
BRANCH  27  29
HETATM   29  O1  UNL     1      -6.323 -15.297  14.058  1.00  0.00    -0.318 OA
BRANCH  29  30
HETATM   30  C2  UNL     1      -5.720 -16.467  14.557  1.00  0.00     0.174 C 
HETATM   31  C1  UNL     1      -4.479 -16.845  13.815  1.00  0.00     0.034 C 
ENDBRANCH  29  30
ENDBRANCH  27  29
ENDBRANCH   1  27
BRANCH   9  32
HETATM   32  O7  UNL     1      -0.200 -16.312  17.550  1.00  0.00    -0.204 OA
BRANCH  32  33
HETATM   33  C19 UNL     1       1.170 -16.084  17.198  1.00  0.00     0.533 C 
HETATM   34  F1  UNL     1       1.273 -14.992  16.376  1.00  0.00    -0.144 F 
HETATM   35  F2  UNL     1       1.965 -15.972  18.312  1.00  0.00    -0.144 F 
HETATM   36  F3  UNL     1       1.614 -17.195  16.487  1.00  0.00    -0.144 F 
ENDBRANCH  32  33
ENDBRANCH   9  32
TORSDOF 10
ENDMDL
MODEL 4
REMARK VINA RESULT: -7.742781507      4.660      6.513
REMARK  10 active torsions:
REMARK  status: ('A' for Active; 'I' for Inactive)
REMARK    1  A    between atoms: C2_2  and  O1_3 
REMARK    2  A    between atoms: O1_3  and  C3_4 
REMARK    3  A    between atoms: C3_4  and  C4_6 
REMARK    4  A    between atoms: C5_7  and  N1_8 
REMARK       I    between atoms: N1_8  and  C6_10 
REMARK    5  A    between atoms: C6_10  and  C7_12 
REMARK    6  A    between atoms: C7_12  and  N2_14 
REMARK       I    between atoms: N2_14  and  C9_16 
REMARK    7  A    between atoms: C9_16  and  O5_18 
REMARK    8  A    between atoms: O5_18  and  C10_19 
REMARK       I    between atoms: N3_28  and  C18_29 
REMARK    9  A    between atoms: C18_29  and  O7_31 
REMARK   10  A    between atoms: O7_31  and  C19_32 
ROOT
HETATM    1  C4  UNL     1      -5.677 -13.241  16.207  1.00  0.00     0.080 A 
HETATM    2  C5  UNL     1      -6.631 -13.771  17.031  1.00  0.00     0.094 A 
HETATM    3  S1  UNL     1      -5.732 -14.231  18.436  1.00  0.00    -0.074 SA
HETATM    4  C14 UNL     1      -4.200 -13.741  17.935  1.00  0.00     0.010 A 
HETATM    5  C15 UNL     1      -4.400 -13.227  16.684  1.00  0.00    -0.023 A 
HETATM    6  C16 UNL     1      -3.098 -12.737  16.053  1.00  0.00     0.061 C 
HETATM    7  C17 UNL     1      -2.028 -13.815  16.200  1.00  0.00     0.133 C 
HETATM    8  N3  UNL     1      -1.940 -14.306  17.534  1.00  0.00    -0.323 N 
HETATM    9  C18 UNL     1      -1.024 -15.318  17.882  1.00  0.00     0.369 C 
HETATM   10  O6  UNL     1      -0.960 -15.739  19.065  1.00  0.00    -0.238 OA
HETATM   11  C20 UNL     1      -2.807 -13.754  18.544  1.00  0.00     0.174 C 
ENDROOT
BRANCH   2  12
HETATM   12  N1  UNL     1      -8.054 -13.949  16.864  1.00  0.00    -0.319 N 
HETATM   13  C6  UNL     1      -8.942 -13.000  17.427  1.00  0.00     0.245 C 
HETATM   14  O3  UNL     1      -8.477 -12.034  18.054  1.00  0.00    -0.271 OA
ATOM     15  H1  UNL     1      -8.416 -14.750  16.346  1.00  0.00     0.169 HD
BRANCH  13  16
HETATM   16  C7  UNL     1     -10.393 -13.146  17.278  1.00  0.00     0.175 C 
HETATM   17  C8  UNL     1     -11.069 -13.419  18.616  1.00  0.00     0.042 C 
BRANCH  16  18
HETATM   18  N2  UNL     1     -10.921 -11.944  16.665  1.00  0.00    -0.324 N 
HETATM   19  C9  UNL     1     -11.706 -11.993  15.469  1.00  0.00     0.362 C 
HETATM   20  O4  UNL     1     -11.925 -13.118  14.967  1.00  0.00    -0.238 OA
ATOM     21  H2  UNL     1     -10.728 -11.040  17.097  1.00  0.00     0.165 HD
BRANCH  19  22
HETATM   22  O5  UNL     1     -12.221 -10.883  14.862  1.00  0.00    -0.294 OA
BRANCH  22  23
HETATM   23  C10 UNL     1     -11.513 -10.036  13.993  1.00  0.00     0.061 C 
HETATM   24  C11 UNL     1     -11.543  -8.637  14.567  1.00  0.00     0.046 C 
HETATM   25  C12 UNL     1     -12.219  -9.987  12.642  1.00  0.00     0.046 C 
HETATM   26  C13 UNL     1     -10.097 -10.492  13.737  1.00  0.00     0.046 C 
ENDBRANCH  22  23
ENDBRANCH  19  22
ENDBRANCH  16  18
ENDBRANCH  13  16
ENDBRANCH   2  12
BRANCH   1  27
HETATM   27  C3  UNL     1      -6.051 -12.701  14.859  1.00  0.00     0.296 C 
HETATM   28  O2  UNL     1      -6.030 -11.480  14.597  1.00  0.00    -0.259 OA
BRANCH  27  29
HETATM   29  O1  UNL     1      -6.440 -13.513  13.819  1.00  0.00    -0.318 OA
BRANCH  29  30
HETATM   30  C2  UNL     1      -7.570 -13.238  13.025  1.00  0.00     0.174 C 
HETATM   31  C1  UNL     1      -8.789 -13.982  13.467  1.00  0.00     0.034 C 
ENDBRANCH  29  30
ENDBRANCH  27  29
ENDBRANCH   1  27
BRANCH   9  32
HETATM   32  O7  UNL     1      -0.164 -15.893  16.964  1.00  0.00    -0.204 OA
BRANCH  32  33
HETATM   33  C19 UNL     1       1.180 -15.413  16.837  1.00  0.00     0.533 C 
HETATM   34  F1  UNL     1       2.061 -16.463  16.847  1.00  0.00    -0.144 F 
HETATM   35  F2  UNL     1       1.329 -14.620  15.726  1.00  0.00    -0.144 F 
HETATM   36  F3  UNL     1       1.452 -14.619  17.946  1.00  0.00    -0.144 F 
ENDBRANCH  32  33
ENDBRANCH   9  32
TORSDOF 10
ENDMDL
MODEL 5
REMARK VINA RESULT: -7.631199069      5.356      9.230
REMARK  10 active torsions:
REMARK  status: ('A' for Active; 'I' for Inactive)
REMARK    1  A    between atoms: C2_2  and  O1_3 
REMARK    2  A    between atoms: O1_3  and  C3_4 
REMARK    3  A    between atoms: C3_4  and  C4_6 
REMARK    4  A    between atoms: C5_7  and  N1_8 
REMARK       I    between atoms: N1_8  and  C6_10 
REMARK    5  A    between atoms: C6_10  and  C7_12 
REMARK    6  A    between atoms: C7_12  and  N2_14 
REMARK       I    between atoms: N2_14  and  C9_16 
REMARK    7  A    between atoms: C9_16  and  O5_18 
REMARK    8  A    between atoms: O5_18  and  C10_19 
REMARK       I    between atoms: N3_28  and  C18_29 
REMARK    9  A    between atoms: C18_29  and  O7_31 
REMARK   10  A    between atoms: O7_31  and  C19_32 
ROOT
HETATM    1  C4  UNL     1      -6.878 -14.395  15.921  1.00  0.00     0.080 A 
HETATM    2  C5  UNL     1      -6.818 -13.902  17.195  1.00  0.00     0.094 A 
HETATM    3  S1  UNL     1      -8.180 -12.837  17.272  1.00  0.00    -0.074 SA
HETATM    4  C14 UNL     1      -8.767 -13.053  15.708  1.00  0.00     0.010 A 
HETATM    5  C15 UNL     1      -7.902 -13.947  15.141  1.00  0.00    -0.023 A 
HETATM    6  C16 UNL     1      -8.272 -14.261  13.693  1.00  0.00     0.061 C 
HETATM    7  C17 UNL     1      -8.516 -12.955  12.940  1.00  0.00     0.133 C 
HETATM    8  N3  UNL     1      -9.397 -12.086  13.645  1.00  0.00    -0.323 N 
HETATM    9  C18 UNL     1      -9.743 -10.821  13.132  1.00  0.00     0.369 C 
HETATM   10  O6  UNL     1     -10.522 -10.067  13.768  1.00  0.00    -0.238 OA
HETATM   11  C20 UNL     1      -9.942 -12.513  14.909  1.00  0.00     0.174 C 
ENDROOT
BRANCH   2  12
HETATM   12  N1  UNL     1      -5.894 -14.143  18.277  1.00  0.00    -0.319 N 
HETATM   13  C6  UNL     1      -4.566 -13.662  18.174  1.00  0.00     0.245 C 
HETATM   14  O3  UNL     1      -4.224 -13.042  17.153  1.00  0.00    -0.271 OA
ATOM     15  H1  UNL     1      -6.193 -14.655  19.107  1.00  0.00     0.169 HD
BRANCH  13  16
HETATM   16  C7  UNL     1      -3.598 -13.886  19.252  1.00  0.00     0.175 C 
HETATM   17  C8  UNL     1      -4.281 -14.351  20.532  1.00  0.00     0.042 C 
BRANCH  16  18
HETATM   18  N2  UNL     1      -2.620 -14.858  18.804  1.00  0.00    -0.324 N 
HETATM   19  C9  UNL     1      -1.249 -14.785  19.209  1.00  0.00     0.362 C 
HETATM   20  O4  UNL     1      -0.920 -13.848  19.971  1.00  0.00    -0.238 OA
ATOM     21  H2  UNL     1      -2.916 -15.612  18.184  1.00  0.00     0.165 HD
BRANCH  19  22
HETATM   22  O5  UNL     1      -0.298 -15.680  18.808  1.00  0.00    -0.294 OA
BRANCH  22  23
HETATM   23  C10 UNL     1       0.392 -15.633  17.585  1.00  0.00     0.061 C 
HETATM   24  C11 UNL     1      -0.456 -16.321  16.538  1.00  0.00     0.046 C 
HETATM   25  C12 UNL     1       1.692 -16.421  17.704  1.00  0.00     0.046 C 
HETATM   26  C13 UNL     1       0.757 -14.232  17.160  1.00  0.00     0.046 C 
ENDBRANCH  22  23
ENDBRANCH  19  22
ENDBRANCH  16  18
ENDBRANCH  13  16
ENDBRANCH   2  12
BRANCH   1  27
HETATM   27  C3  UNL     1      -5.859 -15.386  15.440  1.00  0.00     0.296 C 
HETATM   28  O2  UNL     1      -5.775 -16.542  15.907  1.00  0.00    -0.259 OA
BRANCH  27  29
HETATM   29  O1  UNL     1      -4.948 -15.090  14.453  1.00  0.00    -0.318 OA
BRANCH  29  30
HETATM   30  C2  UNL     1      -3.636 -15.601  14.454  1.00  0.00     0.174 C 
HETATM   31  C1  UNL     1      -2.611 -14.576  14.089  1.00  0.00     0.034 C 
ENDBRANCH  29  30
ENDBRANCH  27  29
ENDBRANCH   1  27
BRANCH   9  32
HETATM   32  O7  UNL     1      -9.256 -10.347  11.927  1.00  0.00    -0.204 OA
BRANCH  32  33
HETATM   33  C19 UNL     1      -8.064  -9.552  11.894  1.00  0.00     0.533 C 
HETATM   34  F1  UNL     1      -7.143 -10.113  11.048  1.00  0.00    -0.144 F 
HETATM   35  F2  UNL     1      -8.338  -8.246  11.571  1.00  0.00    -0.144 F 
HETATM   36  F3  UNL     1      -7.521  -9.552  13.175  1.00  0.00    -0.144 F 
ENDBRANCH  32  33
ENDBRANCH   9  32
TORSDOF 10
ENDMDL
