MODEL 1
REMARK VINA RESULT: -7.480028532      0.000      0.000
REMARK  9 active torsions:
REMARK  status: ('A' for Active; 'I' for Inactive)
REMARK    1  A    between atoms: O1_2  and  C2_3 
REMARK    2  A    between atoms: C2_3  and  C3_5 
REMARK    3  A    between atoms: N2_8  and  C4_9 
REMARK    4  A    between atoms: C4_9  and  O3_10 
REMARK    5  A    between atoms: C4_9  and  N3_12 
REMARK    6  A    between atoms: N3_12  and  C5_14 
REMARK    7  A    between atoms: C10_20  and  C11_21 
REMARK    8  A    between atoms: C16_29  and  N5_30 
REMARK       I    between atoms: N5_30  and  C17_32 
REMARK    9  A    between atoms: C17_32  and  C18_34 
ROOT
HETATM    1  C3  UNL     1      -8.696  -2.473 -12.869  1.00  0.00     0.153 A 
HETATM    2  N1  UNL     1      -7.829  -1.499 -12.939  1.00  0.00    -0.283 N 
ATOM      3  H1  UNL     1      -7.829  -0.681 -12.329  1.00  0.00     0.188 HD
HETATM    4  N2  UNL     1      -6.902  -1.725 -13.959  1.00  0.00    -0.220 N 
HETATM    5  C10 UNL     1      -7.198  -2.894 -14.531  1.00  0.00     0.071 A 
HETATM    6  C16 UNL     1      -8.337  -3.361 -13.853  1.00  0.00     0.095 A 
ENDROOT
BRANCH   4   7
HETATM    7  C4  UNL     1      -5.985  -0.675 -14.117  1.00  0.00     0.239 C 
BRANCH   7   8
HETATM    8  O3  UNL     1      -5.913   0.126 -13.053  1.00  0.00    -0.331 OA
ATOM      9  H3  UNL     1      -5.057   0.124 -12.639  1.00  0.00     0.221 HD
ENDBRANCH   7   8
BRANCH   7  10
HETATM   10  N3  UNL     1      -5.141  -0.263 -15.160  1.00  0.00    -0.350 N 
ATOM     11  H3  UNL     1      -5.532   0.264 -15.941  1.00  0.00     0.163 HD
BRANCH  10  12
HETATM   12  C5  UNL     1      -3.702  -0.576 -15.150  1.00  0.00     0.089 C 
HETATM   13  C6  UNL     1      -3.383  -1.905 -14.569  1.00  0.00     0.051 C 
HETATM   14  C7  UNL     1      -3.082  -2.895 -15.701  1.00  0.00     0.169 C 
HETATM   15  O4  UNL     1      -1.913  -2.557 -16.359  1.00  0.00    -0.391 OA
HETATM   16  C8  UNL     1      -1.774  -1.197 -16.506  1.00  0.00     0.169 C 
HETATM   17  C9  UNL     1      -3.127  -0.496 -16.545  1.00  0.00     0.051 C 
ENDBRANCH  10  12
ENDBRANCH   7  10
ENDBRANCH   4   7
BRANCH   5  18
HETATM   18  C11 UNL     1      -6.507  -3.637 -15.573  1.00  0.00     0.043 C 
HETATM   19  C12 UNL     1      -7.016  -5.040 -15.754  1.00  0.00     0.038 C 
HETATM   20  C13 UNL     1      -7.259  -5.407 -17.235  1.00  0.00     0.233 C 
HETATM   21  N4  UNL     1      -8.131  -4.503 -17.903  1.00  0.00    -0.075 N 
HETATM   22  C14 UNL     1      -7.922  -3.118 -17.492  1.00  0.00     0.233 C 
ATOM     23  H42 UNL     1      -8.056  -4.601 -18.916  1.00  0.00     0.277 HD
ATOM     24  H41 UNL     1      -9.106  -4.778 -17.784  1.00  0.00     0.277 HD
HETATM   25  C15 UNL     1      -6.530  -3.041 -16.956  1.00  0.00     0.038 C 
ENDBRANCH   5  18
BRANCH   1  26
HETATM   26  C2  UNL     1      -9.822  -2.608 -11.931  1.00  0.00     0.313 C 
HETATM   27  O2  UNL     1      -9.758  -2.122 -10.789  1.00  0.00    -0.257 OA
BRANCH  26  28
HETATM   28  O1  UNL     1     -10.986  -3.272 -12.282  1.00  0.00    -0.321 OA
HETATM   29  C1  UNL     1     -12.136  -3.305 -11.448  1.00  0.00     0.213 C 
ENDBRANCH  26  28
ENDBRANCH   1  26
BRANCH   6  30
HETATM   30  N5  UNL     1      -9.091  -4.517 -14.124  1.00  0.00    -0.323 N 
HETATM   31  C17 UNL     1     -10.225  -4.454 -15.015  1.00  0.00     0.230 C 
HETATM   32  O5  UNL     1     -10.449  -3.292 -15.509  1.00  0.00    -0.272 OA
ATOM     33  H5  UNL     1      -8.837  -5.403 -13.688  1.00  0.00     0.169 HD
BRANCH  31  34
HETATM   34  C18 UNL     1     -11.087  -5.577 -15.366  1.00  0.00     0.030 C 
HETATM   35  C19 UNL     1     -10.426  -6.929 -15.356  1.00  0.00     0.025 C 
HETATM   36  C20 UNL     1     -11.525  -5.360 -16.834  1.00  0.00     0.025 C 
HETATM   37  C21 UNL     1     -12.384  -5.565 -14.586  1.00  0.00     0.025 C 
ENDBRANCH  31  34
ENDBRANCH   6  30
TORSDOF 9
ENDMDL
MODEL 2
REMARK VINA RESULT: -7.280885203      2.445      6.547
REMARK  9 active torsions:
REMARK  status: ('A' for Active; 'I' for Inactive)
REMARK    1  A    between atoms: O1_2  and  C2_3 
REMARK    2  A    between atoms: C2_3  and  C3_5 
REMARK    3  A    between atoms: N2_8  and  C4_9 
REMARK    4  A    between atoms: C4_9  and  O3_10 
REMARK    5  A    between atoms: C4_9  and  N3_12 
REMARK    6  A    between atoms: N3_12  and  C5_14 
REMARK    7  A    between atoms: C10_20  and  C11_21 
REMARK    8  A    between atoms: C16_29  and  N5_30 
REMARK       I    between atoms: N5_30  and  C17_32 
REMARK    9  A    between atoms: C17_32  and  C18_34 
ROOT
HETATM    1  C3  UNL     1      -6.499  -2.284 -15.447  1.00  0.00     0.153 A 
HETATM    2  N1  UNL     1      -7.768  -1.988 -15.540  1.00  0.00    -0.283 N 
ATOM      3  H1  UNL     1      -8.235  -1.269 -14.988  1.00  0.00     0.188 HD
HETATM    4  N2  UNL     1      -8.400  -2.787 -16.496  1.00  0.00    -0.220 N 
HETATM    5  C10 UNL     1      -7.482  -3.598 -17.027  1.00  0.00     0.071 A 
HETATM    6  C16 UNL     1      -6.284  -3.290 -16.357  1.00  0.00     0.095 A 
ENDROOT
BRANCH   4   7
HETATM    7  C4  UNL     1      -9.780  -2.551 -16.589  1.00  0.00     0.239 C 
BRANCH   7   8
HETATM    8  O3  UNL     1     -10.077  -1.368 -17.129  1.00  0.00    -0.331 OA
ATOM      9  H3  UNL     1     -10.931  -1.349 -17.545  1.00  0.00     0.221 HD
ENDBRANCH   7   8
BRANCH   7  10
HETATM   10  N3  UNL     1     -10.922  -3.277 -16.219  1.00  0.00    -0.350 N 
ATOM     11  H3  UNL     1     -11.825  -3.026 -16.622  1.00  0.00     0.163 HD
BRANCH  10  12
HETATM   12  C5  UNL     1     -10.845  -4.391 -15.259  1.00  0.00     0.089 C 
HETATM   13  C6  UNL     1     -11.187  -4.006 -13.866  1.00  0.00     0.051 C 
HETATM   14  C7  UNL     1     -12.609  -4.483 -13.543  1.00  0.00     0.169 C 
HETATM   15  O4  UNL     1     -12.674  -5.865 -13.506  1.00  0.00    -0.391 OA
HETATM   16  C8  UNL     1     -11.900  -6.447 -14.482  1.00  0.00     0.169 C 
HETATM   17  C9  UNL     1     -11.738  -5.531 -15.690  1.00  0.00     0.051 C 
ENDBRANCH  10  12
ENDBRANCH   7  10
ENDBRANCH   4   7
BRANCH   5  18
HETATM   18  C11 UNL     1      -7.585  -4.557 -18.114  1.00  0.00     0.043 C 
HETATM   19  C12 UNL     1      -8.890  -5.300 -18.144  1.00  0.00     0.038 C 
HETATM   20  C13 UNL     1      -9.524  -5.352 -19.552  1.00  0.00     0.233 C 
HETATM   21  N4  UNL     1      -9.703  -4.068 -20.137  1.00  0.00    -0.075 N 
HETATM   22  C14 UNL     1      -8.601  -3.159 -19.837  1.00  0.00     0.233 C 
ATOM     23  H42 UNL     1      -9.856  -4.140 -21.143  1.00  0.00     0.277 HD
ATOM     24  H41 UNL     1     -10.598  -3.662 -19.864  1.00  0.00     0.277 HD
HETATM   25  C15 UNL     1      -7.422  -4.015 -19.510  1.00  0.00     0.038 C 
ENDBRANCH   5  18
BRANCH   1  26
HETATM   26  C2  UNL     1      -5.496  -1.671 -14.562  1.00  0.00     0.313 C 
HETATM   27  O2  UNL     1      -4.297  -1.990 -14.645  1.00  0.00    -0.257 OA
BRANCH  26  28
HETATM   28  O1  UNL     1      -5.845  -0.724 -13.613  1.00  0.00    -0.321 OA
HETATM   29  C1  UNL     1      -4.914   0.201 -13.069  1.00  0.00     0.213 C 
ENDBRANCH  26  28
ENDBRANCH   1  26
BRANCH   6  30
HETATM   30  N5  UNL     1      -5.033  -3.917 -16.493  1.00  0.00    -0.323 N 
HETATM   31  C17 UNL     1      -4.795  -5.207 -15.891  1.00  0.00     0.230 C 
HETATM   32  O5  UNL     1      -5.801  -5.693 -15.260  1.00  0.00    -0.272 OA
ATOM     33  H5  UNL     1      -4.289  -3.457 -17.018  1.00  0.00     0.169 HD
BRANCH  31  34
HETATM   34  C18 UNL     1      -3.542  -5.951 -15.954  1.00  0.00     0.030 C 
HETATM   35  C19 UNL     1      -2.502  -5.554 -14.941  1.00  0.00     0.025 C 
HETATM   36  C20 UNL     1      -2.902  -5.632 -17.326  1.00  0.00     0.025 C 
HETATM   37  C21 UNL     1      -3.769  -7.447 -15.989  1.00  0.00     0.025 C 
ENDBRANCH  31  34
ENDBRANCH   6  30
TORSDOF 9
ENDMDL
MODEL 3
REMARK VINA RESULT: -7.266700702      3.270      7.291
REMARK  9 active torsions:
REMARK  status: ('A' for Active; 'I' for Inactive)
REMARK    1  A    between atoms: O1_2  and  C2_3 
REMARK    2  A    between atoms: C2_3  and  C3_5 
REMARK    3  A    between atoms: N2_8  and  C4_9 
REMARK    4  A    between atoms: C4_9  and  O3_10 
REMARK    5  A    between atoms: C4_9  and  N3_12 
REMARK    6  A    between atoms: N3_12  and  C5_14 
REMARK    7  A    between atoms: C10_20  and  C11_21 
REMARK    8  A    between atoms: C16_29  and  N5_30 
REMARK       I    between atoms: N5_30  and  C17_32 
REMARK    9  A    between atoms: C17_32  and  C18_34 
ROOT
HETATM    1  C3  UNL     1     -10.630  -7.342 -16.217  1.00  0.00     0.153 A 
HETATM    2  N1  UNL     1     -11.682  -6.957 -15.545  1.00  0.00    -0.283 N 
ATOM      3  H1  UNL     1     -12.595  -7.409 -15.595  1.00  0.00     0.188 HD
HETATM    4  N2  UNL     1     -11.391  -5.846 -14.751  1.00  0.00    -0.220 N 
HETATM    5  C10 UNL     1     -10.103  -5.541 -14.926  1.00  0.00     0.071 A 
HETATM    6  C16 UNL     1      -9.625  -6.476 -15.860  1.00  0.00     0.095 A 
ENDROOT
BRANCH   4   7
HETATM    7  C4  UNL     1     -12.507  -5.354 -14.057  1.00  0.00     0.239 C 
BRANCH   7   8
HETATM    8  O3  UNL     1     -13.409  -6.295 -13.775  1.00  0.00    -0.331 OA
ATOM      9  H3  UNL     1     -14.190  -5.953 -13.354  1.00  0.00     0.221 HD
ENDBRANCH   7   8
BRANCH   7  10
HETATM   10  N3  UNL     1     -12.898  -4.082 -13.611  1.00  0.00    -0.350 N 
ATOM     11  H3  UNL     1     -13.173  -3.377 -14.294  1.00  0.00     0.163 HD
BRANCH  10  12
HETATM   12  C5  UNL     1     -12.921  -3.746 -12.177  1.00  0.00     0.089 C 
HETATM   13  C6  UNL     1     -11.585  -3.794 -11.531  1.00  0.00     0.051 C 
HETATM   14  C7  UNL     1     -11.060  -2.364 -11.347  1.00  0.00     0.169 C 
HETATM   15  O4  UNL     1     -11.824  -1.668 -10.427  1.00  0.00    -0.391 OA
HETATM   16  C8  UNL     1     -13.164  -1.957 -10.539  1.00  0.00     0.169 C 
HETATM   17  C9  UNL     1     -13.529  -2.380 -11.958  1.00  0.00     0.051 C 
ENDBRANCH  10  12
ENDBRANCH   7  10
ENDBRANCH   4   7
BRANCH   5  18
HETATM   18  C11 UNL     1      -9.274  -4.538 -14.278  1.00  0.00     0.043 C 
HETATM   19  C12 UNL     1      -7.812  -4.663 -14.600  1.00  0.00     0.038 C 
HETATM   20  C13 UNL     1      -7.160  -3.314 -14.980  1.00  0.00     0.233 C 
HETATM   21  N4  UNL     1      -7.820  -2.653 -16.052  1.00  0.00    -0.075 N 
HETATM   22  C14 UNL     1      -9.271  -2.800 -15.991  1.00  0.00     0.233 C 
ATOM     23  H42 UNL     1      -7.552  -1.669 -16.096  1.00  0.00     0.277 HD
ATOM     24  H41 UNL     1      -7.457  -2.962 -16.954  1.00  0.00     0.277 HD
HETATM   25  C15 UNL     1      -9.607  -3.098 -14.566  1.00  0.00     0.038 C 
ENDBRANCH   5  18
BRANCH   1  26
HETATM   26  C2  UNL     1     -10.527  -8.469 -17.157  1.00  0.00     0.313 C 
HETATM   27  O2  UNL     1     -11.262  -9.464 -17.037  1.00  0.00    -0.257 OA
BRANCH  26  28
HETATM   28  O1  UNL     1      -9.617  -8.465 -18.202  1.00  0.00    -0.321 OA
HETATM   29  C1  UNL     1      -8.734  -9.547 -18.459  1.00  0.00     0.213 C 
ENDBRANCH  26  28
ENDBRANCH   1  26
BRANCH   6  30
HETATM   30  N5  UNL     1      -8.346  -6.541 -16.441  1.00  0.00    -0.323 N 
HETATM   31  C17 UNL     1      -8.083  -5.887 -17.699  1.00  0.00     0.230 C 
HETATM   32  O5  UNL     1      -9.091  -5.268 -18.198  1.00  0.00    -0.272 OA
ATOM     33  H5  UNL     1      -7.600  -7.054 -15.970  1.00  0.00     0.169 HD
BRANCH  31  34
HETATM   34  C18 UNL     1      -6.806  -5.890 -18.404  1.00  0.00     0.030 C 
HETATM   35  C19 UNL     1      -5.643  -6.458 -17.635  1.00  0.00     0.025 C 
HETATM   36  C20 UNL     1      -6.431  -4.409 -18.652  1.00  0.00     0.025 C 
HETATM   37  C21 UNL     1      -6.922  -6.481 -19.791  1.00  0.00     0.025 C 
ENDBRANCH  31  34
ENDBRANCH   6  30
TORSDOF 9
ENDMDL
MODEL 4
REMARK VINA RESULT: -7.127336942      1.954      7.026
REMARK  9 active torsions:
REMARK  status: ('A' for Active; 'I' for Inactive)
REMARK    1  A    between atoms: O1_2  and  C2_3 
REMARK    2  A    between atoms: C2_3  and  C3_5 
REMARK    3  A    between atoms: N2_8  and  C4_9 
REMARK    4  A    between atoms: C4_9  and  O3_10 
REMARK    5  A    between atoms: C4_9  and  N3_12 
REMARK    6  A    between atoms: N3_12  and  C5_14 
REMARK    7  A    between atoms: C10_20  and  C11_21 
REMARK    8  A    between atoms: C16_29  and  N5_30 
REMARK       I    between atoms: N5_30  and  C17_32 
REMARK    9  A    between atoms: C17_32  and  C18_34 
ROOT
HETATM    1  C3  UNL     1      -6.748  -1.673 -14.352  1.00  0.00     0.153 A 
HETATM    2  N1  UNL     1      -8.004  -2.032 -14.348  1.00  0.00    -0.283 N 
ATOM      3  H1  UNL     1      -8.743  -1.541 -13.845  1.00  0.00     0.188 HD
HETATM    4  N2  UNL     1      -8.200  -3.177 -15.123  1.00  0.00    -0.220 N 
HETATM    5  C10 UNL     1      -7.021  -3.531 -15.640  1.00  0.00     0.071 A 
HETATM    6  C16 UNL     1      -6.102  -2.590 -15.144  1.00  0.00     0.095 A 
ENDROOT
BRANCH   4   7
HETATM    7  C4  UNL     1      -9.523  -3.642 -15.099  1.00  0.00     0.239 C 
BRANCH   7   8
HETATM    8  O3  UNL     1     -10.362  -2.879 -15.801  1.00  0.00    -0.331 OA
ATOM      9  H3  UNL     1     -10.778  -3.341 -16.521  1.00  0.00     0.221 HD
ENDBRANCH   7   8
BRANCH   7  10
HETATM   10  N3  UNL     1     -10.169  -4.723 -14.480  1.00  0.00    -0.350 N 
ATOM     11  H3  UNL     1      -9.720  -5.187 -13.691  1.00  0.00     0.163 HD
BRANCH  10  12
HETATM   12  C5  UNL     1     -11.482  -5.201 -14.947  1.00  0.00     0.089 C 
HETATM   13  C6  UNL     1     -11.400  -6.183 -16.058  1.00  0.00     0.051 C 
HETATM   14  C7  UNL     1     -11.640  -7.594 -15.506  1.00  0.00     0.169 C 
HETATM   15  O4  UNL     1     -12.942  -7.739 -15.060  1.00  0.00    -0.391 OA
HETATM   16  C8  UNL     1     -13.405  -6.608 -14.431  1.00  0.00     0.169 C 
HETATM   17  C9  UNL     1     -12.266  -5.808 -13.807  1.00  0.00     0.051 C 
ENDBRANCH  10  12
ENDBRANCH   7  10
ENDBRANCH   4   7
BRANCH   5  18
HETATM   18  C11 UNL     1      -6.680  -4.586 -16.580  1.00  0.00     0.043 C 
HETATM   19  C12 UNL     1      -7.517  -5.825 -16.427  1.00  0.00     0.038 C 
HETATM   20  C13 UNL     1      -8.055  -6.359 -17.774  1.00  0.00     0.233 C 
HETATM   21  N4  UNL     1      -8.785  -5.389 -18.514  1.00  0.00    -0.075 N 
HETATM   22  C14 UNL     1      -8.206  -4.053 -18.408  1.00  0.00     0.233 C 
ATOM     23  H42 UNL     1      -8.885  -5.670 -19.490  1.00  0.00     0.277 HD
ATOM     24  H41 UNL     1      -9.769  -5.384 -18.244  1.00  0.00     0.277 HD
HETATM   25  C15 UNL     1      -6.770  -4.242 -18.043  1.00  0.00     0.038 C 
ENDBRANCH   5  18
BRANCH   1  26
HETATM   26  C2  UNL     1      -6.140  -0.523 -13.662  1.00  0.00     0.313 C 
HETATM   27  O2  UNL     1      -6.819   0.478 -13.380  1.00  0.00    -0.257 OA
BRANCH  26  28
HETATM   28  O1  UNL     1      -4.802  -0.514 -13.303  1.00  0.00    -0.321 OA
HETATM   29  C1  UNL     1      -4.185   0.590 -12.657  1.00  0.00     0.213 C 
ENDBRANCH  26  28
ENDBRANCH   1  26
BRANCH   6  30
HETATM   30  N5  UNL     1      -4.708  -2.561 -15.330  1.00  0.00    -0.323 N 
HETATM   31  C17 UNL     1      -4.139  -1.884 -16.470  1.00  0.00     0.230 C 
HETATM   32  O5  UNL     1      -4.999  -1.335 -17.247  1.00  0.00    -0.272 OA
ATOM     33  H5  UNL     1      -4.097  -3.023 -14.656  1.00  0.00     0.169 HD
BRANCH  31  34
HETATM   34  C18 UNL     1      -2.715  -1.793 -16.775  1.00  0.00     0.030 C 
HETATM   35  C19 UNL     1      -1.792  -2.380 -15.741  1.00  0.00     0.025 C 
HETATM   36  C20 UNL     1      -2.362  -0.287 -16.813  1.00  0.00     0.025 C 
HETATM   37  C21 UNL     1      -2.400  -2.283 -18.172  1.00  0.00     0.025 C 
ENDBRANCH  31  34
ENDBRANCH   6  30
TORSDOF 9
ENDMDL
MODEL 5
REMARK VINA RESULT: -7.076495327      2.142      6.520
REMARK  9 active torsions:
REMARK  status: ('A' for Active; 'I' for Inactive)
REMARK    1  A    between atoms: O1_2  and  C2_3 
REMARK    2  A    between atoms: C2_3  and  C3_5 
REMARK    3  A    between atoms: N2_8  and  C4_9 
REMARK    4  A    between atoms: C4_9  and  O3_10 
REMARK    5  A    between atoms: C4_9  and  N3_12 
REMARK    6  A    between atoms: N3_12  and  C5_14 
REMARK    7  A    between atoms: C10_20  and  C11_21 
REMARK    8  A    between atoms: C16_29  and  N5_30 
REMARK       I    between atoms: N5_30  and  C17_32 
REMARK    9  A    between atoms: C17_32  and  C18_34 
ROOT
HETATM    1  C3  UNL     1      -6.770  -2.590 -14.988  1.00  0.00     0.153 A 
HETATM    2  N1  UNL     1      -8.016  -2.257 -15.197  1.00  0.00    -0.283 N 
ATOM      3  H1  UNL     1      -8.396  -1.322 -15.052  1.00  0.00     0.188 HD
HETATM    4  N2  UNL     1      -8.758  -3.353 -15.643  1.00  0.00    -0.220 N 
HETATM    5  C10 UNL     1      -7.935  -4.400 -15.730  1.00  0.00     0.071 A 
HETATM    6  C16 UNL     1      -6.683  -3.923 -15.305  1.00  0.00     0.095 A 
ENDROOT
BRANCH   4   7
HETATM    7  C4  UNL     1     -10.119  -3.063 -15.822  1.00  0.00     0.239 C 
BRANCH   7   8
HETATM    8  O3  UNL     1     -10.340  -2.089 -16.706  1.00  0.00    -0.331 OA
ATOM      9  H3  UNL     1      -9.696  -1.391 -16.664  1.00  0.00     0.221 HD
ENDBRANCH   7   8
BRANCH   7  10
HETATM   10  N3  UNL     1     -11.306  -3.556 -15.257  1.00  0.00    -0.350 N 
ATOM     11  H3  UNL     1     -12.164  -3.544 -15.808  1.00  0.00     0.163 HD
BRANCH  10  12
HETATM   12  C5  UNL     1     -11.337  -4.091 -13.885  1.00  0.00     0.089 C 
HETATM   13  C6  UNL     1     -10.227  -3.604 -13.028  1.00  0.00     0.051 C 
HETATM   14  C7  UNL     1     -10.754  -2.517 -12.083  1.00  0.00     0.169 C 
HETATM   15  O4  UNL     1     -11.644  -3.045 -11.165  1.00  0.00    -0.391 OA
HETATM   16  C8  UNL     1     -12.459  -4.003 -11.722  1.00  0.00     0.169 C 
HETATM   17  C9  UNL     1     -12.654  -3.771 -13.216  1.00  0.00     0.051 C 
ENDBRANCH  10  12
ENDBRANCH   7  10
ENDBRANCH   4   7
BRANCH   5  18
HETATM   18  C11 UNL     1      -8.170  -5.748 -16.221  1.00  0.00     0.043 C 
HETATM   19  C12 UNL     1      -9.452  -6.357 -15.727  1.00  0.00     0.038 C 
HETATM   20  C13 UNL     1     -10.275  -7.026 -16.850  1.00  0.00     0.233 C 
HETATM   21  N4  UNL     1     -10.561  -6.152 -17.936  1.00  0.00    -0.075 N 
HETATM   22  C14 UNL     1      -9.446  -5.260 -18.243  1.00  0.00     0.233 C 
ATOM     23  H42 UNL     1     -10.852  -6.675 -18.762  1.00  0.00     0.277 HD
ATOM     24  H41 UNL     1     -11.417  -5.623 -17.767  1.00  0.00     0.277 HD
HETATM   25  C15 UNL     1      -8.216  -5.924 -17.717  1.00  0.00     0.038 C 
ENDBRANCH   5  18
BRANCH   1  26
HETATM   26  C2  UNL     1      -5.676  -1.724 -14.519  1.00  0.00     0.313 C 
HETATM   27  O2  UNL     1      -4.498  -1.961 -14.838  1.00  0.00    -0.257 OA
BRANCH  26  28
HETATM   28  O1  UNL     1      -5.914  -0.623 -13.713  1.00  0.00    -0.321 OA
HETATM   29  C1  UNL     1      -4.872   0.121 -13.097  1.00  0.00     0.213 C 
ENDBRANCH  26  28
ENDBRANCH   1  26
BRANCH   6  30
HETATM   30  N5  UNL     1      -5.491  -4.652 -15.138  1.00  0.00    -0.323 N 
HETATM   31  C17 UNL     1      -4.629  -4.907 -16.266  1.00  0.00     0.230 C 
HETATM   32  O5  UNL     1      -5.045  -4.416 -17.376  1.00  0.00    -0.272 OA
ATOM     33  H5  UNL     1      -5.236  -5.002 -14.214  1.00  0.00     0.169 HD
BRANCH  31  34
HETATM   34  C18 UNL     1      -3.377  -5.654 -16.222  1.00  0.00     0.030 C 
HETATM   35  C19 UNL     1      -2.683  -5.835 -17.545  1.00  0.00     0.025 C 
HETATM   36  C20 UNL     1      -3.730  -7.088 -15.759  1.00  0.00     0.025 C 
HETATM   37  C21 UNL     1      -2.444  -5.137 -15.149  1.00  0.00     0.025 C 
ENDBRANCH  31  34
ENDBRANCH   6  30
TORSDOF 9
ENDMDL
