MODEL 1
REMARK VINA RESULT: -7.475767451      0.000      0.000
REMARK  7 active torsions:
REMARK  status: ('A' for Active; 'I' for Inactive)
REMARK    1  A    between atoms: N1_2  and  C2_4 
REMARK    2  A    between atoms: N3_7  and  C3_8 
REMARK    3  A    between atoms: C4_10  and  N4_11 
REMARK    4  A    between atoms: C6_13  and  C7_14 
REMARK    5  A    between atoms: C13_20  and  C14_21 
REMARK    6  A    between atoms: C18_28  and  O2_29 
REMARK    7  A    between atoms: C19_31  and  O3_32 
ROOT
HETATM    1  C3  UNL     1     -11.246  -4.370 -13.652  1.00  0.00     0.277 A 
HETATM    2  O1  UNL     1     -10.964  -3.647 -14.769  1.00  0.00    -0.334 OA
HETATM    3  C4  UNL     1     -11.565  -4.206 -15.862  1.00  0.00     0.277 A 
HETATM    4  C18 UNL     1     -12.410  -5.353 -15.447  1.00  0.00     0.201 A 
HETATM    5  C19 UNL     1     -12.242  -5.429 -13.969  1.00  0.00     0.201 A 
ENDROOT
BRANCH   3   6
HETATM    6  N4  UNL     1     -10.605  -4.569 -16.910  1.00  0.00    -0.270 N 
HETATM    7  C5  UNL     1     -10.637  -4.180 -18.189  1.00  0.00     0.128 A 
HETATM    8  C6  UNL     1      -9.548  -4.754 -18.819  1.00  0.00     0.021 A 
HETATM    9  C13 UNL     1      -8.858  -5.502 -17.882  1.00  0.00     0.077 A 
HETATM   10  N5  UNL     1      -9.543  -5.356 -16.736  1.00  0.00    -0.294 N 
ATOM     11  H5  UNL     1      -9.286  -5.789 -15.850  1.00  0.00     0.187 HD
BRANCH   8  12
HETATM   12  C7  UNL     1      -9.116  -4.657 -20.202  1.00  0.00    -0.022 A 
HETATM   13  C8  UNL     1      -9.746  -5.439 -21.144  1.00  0.00     0.012 A 
HETATM   14  C9  UNL     1      -9.373  -5.384 -22.476  1.00  0.00     0.001 A 
HETATM   15  C10 UNL     1      -8.365  -4.545 -22.889  1.00  0.00     0.000 A 
HETATM   16  C11 UNL     1      -7.733  -3.759 -21.936  1.00  0.00     0.001 A 
HETATM   17  C12 UNL     1      -8.108  -3.817 -20.612  1.00  0.00     0.012 A 
ENDBRANCH   8  12
BRANCH   9  18
HETATM   18  C14 UNL     1      -7.628  -6.296 -18.096  1.00  0.00     0.033 A 
HETATM   19  C15 UNL     1      -7.531  -7.509 -18.722  1.00  0.00     0.021 A 
HETATM   20  C16 UNL     1      -6.311  -8.062 -18.809  1.00  0.00     0.008 A 
HETATM   21  C17 UNL     1      -5.266  -7.365 -18.266  1.00  0.00     0.050 A 
HETATM   22  S1  UNL     1      -6.017  -5.966 -17.650  1.00  0.00    -0.100 SA
ENDBRANCH   9  18
ENDBRANCH   3   6
BRANCH   4  23
HETATM   23  O2  UNL     1     -12.029  -6.565 -16.003  1.00  0.00    -0.388 OA
ATOM     24  H2  UNL     1     -11.590  -7.148 -15.396  1.00  0.00     0.210 HD
ENDBRANCH   4  23
BRANCH   1  25
HETATM   25  N3  UNL     1     -11.774  -3.563 -12.549  1.00  0.00    -0.267 N 
HETATM   26  N2  UNL     1     -13.040  -3.457 -12.209  1.00  0.00    -0.279 N 
HETATM   27  C2  UNL     1     -13.189  -2.640 -11.156  1.00  0.00     0.156 A 
ATOM     28  H2  UNL     1     -13.806  -3.934 -12.683  1.00  0.00     0.189 HD
HETATM   29  C21 UNL     1     -11.932  -2.202 -10.811  1.00  0.00     0.178 A 
HETATM   30  C20 UNL     1     -11.071  -2.804 -11.710  1.00  0.00     0.159 A 
HETATM   31  F1  UNL     1     -11.633  -1.356  -9.795  1.00  0.00    -0.201 F 
BRANCH  27  32
HETATM   32  N1  UNL     1     -14.276  -2.306 -10.556  1.00  0.00    -0.377 N 
HETATM   33  C1  UNL     1     -14.960  -3.188  -9.631  1.00  0.00     0.148 C 
ATOM     34  H1  UNL     1     -14.673  -1.384 -10.739  1.00  0.00     0.160 HD
ENDBRANCH  27  32
ENDBRANCH   1  25
BRANCH   5  35
HETATM   35  O3  UNL     1     -11.852  -6.695 -13.531  1.00  0.00    -0.388 OA
ATOM     36  H3  UNL     1     -12.460  -7.381 -13.783  1.00  0.00     0.210 HD
ENDBRANCH   5  35
TORSDOF 7
ENDMDL
MODEL 2
REMARK VINA RESULT: -7.438740816      1.471      2.975
REMARK  7 active torsions:
REMARK  status: ('A' for Active; 'I' for Inactive)
REMARK    1  A    between atoms: N1_2  and  C2_4 
REMARK    2  A    between atoms: N3_7  and  C3_8 
REMARK    3  A    between atoms: C4_10  and  N4_11 
REMARK    4  A    between atoms: C6_13  and  C7_14 
REMARK    5  A    between atoms: C13_20  and  C14_21 
REMARK    6  A    between atoms: C18_28  and  O2_29 
REMARK    7  A    between atoms: C19_31  and  O3_32 
ROOT
HETATM    1  C3  UNL     1     -11.064  -4.420 -13.608  1.00  0.00     0.277 A 
HETATM    2  O1  UNL     1     -10.415  -3.689 -14.553  1.00  0.00    -0.334 OA
HETATM    3  C4  UNL     1     -10.840  -4.043 -15.803  1.00  0.00     0.277 A 
HETATM    4  C18 UNL     1     -11.943  -5.030 -15.704  1.00  0.00     0.201 A 
HETATM    5  C19 UNL     1     -12.131  -5.240 -14.242  1.00  0.00     0.201 A 
ENDROOT
BRANCH   3   6
HETATM    6  N4  UNL     1      -9.745  -4.512 -16.660  1.00  0.00    -0.270 N 
HETATM    7  C5  UNL     1      -8.469  -4.684 -16.299  1.00  0.00     0.128 A 
HETATM    8  C6  UNL     1      -7.785  -5.135 -17.412  1.00  0.00     0.021 A 
HETATM    9  C13 UNL     1      -8.686  -5.231 -18.458  1.00  0.00     0.077 A 
HETATM   10  N5  UNL     1      -9.866  -4.840 -17.946  1.00  0.00    -0.294 N 
ATOM     11  H5  UNL     1     -10.738  -4.799 -18.472  1.00  0.00     0.187 HD
BRANCH   8  12
HETATM   12  C7  UNL     1      -6.382  -5.476 -17.567  1.00  0.00    -0.022 A 
HETATM   13  C8  UNL     1      -5.970  -6.742 -17.216  1.00  0.00     0.012 A 
HETATM   14  C9  UNL     1      -4.644  -7.118 -17.344  1.00  0.00     0.001 A 
HETATM   15  C10 UNL     1      -3.707  -6.235 -17.828  1.00  0.00     0.000 A 
HETATM   16  C11 UNL     1      -4.127  -4.960 -18.181  1.00  0.00     0.001 A 
HETATM   17  C12 UNL     1      -5.448  -4.590 -18.051  1.00  0.00     0.012 A 
ENDBRANCH   8  12
BRANCH   9  18
HETATM   18  C14 UNL     1      -8.412  -5.668 -19.844  1.00  0.00     0.033 A 
HETATM   19  C15 UNL     1      -8.189  -6.949 -20.271  1.00  0.00     0.021 A 
HETATM   20  C16 UNL     1      -7.957  -7.129 -21.582  1.00  0.00     0.008 A 
HETATM   21  C17 UNL     1      -7.963  -6.016 -22.379  1.00  0.00     0.050 A 
HETATM   22  S1  UNL     1      -8.290  -4.758 -21.278  1.00  0.00    -0.100 SA
ENDBRANCH   9  18
ENDBRANCH   3   6
BRANCH   4  23
HETATM   23  O2  UNL     1     -11.663  -6.251 -16.299  1.00  0.00    -0.388 OA
ATOM     24  H2  UNL     1     -12.146  -6.981 -15.930  1.00  0.00     0.210 HD
ENDBRANCH   4  23
BRANCH   1  25
HETATM   25  N3  UNL     1     -11.680  -3.604 -12.557  1.00  0.00    -0.267 N 
HETATM   26  N2  UNL     1     -12.964  -3.546 -12.281  1.00  0.00    -0.279 N 
HETATM   27  C2  UNL     1     -13.200  -2.704 -11.263  1.00  0.00     0.156 A 
ATOM     28  H2  UNL     1     -13.685  -4.071 -12.774  1.00  0.00     0.189 HD
HETATM   29  C21 UNL     1     -11.981  -2.200 -10.874  1.00  0.00     0.178 A 
HETATM   30  C20 UNL     1     -11.053  -2.788 -11.712  1.00  0.00     0.159 A 
HETATM   31  F1  UNL     1     -11.769  -1.310  -9.874  1.00  0.00    -0.201 F 
BRANCH  27  32
HETATM   32  N1  UNL     1     -14.328  -2.402 -10.726  1.00  0.00    -0.377 N 
HETATM   33  C1  UNL     1     -14.948  -3.218  -9.700  1.00  0.00     0.148 C 
ATOM     34  H1  UNL     1     -14.807  -1.556 -11.034  1.00  0.00     0.160 HD
ENDBRANCH  27  32
ENDBRANCH   1  25
BRANCH   5  35
HETATM   35  O3  UNL     1     -12.077  -6.585 -13.875  1.00  0.00    -0.388 OA
ATOM     36  H3  UNL     1     -12.890  -6.902 -13.497  1.00  0.00     0.210 HD
ENDBRANCH   5  35
TORSDOF 7
ENDMDL
MODEL 3
REMARK VINA RESULT: -7.305616202      3.473      4.868
REMARK  7 active torsions:
REMARK  status: ('A' for Active; 'I' for Inactive)
REMARK    1  A    between atoms: N1_2  and  C2_4 
REMARK    2  A    between atoms: N3_7  and  C3_8 
REMARK    3  A    between atoms: C4_10  and  N4_11 
REMARK    4  A    between atoms: C6_13  and  C7_14 
REMARK    5  A    between atoms: C13_20  and  C14_21 
REMARK    6  A    between atoms: C18_28  and  O2_29 
REMARK    7  A    between atoms: C19_31  and  O3_32 
ROOT
HETATM    1  C3  UNL     1      -9.749  -3.878 -13.829  1.00  0.00     0.277 A 
HETATM    2  O1  UNL     1      -8.521  -3.324 -13.641  1.00  0.00    -0.334 OA
HETATM    3  C4  UNL     1      -8.070  -2.762 -14.802  1.00  0.00     0.277 A 
HETATM    4  C18 UNL     1      -9.116  -2.851 -15.851  1.00  0.00     0.201 A 
HETATM    5  C19 UNL     1     -10.255  -3.545 -15.187  1.00  0.00     0.201 A 
ENDROOT
BRANCH   3   6
HETATM    6  N4  UNL     1      -6.789  -3.326 -15.242  1.00  0.00    -0.270 N 
HETATM    7  C5  UNL     1      -5.632  -2.668 -15.370  1.00  0.00     0.128 A 
HETATM    8  C6  UNL     1      -4.689  -3.579 -15.810  1.00  0.00     0.021 A 
HETATM    9  C13 UNL     1      -5.312  -4.807 -15.943  1.00  0.00     0.077 A 
HETATM   10  N5  UNL     1      -6.590  -4.598 -15.585  1.00  0.00    -0.294 N 
ATOM     11  H5  UNL     1      -7.312  -5.317 -15.577  1.00  0.00     0.187 HD
BRANCH   8  12
HETATM   12  C7  UNL     1      -3.280  -3.389 -16.107  1.00  0.00    -0.022 A 
HETATM   13  C8  UNL     1      -2.370  -3.510 -15.081  1.00  0.00     0.012 A 
HETATM   14  C9  UNL     1      -1.015  -3.340 -15.310  1.00  0.00     0.001 A 
HETATM   15  C10 UNL     1      -0.547  -3.047 -16.570  1.00  0.00     0.000 A 
HETATM   16  C11 UNL     1      -1.469  -2.926 -17.601  1.00  0.00     0.001 A 
HETATM   17  C12 UNL     1      -2.816  -3.097 -17.368  1.00  0.00     0.012 A 
ENDBRANCH   8  12
BRANCH   9  18
HETATM   18  C14 UNL     1      -4.702  -6.080 -16.387  1.00  0.00     0.033 A 
HETATM   19  C15 UNL     1      -3.924  -6.922 -15.640  1.00  0.00     0.021 A 
HETATM   20  C16 UNL     1      -3.467  -8.033 -16.240  1.00  0.00     0.008 A 
HETATM   21  C17 UNL     1      -3.820  -8.230 -17.548  1.00  0.00     0.050 A 
HETATM   22  S1  UNL     1      -4.772  -6.862 -17.899  1.00  0.00    -0.100 SA
ENDBRANCH   9  18
ENDBRANCH   3   6
BRANCH   4  23
HETATM   23  O2  UNL     1      -8.736  -3.582 -16.966  1.00  0.00    -0.388 OA
ATOM     24  H2  UNL     1      -8.416  -4.454 -16.767  1.00  0.00     0.210 HD
ENDBRANCH   4  23
BRANCH   1  25
HETATM   25  N3  UNL     1     -10.746  -3.438 -12.849  1.00  0.00    -0.267 N 
HETATM   26  N2  UNL     1     -12.025  -3.743 -12.863  1.00  0.00    -0.279 N 
HETATM   27  C2  UNL     1     -12.665  -3.181 -11.827  1.00  0.00     0.156 A 
ATOM     28  H2  UNL     1     -12.472  -4.329 -13.569  1.00  0.00     0.189 HD
HETATM   29  C21 UNL     1     -11.724  -2.477 -11.114  1.00  0.00     0.178 A 
HETATM   30  C20 UNL     1     -10.533  -2.662 -11.788  1.00  0.00     0.159 A 
HETATM   31  F1  UNL     1     -11.952  -1.758  -9.987  1.00  0.00    -0.201 F 
BRANCH  27  32
HETATM   32  N1  UNL     1     -13.912  -3.263 -11.524  1.00  0.00    -0.377 N 
HETATM   33  C1  UNL     1     -14.378  -3.344 -10.153  1.00  0.00     0.148 C 
ATOM     34  H1  UNL     1     -14.600  -3.270 -12.277  1.00  0.00     0.160 HD
ENDBRANCH  27  32
ENDBRANCH   1  25
BRANCH   5  35
HETATM   35  O3  UNL     1     -10.697  -4.663 -15.896  1.00  0.00    -0.388 OA
ATOM     36  H3  UNL     1     -10.003  -5.097 -16.379  1.00  0.00     0.210 HD
ENDBRANCH   5  35
TORSDOF 7
ENDMDL
MODEL 4
REMARK VINA RESULT: -7.298441743      4.613      6.261
REMARK  7 active torsions:
REMARK  status: ('A' for Active; 'I' for Inactive)
REMARK    1  A    between atoms: N1_2  and  C2_4 
REMARK    2  A    between atoms: N3_7  and  C3_8 
REMARK    3  A    between atoms: C4_10  and  N4_11 
REMARK    4  A    between atoms: C6_13  and  C7_14 
REMARK    5  A    between atoms: C13_20  and  C14_21 
REMARK    6  A    between atoms: C18_28  and  O2_29 
REMARK    7  A    between atoms: C19_31  and  O3_32 
ROOT
HETATM    1  C3  UNL     1      -9.633  -4.347 -15.811  1.00  0.00     0.277 A 
HETATM    2  O1  UNL     1      -8.768  -3.552 -15.127  1.00  0.00    -0.334 OA
HETATM    3  C4  UNL     1      -8.316  -2.541 -15.929  1.00  0.00     0.277 A 
HETATM    4  C18 UNL     1      -9.004  -2.587 -17.243  1.00  0.00     0.201 A 
HETATM    5  C19 UNL     1      -9.921  -3.757 -17.146  1.00  0.00     0.201 A 
ENDROOT
BRANCH   3   6
HETATM    6  N4  UNL     1      -6.855  -2.536 -16.062  1.00  0.00    -0.270 N 
HETATM    7  C5  UNL     1      -6.005  -3.430 -15.547  1.00  0.00     0.128 A 
HETATM    8  C6  UNL     1      -4.730  -3.043 -15.914  1.00  0.00     0.021 A 
HETATM    9  C13 UNL     1      -4.834  -1.888 -16.667  1.00  0.00     0.077 A 
HETATM   10  N5  UNL     1      -6.150  -1.621 -16.727  1.00  0.00    -0.294 N 
ATOM     11  H5  UNL     1      -6.556  -0.824 -17.217  1.00  0.00     0.187 HD
BRANCH   8  12
HETATM   12  C7  UNL     1      -3.449  -3.661 -15.619  1.00  0.00    -0.022 A 
HETATM   13  C8  UNL     1      -3.027  -4.707 -16.409  1.00  0.00     0.012 A 
HETATM   14  C9  UNL     1      -1.814  -5.331 -16.171  1.00  0.00     0.001 A 
HETATM   15  C10 UNL     1      -1.002  -4.918 -15.140  1.00  0.00     0.000 A 
HETATM   16  C11 UNL     1      -1.432  -3.864 -14.347  1.00  0.00     0.001 A 
HETATM   17  C12 UNL     1      -2.640  -3.246 -14.588  1.00  0.00     0.012 A 
ENDBRANCH   8  12
BRANCH   9  18
HETATM   18  C14 UNL     1      -3.734  -1.109 -17.276  1.00  0.00     0.033 A 
HETATM   19  C15 UNL     1      -2.808  -0.345 -16.619  1.00  0.00     0.021 A 
HETATM   20  C16 UNL     1      -1.886   0.284 -17.367  1.00  0.00     0.008 A 
HETATM   21  C17 UNL     1      -1.951   0.107 -18.723  1.00  0.00     0.050 A 
HETATM   22  S1  UNL     1      -3.292  -0.926 -18.911  1.00  0.00    -0.100 SA
ENDBRANCH   9  18
ENDBRANCH   3   6
BRANCH   4  23
HETATM   23  O2  UNL     1      -8.150  -2.776 -18.319  1.00  0.00    -0.388 OA
ATOM     24  H2  UNL     1      -8.596  -2.903 -19.149  1.00  0.00     0.210 HD
ENDBRANCH   4  23
BRANCH   1  25
HETATM   25  N3  UNL     1     -10.909  -4.555 -15.119  1.00  0.00    -0.267 N 
HETATM   26  N2  UNL     1     -11.497  -3.697 -14.315  1.00  0.00    -0.279 N 
HETATM   27  C2  UNL     1     -12.651  -4.192 -13.844  1.00  0.00     0.156 A 
ATOM     28  H2  UNL     1     -11.124  -2.777 -14.079  1.00  0.00     0.189 HD
HETATM   29  C21 UNL     1     -12.798  -5.445 -14.390  1.00  0.00     0.178 A 
HETATM   30  C20 UNL     1     -11.683  -5.636 -15.184  1.00  0.00     0.159 A 
HETATM   31  F1  UNL     1     -13.833  -6.293 -14.173  1.00  0.00    -0.201 F 
BRANCH  27  32
HETATM   32  N1  UNL     1     -13.485  -3.636 -13.039  1.00  0.00    -0.377 N 
HETATM   33  C1  UNL     1     -13.129  -3.256 -11.686  1.00  0.00     0.148 C 
ATOM     34  H1  UNL     1     -14.435  -3.454 -13.366  1.00  0.00     0.160 HD
ENDBRANCH  27  32
ENDBRANCH   1  25
BRANCH   5  35
HETATM   35  O3  UNL     1      -9.757  -4.664 -18.193  1.00  0.00    -0.388 OA
ATOM     36  H3  UNL     1      -9.710  -4.246 -19.045  1.00  0.00     0.210 HD
ENDBRANCH   5  35
TORSDOF 7
ENDMDL
MODEL 5
REMARK VINA RESULT: -7.284674096      2.305      3.991
REMARK  7 active torsions:
REMARK  status: ('A' for Active; 'I' for Inactive)
REMARK    1  A    between atoms: N1_2  and  C2_4 
REMARK    2  A    between atoms: N3_7  and  C3_8 
REMARK    3  A    between atoms: C4_10  and  N4_11 
REMARK    4  A    between atoms: C6_13  and  C7_14 
REMARK    5  A    between atoms: C13_20  and  C14_21 
REMARK    6  A    between atoms: C18_28  and  O2_29 
REMARK    7  A    between atoms: C19_31  and  O3_32 
ROOT
HETATM    1  C3  UNL     1     -10.519  -3.940 -13.417  1.00  0.00     0.277 A 
HETATM    2  O1  UNL     1      -9.460  -3.223 -13.880  1.00  0.00    -0.334 OA
HETATM    3  C4  UNL     1      -9.485  -3.167 -15.246  1.00  0.00     0.277 A 
HETATM    4  C18 UNL     1     -10.716  -3.816 -15.759  1.00  0.00     0.201 A 
HETATM    5  C19 UNL     1     -11.433  -4.283 -14.540  1.00  0.00     0.201 A 
ENDROOT
BRANCH   3   6
HETATM    6  N4  UNL     1      -8.268  -3.715 -15.855  1.00  0.00    -0.270 N 
HETATM    7  C5  UNL     1      -7.247  -4.294 -15.214  1.00  0.00     0.128 A 
HETATM    8  C6  UNL     1      -6.317  -4.660 -16.169  1.00  0.00     0.021 A 
HETATM    9  C13 UNL     1      -6.807  -4.284 -17.408  1.00  0.00     0.077 A 
HETATM   10  N5  UNL     1      -7.998  -3.713 -17.160  1.00  0.00    -0.294 N 
ATOM     11  H5  UNL     1      -8.614  -3.329 -17.876  1.00  0.00     0.187 HD
BRANCH   8  12
HETATM   12  C7  UNL     1      -5.034  -5.320 -16.013  1.00  0.00    -0.022 A 
HETATM   13  C8  UNL     1      -5.006  -6.694 -15.938  1.00  0.00     0.012 A 
HETATM   14  C9  UNL     1      -3.809  -7.373 -15.789  1.00  0.00     0.001 A 
HETATM   15  C10 UNL     1      -2.618  -6.689 -15.714  1.00  0.00     0.000 A 
HETATM   16  C11 UNL     1      -2.651  -5.304 -15.790  1.00  0.00     0.001 A 
HETATM   17  C12 UNL     1      -3.845  -4.633 -15.938  1.00  0.00     0.012 A 
ENDBRANCH   8  12
BRANCH   9  18
HETATM   18  C14 UNL     1      -6.158  -4.470 -18.724  1.00  0.00     0.033 A 
HETATM   19  C15 UNL     1      -6.191  -5.594 -19.504  1.00  0.00     0.021 A 
HETATM   20  C16 UNL     1      -5.530  -5.552 -20.672  1.00  0.00     0.008 A 
HETATM   21  C17 UNL     1      -4.880  -4.389 -20.984  1.00  0.00     0.050 A 
HETATM   22  S1  UNL     1      -5.209  -3.394 -19.641  1.00  0.00    -0.100 SA
ENDBRANCH   9  18
ENDBRANCH   3   6
BRANCH   4  23
HETATM   23  O2  UNL     1     -10.477  -4.906 -16.583  1.00  0.00    -0.388 OA
ATOM     24  H2  UNL     1     -10.689  -4.755 -17.496  1.00  0.00     0.210 HD
ENDBRANCH   4  23
BRANCH   1  25
HETATM   25  N3  UNL     1     -11.298  -3.239 -12.392  1.00  0.00    -0.267 N 
HETATM   26  N2  UNL     1     -12.607  -3.266 -12.267  1.00  0.00    -0.279 N 
HETATM   27  C2  UNL     1     -13.007  -2.518 -11.228  1.00  0.00     0.156 A 
ATOM     28  H2  UNL     1     -13.234  -3.786 -12.880  1.00  0.00     0.189 HD
HETATM   29  C21 UNL     1     -11.873  -1.986 -10.662  1.00  0.00     0.178 A 
HETATM   30  C20 UNL     1     -10.821  -2.461 -11.422  1.00  0.00     0.159 A 
HETATM   31  F1  UNL     1     -11.830  -1.166  -9.583  1.00  0.00    -0.201 F 
BRANCH  27  32
HETATM   32  N1  UNL     1     -14.205  -2.315 -10.810  1.00  0.00    -0.377 N 
HETATM   33  C1  UNL     1     -14.818  -3.122  -9.773  1.00  0.00     0.148 C 
ATOM     34  H1  UNL     1     -14.746  -1.555 -11.224  1.00  0.00     0.160 HD
ENDBRANCH  27  32
ENDBRANCH   1  25
BRANCH   5  35
HETATM   35  O3  UNL     1     -11.758  -5.639 -14.586  1.00  0.00    -0.388 OA
ATOM     36  H3  UNL     1     -11.658  -6.017 -15.452  1.00  0.00     0.210 HD
ENDBRANCH   5  35
TORSDOF 7
ENDMDL
