MODEL 1
REMARK VINA RESULT: -8.005628383      0.000      0.000
REMARK  7 active torsions:
REMARK  status: ('A' for Active; 'I' for Inactive)
REMARK    1  A    between atoms: O1_1  and  C1_3 
REMARK    2  A    between atoms: C1_3  and  N1_4 
REMARK    3  A    between atoms: N1_4  and  C2_5 
REMARK    4  A    between atoms: N1_4  and  C10_15 
REMARK    5  A    between atoms: C2_5  and  C3_6 
REMARK    6  A    between atoms: C3_6  and  O2_7 
REMARK    7  A    between atoms: C3_6  and  C4_9 
ROOT
HETATM    1  N1  UNL     1      38.483 -12.108   1.143  1.00  0.00    -0.357 N 
ENDROOT
BRANCH   1   2
HETATM    2  C1  UNL     1      37.060 -11.980   0.941  1.00  0.00     0.290 C 
BRANCH   2   3
HETATM    3  O1  UNL     1      36.466 -11.258   1.979  1.00  0.00    -0.382 OA
ATOM      4  H1  UNL     1      37.100 -10.701   2.415  1.00  0.00     0.211 HD
ENDBRANCH   2   3
ENDBRANCH   1   2
BRANCH   1   5
HETATM    5  C2  UNL     1      39.234 -11.010   1.687  1.00  0.00     0.162 C 
BRANCH   5   6
HETATM    6  C3  UNL     1      39.153  -9.773   0.855  1.00  0.00     0.169 C 
BRANCH   6   7
HETATM    7  O2  UNL     1      38.150  -8.948   1.334  1.00  0.00    -0.389 OA
ATOM      8  H2  UNL     1      37.483  -9.469   1.766  1.00  0.00     0.210 HD
ENDBRANCH   6   7
BRANCH   6   9
HETATM    9  C4  UNL     1      40.420  -8.992   0.872  1.00  0.00    -0.028 A 
HETATM   10  C5  UNL     1      40.625  -7.851   0.128  1.00  0.00     0.010 A 
HETATM   11  C6  UNL     1      41.820  -7.141   0.167  1.00  0.00     0.001 A 
HETATM   12  C7  UNL     1      42.844  -7.591   0.977  1.00  0.00     0.000 A 
HETATM   13  C8  UNL     1      42.666  -8.737   1.737  1.00  0.00     0.001 A 
HETATM   14  C9  UNL     1      41.471  -9.407   1.668  1.00  0.00     0.010 A 
ENDBRANCH   6   9
ENDBRANCH   5   6
ENDBRANCH   1   5
BRANCH   1  15
HETATM   15  C10 UNL     1      39.116 -13.304   0.777  1.00  0.00     0.031 A 
HETATM   16  C11 UNL     1      39.223 -14.364   1.671  1.00  0.00     0.029 A 
HETATM   17  C12 UNL     1      39.841 -15.535   1.347  1.00  0.00     0.002 A 
HETATM   18  C13 UNL     1      40.375 -15.666   0.090  1.00  0.00     0.000 A 
HETATM   19  C14 UNL     1      40.290 -14.641  -0.823  1.00  0.00     0.002 A 
HETATM   20  C15 UNL     1      39.654 -13.448  -0.473  1.00  0.00     0.029 A 
ENDBRANCH   1  15
TORSDOF 7
ENDMDL
MODEL 2
REMARK VINA RESULT: -7.999471471      0.051      1.118
REMARK  7 active torsions:
REMARK  status: ('A' for Active; 'I' for Inactive)
REMARK    1  A    between atoms: O1_1  and  C1_3 
REMARK    2  A    between atoms: C1_3  and  N1_4 
REMARK    3  A    between atoms: N1_4  and  C2_5 
REMARK    4  A    between atoms: N1_4  and  C10_15 
REMARK    5  A    between atoms: C2_5  and  C3_6 
REMARK    6  A    between atoms: C3_6  and  O2_7 
REMARK    7  A    between atoms: C3_6  and  C4_9 
ROOT
HETATM    1  N1  UNL     1      38.479 -12.107   1.151  1.00  0.00    -0.357 N 
ENDROOT
BRANCH   1   2
HETATM    2  C1  UNL     1      37.060 -11.967   0.928  1.00  0.00     0.290 C 
BRANCH   2   3
HETATM    3  O1  UNL     1      36.455 -11.255   1.967  1.00  0.00    -0.382 OA
ATOM      4  H1  UNL     1      37.022 -10.559   2.280  1.00  0.00     0.211 HD
ENDBRANCH   2   3
ENDBRANCH   1   2
BRANCH   1   5
HETATM    5  C2  UNL     1      39.231 -11.018   1.712  1.00  0.00     0.162 C 
BRANCH   5   6
HETATM    6  C3  UNL     1      39.185  -9.782   0.876  1.00  0.00     0.169 C 
BRANCH   6   7
HETATM    7  O2  UNL     1      38.186  -8.941   1.332  1.00  0.00    -0.389 OA
ATOM      8  H2  UNL     1      38.543  -8.328   1.965  1.00  0.00     0.210 HD
ENDBRANCH   6   7
BRANCH   6   9
HETATM    9  C4  UNL     1      40.464  -9.019   0.918  1.00  0.00    -0.028 A 
HETATM   10  C5  UNL     1      41.544  -9.380   1.693  1.00  0.00     0.010 A 
HETATM   11  C6  UNL     1      42.726  -8.648   1.710  1.00  0.00     0.001 A 
HETATM   12  C7  UNL     1      42.829  -7.517   0.924  1.00  0.00     0.000 A 
HETATM   13  C8  UNL     1      41.757  -7.130   0.132  1.00  0.00     0.001 A 
HETATM   14  C9  UNL     1      40.609  -7.881   0.147  1.00  0.00     0.010 A 
ENDBRANCH   6   9
ENDBRANCH   5   6
ENDBRANCH   1   5
BRANCH   1  15
HETATM   15  C10 UNL     1      39.109 -13.306   0.789  1.00  0.00     0.031 A 
HETATM   16  C11 UNL     1      39.217 -14.362   1.688  1.00  0.00     0.029 A 
HETATM   17  C12 UNL     1      39.832 -15.536   1.368  1.00  0.00     0.002 A 
HETATM   18  C13 UNL     1      40.360 -15.674   0.109  1.00  0.00     0.000 A 
HETATM   19  C14 UNL     1      40.274 -14.654  -0.809  1.00  0.00     0.002 A 
HETATM   20  C15 UNL     1      39.641 -13.458  -0.462  1.00  0.00     0.029 A 
ENDBRANCH   1  15
TORSDOF 7
ENDMDL
MODEL 3
REMARK VINA RESULT: -7.983037657      0.054      1.584
REMARK  7 active torsions:
REMARK  status: ('A' for Active; 'I' for Inactive)
REMARK    1  A    between atoms: O1_1  and  C1_3 
REMARK    2  A    between atoms: C1_3  and  N1_4 
REMARK    3  A    between atoms: N1_4  and  C2_5 
REMARK    4  A    between atoms: N1_4  and  C10_15 
REMARK    5  A    between atoms: C2_5  and  C3_6 
REMARK    6  A    between atoms: C3_6  and  O2_7 
REMARK    7  A    between atoms: C3_6  and  C4_9 
ROOT
HETATM    1  N1  UNL     1      38.483 -12.105   1.153  1.00  0.00    -0.357 N 
ENDROOT
BRANCH   1   2
HETATM    2  C1  UNL     1      37.064 -11.970   0.929  1.00  0.00     0.290 C 
BRANCH   2   3
HETATM    3  O1  UNL     1      36.456 -11.257   1.965  1.00  0.00    -0.382 OA
ATOM      4  H1  UNL     1      36.197 -10.389   1.678  1.00  0.00     0.211 HD
ENDBRANCH   2   3
ENDBRANCH   1   2
BRANCH   1   5
HETATM    5  C2  UNL     1      39.230 -11.015   1.715  1.00  0.00     0.162 C 
BRANCH   5   6
HETATM    6  C3  UNL     1      39.187  -9.780   0.876  1.00  0.00     0.169 C 
BRANCH   6   7
HETATM    7  O2  UNL     1      38.187  -8.937   1.331  1.00  0.00    -0.389 OA
ATOM      8  H2  UNL     1      38.570  -8.139   1.677  1.00  0.00     0.210 HD
ENDBRANCH   6   7
BRANCH   6   9
HETATM    9  C4  UNL     1      40.466  -9.018   0.918  1.00  0.00    -0.028 A 
HETATM   10  C5  UNL     1      41.546  -9.379   1.693  1.00  0.00     0.010 A 
HETATM   11  C6  UNL     1      42.729  -8.648   1.710  1.00  0.00     0.001 A 
HETATM   12  C7  UNL     1      42.832  -7.517   0.924  1.00  0.00     0.000 A 
HETATM   13  C8  UNL     1      41.760  -7.130   0.132  1.00  0.00     0.001 A 
HETATM   14  C9  UNL     1      40.611  -7.880   0.147  1.00  0.00     0.010 A 
ENDBRANCH   6   9
ENDBRANCH   5   6
ENDBRANCH   1   5
BRANCH   1  15
HETATM   15  C10 UNL     1      39.117 -13.302   0.791  1.00  0.00     0.031 A 
HETATM   16  C11 UNL     1      39.664 -13.473  -0.477  1.00  0.00     0.029 A 
HETATM   17  C12 UNL     1      40.278 -14.628  -0.860  1.00  0.00     0.002 A 
HETATM   18  C13 UNL     1      40.357 -15.657   0.045  1.00  0.00     0.000 A 
HETATM   19  C14 UNL     1      39.829 -15.528   1.308  1.00  0.00     0.002 A 
HETATM   20  C15 UNL     1      39.203 -14.337   1.682  1.00  0.00     0.029 A 
ENDBRANCH   1  15
TORSDOF 7
ENDMDL
MODEL 4
REMARK VINA RESULT: -7.968932946      0.024      1.122
REMARK  7 active torsions:
REMARK  status: ('A' for Active; 'I' for Inactive)
REMARK    1  A    between atoms: O1_1  and  C1_3 
REMARK    2  A    between atoms: C1_3  and  N1_4 
REMARK    3  A    between atoms: N1_4  and  C2_5 
REMARK    4  A    between atoms: N1_4  and  C10_15 
REMARK    5  A    between atoms: C2_5  and  C3_6 
REMARK    6  A    between atoms: C3_6  and  O2_7 
REMARK    7  A    between atoms: C3_6  and  C4_9 
ROOT
HETATM    1  N1  UNL     1      38.480 -12.097   1.149  1.00  0.00    -0.357 N 
ENDROOT
BRANCH   1   2
HETATM    2  C1  UNL     1      37.059 -11.974   0.936  1.00  0.00     0.290 C 
BRANCH   2   3
HETATM    3  O1  UNL     1      36.456 -11.243   1.962  1.00  0.00    -0.382 OA
ATOM      4  H1  UNL     1      35.777 -10.672   1.623  1.00  0.00     0.211 HD
ENDBRANCH   2   3
ENDBRANCH   1   2
BRANCH   1   5
HETATM    5  C2  UNL     1      39.225 -10.995   1.693  1.00  0.00     0.162 C 
BRANCH   5   6
HETATM    6  C3  UNL     1      39.157  -9.766   0.847  1.00  0.00     0.169 C 
BRANCH   6   7
HETATM    7  O2  UNL     1      38.151  -8.934   1.305  1.00  0.00    -0.389 OA
ATOM      8  H2  UNL     1      38.203  -8.093   0.867  1.00  0.00     0.210 HD
ENDBRANCH   6   7
BRANCH   6   9
HETATM    9  C4  UNL     1      40.426  -8.987   0.871  1.00  0.00    -0.028 A 
HETATM   10  C5  UNL     1      40.639  -7.849   0.125  1.00  0.00     0.010 A 
HETATM   11  C6  UNL     1      41.835  -7.142   0.171  1.00  0.00     0.001 A 
HETATM   12  C7  UNL     1      42.852  -7.591   0.990  1.00  0.00     0.000 A 
HETATM   13  C8  UNL     1      42.665  -8.735   1.754  1.00  0.00     0.001 A 
HETATM   14  C9  UNL     1      41.469  -9.403   1.677  1.00  0.00     0.010 A 
ENDBRANCH   6   9
ENDBRANCH   5   6
ENDBRANCH   1   5
BRANCH   1  15
HETATM   15  C10 UNL     1      39.120 -13.293   0.795  1.00  0.00     0.031 A 
HETATM   16  C11 UNL     1      39.668 -13.469  -0.472  1.00  0.00     0.029 A 
HETATM   17  C12 UNL     1      40.287 -14.624  -0.847  1.00  0.00     0.002 A 
HETATM   18  C13 UNL     1      40.369 -15.647   0.063  1.00  0.00     0.000 A 
HETATM   19  C14 UNL     1      39.840 -15.513   1.325  1.00  0.00     0.002 A 
HETATM   20  C15 UNL     1      39.208 -14.322   1.692  1.00  0.00     0.029 A 
ENDBRANCH   1  15
TORSDOF 7
ENDMDL
MODEL 5
REMARK VINA RESULT: -7.671116908      1.209      6.083
REMARK  7 active torsions:
REMARK  status: ('A' for Active; 'I' for Inactive)
REMARK    1  A    between atoms: O1_1  and  C1_3 
REMARK    2  A    between atoms: C1_3  and  N1_4 
REMARK    3  A    between atoms: N1_4  and  C2_5 
REMARK    4  A    between atoms: N1_4  and  C10_15 
REMARK    5  A    between atoms: C2_5  and  C3_6 
REMARK    6  A    between atoms: C3_6  and  O2_7 
REMARK    7  A    between atoms: C3_6  and  C4_9 
ROOT
HETATM    1  N1  UNL     1      39.200 -10.309   1.277  1.00  0.00    -0.357 N 
ENDROOT
BRANCH   1   2
HETATM    2  C1  UNL     1      37.866 -10.104   1.786  1.00  0.00     0.290 C 
BRANCH   2   3
HETATM    3  O1  UNL     1      37.035  -9.545   0.812  1.00  0.00    -0.382 OA
ATOM      4  H1  UNL     1      36.203  -9.278   1.184  1.00  0.00     0.211 HD
ENDBRANCH   2   3
ENDBRANCH   1   2
BRANCH   1   5
HETATM    5  C2  UNL     1      39.557 -11.564   0.676  1.00  0.00     0.162 C 
BRANCH   5   6
HETATM    6  C3  UNL     1      38.583 -12.656   0.977  1.00  0.00     0.169 C 
BRANCH   6   7
HETATM    7  O2  UNL     1      37.488 -12.555   0.136  1.00  0.00    -0.389 OA
ATOM      8  H2  UNL     1      37.322 -11.643  -0.070  1.00  0.00     0.210 HD
ENDBRANCH   6   7
BRANCH   6   9
HETATM    9  C4  UNL     1      39.171 -14.011   0.785  1.00  0.00    -0.028 A 
HETATM   10  C5  UNL     1      38.928 -15.075   1.625  1.00  0.00     0.010 A 
HETATM   11  C6  UNL     1      39.490 -16.330   1.418  1.00  0.00     0.001 A 
HETATM   12  C7  UNL     1      40.323 -16.524   0.333  1.00  0.00     0.000 A 
HETATM   13  C8  UNL     1      40.585 -15.470  -0.530  1.00  0.00     0.001 A 
HETATM   14  C9  UNL     1      40.010 -14.248  -0.288  1.00  0.00     0.010 A 
ENDBRANCH   6   9
ENDBRANCH   5   6
ENDBRANCH   1   5
BRANCH   1  15
HETATM   15  C10 UNL     1      40.141  -9.277   1.402  1.00  0.00     0.031 A 
HETATM   16  C11 UNL     1      39.765  -7.942   1.291  1.00  0.00     0.029 A 
HETATM   17  C12 UNL     1      40.658  -6.918   1.398  1.00  0.00     0.002 A 
HETATM   18  C13 UNL     1      41.976  -7.223   1.627  1.00  0.00     0.000 A 
HETATM   19  C14 UNL     1      42.389  -8.529   1.743  1.00  0.00     0.002 A 
HETATM   20  C15 UNL     1      41.459  -9.566   1.629  1.00  0.00     0.029 A 
ENDBRANCH   1  15
TORSDOF 7
ENDMDL
