MODEL 1
REMARK VINA RESULT: -6.545323162      0.000      0.000
REMARK  8 active torsions:
REMARK  status: ('A' for Active; 'I' for Inactive)
REMARK    1  A    between atoms: C3_3  and  C5_5 
REMARK    2  A    between atoms: C5_5  and  N1_6 
REMARK    3  A    between atoms: C5_5  and  C6_10 
REMARK    4  A    between atoms: C6_10  and  C7_11 
REMARK    5  A    between atoms: C7_11  and  N2_12 
REMARK    6  A    between atoms: C7_11  and  C10_17 
REMARK    7  A    between atoms: N2_12  and  C8_14 
REMARK    8  A    between atoms: C10_17  and  O2_19 
ROOT
HETATM    1  C6  UNL     1      39.082  -9.175   0.388  1.00  0.00     0.072 C 
ENDROOT
BRANCH   1   2
HETATM    2  C5  UNL     1      38.099  -9.669   1.402  1.00  0.00     0.214 C 
BRANCH   2   3
HETATM    3  C3  UNL     1      38.075 -11.163   1.402  1.00  0.00    -0.058 C 
HETATM    4  C2  UNL     1      39.082 -11.904   1.018  1.00  0.00    -0.026 C 
HETATM    5  C1  UNL     1      38.988 -13.385   1.044  1.00  0.00     0.036 C 
HETATM    6  C4  UNL     1      36.817 -11.806   1.871  1.00  0.00     0.045 C 
ENDBRANCH   2   3
BRANCH   2   7
HETATM    7  N1  UNL     1      36.751  -9.211   1.204  1.00  0.00    -0.071 N 
ATOM      8  H13 UNL     1      36.177  -9.879   0.688  1.00  0.00     0.275 HD
ATOM      9  H12 UNL     1      36.205  -9.201   2.065  1.00  0.00     0.275 HD
ATOM     10  H11 UNL     1      36.798  -8.296   0.753  1.00  0.00     0.275 HD
ENDBRANCH   2   7
ENDBRANCH   1   2
BRANCH   1  11
HETATM   11  C7  UNL     1      39.892  -8.007   0.818  1.00  0.00     0.184 C 
BRANCH  11  12
HETATM   12  N2  UNL     1      40.690  -7.555  -0.306  1.00  0.00    -0.371 N 
ATOM     13  H2  UNL     1      40.546  -8.009  -1.208  1.00  0.00     0.161 HD
BRANCH  12  14
HETATM   14  C8  UNL     1      41.648  -6.533  -0.230  1.00  0.00     0.070 C 
HETATM   15  C9  UNL     1      43.081  -6.882  -0.510  1.00  0.00     0.081 C 
HETATM   16  S1  UNL     1      41.326  -4.994   0.164  1.00  0.00    -0.066 SA
ENDBRANCH  12  14
ENDBRANCH  11  12
BRANCH  11  17
HETATM   17  C10 UNL     1      40.800  -8.249   1.965  1.00  0.00     0.281 C 
HETATM   18  O1  UNL     1      40.875  -7.400   2.924  1.00  0.00    -0.263 OA
BRANCH  17  19
HETATM   19  O2  UNL     1      41.601  -9.354   2.093  1.00  0.00    -0.325 OA
HETATM   20  C11 UNL     1      42.961  -9.426   1.802  1.00  0.00     0.213 C 
ENDBRANCH  17  19
ENDBRANCH  11  17
ENDBRANCH   1  11
TORSDOF 8
ENDMDL
MODEL 2
REMARK VINA RESULT: -5.997590535      4.415      6.833
REMARK  8 active torsions:
REMARK  status: ('A' for Active; 'I' for Inactive)
REMARK    1  A    between atoms: C3_3  and  C5_5 
REMARK    2  A    between atoms: C5_5  and  N1_6 
REMARK    3  A    between atoms: C5_5  and  C6_10 
REMARK    4  A    between atoms: C6_10  and  C7_11 
REMARK    5  A    between atoms: C7_11  and  N2_12 
REMARK    6  A    between atoms: C7_11  and  C10_17 
REMARK    7  A    between atoms: N2_12  and  C8_14 
REMARK    8  A    between atoms: C10_17  and  O2_19 
ROOT
HETATM    1  C6  UNL     1      38.669 -12.246   1.405  1.00  0.00     0.072 C 
ENDROOT
BRANCH   1   2
HETATM    2  C5  UNL     1      38.197 -10.931   0.866  1.00  0.00     0.214 C 
BRANCH   2   3
HETATM    3  C3  UNL     1      39.192  -9.863   1.187  1.00  0.00    -0.058 C 
HETATM    4  C2  UNL     1      40.444 -10.103   1.480  1.00  0.00    -0.026 C 
HETATM    5  C1  UNL     1      41.378  -8.991   1.789  1.00  0.00     0.036 C 
HETATM    6  C4  UNL     1      38.691  -8.462   1.165  1.00  0.00     0.045 C 
ENDBRANCH   2   3
BRANCH   2   7
HETATM    7  N1  UNL     1      36.920 -10.502   1.365  1.00  0.00    -0.071 N 
ATOM      8  H13 UNL     1      36.162 -10.654   0.699  1.00  0.00     0.275 HD
ATOM      9  H12 UNL     1      36.565 -11.100   2.112  1.00  0.00     0.275 HD
ATOM     10  H11 UNL     1      37.010  -9.526   1.648  1.00  0.00     0.275 HD
ENDBRANCH   2   7
ENDBRANCH   1   2
BRANCH   1  11
HETATM   11  C7  UNL     1      38.149 -13.438   0.691  1.00  0.00     0.184 C 
BRANCH  11  12
HETATM   12  N2  UNL     1      38.125 -14.558   1.611  1.00  0.00    -0.371 N 
ATOM     13  H2  UNL     1      38.246 -14.363   2.606  1.00  0.00     0.161 HD
BRANCH  12  14
HETATM   14  C8  UNL     1      37.944 -15.894   1.221  1.00  0.00     0.070 C 
HETATM   15  C9  UNL     1      39.088 -16.848   1.409  1.00  0.00     0.081 C 
HETATM   16  S1  UNL     1      36.590 -16.485   0.556  1.00  0.00    -0.066 SA
ENDBRANCH  12  14
ENDBRANCH  11  12
BRANCH  11  17
HETATM   17  C10 UNL     1      38.914 -13.843  -0.514  1.00  0.00     0.281 C 
HETATM   18  O1  UNL     1      40.195 -13.909  -0.477  1.00  0.00    -0.263 OA
BRANCH  17  19
HETATM   19  O2  UNL     1      38.342 -14.168  -1.716  1.00  0.00    -0.325 OA
HETATM   20  C11 UNL     1      38.660 -15.268  -2.511  1.00  0.00     0.213 C 
ENDBRANCH  17  19
ENDBRANCH  11  17
ENDBRANCH   1  11
TORSDOF 8
ENDMDL
MODEL 3
REMARK VINA RESULT: -5.961494045      4.469      6.838
REMARK  8 active torsions:
REMARK  status: ('A' for Active; 'I' for Inactive)
REMARK    1  A    between atoms: C3_3  and  C5_5 
REMARK    2  A    between atoms: C5_5  and  N1_6 
REMARK    3  A    between atoms: C5_5  and  C6_10 
REMARK    4  A    between atoms: C6_10  and  C7_11 
REMARK    5  A    between atoms: C7_11  and  N2_12 
REMARK    6  A    between atoms: C7_11  and  C10_17 
REMARK    7  A    between atoms: N2_12  and  C8_14 
REMARK    8  A    between atoms: C10_17  and  O2_19 
ROOT
HETATM    1  C6  UNL     1      38.644 -12.452   1.362  1.00  0.00     0.072 C 
ENDROOT
BRANCH   1   2
HETATM    2  C5  UNL     1      38.077 -11.154   0.877  1.00  0.00     0.214 C 
BRANCH   2   3
HETATM    3  C3  UNL     1      39.029 -10.041   1.175  1.00  0.00    -0.058 C 
HETATM    4  C2  UNL     1      40.294 -10.223   1.450  1.00  0.00    -0.026 C 
HETATM    5  C1  UNL     1      41.182  -9.068   1.738  1.00  0.00     0.036 C 
HETATM    6  C4  UNL     1      38.466  -8.663   1.149  1.00  0.00     0.045 C 
ENDBRANCH   2   3
BRANCH   2   7
HETATM    7  N1  UNL     1      36.805 -10.805   1.445  1.00  0.00    -0.071 N 
ATOM      8  H13 UNL     1      36.501 -11.458   2.168  1.00  0.00     0.275 HD
ATOM      9  H12 UNL     1      36.847  -9.969   2.028  1.00  0.00     0.275 HD
ATOM     10  H11 UNL     1      36.136 -10.721   0.679  1.00  0.00     0.275 HD
ENDBRANCH   2   7
ENDBRANCH   1   2
BRANCH   1  11
HETATM   11  C7  UNL     1      38.160 -13.655   0.641  1.00  0.00     0.184 C 
BRANCH  11  12
HETATM   12  N2  UNL     1      38.154 -14.778   1.560  1.00  0.00    -0.371 N 
ATOM     13  H2  UNL     1      38.434 -14.606   2.526  1.00  0.00     0.161 HD
BRANCH  12  14
HETATM   14  C8  UNL     1      37.788 -16.085   1.203  1.00  0.00     0.070 C 
HETATM   15  C9  UNL     1      38.735 -17.201   1.534  1.00  0.00     0.081 C 
HETATM   16  S1  UNL     1      36.418 -16.481   0.433  1.00  0.00    -0.066 SA
ENDBRANCH  12  14
ENDBRANCH  11  12
BRANCH  11  17
HETATM   17  C10 UNL     1      38.947 -14.039  -0.556  1.00  0.00     0.281 C 
HETATM   18  O1  UNL     1      38.364 -14.221  -1.685  1.00  0.00    -0.263 OA
BRANCH  17  19
HETATM   19  O2  UNL     1      40.305 -14.223  -0.559  1.00  0.00    -0.325 OA
HETATM   20  C11 UNL     1      40.977 -15.410  -0.842  1.00  0.00     0.213 C 
ENDBRANCH  17  19
ENDBRANCH  11  17
ENDBRANCH   1  11
TORSDOF 8
ENDMDL
MODEL 4
REMARK VINA RESULT: -5.871226506      4.644      6.857
REMARK  8 active torsions:
REMARK  status: ('A' for Active; 'I' for Inactive)
REMARK    1  A    between atoms: C3_3  and  C5_5 
REMARK    2  A    between atoms: C5_5  and  N1_6 
REMARK    3  A    between atoms: C5_5  and  C6_10 
REMARK    4  A    between atoms: C6_10  and  C7_11 
REMARK    5  A    between atoms: C7_11  and  N2_12 
REMARK    6  A    between atoms: C7_11  and  C10_17 
REMARK    7  A    between atoms: N2_12  and  C8_14 
REMARK    8  A    between atoms: C10_17  and  O2_19 
ROOT
HETATM    1  C6  UNL     1      38.745 -12.745   1.587  1.00  0.00     0.072 C 
ENDROOT
BRANCH   1   2
HETATM    2  C5  UNL     1      38.008 -11.593   0.981  1.00  0.00     0.214 C 
BRANCH   2   3
HETATM    3  C3  UNL     1      38.760 -10.324   1.222  1.00  0.00    -0.058 C 
HETATM    4  C2  UNL     1      40.041 -10.279   1.482  1.00  0.00    -0.026 C 
HETATM    5  C1  UNL     1      40.722  -8.980   1.713  1.00  0.00     0.036 C 
HETATM    6  C4  UNL     1      37.970  -9.063   1.157  1.00  0.00     0.045 C 
ENDBRANCH   2   3
BRANCH   2   7
HETATM    7  N1  UNL     1      36.671 -11.409   1.474  1.00  0.00    -0.071 N 
ATOM      8  H13 UNL     1      36.646 -11.002   2.410  1.00  0.00     0.275 HD
ATOM      9  H12 UNL     1      36.169 -10.664   0.990  1.00  0.00     0.275 HD
ATOM     10  H11 UNL     1      36.194 -12.310   1.419  1.00  0.00     0.275 HD
ENDBRANCH   2   7
ENDBRANCH   1   2
BRANCH   1  11
HETATM   11  C7  UNL     1      38.572 -14.040   0.884  1.00  0.00     0.184 C 
BRANCH  11  12
HETATM   12  N2  UNL     1      39.412 -15.034   1.524  1.00  0.00    -0.371 N 
ATOM     13  H2  UNL     1      39.890 -14.772   2.387  1.00  0.00     0.161 HD
BRANCH  12  14
HETATM   14  C8  UNL     1      39.609 -16.334   1.032  1.00  0.00     0.070 C 
HETATM   15  C9  UNL     1      40.913 -16.647   0.360  1.00  0.00     0.081 C 
HETATM   16  S1  UNL     1      38.514 -17.526   1.115  1.00  0.00    -0.066 SA
ENDBRANCH  12  14
ENDBRANCH  11  12
BRANCH  11  17
HETATM   17  C10 UNL     1      38.891 -14.026  -0.565  1.00  0.00     0.281 C 
HETATM   18  O1  UNL     1      40.017 -13.568  -0.977  1.00  0.00    -0.263 OA
BRANCH  17  19
HETATM   19  O2  UNL     1      38.046 -14.481  -1.544  1.00  0.00    -0.325 OA
HETATM   20  C11 UNL     1      38.395 -15.285  -2.627  1.00  0.00     0.213 C 
ENDBRANCH  17  19
ENDBRANCH  11  17
ENDBRANCH   1  11
TORSDOF 8
ENDMDL
MODEL 5
REMARK VINA RESULT: -5.799526286      4.601      6.552
REMARK  8 active torsions:
REMARK  status: ('A' for Active; 'I' for Inactive)
REMARK    1  A    between atoms: C3_3  and  C5_5 
REMARK    2  A    between atoms: C5_5  and  N1_6 
REMARK    3  A    between atoms: C5_5  and  C6_10 
REMARK    4  A    between atoms: C6_10  and  C7_11 
REMARK    5  A    between atoms: C7_11  and  N2_12 
REMARK    6  A    between atoms: C7_11  and  C10_17 
REMARK    7  A    between atoms: N2_12  and  C8_14 
REMARK    8  A    between atoms: C10_17  and  O2_19 
ROOT
HETATM    1  C6  UNL     1      38.882 -12.797   1.532  1.00  0.00     0.072 C 
ENDROOT
BRANCH   1   2
HETATM    2  C5  UNL     1      38.142 -11.700   0.834  1.00  0.00     0.214 C 
BRANCH   2   3
HETATM    3  C3  UNL     1      38.744 -10.377   1.182  1.00  0.00    -0.058 C 
HETATM    4  C2  UNL     1      40.006 -10.213   1.486  1.00  0.00    -0.026 C 
HETATM    5  C1  UNL     1      40.537  -8.868   1.823  1.00  0.00     0.036 C 
HETATM    6  C4  UNL     1      37.825  -9.206   1.174  1.00  0.00     0.045 C 
ENDBRANCH   2   3
BRANCH   2   7
HETATM    7  N1  UNL     1      36.739 -11.634   1.138  1.00  0.00    -0.071 N 
ATOM      8  H13 UNL     1      36.258 -10.890   0.632  1.00  0.00     0.275 HD
ATOM      9  H12 UNL     1      36.213 -12.419   0.756  1.00  0.00     0.275 HD
ATOM     10  H11 UNL     1      36.646 -11.550   2.151  1.00  0.00     0.275 HD
ENDBRANCH   2   7
ENDBRANCH   1   2
BRANCH   1  11
HETATM   11  C7  UNL     1      39.091 -14.024   0.724  1.00  0.00     0.184 C 
BRANCH  11  12
HETATM   12  N2  UNL     1      39.022 -13.674  -0.682  1.00  0.00    -0.371 N 
ATOM     13  H2  UNL     1      38.537 -12.813  -0.937  1.00  0.00     0.161 HD
BRANCH  12  14
HETATM   14  C8  UNL     1      39.581 -14.444  -1.713  1.00  0.00     0.070 C 
HETATM   15  C9  UNL     1      41.073 -14.597  -1.754  1.00  0.00     0.081 C 
HETATM   16  S1  UNL     1      38.731 -15.169  -2.887  1.00  0.00    -0.066 SA
ENDBRANCH  12  14
ENDBRANCH  11  12
BRANCH  11  17
HETATM   17  C10 UNL     1      38.128 -15.124   0.976  1.00  0.00     0.281 C 
HETATM   18  O1  UNL     1      38.359 -15.992   1.893  1.00  0.00    -0.263 OA
BRANCH  17  19
HETATM   19  O2  UNL     1      36.959 -15.298   0.282  1.00  0.00    -0.325 OA
HETATM   20  C11 UNL     1      36.255 -16.492   0.137  1.00  0.00     0.213 C 
ENDBRANCH  17  19
ENDBRANCH  11  17
ENDBRANCH   1  11
TORSDOF 8
ENDMDL
