MODEL 1
REMARK VINA RESULT: -6.076951322      0.000      0.000
REMARK  6 active torsions:
REMARK  status: ('A' for Active; 'I' for Inactive)
REMARK    1  A    between atoms: S1_2  and  C2_3 
REMARK    2  A    between atoms: C2_3  and  S2_7 
REMARK    3  A    between atoms: S2_7  and  C3_8 
REMARK    4  A    between atoms: C3_8  and  C4_9 
REMARK    5  A    between atoms: C4_9  and  C5_11 
REMARK    6  A    between atoms: C6_13  and  O2_14 
ROOT
HETATM    1  C4  UNL     1      13.124 -42.049   9.864  1.00  0.00     0.177 C 
HETATM    2  O1  UNL     1      13.807 -41.262   9.134  1.00  0.00    -0.291 OA
ENDROOT
BRANCH   1   3
HETATM    3  C3  UNL     1      13.783 -43.181  10.511  1.00  0.00     0.166 C 
BRANCH   3   4
HETATM    4  S2  UNL     1      15.291 -42.621  11.370  1.00  0.00    -0.098 SA
BRANCH   4   5
HETATM    5  C2  UNL     1      16.693 -42.555  10.281  1.00  0.00     0.101 C 
HETATM    6  N1  UNL     1      17.213 -43.651   9.889  1.00  0.00    -0.388 N 
ATOM      7  H12 UNL     1      18.018 -43.613   9.263  1.00  0.00     0.157 HD
ATOM      8  H11 UNL     1      16.840 -44.552  10.188  1.00  0.00     0.157 HD
BRANCH   5   9
HETATM    9  S1  UNL     1      17.342 -40.993   9.762  1.00  0.00    -0.110 SA
HETATM   10  C1  UNL     1      17.718 -39.891  11.124  1.00  0.00     0.097 C 
ENDBRANCH   5   9
ENDBRANCH   4   5
ENDBRANCH   3   4
ENDBRANCH   1   3
BRANCH   1  11
HETATM   11  C5  UNL     1      11.701 -41.744   9.994  1.00  0.00     0.077 A 
HETATM   12  S3  UNL     1      10.534 -41.714   8.755  1.00  0.00    -0.059 SA
HETATM   13  C6  UNL     1       9.158 -41.286   9.668  1.00  0.00     0.131 A 
HETATM   14  C7  UNL     1       9.663 -41.179  10.937  1.00  0.00     0.097 A 
HETATM   15 CL1  UNL     1       8.565 -40.738  12.282  1.00  0.00    -0.079 Cl
HETATM   16  C8  UNL     1      10.972 -41.414  11.105  1.00  0.00     0.080 A 
HETATM   17 CL2  UNL     1      11.781 -41.308  12.702  1.00  0.00    -0.081 Cl
BRANCH  13  18
HETATM   18  O2  UNL     1       7.832 -41.092   9.235  1.00  0.00    -0.353 OA
ATOM     19  H2  UNL     1       7.023 -41.380   9.638  1.00  0.00     0.218 HD
ENDBRANCH  13  18
ENDBRANCH   1  11
TORSDOF 6
ENDMDL
MODEL 2
REMARK VINA RESULT: -6.065787459      1.934      2.006
REMARK  6 active torsions:
REMARK  status: ('A' for Active; 'I' for Inactive)
REMARK    1  A    between atoms: S1_2  and  C2_3 
REMARK    2  A    between atoms: C2_3  and  S2_7 
REMARK    3  A    between atoms: S2_7  and  C3_8 
REMARK    4  A    between atoms: C3_8  and  C4_9 
REMARK    5  A    between atoms: C4_9  and  C5_11 
REMARK    6  A    between atoms: C6_13  and  O2_14 
ROOT
HETATM    1  C4  UNL     1      13.415 -42.107  10.226  1.00  0.00     0.177 C 
HETATM    2  O1  UNL     1      14.001 -41.279   9.458  1.00  0.00    -0.291 OA
ENDROOT
BRANCH   1   3
HETATM    3  C3  UNL     1      14.116 -43.318  10.647  1.00  0.00     0.166 C 
BRANCH   3   4
HETATM    4  S2  UNL     1      15.663 -42.879  11.508  1.00  0.00    -0.098 SA
BRANCH   4   5
HETATM    5  C2  UNL     1      17.026 -42.699  10.382  1.00  0.00     0.101 C 
HETATM    6  N1  UNL     1      17.699 -43.736  10.068  1.00  0.00    -0.388 N 
ATOM      7  H12 UNL     1      18.481 -43.632   9.422  1.00  0.00     0.157 HD
ATOM      8  H11 UNL     1      17.468 -44.653  10.450  1.00  0.00     0.157 HD
BRANCH   5   9
HETATM    9  S1  UNL     1      17.427 -41.108   9.721  1.00  0.00    -0.110 SA
HETATM   10  C1  UNL     1      17.614 -39.843  10.976  1.00  0.00     0.097 C 
ENDBRANCH   5   9
ENDBRANCH   4   5
ENDBRANCH   3   4
ENDBRANCH   1   3
BRANCH   1  11
HETATM   11  C5  UNL     1      12.053 -41.766  10.632  1.00  0.00     0.077 A 
HETATM   12  S3  UNL     1      11.489 -41.474  12.210  1.00  0.00    -0.059 SA
HETATM   13  C6  UNL     1       9.847 -41.156  11.874  1.00  0.00     0.131 A 
HETATM   14  C7  UNL     1       9.790 -41.290  10.512  1.00  0.00     0.097 A 
HETATM   15 CL1  UNL     1       8.227 -41.041   9.673  1.00  0.00    -0.079 Cl
HETATM   16  C8  UNL     1      10.926 -41.605   9.872  1.00  0.00     0.080 A 
HETATM   17 CL2  UNL     1      11.011 -41.821   8.094  1.00  0.00    -0.081 Cl
BRANCH  13  18
HETATM   18  O2  UNL     1       8.806 -40.834  12.766  1.00  0.00    -0.353 OA
ATOM     19  H2  UNL     1       7.993 -41.297  12.928  1.00  0.00     0.218 HD
ENDBRANCH  13  18
ENDBRANCH   1  11
TORSDOF 6
ENDMDL
MODEL 3
REMARK VINA RESULT: -6.051777555      1.550      1.642
REMARK  6 active torsions:
REMARK  status: ('A' for Active; 'I' for Inactive)
REMARK    1  A    between atoms: S1_2  and  C2_3 
REMARK    2  A    between atoms: C2_3  and  S2_7 
REMARK    3  A    between atoms: S2_7  and  C3_8 
REMARK    4  A    between atoms: C3_8  and  C4_9 
REMARK    5  A    between atoms: C4_9  and  C5_11 
REMARK    6  A    between atoms: C6_13  and  O2_14 
ROOT
HETATM    1  C4  UNL     1      12.789 -42.113  10.928  1.00  0.00     0.177 C 
HETATM    2  O1  UNL     1      12.816 -41.564  12.075  1.00  0.00    -0.291 OA
ENDROOT
BRANCH   1   3
HETATM    3  C3  UNL     1      13.805 -43.105  10.582  1.00  0.00     0.166 C 
BRANCH   3   4
HETATM    4  S2  UNL     1      15.380 -42.703  11.408  1.00  0.00    -0.098 SA
BRANCH   4   5
HETATM    5  C2  UNL     1      16.723 -42.562  10.252  1.00  0.00     0.101 C 
HETATM    6  N1  UNL     1      17.254 -43.630   9.801  1.00  0.00    -0.388 N 
ATOM      7  H12 UNL     1      18.024 -43.548   9.138  1.00  0.00     0.157 HD
ATOM      8  H11 UNL     1      16.923 -44.550  10.091  1.00  0.00     0.157 HD
BRANCH   5   9
HETATM    9  S1  UNL     1      17.297 -40.966   9.750  1.00  0.00    -0.110 SA
HETATM   10  C1  UNL     1      17.722 -39.898  11.125  1.00  0.00     0.097 C 
ENDBRANCH   5   9
ENDBRANCH   4   5
ENDBRANCH   3   4
ENDBRANCH   1   3
BRANCH   1  11
HETATM   11  C5  UNL     1      11.714 -41.693  10.031  1.00  0.00     0.077 A 
HETATM   12  S3  UNL     1      11.828 -41.373   8.364  1.00  0.00    -0.059 SA
HETATM   13  C6  UNL     1      10.207 -40.947   8.042  1.00  0.00     0.131 A 
HETATM   14  C7  UNL     1       9.616 -41.071   9.272  1.00  0.00     0.097 A 
HETATM   15 CL1  UNL     1       7.868 -40.721   9.443  1.00  0.00    -0.079 Cl
HETATM   16  C8  UNL     1      10.393 -41.455  10.296  1.00  0.00     0.080 A 
HETATM   17 CL2  UNL     1       9.769 -41.656  11.965  1.00  0.00    -0.081 Cl
BRANCH  13  18
HETATM   18  O2  UNL     1       9.616 -40.564   6.823  1.00  0.00    -0.353 OA
ATOM     19  H2  UNL     1       9.599 -39.710   6.409  1.00  0.00     0.218 HD
ENDBRANCH  13  18
ENDBRANCH   1  11
TORSDOF 6
ENDMDL
MODEL 4
REMARK VINA RESULT: -5.771785875      2.148      2.240
REMARK  6 active torsions:
REMARK  status: ('A' for Active; 'I' for Inactive)
REMARK    1  A    between atoms: S1_2  and  C2_3 
REMARK    2  A    between atoms: C2_3  and  S2_7 
REMARK    3  A    between atoms: S2_7  and  C3_8 
REMARK    4  A    between atoms: C3_8  and  C4_9 
REMARK    5  A    between atoms: C4_9  and  C5_11 
REMARK    6  A    between atoms: C6_13  and  O2_14 
ROOT
HETATM    1  C4  UNL     1      12.543 -41.974  11.005  1.00  0.00     0.177 C 
HETATM    2  O1  UNL     1      12.721 -41.477  12.163  1.00  0.00    -0.291 OA
ENDROOT
BRANCH   1   3
HETATM    3  C3  UNL     1      13.557 -42.862  10.441  1.00  0.00     0.166 C 
BRANCH   3   4
HETATM    4  S2  UNL     1      15.134 -42.661  11.334  1.00  0.00    -0.098 SA
BRANCH   4   5
HETATM    5  C2  UNL     1      16.530 -42.669  10.233  1.00  0.00     0.101 C 
HETATM    6  N1  UNL     1      16.968 -43.790   9.812  1.00  0.00    -0.388 N 
ATOM      7  H12 UNL     1      17.769 -43.794   9.181  1.00  0.00     0.157 HD
ATOM      8  H11 UNL     1      16.534 -44.669  10.095  1.00  0.00     0.157 HD
BRANCH   5   9
HETATM    9  S1  UNL     1      17.283 -41.145   9.744  1.00  0.00    -0.110 SA
HETATM   10  C1  UNL     1      17.641 -40.054  11.120  1.00  0.00     0.097 C 
ENDBRANCH   5   9
ENDBRANCH   4   5
ENDBRANCH   3   4
ENDBRANCH   1   3
BRANCH   1  11
HETATM   11  C5  UNL     1      11.306 -41.603  10.322  1.00  0.00     0.077 A 
HETATM   12  S3  UNL     1       9.731 -41.604  10.966  1.00  0.00    -0.059 SA
HETATM   13  C6  UNL     1       8.862 -41.071   9.598  1.00  0.00     0.131 A 
HETATM   14  C7  UNL     1       9.849 -40.905   8.662  1.00  0.00     0.097 A 
HETATM   15 CL1  UNL     1       9.413 -40.340   7.020  1.00  0.00    -0.079 Cl
HETATM   16  C8  UNL     1      11.108 -41.180   9.035  1.00  0.00     0.080 A 
HETATM   17 CL2  UNL     1      12.506 -41.019   7.924  1.00  0.00    -0.081 Cl
BRANCH  13  18
HETATM   18  O2  UNL     1       7.478 -40.852   9.457  1.00  0.00    -0.353 OA
ATOM     19  H2  UNL     1       6.969 -40.081   9.677  1.00  0.00     0.218 HD
ENDBRANCH  13  18
ENDBRANCH   1  11
TORSDOF 6
ENDMDL
MODEL 5
REMARK VINA RESULT: -5.621948679      1.969      2.280
REMARK  6 active torsions:
REMARK  status: ('A' for Active; 'I' for Inactive)
REMARK    1  A    between atoms: S1_2  and  C2_3 
REMARK    2  A    between atoms: C2_3  and  S2_7 
REMARK    3  A    between atoms: S2_7  and  C3_8 
REMARK    4  A    between atoms: C3_8  and  C4_9 
REMARK    5  A    between atoms: C4_9  and  C5_11 
REMARK    6  A    between atoms: C6_13  and  O2_14 
ROOT
HETATM    1  C4  UNL     1      12.664 -41.987  11.048  1.00  0.00     0.177 C 
HETATM    2  O1  UNL     1      12.429 -41.769  12.279  1.00  0.00    -0.291 OA
ENDROOT
BRANCH   1   3
HETATM    3  C3  UNL     1      13.940 -42.582  10.655  1.00  0.00     0.166 C 
BRANCH   3   4
HETATM    4  S2  UNL     1      15.304 -41.419  10.993  1.00  0.00    -0.098 SA
BRANCH   4   5
HETATM    5  C2  UNL     1      16.767 -41.820  10.067  1.00  0.00     0.101 C 
HETATM    6  N1  UNL     1      17.254 -40.939   9.284  1.00  0.00    -0.388 N 
ATOM      7  H12 UNL     1      18.093 -41.169   8.753  1.00  0.00     0.157 HD
ATOM      8  H11 UNL     1      16.821 -40.021   9.184  1.00  0.00     0.157 HD
BRANCH   5   9
HETATM    9  S1  UNL     1      17.518 -43.411  10.241  1.00  0.00    -0.110 SA
HETATM   10  C1  UNL     1      17.013 -44.279  11.725  1.00  0.00     0.097 C 
ENDBRANCH   5   9
ENDBRANCH   4   5
ENDBRANCH   3   4
ENDBRANCH   1   3
BRANCH   1  11
HETATM   11  C5  UNL     1      11.610 -41.614  10.108  1.00  0.00     0.077 A 
HETATM   12  S3  UNL     1      11.768 -41.334   8.437  1.00  0.00    -0.059 SA
HETATM   13  C6  UNL     1      10.150 -40.953   8.055  1.00  0.00     0.131 A 
HETATM   14  C7  UNL     1       9.523 -41.058   9.270  1.00  0.00     0.097 A 
HETATM   15 CL1  UNL     1       7.764 -40.743   9.377  1.00  0.00    -0.079 Cl
HETATM   16  C8  UNL     1      10.276 -41.398  10.327  1.00  0.00     0.080 A 
HETATM   17 CL2  UNL     1       9.604 -41.571  11.980  1.00  0.00    -0.081 Cl
BRANCH  13  18
HETATM   18  O2  UNL     1       9.589 -40.614   6.809  1.00  0.00    -0.353 OA
ATOM     19  H2  UNL     1       9.277 -39.771   6.503  1.00  0.00     0.218 HD
ENDBRANCH  13  18
ENDBRANCH   1  11
TORSDOF 6
ENDMDL
