MODEL 1
REMARK VINA RESULT: -10.063005704      0.000      0.000
REMARK  16 active torsions:
REMARK  status: ('A' for Active; 'I' for Inactive)
REMARK    1  A    between atoms: C2_2  and  C3_3 
REMARK    2  A    between atoms: C3_3  and  C4_4 
REMARK    3  A    between atoms: C4_4  and  N1_5 
REMARK       I    between atoms: N1_5  and  C5_7 
REMARK    4  A    between atoms: C5_7  and  C6_9 
REMARK       I    between atoms: N2_13  and  C10_14 
REMARK    5  A    between atoms: C10_14  and  C11_16 
REMARK    6  A    between atoms: C11_16  and  C12_18 
REMARK    7  A    between atoms: C12_18  and  C13_19 
REMARK    8  A    between atoms: C12_18  and  N3_26 
REMARK    9  A    between atoms: C13_19  and  C14_20 
REMARK       I    between atoms: N3_26  and  C20_28 
REMARK   10  A    between atoms: C20_28  and  C21_30 
REMARK   11  A    between atoms: C21_30  and  C22_31 
REMARK   12  A    between atoms: C21_30  and  N4_36 
REMARK   13  A    between atoms: C22_31  and  C23_32 
REMARK       I    between atoms: N4_36  and  C27_38 
REMARK   14  A    between atoms: C27_38  and  C28_40 
REMARK   15  A    between atoms: C28_40  and  C29_41 
REMARK   16  A    between atoms: C28_40  and  N5_43 
REMARK       I    between atoms: N5_43  and  C31_45 
REMARK       I    between atoms: C31_45  and  N6_47 
ROOT
HETATM    1  N3  UNL     1      39.751  -3.421  11.872  1.00  0.00    -0.344 N 
ATOM      2  H3  UNL     1      39.300  -3.172  10.991  1.00  0.00     0.163 HD
HETATM    3  C20 UNL     1      41.192  -3.488  11.928  1.00  0.00     0.264 C 
HETATM    4  O4  UNL     1      41.673  -3.803  13.064  1.00  0.00    -0.266 OA
ENDROOT
BRANCH   1   5
HETATM    5  C12 UNL     1      38.930  -3.699  13.028  1.00  0.00     0.165 C 
BRANCH   5   6
HETATM    6  C11 UNL     1      37.843  -4.654  12.410  1.00  0.00     0.239 C 
HETATM    7  O3  UNL     1      36.684  -4.244  12.437  1.00  0.00    -0.285 OA
BRANCH   6   8
HETATM    8  C10 UNL     1      38.241  -5.919  11.858  1.00  0.00     0.292 C 
HETATM    9  N2  UNL     1      37.375  -6.673  11.025  1.00  0.00    -0.332 N 
HETATM   10  C6  UNL     1      36.039  -6.366  10.595  1.00  0.00     0.179 C 
HETATM   11  C9  UNL     1      37.793  -7.953  10.454  1.00  0.00     0.127 C 
HETATM   12  C7  UNL     1      35.450  -7.739  10.329  1.00  0.00     0.037 C 
HETATM   13  C8  UNL     1      36.604  -8.484   9.741  1.00  0.00     0.022 C 
HETATM   14  O2  UNL     1      39.383  -6.382  12.112  1.00  0.00    -0.264 OA
BRANCH  10  15
HETATM   15  C5  UNL     1      36.025  -5.552   9.350  1.00  0.00     0.240 C 
HETATM   16  N1  UNL     1      35.135  -4.458   9.270  1.00  0.00    -0.359 N 
ATOM     17  H1  UNL     1      34.521  -4.245  10.056  1.00  0.00     0.162 HD
HETATM   18  O1  UNL     1      36.775  -5.812   8.389  1.00  0.00    -0.271 OA
BRANCH  16  19
HETATM   19  C4  UNL     1      35.087  -3.632   8.072  1.00  0.00     0.122 C 
BRANCH  19  20
HETATM   20  C3  UNL     1      33.807  -3.980   7.313  1.00  0.00     0.019 C 
BRANCH  20  21
HETATM   21  C2  UNL     1      32.748  -4.300   8.346  1.00  0.00    -0.003 C 
HETATM   22  C1  UNL     1      31.490  -3.534   7.998  1.00  0.00     0.005 C 
ENDBRANCH  20  21
ENDBRANCH  19  20
ENDBRANCH  16  19
ENDBRANCH  10  15
ENDBRANCH   6   8
ENDBRANCH   5   6
BRANCH   5  23
HETATM   23  C13 UNL     1      38.188  -2.549  13.524  1.00  0.00     0.038 C 
BRANCH  23  24
HETATM   24  C14 UNL     1      38.181  -2.073  14.899  1.00  0.00    -0.012 C 
HETATM   25  C15 UNL     1      39.247  -2.432  15.851  1.00  0.00     0.005 C 
HETATM   26  C16 UNL     1      39.314  -1.307  16.897  1.00  0.00     0.000 C 
HETATM   27  C17 UNL     1      37.961  -0.688  17.107  1.00  0.00     0.000 C 
HETATM   28  C18 UNL     1      36.830  -1.643  16.888  1.00  0.00     0.000 C 
HETATM   29  C19 UNL     1      36.840  -2.384  15.605  1.00  0.00     0.005 C 
ENDBRANCH  23  24
ENDBRANCH   5  23
ENDBRANCH   1   5
BRANCH   3  30
HETATM   30  C21 UNL     1      42.080  -3.258  10.833  1.00  0.00     0.080 C 
BRANCH  30  31
HETATM   31  C22 UNL     1      42.672  -4.388  10.106  1.00  0.00     0.067 C 
BRANCH  31  32
HETATM   32  C23 UNL     1      41.874  -5.621  10.091  1.00  0.00    -0.009 C 
HETATM   33  C24 UNL     1      41.621  -6.043   8.635  1.00  0.00     0.005 C 
HETATM   34  C25 UNL     1      42.351  -7.336   8.959  1.00  0.00     0.001 C 
HETATM   35  C26 UNL     1      42.254  -6.966  10.452  1.00  0.00     0.005 C 
ENDBRANCH  31  32
ENDBRANCH  30  31
BRANCH  30  36
HETATM   36  N4  UNL     1      42.796  -2.011  10.780  1.00  0.00    -0.324 N 
HETATM   37  C27 UNL     1      44.147  -1.876  11.166  1.00  0.00     0.244 C 
HETATM   38  O5  UNL     1      44.709  -2.951  11.583  1.00  0.00    -0.271 OA
ATOM     39  H4  UNL     1      42.302  -1.183  10.446  1.00  0.00     0.169 HD
BRANCH  37  40
HETATM   40  C28 UNL     1      44.937  -0.642  11.132  1.00  0.00     0.178 C 
BRANCH  40  41
HETATM   41  C29 UNL     1      44.201   0.581  11.613  1.00  0.00     0.030 C 
HETATM   42  C30 UNL     1      45.186   1.650  12.087  1.00  0.00     0.007 C 
ENDBRANCH  40  41
BRANCH  40  43
HETATM   43  N5  UNL     1      46.102  -0.816  11.977  1.00  0.00    -0.330 N 
HETATM   44  C31 UNL     1      47.372  -1.231  11.542  1.00  0.00     0.319 C 
HETATM   45  O6  UNL     1      47.513  -1.475  10.314  1.00  0.00    -0.247 OA
HETATM   46  N6  UNL     1      48.496  -1.394  12.385  1.00  0.00    -0.330 N 
HETATM   47  C32 UNL     1      48.511  -1.161  13.813  1.00  0.00     0.153 C 
HETATM   48  C35 UNL     1      49.795  -1.834  11.831  1.00  0.00     0.153 C 
HETATM   49  C33 UNL     1      49.371   0.089  14.022  1.00  0.00     0.187 C 
HETATM   50  O7  UNL     1      50.412   0.122  13.095  1.00  0.00    -0.388 OA
HETATM   51  C34 UNL     1      50.831  -1.165  12.733  1.00  0.00     0.187 C 
ATOM     52  H5  UNL     1      45.990  -0.621  12.971  1.00  0.00     0.165 HD
ENDBRANCH  40  43
ENDBRANCH  37  40
ENDBRANCH  30  36
ENDBRANCH   3  30
TORSDOF 16
ENDMDL
MODEL 2
REMARK VINA RESULT: -9.523364556      4.040      8.121
REMARK  16 active torsions:
REMARK  status: ('A' for Active; 'I' for Inactive)
REMARK    1  A    between atoms: C2_2  and  C3_3 
REMARK    2  A    between atoms: C3_3  and  C4_4 
REMARK    3  A    between atoms: C4_4  and  N1_5 
REMARK       I    between atoms: N1_5  and  C5_7 
REMARK    4  A    between atoms: C5_7  and  C6_9 
REMARK       I    between atoms: N2_13  and  C10_14 
REMARK    5  A    between atoms: C10_14  and  C11_16 
REMARK    6  A    between atoms: C11_16  and  C12_18 
REMARK    7  A    between atoms: C12_18  and  C13_19 
REMARK    8  A    between atoms: C12_18  and  N3_26 
REMARK    9  A    between atoms: C13_19  and  C14_20 
REMARK       I    between atoms: N3_26  and  C20_28 
REMARK   10  A    between atoms: C20_28  and  C21_30 
REMARK   11  A    between atoms: C21_30  and  C22_31 
REMARK   12  A    between atoms: C21_30  and  N4_36 
REMARK   13  A    between atoms: C22_31  and  C23_32 
REMARK       I    between atoms: N4_36  and  C27_38 
REMARK   14  A    between atoms: C27_38  and  C28_40 
REMARK   15  A    between atoms: C28_40  and  C29_41 
REMARK   16  A    between atoms: C28_40  and  N5_43 
REMARK       I    between atoms: N5_43  and  C31_45 
REMARK       I    between atoms: C31_45  and  N6_47 
ROOT
HETATM    1  N3  UNL     1      35.361  -6.434  12.954  1.00  0.00    -0.344 N 
ATOM      2  H3  UNL     1      36.077  -5.826  13.352  1.00  0.00     0.163 HD
HETATM    3  C20 UNL     1      35.365  -6.686  11.532  1.00  0.00     0.264 C 
HETATM    4  O4  UNL     1      34.440  -7.456  11.119  1.00  0.00    -0.266 OA
ENDROOT
BRANCH   1   5
HETATM    5  C12 UNL     1      34.369  -7.017  13.828  1.00  0.00     0.165 C 
BRANCH   5   6
HETATM    6  C11 UNL     1      33.962  -5.774  14.703  1.00  0.00     0.239 C 
HETATM    7  O3  UNL     1      34.707  -4.798  14.635  1.00  0.00    -0.285 OA
BRANCH   6   8
HETATM    8  C10 UNL     1      32.777  -5.833  15.512  1.00  0.00     0.292 C 
HETATM    9  N2  UNL     1      32.843  -6.030  16.915  1.00  0.00    -0.332 N 
HETATM   10  C6  UNL     1      33.997  -6.199  17.752  1.00  0.00     0.179 C 
HETATM   11  C9  UNL     1      31.631  -6.074  17.734  1.00  0.00     0.127 C 
HETATM   12  C7  UNL     1      33.447  -6.987  18.926  1.00  0.00     0.037 C 
HETATM   13  C8  UNL     1      32.086  -6.396  19.110  1.00  0.00     0.022 C 
HETATM   14  O2  UNL     1      31.645  -5.709  14.975  1.00  0.00    -0.264 OA
BRANCH  10  15
HETATM   15  C5  UNL     1      34.545  -4.896  18.219  1.00  0.00     0.240 C 
HETATM   16  N1  UNL     1      35.550  -4.272  17.448  1.00  0.00    -0.359 N 
ATOM     17  H1  UNL     1      35.883  -4.717  16.593  1.00  0.00     0.162 HD
HETATM   18  O1  UNL     1      34.138  -4.353  19.264  1.00  0.00    -0.271 OA
BRANCH  16  19
HETATM   19  C4  UNL     1      36.114  -2.996  17.865  1.00  0.00     0.122 C 
BRANCH  19  20
HETATM   20  C3  UNL     1      35.512  -1.906  16.980  1.00  0.00     0.019 C 
BRANCH  20  21
HETATM   21  C2  UNL     1      36.648  -1.294  16.190  1.00  0.00    -0.003 C 
HETATM   22  C1  UNL     1      36.348  -1.453  14.715  1.00  0.00     0.005 C 
ENDBRANCH  20  21
ENDBRANCH  19  20
ENDBRANCH  16  19
ENDBRANCH  10  15
ENDBRANCH   6   8
ENDBRANCH   5   6
BRANCH   5  23
HETATM   23  C13 UNL     1      34.902  -7.989  14.772  1.00  0.00     0.038 C 
BRANCH  23  24
HETATM   24  C14 UNL     1      34.151  -9.072  15.390  1.00  0.00    -0.012 C 
HETATM   25  C15 UNL     1      34.753 -10.395  15.633  1.00  0.00     0.005 C 
HETATM   26  C16 UNL     1      34.003 -11.019  16.821  1.00  0.00     0.000 C 
HETATM   27  C17 UNL     1      32.574 -10.555  16.857  1.00  0.00     0.000 C 
HETATM   28  C18 UNL     1      32.015 -10.249  15.504  1.00  0.00     0.000 C 
HETATM   29  C19 UNL     1      32.812  -9.327  14.660  1.00  0.00     0.005 C 
ENDBRANCH  23  24
ENDBRANCH   5  23
ENDBRANCH   1   5
BRANCH   3  30
HETATM   30  C21 UNL     1      36.285  -6.132  10.591  1.00  0.00     0.080 C 
BRANCH  30  31
HETATM   31  C22 UNL     1      35.826  -5.708   9.263  1.00  0.00     0.067 C 
BRANCH  31  32
HETATM   32  C23 UNL     1      34.825  -4.633   9.251  1.00  0.00    -0.009 C 
HETATM   33  C24 UNL     1      35.002  -3.790   7.978  1.00  0.00     0.005 C 
HETATM   34  C25 UNL     1      33.580  -4.180   7.610  1.00  0.00     0.001 C 
HETATM   35  C26 UNL     1      33.398  -4.707   9.047  1.00  0.00     0.005 C 
ENDBRANCH  31  32
ENDBRANCH  30  31
BRANCH  30  36
HETATM   36  N4  UNL     1      37.679  -6.470  10.713  1.00  0.00    -0.324 N 
HETATM   37  C27 UNL     1      38.531  -5.904  11.687  1.00  0.00     0.244 C 
HETATM   38  O5  UNL     1      37.981  -5.047  12.467  1.00  0.00    -0.271 OA
ATOM     39  H4  UNL     1      38.071  -7.154  10.065  1.00  0.00     0.169 HD
BRANCH  37  40
HETATM   40  C28 UNL     1      39.953  -6.205  11.871  1.00  0.00     0.178 C 
BRANCH  40  41
HETATM   41  C29 UNL     1      40.361  -7.582  11.417  1.00  0.00     0.030 C 
HETATM   42  C30 UNL     1      41.503  -7.498  10.404  1.00  0.00     0.007 C 
ENDBRANCH  40  41
BRANCH  40  43
HETATM   43  N5  UNL     1      40.731  -5.243  11.117  1.00  0.00    -0.330 N 
HETATM   44  C31 UNL     1      41.502  -4.204  11.666  1.00  0.00     0.319 C 
HETATM   45  O6  UNL     1      41.519  -4.096  12.921  1.00  0.00    -0.247 OA
HETATM   46  N6  UNL     1      42.254  -3.276  10.910  1.00  0.00    -0.330 N 
HETATM   47  C32 UNL     1      42.346  -3.253   9.465  1.00  0.00     0.153 C 
HETATM   48  C35 UNL     1      43.037  -2.217  11.580  1.00  0.00     0.153 C 
HETATM   49  C33 UNL     1      43.779  -3.675   9.131  1.00  0.00     0.187 C 
HETATM   50  O7  UNL     1      44.663  -3.193  10.097  1.00  0.00    -0.388 OA
HETATM   51  C34 UNL     1      44.225  -1.983  10.649  1.00  0.00     0.187 C 
ATOM     52  H5  UNL     1      40.718  -5.328  10.101  1.00  0.00     0.165 HD
ENDBRANCH  40  43
ENDBRANCH  37  40
ENDBRANCH  30  36
ENDBRANCH   3  30
TORSDOF 16
ENDMDL
MODEL 3
REMARK VINA RESULT: -9.429341599      2.334      6.094
REMARK  16 active torsions:
REMARK  status: ('A' for Active; 'I' for Inactive)
REMARK    1  A    between atoms: C2_2  and  C3_3 
REMARK    2  A    between atoms: C3_3  and  C4_4 
REMARK    3  A    between atoms: C4_4  and  N1_5 
REMARK       I    between atoms: N1_5  and  C5_7 
REMARK    4  A    between atoms: C5_7  and  C6_9 
REMARK       I    between atoms: N2_13  and  C10_14 
REMARK    5  A    between atoms: C10_14  and  C11_16 
REMARK    6  A    between atoms: C11_16  and  C12_18 
REMARK    7  A    between atoms: C12_18  and  C13_19 
REMARK    8  A    between atoms: C12_18  and  N3_26 
REMARK    9  A    between atoms: C13_19  and  C14_20 
REMARK       I    between atoms: N3_26  and  C20_28 
REMARK   10  A    between atoms: C20_28  and  C21_30 
REMARK   11  A    between atoms: C21_30  and  C22_31 
REMARK   12  A    between atoms: C21_30  and  N4_36 
REMARK   13  A    between atoms: C22_31  and  C23_32 
REMARK       I    between atoms: N4_36  and  C27_38 
REMARK   14  A    between atoms: C27_38  and  C28_40 
REMARK   15  A    between atoms: C28_40  and  C29_41 
REMARK   16  A    between atoms: C28_40  and  N5_43 
REMARK       I    between atoms: N5_43  and  C31_45 
REMARK       I    between atoms: C31_45  and  N6_47 
ROOT
HETATM    1  N3  UNL     1      43.816  -3.836  10.697  1.00  0.00    -0.344 N 
ATOM      2  H3  UNL     1      44.271  -4.015  11.593  1.00  0.00     0.163 HD
HETATM    3  C20 UNL     1      44.459  -2.965   9.743  1.00  0.00     0.264 C 
HETATM    4  O4  UNL     1      43.826  -2.800   8.651  1.00  0.00    -0.266 OA
ENDROOT
BRANCH   1   5
HETATM    5  C12 UNL     1      42.543  -4.463  10.419  1.00  0.00     0.165 C 
BRANCH   5   6
HETATM    6  C11 UNL     1      41.544  -3.409  11.024  1.00  0.00     0.239 C 
HETATM    7  O3  UNL     1      40.902  -2.744  10.213  1.00  0.00    -0.285 OA
BRANCH   6   8
HETATM    8  C10 UNL     1      41.428  -3.278  12.450  1.00  0.00     0.292 C 
HETATM    9  N2  UNL     1      40.164  -3.210  13.090  1.00  0.00    -0.332 N 
HETATM   10  C6  UNL     1      38.852  -3.251  12.509  1.00  0.00     0.179 C 
HETATM   11  C9  UNL     1      40.054  -3.091  14.544  1.00  0.00     0.127 C 
HETATM   12  C7  UNL     1      38.010  -2.505  13.528  1.00  0.00     0.037 C 
HETATM   13  C8  UNL     1      38.604  -2.942  14.828  1.00  0.00     0.022 C 
HETATM   14  O2  UNL     1      42.465  -3.221  13.160  1.00  0.00    -0.264 OA
BRANCH  10  15
HETATM   15  C5  UNL     1      38.352  -4.644  12.352  1.00  0.00     0.240 C 
HETATM   16  N1  UNL     1      37.023  -4.838  11.913  1.00  0.00    -0.359 N 
ATOM     17  H1  UNL     1      36.432  -4.031  11.715  1.00  0.00     0.162 HD
HETATM   18  O1  UNL     1      39.075  -5.629  12.595  1.00  0.00    -0.271 OA
BRANCH  16  19
HETATM   19  C4  UNL     1      36.492  -6.182  11.744  1.00  0.00     0.122 C 
BRANCH  19  20
HETATM   20  C3  UNL     1      35.544  -6.163  10.545  1.00  0.00     0.019 C 
BRANCH  20  21
HETATM   21  C2  UNL     1      36.196  -6.977   9.448  1.00  0.00    -0.003 C 
HETATM   22  C1  UNL     1      36.333  -6.104   8.219  1.00  0.00     0.005 C 
ENDBRANCH  20  21
ENDBRANCH  19  20
ENDBRANCH  16  19
ENDBRANCH  10  15
ENDBRANCH   6   8
ENDBRANCH   5   6
BRANCH   5  23
HETATM   23  C13 UNL     1      42.304  -5.688  11.169  1.00  0.00     0.038 C 
BRANCH  23  24
HETATM   24  C14 UNL     1      41.456  -6.792  10.742  1.00  0.00    -0.012 C 
HETATM   25  C15 UNL     1      41.423  -8.072  11.471  1.00  0.00     0.005 C 
HETATM   26  C16 UNL     1      40.043  -8.700  11.212  1.00  0.00     0.000 C 
HETATM   27  C17 UNL     1      39.524  -8.314   9.856  1.00  0.00     0.000 C 
HETATM   28  C18 UNL     1      40.606  -8.080   8.850  1.00  0.00     0.000 C 
HETATM   29  C19 UNL     1      41.680  -7.141   9.252  1.00  0.00     0.005 C 
ENDBRANCH  23  24
ENDBRANCH   5  23
ENDBRANCH   1   5
BRANCH   3  30
HETATM   30  C21 UNL     1      45.699  -2.283   9.942  1.00  0.00     0.080 C 
BRANCH  30  31
HETATM   31  C22 UNL     1      45.738  -0.817  10.006  1.00  0.00     0.067 C 
BRANCH  31  32
HETATM   32  C23 UNL     1      45.355  -0.228  11.296  1.00  0.00    -0.009 C 
HETATM   33  C24 UNL     1      46.566   0.497  11.902  1.00  0.00     0.005 C 
HETATM   34  C25 UNL     1      45.737   1.769  11.855  1.00  0.00     0.001 C 
HETATM   35  C26 UNL     1      44.496   0.900  11.573  1.00  0.00     0.005 C 
ENDBRANCH  31  32
ENDBRANCH  30  31
BRANCH  30  36
HETATM   36  N4  UNL     1      46.917  -2.945   9.553  1.00  0.00    -0.324 N 
HETATM   37  C27 UNL     1      47.957  -3.246  10.459  1.00  0.00     0.244 C 
HETATM   38  O5  UNL     1      47.753  -2.882  11.672  1.00  0.00    -0.271 OA
ATOM     39  H4  UNL     1      47.033  -3.210   8.576  1.00  0.00     0.169 HD
BRANCH  37  40
HETATM   40  C28 UNL     1      49.217  -3.921  10.135  1.00  0.00     0.178 C 
BRANCH  40  41
HETATM   41  C29 UNL     1      49.169  -4.761   8.885  1.00  0.00     0.030 C 
HETATM   42  C30 UNL     1      49.944  -4.085   7.753  1.00  0.00     0.007 C 
ENDBRANCH  40  41
BRANCH  40  43
HETATM   43  N5  UNL     1      50.245  -2.916   9.951  1.00  0.00    -0.330 N 
HETATM   44  C31 UNL     1      51.049  -2.374  10.969  1.00  0.00     0.319 C 
HETATM   45  O6  UNL     1      50.863  -2.795  12.141  1.00  0.00    -0.247 OA
HETATM   46  N6  UNL     1      52.048  -1.394  10.767  1.00  0.00    -0.330 N 
HETATM   47  C32 UNL     1      52.393  -0.801   9.492  1.00  0.00     0.153 C 
HETATM   48  C35 UNL     1      52.846  -0.887  11.903  1.00  0.00     0.153 C 
HETATM   49  C33 UNL     1      53.786  -1.334   9.147  1.00  0.00     0.187 C 
HETATM   50  O7  UNL     1      54.549  -1.480  10.307  1.00  0.00    -0.388 OA
HETATM   51  C34 UNL     1      54.200  -0.541  11.285  1.00  0.00     0.187 C 
ATOM     52  H5  UNL     1      50.397  -2.573   9.003  1.00  0.00     0.165 HD
ENDBRANCH  40  43
ENDBRANCH  37  40
ENDBRANCH  30  36
ENDBRANCH   3  30
TORSDOF 16
ENDMDL
MODEL 4
REMARK VINA RESULT: -9.107226693      3.543     12.211
REMARK  16 active torsions:
REMARK  status: ('A' for Active; 'I' for Inactive)
REMARK    1  A    between atoms: C2_2  and  C3_3 
REMARK    2  A    between atoms: C3_3  and  C4_4 
REMARK    3  A    between atoms: C4_4  and  N1_5 
REMARK       I    between atoms: N1_5  and  C5_7 
REMARK    4  A    between atoms: C5_7  and  C6_9 
REMARK       I    between atoms: N2_13  and  C10_14 
REMARK    5  A    between atoms: C10_14  and  C11_16 
REMARK    6  A    between atoms: C11_16  and  C12_18 
REMARK    7  A    between atoms: C12_18  and  C13_19 
REMARK    8  A    between atoms: C12_18  and  N3_26 
REMARK    9  A    between atoms: C13_19  and  C14_20 
REMARK       I    between atoms: N3_26  and  C20_28 
REMARK   10  A    between atoms: C20_28  and  C21_30 
REMARK   11  A    between atoms: C21_30  and  C22_31 
REMARK   12  A    between atoms: C21_30  and  N4_36 
REMARK   13  A    between atoms: C22_31  and  C23_32 
REMARK       I    between atoms: N4_36  and  C27_38 
REMARK   14  A    between atoms: C27_38  and  C28_40 
REMARK   15  A    between atoms: C28_40  and  C29_41 
REMARK   16  A    between atoms: C28_40  and  N5_43 
REMARK       I    between atoms: N5_43  and  C31_45 
REMARK       I    between atoms: C31_45  and  N6_47 
ROOT
HETATM    1  N3  UNL     1      46.948  -1.956  12.000  1.00  0.00    -0.344 N 
ATOM      2  H3  UNL     1      46.786  -1.345  12.801  1.00  0.00     0.163 HD
HETATM    3  C20 UNL     1      45.931  -2.064  10.982  1.00  0.00     0.264 C 
HETATM    4  O4  UNL     1      46.214  -2.844  10.017  1.00  0.00    -0.266 OA
ENDROOT
BRANCH   1   5
HETATM    5  C12 UNL     1      48.190  -2.690  11.917  1.00  0.00     0.165 C 
BRANCH   5   6
HETATM    6  C11 UNL     1      48.867  -2.304  13.283  1.00  0.00     0.239 C 
HETATM    7  O3  UNL     1      48.107  -2.145  14.238  1.00  0.00    -0.285 OA
BRANCH   6   8
HETATM    8  C10 UNL     1      50.294  -2.162  13.353  1.00  0.00     0.292 C 
HETATM    9  N2  UNL     1      50.913  -0.887  13.418  1.00  0.00    -0.332 N 
HETATM   10  C6  UNL     1      50.306   0.414  13.423  1.00  0.00     0.179 C 
HETATM   11  C9  UNL     1      52.367  -0.751  13.503  1.00  0.00     0.127 C 
HETATM   12  C7  UNL     1      51.401   1.297  12.854  1.00  0.00     0.037 C 
HETATM   13  C8  UNL     1      52.640   0.707  13.445  1.00  0.00     0.022 C 
HETATM   14  O2  UNL     1      51.027  -3.186  13.358  1.00  0.00    -0.264 OA
BRANCH  10  15
HETATM   15  C5  UNL     1      49.950   0.860  14.798  1.00  0.00     0.240 C 
HETATM   16  N1  UNL     1      49.767  -0.120  15.798  1.00  0.00    -0.359 N 
ATOM     17  H1  UNL     1      49.878  -1.107  15.567  1.00  0.00     0.162 HD
HETATM   18  O1  UNL     1      49.815   2.067  15.079  1.00  0.00    -0.271 OA
BRANCH  16  19
HETATM   19  C4  UNL     1      49.421   0.270  17.157  1.00  0.00     0.122 C 
BRANCH  19  20
HETATM   20  C3  UNL     1      48.283  -0.635  17.629  1.00  0.00     0.019 C 
BRANCH  20  21
HETATM   21  C2  UNL     1      47.022  -0.164  16.938  1.00  0.00    -0.003 C 
HETATM   22  C1  UNL     1      46.002   0.201  17.995  1.00  0.00     0.005 C 
ENDBRANCH  20  21
ENDBRANCH  19  20
ENDBRANCH  16  19
ENDBRANCH  10  15
ENDBRANCH   6   8
ENDBRANCH   5   6
BRANCH   5  23
HETATM   23  C13 UNL     1      49.102  -2.206  10.890  1.00  0.00     0.038 C 
BRANCH  23  24
HETATM   24  C14 UNL     1      49.615  -2.988   9.774  1.00  0.00    -0.012 C 
HETATM   25  C15 UNL     1      50.942  -3.627   9.818  1.00  0.00     0.005 C 
HETATM   26  C16 UNL     1      50.888  -4.839   8.873  1.00  0.00     0.000 C 
HETATM   27  C17 UNL     1      49.942  -4.589   7.733  1.00  0.00     0.000 C 
HETATM   28  C18 UNL     1      49.843  -3.147   7.348  1.00  0.00     0.000 C 
HETATM   29  C19 UNL     1      49.554  -2.195   8.447  1.00  0.00     0.005 C 
ENDBRANCH  23  24
ENDBRANCH   5  23
ENDBRANCH   1   5
BRANCH   3  30
HETATM   30  C21 UNL     1      44.666  -1.400  10.995  1.00  0.00     0.080 C 
BRANCH  30  31
HETATM   31  C22 UNL     1      44.595   0.065  10.958  1.00  0.00     0.067 C 
BRANCH  31  32
HETATM   32  C23 UNL     1      45.247   0.761  12.075  1.00  0.00    -0.009 C 
HETATM   33  C24 UNL     1      46.438   1.573  11.542  1.00  0.00     0.005 C 
HETATM   34  C25 UNL     1      45.740   2.811  12.078  1.00  0.00     0.001 C 
HETATM   35  C26 UNL     1      44.783   1.885  12.854  1.00  0.00     0.005 C 
ENDBRANCH  31  32
ENDBRANCH  30  31
BRANCH  30  36
HETATM   36  N4  UNL     1      43.536  -2.087  11.566  1.00  0.00    -0.324 N 
HETATM   37  C27 UNL     1      42.717  -2.972  10.833  1.00  0.00     0.244 C 
HETATM   38  O5  UNL     1      43.039  -3.128   9.601  1.00  0.00    -0.271 OA
ATOM     39  H4  UNL     1      43.318  -1.925  12.549  1.00  0.00     0.169 HD
BRANCH  37  40
HETATM   40  C28 UNL     1      41.559  -3.707  11.350  1.00  0.00     0.178 C 
BRANCH  40  41
HETATM   41  C29 UNL     1      41.884  -5.069  11.905  1.00  0.00     0.030 C 
HETATM   42  C30 UNL     1      41.758  -6.137  10.819  1.00  0.00     0.007 C 
ENDBRANCH  40  41
BRANCH  40  43
HETATM   43  N5  UNL     1      40.957  -2.929  12.414  1.00  0.00    -0.330 N 
HETATM   44  C31 UNL     1      39.636  -3.061  12.877  1.00  0.00     0.319 C 
HETATM   45  O6  UNL     1      38.911  -3.927  12.320  1.00  0.00    -0.247 OA
HETATM   46  N6  UNL     1      39.069  -2.290  13.918  1.00  0.00    -0.330 N 
HETATM   47  C32 UNL     1      39.755  -1.256  14.662  1.00  0.00     0.153 C 
HETATM   48  C35 UNL     1      37.667  -2.505  14.336  1.00  0.00     0.153 C 
HETATM   49  C33 UNL     1      39.941  -1.812  16.076  1.00  0.00     0.187 C 
HETATM   50  O7  UNL     1      38.847  -2.602  16.433  1.00  0.00    -0.388 OA
HETATM   51  C34 UNL     1      37.664  -2.163  15.825  1.00  0.00     0.187 C 
ATOM     52  H5  UNL     1      41.541  -2.226  12.866  1.00  0.00     0.165 HD
ENDBRANCH  40  43
ENDBRANCH  37  40
ENDBRANCH  30  36
ENDBRANCH   3  30
TORSDOF 16
ENDMDL
MODEL 5
REMARK VINA RESULT: -9.085127801      1.283      3.066
REMARK  16 active torsions:
REMARK  status: ('A' for Active; 'I' for Inactive)
REMARK    1  A    between atoms: C2_2  and  C3_3 
REMARK    2  A    between atoms: C3_3  and  C4_4 
REMARK    3  A    between atoms: C4_4  and  N1_5 
REMARK       I    between atoms: N1_5  and  C5_7 
REMARK    4  A    between atoms: C5_7  and  C6_9 
REMARK       I    between atoms: N2_13  and  C10_14 
REMARK    5  A    between atoms: C10_14  and  C11_16 
REMARK    6  A    between atoms: C11_16  and  C12_18 
REMARK    7  A    between atoms: C12_18  and  C13_19 
REMARK    8  A    between atoms: C12_18  and  N3_26 
REMARK    9  A    between atoms: C13_19  and  C14_20 
REMARK       I    between atoms: N3_26  and  C20_28 
REMARK   10  A    between atoms: C20_28  and  C21_30 
REMARK   11  A    between atoms: C21_30  and  C22_31 
REMARK   12  A    between atoms: C21_30  and  N4_36 
REMARK   13  A    between atoms: C22_31  and  C23_32 
REMARK       I    between atoms: N4_36  and  C27_38 
REMARK   14  A    between atoms: C27_38  and  C28_40 
REMARK   15  A    between atoms: C28_40  and  C29_41 
REMARK   16  A    between atoms: C28_40  and  N5_43 
REMARK       I    between atoms: N5_43  and  C31_45 
REMARK       I    between atoms: C31_45  and  N6_47 
ROOT
HETATM    1  N3  UNL     1      39.665  -3.341  12.005  1.00  0.00    -0.344 N 
ATOM      2  H3  UNL     1      39.222  -2.938  11.179  1.00  0.00     0.163 HD
HETATM    3  C20 UNL     1      41.106  -3.417  12.062  1.00  0.00     0.264 C 
HETATM    4  O4  UNL     1      41.577  -3.930  13.127  1.00  0.00    -0.266 OA
ENDROOT
BRANCH   1   5
HETATM    5  C12 UNL     1      38.834  -3.821  13.086  1.00  0.00     0.165 C 
BRANCH   5   6
HETATM    6  C11 UNL     1      38.292  -5.168  12.480  1.00  0.00     0.239 C 
HETATM    7  O3  UNL     1      39.141  -5.958  12.071  1.00  0.00    -0.285 OA
BRANCH   6   8
HETATM    8  C10 UNL     1      36.876  -5.407  12.437  1.00  0.00     0.292 C 
HETATM    9  N2  UNL     1      36.192  -5.604  11.210  1.00  0.00    -0.332 N 
HETATM   10  C6  UNL     1      36.715  -5.605   9.873  1.00  0.00     0.179 C 
HETATM   11  C9  UNL     1      34.753  -5.862  11.175  1.00  0.00     0.127 C 
HETATM   12  C7  UNL     1      35.509  -5.208   9.042  1.00  0.00     0.037 C 
HETATM   13  C8  UNL     1      34.386  -5.907   9.737  1.00  0.00     0.022 C 
HETATM   14  O2  UNL     1      36.214  -5.445  13.507  1.00  0.00    -0.264 OA
BRANCH  10  15
HETATM   15  C5  UNL     1      37.201  -6.950   9.462  1.00  0.00     0.240 C 
HETATM   16  N1  UNL     1      38.574  -7.246   9.611  1.00  0.00    -0.359 N 
ATOM     17  H1  UNL     1      39.205  -6.541   9.992  1.00  0.00     0.162 HD
HETATM   18  O1  UNL     1      36.428  -7.811   8.997  1.00  0.00    -0.271 OA
BRANCH  16  19
HETATM   19  C4  UNL     1      39.094  -8.549   9.225  1.00  0.00     0.122 C 
BRANCH  19  20
HETATM   20  C3  UNL     1      39.999  -9.045  10.351  1.00  0.00     0.019 C 
BRANCH  20  21
HETATM   21  C2  UNL     1      39.197  -8.979  11.632  1.00  0.00    -0.003 C 
HETATM   22  C1  UNL     1      40.144  -9.136  12.802  1.00  0.00     0.005 C 
ENDBRANCH  20  21
ENDBRANCH  19  20
ENDBRANCH  16  19
ENDBRANCH  10  15
ENDBRANCH   6   8
ENDBRANCH   5   6
BRANCH   5  23
HETATM   23  C13 UNL     1      37.650  -3.011  13.333  1.00  0.00     0.038 C 
BRANCH  23  24
HETATM   24  C14 UNL     1      37.301  -2.384  14.600  1.00  0.00    -0.012 C 
HETATM   25  C15 UNL     1      36.004  -1.713  14.803  1.00  0.00     0.005 C 
HETATM   26  C16 UNL     1      35.696  -1.778  16.308  1.00  0.00     0.000 C 
HETATM   27  C17 UNL     1      36.963  -1.760  17.117  1.00  0.00     0.000 C 
HETATM   28  C18 UNL     1      38.075  -1.006  16.461  1.00  0.00     0.000 C 
HETATM   29  C19 UNL     1      38.388  -1.387  15.063  1.00  0.00     0.005 C 
ENDBRANCH  23  24
ENDBRANCH   5  23
ENDBRANCH   1   5
BRANCH   3  30
HETATM   30  C21 UNL     1      42.003  -2.995  11.033  1.00  0.00     0.080 C 
BRANCH  30  31
HETATM   31  C22 UNL     1      42.489  -3.953  10.032  1.00  0.00     0.067 C 
BRANCH  31  32
HETATM   32  C23 UNL     1      41.803  -5.251  10.010  1.00  0.00    -0.009 C 
HETATM   33  C24 UNL     1      41.796  -5.797   8.573  1.00  0.00     0.005 C 
HETATM   34  C25 UNL     1      42.573  -6.991   9.101  1.00  0.00     0.001 C 
HETATM   35  C26 UNL     1      42.233  -6.527  10.530  1.00  0.00     0.005 C 
ENDBRANCH  31  32
ENDBRANCH  30  31
BRANCH  30  36
HETATM   36  N4  UNL     1      42.825  -1.838  11.271  1.00  0.00    -0.324 N 
HETATM   37  C27 UNL     1      44.154  -1.724  10.808  1.00  0.00     0.244 C 
HETATM   38  O5  UNL     1      44.598  -2.735  10.156  1.00  0.00    -0.271 OA
ATOM     39  H4  UNL     1      42.428  -1.062  11.800  1.00  0.00     0.169 HD
BRANCH  37  40
HETATM   40  C28 UNL     1      45.043  -0.576  11.009  1.00  0.00     0.178 C 
BRANCH  40  41
HETATM   41  C29 UNL     1      44.353   0.665  11.510  1.00  0.00     0.030 C 
HETATM   42  C30 UNL     1      45.368   1.642  12.104  1.00  0.00     0.007 C 
ENDBRANCH  40  41
BRANCH  40  43
HETATM   43  N5  UNL     1      46.055  -0.940  11.980  1.00  0.00    -0.330 N 
HETATM   44  C31 UNL     1      47.365  -1.353  11.680  1.00  0.00     0.319 C 
HETATM   45  O6  UNL     1      47.690  -1.413  10.465  1.00  0.00    -0.247 OA
HETATM   46  N6  UNL     1      48.338  -1.704  12.646  1.00  0.00    -0.330 N 
HETATM   47  C32 UNL     1      48.135  -1.692  14.079  1.00  0.00     0.153 C 
HETATM   48  C35 UNL     1      49.693  -2.123  12.231  1.00  0.00     0.153 C 
HETATM   49  C33 UNL     1      48.988  -0.538  14.611  1.00  0.00     0.187 C 
HETATM   50  O7  UNL     1      50.163  -0.421  13.868  1.00  0.00    -0.388 OA
HETATM   51  C34 UNL     1      50.595  -1.658  13.373  1.00  0.00     0.187 C 
ATOM     52  H5  UNL     1      45.795  -0.893  12.965  1.00  0.00     0.165 HD
ENDBRANCH  40  43
ENDBRANCH  37  40
ENDBRANCH  30  36
ENDBRANCH   3  30
TORSDOF 16
ENDMDL
