MODEL 1
REMARK VINA RESULT: -6.779742572      0.000      0.000
REMARK  7 active torsions:
REMARK  status: ('A' for Active; 'I' for Inactive)
REMARK    1  A    between atoms: C2_2  and  C3_3 
REMARK    2  A    between atoms: C4_4  and  O1_5 
REMARK    3  A    between atoms: C7_13  and  N2_14 
REMARK       I    between atoms: N2_14  and  C8_16 
REMARK    4  A    between atoms: C8_16  and  C9_18 
REMARK    5  A    between atoms: C9_18  and  C10_19 
REMARK    6  A    between atoms: C10_19  and  S1_20 
REMARK    7  A    between atoms: S1_20  and  C11_21 
ROOT
HETATM    1  C3  UNL     1      -9.145  -9.547 -16.015  1.00  0.00     0.021 A 
HETATM    2  C4  UNL     1      -9.996 -10.649 -16.183  1.00  0.00     0.149 A 
HETATM    3  N1  UNL     1      -9.876 -11.540 -17.164  1.00  0.00    -0.326 N 
ATOM      4  H1  UNL     1     -10.524 -12.324 -17.237  1.00  0.00     0.169 HD
HETATM    5  C5  UNL     1      -8.884 -11.386 -18.054  1.00  0.00     0.129 A 
HETATM    6 CL1  UNL     1      -8.675 -12.545 -19.382  1.00  0.00    -0.062 Cl
HETATM    7  C6  UNL     1      -8.014 -10.345 -17.964  1.00  0.00     0.100 A 
HETATM    8 CL2  UNL     1      -6.699 -10.098 -19.102  1.00  0.00    -0.079 Cl
HETATM    9  C7  UNL     1      -8.134  -9.375 -16.905  1.00  0.00     0.070 A 
ENDROOT
BRANCH   9  10
HETATM   10  N2  UNL     1      -7.295  -8.486 -16.903  1.00  0.00    -0.325 N 
HETATM   11  C8  UNL     1      -6.386  -7.842 -16.163  1.00  0.00     0.222 C 
HETATM   12  O2  UNL     1      -5.226  -8.365 -15.920  1.00  0.00    -0.273 OA
ATOM     13  H2  UNL     1      -7.285  -8.071 -17.834  1.00  0.00     0.169 HD
BRANCH  11  14
HETATM   14  C9  UNL     1      -6.552  -6.488 -15.536  1.00  0.00     0.113 C 
BRANCH  14  15
HETATM   15  C10 UNL     1      -7.009  -5.476 -16.557  1.00  0.00     0.084 C 
BRANCH  15  16
HETATM   16  S1  UNL     1      -5.675  -4.668 -17.439  1.00  0.00    -0.160 SA
BRANCH  16  17
HETATM   17  C11 UNL     1      -5.212  -5.498 -18.954  1.00  0.00    -0.003 C 
HETATM   18  C12 UNL     1      -4.912  -4.582 -20.110  1.00  0.00     0.026 C 
HETATM   19  C13 UNL     1      -6.289  -6.456 -19.437  1.00  0.00     0.026 C 
HETATM   20  C14 UNL     1      -3.977  -6.377 -18.709  1.00  0.00     0.026 C 
ENDBRANCH  16  17
ENDBRANCH  15  16
ENDBRANCH  14  15
ENDBRANCH  11  14
ENDBRANCH   9  10
BRANCH   1  21
HETATM   21  C2  UNL     1      -9.400  -8.647 -14.880  1.00  0.00     0.041 C 
HETATM   22  C1  UNL     1      -8.643  -9.220 -13.672  1.00  0.00     0.010 C 
ENDBRANCH   1  21
BRANCH   2  23
HETATM   23  O1  UNL     1     -11.022 -10.824 -15.279  1.00  0.00    -0.346 OA
ATOM     24  H1  UNL     1     -11.869 -11.100 -15.609  1.00  0.00     0.219 HD
ENDBRANCH   2  23
TORSDOF 7
ENDMDL
MODEL 2
REMARK VINA RESULT: -6.628780520      3.486      5.385
REMARK  7 active torsions:
REMARK  status: ('A' for Active; 'I' for Inactive)
REMARK    1  A    between atoms: C2_2  and  C3_3 
REMARK    2  A    between atoms: C4_4  and  O1_5 
REMARK    3  A    between atoms: C7_13  and  N2_14 
REMARK       I    between atoms: N2_14  and  C8_16 
REMARK    4  A    between atoms: C8_16  and  C9_18 
REMARK    5  A    between atoms: C9_18  and  C10_19 
REMARK    6  A    between atoms: C10_19  and  S1_20 
REMARK    7  A    between atoms: S1_20  and  C11_21 
ROOT
HETATM    1  C3  UNL     1      -9.046  -9.971 -16.136  1.00  0.00     0.021 A 
HETATM    2  C4  UNL     1      -9.766  -9.938 -14.934  1.00  0.00     0.149 A 
HETATM    3  N1  UNL     1      -9.498  -9.109 -13.927  1.00  0.00    -0.326 N 
ATOM      4  H1  UNL     1     -10.056  -9.129 -13.074  1.00  0.00     0.169 HD
HETATM    5  C5  UNL     1      -8.477  -8.248 -14.059  1.00  0.00     0.129 A 
HETATM    6 CL1  UNL     1      -8.075  -7.119 -12.750  1.00  0.00    -0.062 Cl
HETATM    7  C6  UNL     1      -7.729  -8.213 -15.193  1.00  0.00     0.100 A 
HETATM    8 CL2  UNL     1      -6.384  -7.105 -15.416  1.00  0.00    -0.079 Cl
HETATM    9  C7  UNL     1      -8.011  -9.104 -16.289  1.00  0.00     0.070 A 
ENDROOT
BRANCH   9  10
HETATM   10  N2  UNL     1      -7.290  -8.985 -17.269  1.00  0.00    -0.325 N 
HETATM   11  C8  UNL     1      -7.210  -8.511 -18.517  1.00  0.00     0.222 C 
HETATM   12  O2  UNL     1      -7.022  -7.250 -18.744  1.00  0.00    -0.273 OA
ATOM     13  H2  UNL     1      -6.395  -9.421 -17.047  1.00  0.00     0.169 HD
BRANCH  11  14
HETATM   14  C9  UNL     1      -7.315  -9.315 -19.780  1.00  0.00     0.113 C 
BRANCH  14  15
HETATM   15  C10 UNL     1      -6.665 -10.666 -19.611  1.00  0.00     0.084 C 
BRANCH  15  16
HETATM   16  S1  UNL     1      -6.476 -11.587 -21.137  1.00  0.00    -0.160 SA
BRANCH  16  17
HETATM   17  C11 UNL     1      -7.768 -12.792 -21.412  1.00  0.00    -0.003 C 
HETATM   18  C12 UNL     1      -8.493 -12.653 -22.724  1.00  0.00     0.026 C 
HETATM   19  C13 UNL     1      -8.835 -12.748 -20.329  1.00  0.00     0.026 C 
HETATM   20  C14 UNL     1      -7.184 -14.209 -21.338  1.00  0.00     0.026 C 
ENDBRANCH  16  17
ENDBRANCH  15  16
ENDBRANCH  14  15
ENDBRANCH  11  14
ENDBRANCH   9  10
BRANCH   1  21
HETATM   21  C2  UNL     1      -9.461 -10.941 -17.160  1.00  0.00     0.041 C 
HETATM   22  C1  UNL     1     -10.512 -10.245 -18.040  1.00  0.00     0.010 C 
ENDBRANCH   1  21
BRANCH   2  23
HETATM   23  O1  UNL     1     -10.817 -10.815 -14.779  1.00  0.00    -0.346 OA
ATOM     24  H1  UNL     1     -11.681 -10.457 -14.616  1.00  0.00     0.219 HD
ENDBRANCH   2  23
TORSDOF 7
ENDMDL
MODEL 3
REMARK VINA RESULT: -6.618215610      2.709      5.064
REMARK  7 active torsions:
REMARK  status: ('A' for Active; 'I' for Inactive)
REMARK    1  A    between atoms: C2_2  and  C3_3 
REMARK    2  A    between atoms: C4_4  and  O1_5 
REMARK    3  A    between atoms: C7_13  and  N2_14 
REMARK       I    between atoms: N2_14  and  C8_16 
REMARK    4  A    between atoms: C8_16  and  C9_18 
REMARK    5  A    between atoms: C9_18  and  C10_19 
REMARK    6  A    between atoms: C10_19  and  S1_20 
REMARK    7  A    between atoms: S1_20  and  C11_21 
ROOT
HETATM    1  C3  UNL     1      -7.165  -8.815 -18.735  1.00  0.00     0.021 A 
HETATM    2  C4  UNL     1      -6.603  -8.421 -19.957  1.00  0.00     0.149 A 
HETATM    3  N1  UNL     1      -6.567  -9.191 -21.043  1.00  0.00    -0.326 N 
ATOM      4  H1  UNL     1      -6.145  -8.851 -21.908  1.00  0.00     0.169 HD
HETATM    5  C5  UNL     1      -7.097 -10.421 -20.977  1.00  0.00     0.129 A 
HETATM    6 CL1  UNL     1      -7.078 -11.489 -22.393  1.00  0.00    -0.062 Cl
HETATM    7  C6  UNL     1      -7.662 -10.881 -19.829  1.00  0.00     0.100 A 
HETATM    8 CL2  UNL     1      -8.370 -12.483 -19.689  1.00  0.00    -0.079 Cl
HETATM    9  C7  UNL     1      -7.708 -10.057 -18.648  1.00  0.00     0.070 A 
ENDROOT
BRANCH   9  10
HETATM   10  N2  UNL     1      -8.250 -10.557 -17.673  1.00  0.00    -0.325 N 
HETATM   11  C8  UNL     1      -9.080 -10.334 -16.649  1.00  0.00     0.222 C 
HETATM   12  O2  UNL     1     -10.363 -10.296 -16.821  1.00  0.00    -0.273 OA
ATOM     13  H2  UNL     1      -7.949 -11.530 -17.619  1.00  0.00     0.169 HD
BRANCH  11  14
HETATM   14  C9  UNL     1      -8.683 -10.106 -15.219  1.00  0.00     0.113 C 
BRANCH  14  15
HETATM   15  C10 UNL     1      -9.256  -8.809 -14.703  1.00  0.00     0.084 C 
BRANCH  15  16
HETATM   16  S1  UNL     1      -8.120  -7.848 -13.707  1.00  0.00    -0.160 SA
BRANCH  16  17
HETATM   17  C11 UNL     1      -8.660  -6.167 -13.424  1.00  0.00    -0.003 C 
HETATM   18  C12 UNL     1      -8.929  -5.370 -14.672  1.00  0.00     0.026 C 
HETATM   19  C13 UNL     1      -7.651  -5.367 -12.616  1.00  0.00     0.026 C 
HETATM   20  C14 UNL     1      -9.939  -6.167 -12.575  1.00  0.00     0.026 C 
ENDBRANCH  16  17
ENDBRANCH  15  16
ENDBRANCH  14  15
ENDBRANCH  11  14
ENDBRANCH   9  10
BRANCH   1  21
HETATM   21  C2  UNL     1      -7.134  -7.855 -17.622  1.00  0.00     0.041 C 
HETATM   22  C1  UNL     1      -5.867  -8.154 -16.805  1.00  0.00     0.010 C 
ENDBRANCH   1  21
BRANCH   2  23
HETATM   23  O1  UNL     1      -6.053  -7.161 -20.046  1.00  0.00    -0.346 OA
ATOM     24  H1  UNL     1      -6.631  -6.431 -20.235  1.00  0.00     0.219 HD
ENDBRANCH   2  23
TORSDOF 7
ENDMDL
MODEL 4
REMARK VINA RESULT: -6.617098028      1.609      2.887
REMARK  7 active torsions:
REMARK  status: ('A' for Active; 'I' for Inactive)
REMARK    1  A    between atoms: C2_2  and  C3_3 
REMARK    2  A    between atoms: C4_4  and  O1_5 
REMARK    3  A    between atoms: C7_13  and  N2_14 
REMARK       I    between atoms: N2_14  and  C8_16 
REMARK    4  A    between atoms: C8_16  and  C9_18 
REMARK    5  A    between atoms: C9_18  and  C10_19 
REMARK    6  A    between atoms: C10_19  and  S1_20 
REMARK    7  A    between atoms: S1_20  and  C11_21 
ROOT
HETATM    1  C3  UNL     1      -8.498 -10.157 -17.665  1.00  0.00     0.021 A 
HETATM    2  C4  UNL     1      -9.483 -11.136 -17.859  1.00  0.00     0.149 A 
HETATM    3  N1  UNL     1      -9.427 -12.071 -18.806  1.00  0.00    -0.326 N 
ATOM      4  H1  UNL     1     -10.174 -12.760 -18.901  1.00  0.00     0.169 HD
HETATM    5  C5  UNL     1      -8.370 -12.087 -19.632  1.00  0.00     0.129 A 
HETATM    6 CL1  UNL     1      -8.244 -13.311 -20.910  1.00  0.00    -0.062 Cl
HETATM    7  C6  UNL     1      -7.371 -11.174 -19.511  1.00  0.00     0.100 A 
HETATM    8 CL2  UNL     1      -5.966 -11.152 -20.566  1.00  0.00    -0.079 Cl
HETATM    9  C7  UNL     1      -7.419 -10.159 -18.490  1.00  0.00     0.070 A 
ENDROOT
BRANCH   9  10
HETATM   10  N2  UNL     1      -6.466  -9.394 -18.456  1.00  0.00    -0.325 N 
HETATM   11  C8  UNL     1      -5.982  -8.274 -17.911  1.00  0.00     0.222 C 
HETATM   12  O2  UNL     1      -5.497  -8.267 -16.709  1.00  0.00    -0.273 OA
ATOM     13  H2  UNL     1      -5.760  -9.754 -19.098  1.00  0.00     0.169 HD
BRANCH  11  14
HETATM   14  C9  UNL     1      -5.922  -6.923 -18.563  1.00  0.00     0.113 C 
BRANCH  14  15
HETATM   15  C10 UNL     1      -6.978  -6.007 -17.996  1.00  0.00     0.084 C 
BRANCH  15  16
HETATM   16  S1  UNL     1      -6.353  -4.796 -16.833  1.00  0.00    -0.160 SA
BRANCH  16  17
HETATM   17  C11 UNL     1      -7.187  -4.824 -15.252  1.00  0.00    -0.003 C 
HETATM   18  C12 UNL     1      -6.366  -4.319 -14.096  1.00  0.00     0.026 C 
HETATM   19  C13 UNL     1      -7.646  -6.222 -14.869  1.00  0.00     0.026 C 
HETATM   20  C14 UNL     1      -8.472  -3.988 -15.324  1.00  0.00     0.026 C 
ENDBRANCH  16  17
ENDBRANCH  15  16
ENDBRANCH  14  15
ENDBRANCH  11  14
ENDBRANCH   9  10
BRANCH   1  21
HETATM   21  C2  UNL     1      -8.695  -9.190 -16.575  1.00  0.00     0.041 C 
HETATM   22  C1  UNL     1      -8.236  -9.875 -15.278  1.00  0.00     0.010 C 
ENDBRANCH   1  21
BRANCH   2  23
HETATM   23  O1  UNL     1     -10.577 -11.136 -17.022  1.00  0.00    -0.346 OA
ATOM     24  H1  UNL     1     -10.526 -11.638 -16.217  1.00  0.00     0.219 HD
ENDBRANCH   2  23
TORSDOF 7
ENDMDL
MODEL 5
REMARK VINA RESULT: -6.599259856      2.015      3.643
REMARK  7 active torsions:
REMARK  status: ('A' for Active; 'I' for Inactive)
REMARK    1  A    between atoms: C2_2  and  C3_3 
REMARK    2  A    between atoms: C4_4  and  O1_5 
REMARK    3  A    between atoms: C7_13  and  N2_14 
REMARK       I    between atoms: N2_14  and  C8_16 
REMARK    4  A    between atoms: C8_16  and  C9_18 
REMARK    5  A    between atoms: C9_18  and  C10_19 
REMARK    6  A    between atoms: C10_19  and  S1_20 
REMARK    7  A    between atoms: S1_20  and  C11_21 
ROOT
HETATM    1  C3  UNL     1      -8.724 -10.218 -17.427  1.00  0.00     0.021 A 
HETATM    2  C4  UNL     1      -9.414 -11.376 -17.812  1.00  0.00     0.149 A 
HETATM    3  N1  UNL     1      -9.094 -12.115 -18.872  1.00  0.00    -0.326 N 
ATOM      4  H1  UNL     1      -9.632 -12.950 -19.106  1.00  0.00     0.169 HD
HETATM    5  C5  UNL     1      -8.051 -11.739 -19.628  1.00  0.00     0.129 A 
HETATM    6 CL1  UNL     1      -7.580 -12.687 -21.052  1.00  0.00    -0.062 Cl
HETATM    7  C6  UNL     1      -7.328 -10.628 -19.324  1.00  0.00     0.100 A 
HETATM    8 CL2  UNL     1      -5.954 -10.093 -20.278  1.00  0.00    -0.079 Cl
HETATM    9  C7  UNL     1      -7.663  -9.822 -18.178  1.00  0.00     0.070 A 
ENDROOT
BRANCH   9  10
HETATM   10  N2  UNL     1      -6.944  -8.853 -17.982  1.00  0.00    -0.325 N 
HETATM   11  C8  UNL     1      -6.533  -7.962 -17.074  1.00  0.00     0.222 C 
HETATM   12  O2  UNL     1      -5.648  -8.275 -16.180  1.00  0.00    -0.273 OA
ATOM     13  H2  UNL     1      -6.471  -8.639 -18.860  1.00  0.00     0.169 HD
BRANCH  11  14
HETATM   14  C9  UNL     1      -6.999  -6.541 -16.951  1.00  0.00     0.113 C 
BRANCH  14  15
HETATM   15  C10 UNL     1      -6.570  -5.948 -15.631  1.00  0.00     0.084 C 
BRANCH  15  16
HETATM   16  S1  UNL     1      -7.894  -5.168 -14.710  1.00  0.00    -0.160 SA
BRANCH  16  17
HETATM   17  C11 UNL     1      -8.390  -6.083 -13.255  1.00  0.00    -0.003 C 
HETATM   18  C12 UNL     1      -7.891  -5.517 -11.953  1.00  0.00     0.026 C 
HETATM   19  C13 UNL     1      -7.923  -7.529 -13.298  1.00  0.00     0.026 C 
HETATM   20  C14 UNL     1      -9.921  -6.161 -13.186  1.00  0.00     0.026 C 
ENDBRANCH  16  17
ENDBRANCH  15  16
ENDBRANCH  14  15
ENDBRANCH  11  14
ENDBRANCH   9  10
BRANCH   1  21
HETATM   21  C2  UNL     1      -9.191  -9.506 -16.229  1.00  0.00     0.041 C 
HETATM   22  C1  UNL     1      -8.579 -10.219 -15.013  1.00  0.00     0.010 C 
ENDBRANCH   1  21
BRANCH   2  23
HETATM   23  O1  UNL     1     -10.488 -11.779 -17.050  1.00  0.00    -0.346 OA
ATOM     24  H1  UNL     1     -10.967 -12.553 -17.323  1.00  0.00     0.219 HD
ENDBRANCH   2  23
TORSDOF 7
ENDMDL
