MODEL 1
REMARK VINA RESULT: -6.937374535      0.000      0.000
REMARK  5 active torsions:
REMARK  status: ('A' for Active; 'I' for Inactive)
REMARK    1  A    between atoms: C4_5  and  N1_6 
REMARK    2  A    between atoms: N1_6  and  C5_8 
REMARK    3  A    between atoms: C5_8  and  C6_9 
REMARK    4  A    between atoms: C5_8  and  C7_11 
REMARK    5  A    between atoms: C7_11  and  C8_12 
ROOT
HETATM    1  C1  UNL     1      -9.739 -11.448 -16.812  1.00  0.00     0.051 C 
HETATM    2  C2  UNL     1      -8.623 -10.553 -17.208  1.00  0.00    -0.015 A 
HETATM    3  C3  UNL     1      -8.201  -9.538 -16.376  1.00  0.00     0.062 A 
HETATM    4 BR1  UNL     1      -9.134  -9.358 -14.701  1.00  0.00    -0.046 Br
HETATM    5  C4  UNL     1      -7.168  -8.685 -16.705  1.00  0.00     0.122 A 
HETATM    6  N2  UNL     1      -6.578  -8.884 -17.891  1.00  0.00    -0.307 N 
ATOM      7  H2  UNL     1      -5.810  -8.272 -18.170  1.00  0.00     0.170 HD
HETATM    8  C11 UNL     1      -6.971  -9.881 -18.738  1.00  0.00     0.268 A 
HETATM    9  O1  UNL     1      -6.403 -10.061 -19.859  1.00  0.00    -0.266 OA
HETATM   10  C12 UNL     1      -7.995 -10.738 -18.427  1.00  0.00     0.119 A 
HETATM   11  C13 UNL     1      -8.427 -11.796 -19.303  1.00  0.00     0.105 C 
HETATM   12  N3  UNL     1      -8.772 -12.642 -20.010  1.00  0.00    -0.191 NA
ENDROOT
BRANCH   5  13
HETATM   13  N1  UNL     1      -6.809  -7.664 -15.833  1.00  0.00    -0.369 N 
ATOM     14  H1  UNL     1      -6.344  -7.935 -14.967  1.00  0.00     0.161 HD
BRANCH  13  15
HETATM   15  C5  UNL     1      -7.041  -6.225 -16.048  1.00  0.00     0.097 C 
BRANCH  15  16
HETATM   16  C6  UNL     1      -5.665  -5.689 -16.359  1.00  0.00     0.139 C 
HETATM   17 CL1  UNL     1      -4.437  -6.651 -15.475  1.00  0.00    -0.128 Cl
ENDBRANCH  15  16
BRANCH  15  18
HETATM   18  C7  UNL     1      -7.731  -5.614 -14.904  1.00  0.00     0.030 C 
BRANCH  18  19
HETATM   19  C8  UNL     1      -7.453  -6.056 -13.529  1.00  0.00    -0.021 C 
HETATM   20  C9  UNL     1      -6.516  -5.007 -12.889  1.00  0.00     0.009 C 
HETATM   21  C10 UNL     1      -8.553  -6.247 -12.563  1.00  0.00     0.009 C 
ENDBRANCH  18  19
ENDBRANCH  15  18
ENDBRANCH  13  15
ENDBRANCH   5  13
TORSDOF 5
ENDMDL
MODEL 2
REMARK VINA RESULT: -6.907134984      1.080      1.290
REMARK  5 active torsions:
REMARK  status: ('A' for Active; 'I' for Inactive)
REMARK    1  A    between atoms: C4_5  and  N1_6 
REMARK    2  A    between atoms: N1_6  and  C5_8 
REMARK    3  A    between atoms: C5_8  and  C6_9 
REMARK    4  A    between atoms: C5_8  and  C7_11 
REMARK    5  A    between atoms: C7_11  and  C8_12 
ROOT
HETATM    1  C1  UNL     1      -9.697 -11.451 -16.970  1.00  0.00     0.051 C 
HETATM    2  C2  UNL     1      -8.514 -10.647 -17.368  1.00  0.00    -0.015 A 
HETATM    3  C3  UNL     1      -7.988  -9.696 -16.518  1.00  0.00     0.062 A 
HETATM    4 BR1  UNL     1      -8.869  -9.482 -14.819  1.00  0.00    -0.046 Br
HETATM    5  C4  UNL     1      -6.890  -8.928 -16.847  1.00  0.00     0.122 A 
HETATM    6  N2  UNL     1      -6.343  -9.145 -18.051  1.00  0.00    -0.307 N 
ATOM      7  H2  UNL     1      -5.530  -8.596 -18.331  1.00  0.00     0.170 HD
HETATM    8  C11 UNL     1      -6.839 -10.079 -18.915  1.00  0.00     0.268 A 
HETATM    9  O1  UNL     1      -6.311 -10.277 -20.053  1.00  0.00    -0.266 OA
HETATM   10  C12 UNL     1      -7.929 -10.852 -18.604  1.00  0.00     0.119 A 
HETATM   11  C13 UNL     1      -8.470 -11.843 -19.498  1.00  0.00     0.105 C 
HETATM   12  N3  UNL     1      -8.901 -12.635 -20.219  1.00  0.00    -0.191 NA
ENDROOT
BRANCH   5  13
HETATM   13  N1  UNL     1      -6.426  -7.968 -15.957  1.00  0.00    -0.369 N 
ATOM     14  H1  UNL     1      -5.996  -8.303 -15.094  1.00  0.00     0.161 HD
BRANCH  13  15
HETATM   15  C5  UNL     1      -6.497  -6.509 -16.148  1.00  0.00     0.097 C 
BRANCH  15  16
HETATM   16  C6  UNL     1      -5.571  -5.969 -15.086  1.00  0.00     0.139 C 
HETATM   17 CL1  UNL     1      -4.994  -4.342 -15.568  1.00  0.00    -0.128 Cl
ENDBRANCH  15  16
BRANCH  15  18
HETATM   18  C7  UNL     1      -7.884  -6.027 -16.104  1.00  0.00     0.030 C 
BRANCH  18  19
HETATM   19  C8  UNL     1      -8.373  -5.233 -14.966  1.00  0.00    -0.021 C 
HETATM   20  C9  UNL     1      -9.097  -3.996 -15.545  1.00  0.00     0.009 C 
HETATM   21  C10 UNL     1      -9.310  -5.818 -13.987  1.00  0.00     0.009 C 
ENDBRANCH  18  19
ENDBRANCH  15  18
ENDBRANCH  13  15
ENDBRANCH   5  13
TORSDOF 5
ENDMDL
MODEL 3
REMARK VINA RESULT: -6.813508319      2.863      5.355
REMARK  5 active torsions:
REMARK  status: ('A' for Active; 'I' for Inactive)
REMARK    1  A    between atoms: C4_5  and  N1_6 
REMARK    2  A    between atoms: N1_6  and  C5_8 
REMARK    3  A    between atoms: C5_8  and  C6_9 
REMARK    4  A    between atoms: C5_8  and  C7_11 
REMARK    5  A    between atoms: C7_11  and  C8_12 
ROOT
HETATM    1  C1  UNL     1      -5.081  -4.010 -17.281  1.00  0.00     0.051 C 
HETATM    2  C2  UNL     1      -5.816  -5.293 -17.418  1.00  0.00    -0.015 A 
HETATM    3  C3  UNL     1      -6.233  -5.991 -16.304  1.00  0.00     0.062 A 
HETATM    4 BR1  UNL     1      -5.808  -5.211 -14.594  1.00  0.00    -0.046 Br
HETATM    5  C4  UNL     1      -6.918  -7.185 -16.385  1.00  0.00     0.122 A 
HETATM    6  N2  UNL     1      -7.168  -7.653 -17.615  1.00  0.00    -0.307 N 
ATOM      7  H2  UNL     1      -7.672  -8.534 -17.717  1.00  0.00     0.170 HD
HETATM    8  C11 UNL     1      -6.770  -6.986 -18.739  1.00  0.00     0.268 A 
HETATM    9  O1  UNL     1      -7.014  -7.438 -19.900  1.00  0.00    -0.266 OA
HETATM   10  C12 UNL     1      -6.089  -5.798 -18.676  1.00  0.00     0.119 A 
HETATM   11  C13 UNL     1      -5.659  -5.077 -19.847  1.00  0.00     0.105 C 
HETATM   12  N3  UNL     1      -5.315  -4.502 -20.788  1.00  0.00    -0.191 NA
ENDROOT
BRANCH   5  13
HETATM   13  N1  UNL     1      -7.286  -7.852 -15.223  1.00  0.00    -0.369 N 
ATOM     14  H1  UNL     1      -6.589  -7.914 -14.481  1.00  0.00     0.161 HD
BRANCH  13  15
HETATM   15  C5  UNL     1      -8.596  -8.478 -14.966  1.00  0.00     0.097 C 
BRANCH  15  16
HETATM   16  C6  UNL     1      -8.978  -7.949 -13.606  1.00  0.00     0.139 C 
HETATM   17 CL1  UNL     1      -9.383  -6.208 -13.735  1.00  0.00    -0.128 Cl
ENDBRANCH  15  16
BRANCH  15  18
HETATM   18  C7  UNL     1      -8.529  -9.940 -15.099  1.00  0.00     0.030 C 
BRANCH  18  19
HETATM   19  C8  UNL     1      -9.483 -10.665 -15.952  1.00  0.00    -0.021 C 
HETATM   20  C9  UNL     1     -10.847 -10.660 -15.226  1.00  0.00     0.009 C 
HETATM   21  C10 UNL     1      -9.763 -10.205 -17.326  1.00  0.00     0.009 C 
ENDBRANCH  18  19
ENDBRANCH  15  18
ENDBRANCH  13  15
ENDBRANCH   5  13
TORSDOF 5
ENDMDL
MODEL 4
REMARK VINA RESULT: -6.786254150      3.060      6.052
REMARK  5 active torsions:
REMARK  status: ('A' for Active; 'I' for Inactive)
REMARK    1  A    between atoms: C4_5  and  N1_6 
REMARK    2  A    between atoms: N1_6  and  C5_8 
REMARK    3  A    between atoms: C5_8  and  C6_9 
REMARK    4  A    between atoms: C5_8  and  C7_11 
REMARK    5  A    between atoms: C7_11  and  C8_12 
ROOT
HETATM    1  C1  UNL     1      -8.480  -4.821 -15.338  1.00  0.00     0.051 C 
HETATM    2  C2  UNL     1      -8.255  -6.288 -15.314  1.00  0.00    -0.015 A 
HETATM    3  C3  UNL     1      -7.537  -6.911 -16.313  1.00  0.00     0.062 A 
HETATM    4 BR1  UNL     1      -6.859  -5.777 -17.716  1.00  0.00    -0.046 Br
HETATM    5  C4  UNL     1      -7.304  -8.270 -16.329  1.00  0.00     0.122 A 
HETATM    6  N2  UNL     1      -7.814  -8.980 -15.313  1.00  0.00    -0.307 N 
ATOM      7  H2  UNL     1      -7.664  -9.988 -15.290  1.00  0.00     0.170 HD
HETATM    8  C11 UNL     1      -8.529  -8.394 -14.307  1.00  0.00     0.268 A 
HETATM    9  O1  UNL     1      -9.007  -9.076 -13.349  1.00  0.00    -0.266 OA
HETATM   10  C12 UNL     1      -8.769  -7.045 -14.276  1.00  0.00     0.119 A 
HETATM   11  C13 UNL     1      -9.520  -6.405 -13.226  1.00  0.00     0.105 C 
HETATM   12  N3  UNL     1     -10.124  -5.896 -12.383  1.00  0.00    -0.191 NA
ENDROOT
BRANCH   5  13
HETATM   13  N1  UNL     1      -6.595  -8.839 -17.380  1.00  0.00    -0.369 N 
ATOM     14  H1  UNL     1      -5.600  -8.621 -17.441  1.00  0.00     0.161 HD
BRANCH  13  15
HETATM   15  C5  UNL     1      -7.152  -9.729 -18.413  1.00  0.00     0.097 C 
BRANCH  15  16
HETATM   16  C6  UNL     1      -6.485  -9.256 -19.682  1.00  0.00     0.139 C 
HETATM   17 CL1  UNL     1      -5.780 -10.661 -20.544  1.00  0.00    -0.128 Cl
ENDBRANCH  15  16
BRANCH  15  18
HETATM   18  C7  UNL     1      -8.621  -9.709 -18.407  1.00  0.00     0.030 C 
BRANCH  18  19
HETATM   19  C8  UNL     1      -9.392 -10.942 -18.186  1.00  0.00    -0.021 C 
HETATM   20  C9  UNL     1      -8.598 -12.103 -18.824  1.00  0.00     0.009 C 
HETATM   21  C10 UNL     1      -9.718 -11.390 -16.817  1.00  0.00     0.009 C 
ENDBRANCH  18  19
ENDBRANCH  15  18
ENDBRANCH  13  15
ENDBRANCH   5  13
TORSDOF 5
ENDMDL
MODEL 5
REMARK VINA RESULT: -6.767023378      2.459      3.223
REMARK  5 active torsions:
REMARK  status: ('A' for Active; 'I' for Inactive)
REMARK    1  A    between atoms: C4_5  and  N1_6 
REMARK    2  A    between atoms: N1_6  and  C5_8 
REMARK    3  A    between atoms: C5_8  and  C6_9 
REMARK    4  A    between atoms: C5_8  and  C7_11 
REMARK    5  A    between atoms: C7_11  and  C8_12 
ROOT
HETATM    1  C1  UNL     1      -6.609  -9.877 -18.850  1.00  0.00     0.051 C 
HETATM    2  C2  UNL     1      -7.485  -9.878 -17.652  1.00  0.00    -0.015 A 
HETATM    3  C3  UNL     1      -7.206  -9.068 -16.571  1.00  0.00     0.062 A 
HETATM    4 BR1  UNL     1      -5.638  -7.959 -16.713  1.00  0.00    -0.046 Br
HETATM    5  C4  UNL     1      -7.993  -9.038 -15.439  1.00  0.00     0.122 A 
HETATM    6  N2  UNL     1      -9.063  -9.845 -15.428  1.00  0.00    -0.307 N 
ATOM      7  H2  UNL     1      -9.669  -9.851 -14.608  1.00  0.00     0.170 HD
HETATM    8  C11 UNL     1      -9.368 -10.659 -16.482  1.00  0.00     0.268 A 
HETATM    9  O1  UNL     1     -10.385 -11.418 -16.461  1.00  0.00    -0.266 OA
HETATM   10  C12 UNL     1      -8.597 -10.700 -17.615  1.00  0.00     0.119 A 
HETATM   11  C13 UNL     1      -8.898 -11.550 -18.739  1.00  0.00     0.105 C 
HETATM   12  N3  UNL     1      -9.142 -12.234 -19.637  1.00  0.00    -0.191 NA
ENDROOT
BRANCH   5  13
HETATM   13  N1  UNL     1      -7.641  -8.219 -14.374  1.00  0.00    -0.369 N 
ATOM     14  H1  UNL     1      -7.057  -8.628 -13.645  1.00  0.00     0.161 HD
BRANCH  13  15
HETATM   15  C5  UNL     1      -8.037  -6.809 -14.203  1.00  0.00     0.097 C 
BRANCH  15  16
HETATM   16  C6  UNL     1      -8.932  -6.840 -12.987  1.00  0.00     0.139 C 
HETATM   17 CL1  UNL     1      -8.279  -5.733 -11.738  1.00  0.00    -0.128 Cl
ENDBRANCH  15  16
BRANCH  15  18
HETATM   18  C7  UNL     1      -8.630  -6.264 -15.431  1.00  0.00     0.030 C 
BRANCH  18  19
HETATM   19  C8  UNL     1      -8.156  -4.992 -15.998  1.00  0.00    -0.021 C 
HETATM   20  C9  UNL     1      -9.162  -3.897 -15.579  1.00  0.00     0.009 C 
HETATM   21  C10 UNL     1      -6.824  -4.461 -15.646  1.00  0.00     0.009 C 
ENDBRANCH  18  19
ENDBRANCH  15  18
ENDBRANCH  13  15
ENDBRANCH   5  13
TORSDOF 5
ENDMDL
