MODEL 1
REMARK VINA RESULT: -8.049216516      0.000      0.000
REMARK  5 active torsions:
REMARK  status: ('A' for Active; 'I' for Inactive)
REMARK    1  A    between atoms: C3_3  and  C4_4 
REMARK    2  A    between atoms: C4_4  and  C5_5 
REMARK    3  A    between atoms: C5_5  and  C6_6 
REMARK       I    between atoms: N1_7  and  C7_9 
REMARK    4  A    between atoms: C7_9  and  C8_11 
REMARK    5  A    between atoms: N2_19  and  O2_20 
ROOT
HETATM    1  C1  UNL     1      -8.596 -12.920 -20.653  1.00  0.00     0.012 C 
HETATM    2  C2  UNL     1      -8.571 -12.279 -19.629  1.00  0.00    -0.117 C 
HETATM    3  C3  UNL     1      -8.533 -11.518 -18.382  1.00  0.00     0.093 C 
ENDROOT
BRANCH   3   4
HETATM    4  C4  UNL     1      -9.873 -11.531 -17.676  1.00  0.00     0.017 C 
BRANCH   4   5
HETATM    5  C5  UNL     1      -9.656 -11.568 -16.158  1.00  0.00     0.045 C 
BRANCH   5   6
HETATM    6  C6  UNL     1     -10.340 -10.448 -15.503  1.00  0.00     0.064 C 
HETATM    7  N1  UNL     1      -9.817  -9.325 -15.220  1.00  0.00    -0.340 N 
HETATM    8  C7  UNL     1      -8.490  -8.945 -15.479  1.00  0.00     0.233 C 
ATOM      9  H1  UNL     1     -10.416  -8.637 -14.763  1.00  0.00     0.167 HD
HETATM   10  O1  UNL     1      -7.598  -9.806 -15.554  1.00  0.00    -0.272 OA
BRANCH   8  11
HETATM   11  C8  UNL     1      -8.159  -7.526 -15.661  1.00  0.00     0.153 C 
HETATM   12  C9  UNL     1      -7.793  -6.907 -14.336  1.00  0.00     0.047 C 
HETATM   13 CL1  UNL     1      -7.984  -7.774 -12.846  1.00  0.00    -0.086 Cl
HETATM   14  C10 UNL     1      -7.323  -5.670 -14.394  1.00  0.00     0.060 C 
HETATM   15 CL2  UNL     1      -6.859  -4.837 -12.905  1.00  0.00    -0.085 Cl
HETATM   16  C11 UNL     1      -7.206  -5.023 -15.721  1.00  0.00     0.087 C 
HETATM   17  C12 UNL     1      -6.157  -3.912 -15.534  1.00  0.00     0.046 C 
HETATM   18  C13 UNL     1      -8.521  -4.279 -15.941  1.00  0.00     0.046 C 
HETATM   19  N2  UNL     1      -6.867  -5.878 -16.799  1.00  0.00    -0.272 N 
HETATM   20  C14 UNL     1      -7.023  -7.277 -16.605  1.00  0.00     0.065 C 
HETATM   21  C15 UNL     1      -7.364  -7.991 -17.913  1.00  0.00     0.041 C 
HETATM   22  C16 UNL     1      -5.719  -7.864 -16.126  1.00  0.00     0.041 C 
BRANCH  19  23
HETATM   23  O2  UNL     1      -7.288  -5.441 -18.002  1.00  0.00    -0.290 OA
ATOM     24  H2  UNL     1      -6.989  -5.969 -18.734  1.00  0.00     0.244 HD
ENDBRANCH  19  23
ENDBRANCH   8  11
ENDBRANCH   5   6
ENDBRANCH   4   5
ENDBRANCH   3   4
TORSDOF 5
ENDMDL
MODEL 2
REMARK VINA RESULT: -7.940548969      1.939      3.014
REMARK  5 active torsions:
REMARK  status: ('A' for Active; 'I' for Inactive)
REMARK    1  A    between atoms: C3_3  and  C4_4 
REMARK    2  A    between atoms: C4_4  and  C5_5 
REMARK    3  A    between atoms: C5_5  and  C6_6 
REMARK       I    between atoms: N1_7  and  C7_9 
REMARK    4  A    between atoms: C7_9  and  C8_11 
REMARK    5  A    between atoms: N2_19  and  O2_20 
ROOT
HETATM    1  C1  UNL     1     -10.466 -11.092 -15.656  1.00  0.00     0.012 C 
HETATM    2  C2  UNL     1     -10.099 -10.813 -16.773  1.00  0.00    -0.117 C 
HETATM    3  C3  UNL     1      -9.668 -10.487 -18.130  1.00  0.00     0.093 C 
ENDROOT
BRANCH   3   4
HETATM    4  C4  UNL     1      -8.437 -11.273 -18.531  1.00  0.00     0.017 C 
BRANCH   4   5
HETATM    5  C5  UNL     1      -7.540 -10.407 -19.425  1.00  0.00     0.045 C 
BRANCH   5   6
HETATM    6  C6  UNL     1      -6.375  -9.917 -18.681  1.00  0.00     0.064 C 
HETATM    7  N1  UNL     1      -6.210  -8.730 -18.261  1.00  0.00    -0.340 N 
HETATM    8  C7  UNL     1      -7.109  -7.664 -18.429  1.00  0.00     0.233 C 
ATOM      9  H1  UNL     1      -5.346  -8.533 -17.755  1.00  0.00     0.167 HD
HETATM   10  O1  UNL     1      -7.890  -7.653 -19.393  1.00  0.00    -0.272 OA
BRANCH   8  11
HETATM   11  C8  UNL     1      -7.123  -6.561 -17.459  1.00  0.00     0.153 C 
HETATM   12  C9  UNL     1      -7.316  -7.101 -16.065  1.00  0.00     0.047 C 
HETATM   13 CL1  UNL     1      -7.680  -8.772 -15.782  1.00  0.00    -0.086 Cl
HETATM   14  C10 UNL     1      -7.188  -6.216 -15.088  1.00  0.00     0.060 C 
HETATM   15 CL2  UNL     1      -7.391  -6.729 -13.408  1.00  0.00    -0.085 Cl
HETATM   16  C11 UNL     1      -6.880  -4.812 -15.445  1.00  0.00     0.087 C 
HETATM   17  C12 UNL     1      -6.253  -4.204 -14.177  1.00  0.00     0.046 C 
HETATM   18  C13 UNL     1      -8.229  -4.109 -15.582  1.00  0.00     0.046 C 
HETATM   19  N2  UNL     1      -6.043  -4.629 -16.574  1.00  0.00    -0.272 N 
HETATM   20  C14 UNL     1      -5.876  -5.732 -17.455  1.00  0.00     0.065 C 
HETATM   21  C15 UNL     1      -5.641  -5.270 -18.894  1.00  0.00     0.041 C 
HETATM   22  C16 UNL     1      -4.650  -6.513 -17.052  1.00  0.00     0.041 C 
BRANCH  19  23
HETATM   23  O2  UNL     1      -6.212  -3.448 -17.200  1.00  0.00    -0.290 OA
ATOM     24  H2  UNL     1      -5.415  -2.940 -17.294  1.00  0.00     0.244 HD
ENDBRANCH  19  23
ENDBRANCH   8  11
ENDBRANCH   5   6
ENDBRANCH   4   5
ENDBRANCH   3   4
TORSDOF 5
ENDMDL
MODEL 3
REMARK VINA RESULT: -7.928376860      1.130      1.234
REMARK  5 active torsions:
REMARK  status: ('A' for Active; 'I' for Inactive)
REMARK    1  A    between atoms: C3_3  and  C4_4 
REMARK    2  A    between atoms: C4_4  and  C5_5 
REMARK    3  A    between atoms: C5_5  and  C6_6 
REMARK       I    between atoms: N1_7  and  C7_9 
REMARK    4  A    between atoms: C7_9  and  C8_11 
REMARK    5  A    between atoms: N2_19  and  O2_20 
ROOT
HETATM    1  C1  UNL     1      -7.042 -10.035 -21.693  1.00  0.00     0.012 C 
HETATM    2  C2  UNL     1      -7.172 -10.502 -20.586  1.00  0.00    -0.117 C 
HETATM    3  C3  UNL     1      -7.321 -11.082 -19.253  1.00  0.00     0.093 C 
ENDROOT
BRANCH   3   4
HETATM    4  C4  UNL     1      -8.746 -11.524 -18.991  1.00  0.00     0.017 C 
BRANCH   4   5
HETATM    5  C5  UNL     1      -8.989 -11.614 -17.479  1.00  0.00     0.045 C 
BRANCH   5   6
HETATM    6  C6  UNL     1      -9.976 -10.621 -17.046  1.00  0.00     0.064 C 
HETATM    7  N1  UNL     1      -9.715  -9.520 -16.469  1.00  0.00    -0.340 N 
HETATM    8  C7  UNL     1      -8.434  -9.048 -16.136  1.00  0.00     0.233 C 
ATOM      9  H1  UNL     1     -10.506  -8.925 -16.224  1.00  0.00     0.167 HD
HETATM   10  O1  UNL     1      -7.507  -9.848 -15.932  1.00  0.00    -0.272 OA
BRANCH   8  11
HETATM   11  C8  UNL     1      -8.193  -7.603 -16.030  1.00  0.00     0.153 C 
HETATM   12  C9  UNL     1      -8.086  -7.202 -14.581  1.00  0.00     0.047 C 
HETATM   13 CL1  UNL     1      -8.433  -8.322 -13.302  1.00  0.00    -0.086 Cl
HETATM   14  C10 UNL     1      -7.712  -5.950 -14.361  1.00  0.00     0.060 C 
HETATM   15 CL2  UNL     1      -7.550  -5.363 -12.701  1.00  0.00    -0.085 Cl
HETATM   16  C11 UNL     1      -7.446  -5.080 -15.529  1.00  0.00     0.087 C 
HETATM   17  C12 UNL     1      -6.530  -3.963 -14.995  1.00  0.00     0.046 C 
HETATM   18  C13 UNL     1      -8.767  -4.379 -15.839  1.00  0.00     0.046 C 
HETATM   19  N2  UNL     1      -6.878  -5.717 -16.660  1.00  0.00    -0.272 N 
HETATM   20  C14 UNL     1      -6.950  -7.135 -16.722  1.00  0.00     0.065 C 
HETATM   21  C15 UNL     1      -7.029  -7.631 -18.166  1.00  0.00     0.041 C 
HETATM   22  C16 UNL     1      -5.692  -7.726 -16.136  1.00  0.00     0.041 C 
BRANCH  19  23
HETATM   23  O2  UNL     1      -7.144  -5.104 -17.829  1.00  0.00    -0.290 OA
ATOM     24  H2  UNL     1      -6.857  -5.586 -18.596  1.00  0.00     0.244 HD
ENDBRANCH  19  23
ENDBRANCH   8  11
ENDBRANCH   5   6
ENDBRANCH   4   5
ENDBRANCH   3   4
TORSDOF 5
ENDMDL
MODEL 4
REMARK VINA RESULT: -7.729472494      2.207      2.878
REMARK  5 active torsions:
REMARK  status: ('A' for Active; 'I' for Inactive)
REMARK    1  A    between atoms: C3_3  and  C4_4 
REMARK    2  A    between atoms: C4_4  and  C5_5 
REMARK    3  A    between atoms: C5_5  and  C6_6 
REMARK       I    between atoms: N1_7  and  C7_9 
REMARK    4  A    between atoms: C7_9  and  C8_11 
REMARK    5  A    between atoms: N2_19  and  O2_20 
ROOT
HETATM    1  C1  UNL     1      -7.155 -14.309 -21.340  1.00  0.00     0.012 C 
HETATM    2  C2  UNL     1      -7.959 -13.574 -20.818  1.00  0.00    -0.117 C 
HETATM    3  C3  UNL     1      -8.931 -12.673 -20.202  1.00  0.00     0.093 C 
ENDROOT
BRANCH   3   4
HETATM    4  C4  UNL     1      -8.279 -11.751 -19.193  1.00  0.00     0.017 C 
BRANCH   4   5
HETATM    5  C5  UNL     1      -7.488 -10.659 -19.926  1.00  0.00     0.045 C 
BRANCH   5   6
HETATM    6  C6  UNL     1      -6.366 -10.186 -19.109  1.00  0.00     0.064 C 
HETATM    7  N1  UNL     1      -6.254  -9.026 -18.606  1.00  0.00    -0.340 N 
HETATM    8  C7  UNL     1      -7.182  -7.978 -18.735  1.00  0.00     0.233 C 
ATOM      9  H1  UNL     1      -5.415  -8.837 -18.057  1.00  0.00     0.167 HD
HETATM   10  O1  UNL     1      -7.930  -7.926 -19.724  1.00  0.00    -0.272 OA
BRANCH   8  11
HETATM   11  C8  UNL     1      -7.265  -6.944 -17.695  1.00  0.00     0.153 C 
HETATM   12  C9  UNL     1      -7.596  -7.573 -16.366  1.00  0.00     0.047 C 
HETATM   13 CL1  UNL     1      -8.016  -9.251 -16.236  1.00  0.00    -0.086 Cl
HETATM   14  C10 UNL     1      -7.542  -6.761 -15.321  1.00  0.00     0.060 C 
HETATM   15 CL2  UNL     1      -7.910  -7.383 -13.707  1.00  0.00    -0.085 Cl
HETATM   16  C11 UNL     1      -7.176  -5.344 -15.548  1.00  0.00     0.087 C 
HETATM   17  C12 UNL     1      -6.658  -4.841 -14.189  1.00  0.00     0.046 C 
HETATM   18  C13 UNL     1      -8.493  -4.600 -15.758  1.00  0.00     0.046 C 
HETATM   19  N2  UNL     1      -6.235  -5.106 -16.581  1.00  0.00    -0.272 N 
HETATM   20  C14 UNL     1      -6.007  -6.149 -17.519  1.00  0.00     0.065 C 
HETATM   21  C15 UNL     1      -5.632  -5.596 -18.894  1.00  0.00     0.041 C 
HETATM   22  C16 UNL     1      -4.840  -6.987 -17.062  1.00  0.00     0.041 C 
BRANCH  19  23
HETATM   23  O2  UNL     1      -6.323  -3.881 -17.134  1.00  0.00    -0.290 OA
ATOM     24  H2  UNL     1      -6.188  -3.167 -16.523  1.00  0.00     0.244 HD
ENDBRANCH  19  23
ENDBRANCH   8  11
ENDBRANCH   5   6
ENDBRANCH   4   5
ENDBRANCH   3   4
TORSDOF 5
ENDMDL
MODEL 5
REMARK VINA RESULT: -7.613603338      3.298      5.171
REMARK  5 active torsions:
REMARK  status: ('A' for Active; 'I' for Inactive)
REMARK    1  A    between atoms: C3_3  and  C4_4 
REMARK    2  A    between atoms: C4_4  and  C5_5 
REMARK    3  A    between atoms: C5_5  and  C6_6 
REMARK       I    between atoms: N1_7  and  C7_9 
REMARK    4  A    between atoms: C7_9  and  C8_11 
REMARK    5  A    between atoms: N2_19  and  O2_20 
ROOT
HETATM    1  C1  UNL     1      -8.714  -9.978 -15.331  1.00  0.00     0.012 C 
HETATM    2  C2  UNL     1      -8.480  -8.906 -14.825  1.00  0.00    -0.117 C 
HETATM    3  C3  UNL     1      -8.200  -7.617 -14.197  1.00  0.00     0.093 C 
ENDROOT
BRANCH   3   4
HETATM    4  C4  UNL     1      -9.380  -6.674 -14.303  1.00  0.00     0.017 C 
BRANCH   4   5
HETATM    5  C5  UNL     1      -8.885  -5.222 -14.281  1.00  0.00     0.045 C 
BRANCH   5   6
HETATM    6  C6  UNL     1      -9.102  -4.575 -15.579  1.00  0.00     0.064 C 
HETATM    7  N1  UNL     1      -8.209  -4.356 -16.455  1.00  0.00    -0.340 N 
HETATM    8  C7  UNL     1      -6.849  -4.692 -16.348  1.00  0.00     0.233 C 
ATOM      9  H1  UNL     1      -8.506  -3.895 -17.315  1.00  0.00     0.167 HD
HETATM   10  O1  UNL     1      -6.315  -4.781 -15.231  1.00  0.00    -0.272 OA
BRANCH   8  11
HETATM   11  C8  UNL     1      -6.060  -4.939 -17.562  1.00  0.00     0.153 C 
HETATM   12  C9  UNL     1      -4.802  -4.110 -17.538  1.00  0.00     0.047 C 
HETATM   13 CL1  UNL     1      -4.531  -2.908 -16.318  1.00  0.00    -0.086 Cl
HETATM   14  C10 UNL     1      -3.932  -4.364 -18.504  1.00  0.00     0.060 C 
HETATM   15 CL2  UNL     1      -2.418  -3.455 -18.582  1.00  0.00    -0.085 Cl
HETATM   16  C11 UNL     1      -4.269  -5.410 -19.497  1.00  0.00     0.087 C 
HETATM   17  C12 UNL     1      -2.917  -5.853 -20.086  1.00  0.00     0.046 C 
HETATM   18  C13 UNL     1      -4.971  -4.688 -20.645  1.00  0.00     0.046 C 
HETATM   19  N2  UNL     1      -5.006  -6.516 -19.006  1.00  0.00    -0.272 N 
HETATM   20  C14 UNL     1      -5.655  -6.370 -17.750  1.00  0.00     0.065 C 
HETATM   21  C15 UNL     1      -6.931  -7.208 -17.676  1.00  0.00     0.041 C 
HETATM   22  C16 UNL     1      -4.749  -6.874 -16.656  1.00  0.00     0.041 C 
BRANCH  19  23
HETATM   23  O2  UNL     1      -5.751  -7.140 -19.939  1.00  0.00    -0.290 OA
ATOM     24  H2  UNL     1      -6.603  -7.426 -19.629  1.00  0.00     0.244 HD
ENDBRANCH  19  23
ENDBRANCH   8  11
ENDBRANCH   5   6
ENDBRANCH   4   5
ENDBRANCH   3   4
TORSDOF 5
ENDMDL
