MODEL 1
REMARK VINA RESULT: -7.934015180      0.000      0.000
REMARK  5 active torsions:
REMARK  status: ('A' for Active; 'I' for Inactive)
REMARK    1  A    between atoms: C2_2  and  C3_3 
REMARK    2  A    between atoms: N1_4  and  C4_6 
REMARK    3  A    between atoms: C8_13  and  N4_14 
REMARK    4  A    between atoms: N5_17  and  C9_18 
REMARK    5  A    between atoms: C9_18  and  C10_19 
ROOT
HETATM    1  C4  UNL     1      -8.177  -6.874 -15.213  1.00  0.00     0.145 A 
HETATM    2  C5  UNL     1      -8.810  -7.316 -14.080  1.00  0.00     0.105 A 
HETATM    3  C6  UNL     1      -9.198  -6.446 -12.981  1.00  0.00     0.104 C 
HETATM    4  N2  UNL     1      -9.509  -5.779 -12.095  1.00  0.00    -0.191 NA
HETATM    5  C7  UNL     1      -9.093  -8.667 -13.985  1.00  0.00     0.132 A 
HETATM    6  N3  UNL     1      -8.774  -9.536 -14.942  1.00  0.00    -0.200 N 
ATOM      7  H3  UNL     1      -9.001 -10.523 -14.829  1.00  0.00     0.183 HD
HETATM    8  C8  UNL     1      -8.137  -9.101 -16.084  1.00  0.00     0.679 A 
HETATM    9  N5  UNL     1      -7.866  -7.817 -16.182  1.00  0.00    -0.163 N 
ENDROOT
BRANCH   1  10
HETATM   10  N1  UNL     1      -7.852  -5.684 -15.360  1.00  0.00    -0.354 N 
HETATM   11  C3  UNL     1      -7.473  -4.517 -14.784  1.00  0.00     0.062 C 
ATOM     12  H1  UNL     1      -7.885  -5.505 -16.364  1.00  0.00     0.166 HD
BRANCH  11  13
HETATM   13  C2  UNL     1      -5.990  -4.344 -14.494  1.00  0.00     0.040 C 
HETATM   14  C1  UNL     1      -5.390  -3.238 -15.324  1.00  0.00     0.010 C 
ENDBRANCH  11  13
ENDBRANCH   1  10
BRANCH   9  15
HETATM   15  C9  UNL     1      -7.241  -7.265 -17.372  1.00  0.00     0.183 C 
BRANCH  15  16
HETATM   16  C10 UNL     1      -5.833  -6.882 -17.223  1.00  0.00    -0.063 C 
HETATM   17  C11 UNL     1      -4.983  -7.727 -16.298  1.00  0.00     0.045 C 
HETATM   18  C12 UNL     1      -5.211  -5.866 -17.787  1.00  0.00    -0.075 C 
HETATM   19  C13 UNL     1      -5.865  -4.910 -18.701  1.00  0.00     0.040 C 
HETATM   20  C18 UNL     1      -3.749  -5.603 -17.535  1.00  0.00     0.044 C 
HETATM   21  C14 UNL     1      -5.195  -5.025 -20.069  1.00  0.00     0.084 C 
HETATM   22  C15 UNL     1      -3.716  -4.915 -19.917  1.00  0.00     0.247 C 
HETATM   23  F1  UNL     1      -3.217  -3.935 -20.777  1.00  0.00    -0.206 F 
HETATM   24  F2  UNL     1      -3.124  -6.100 -20.324  1.00  0.00    -0.206 F 
HETATM   25  C16 UNL     1      -3.290  -4.550 -18.518  1.00  0.00     0.058 C 
HETATM   26  C17 UNL     1      -1.765  -4.436 -18.498  1.00  0.00     0.016 C 
ENDBRANCH  15  16
ENDBRANCH   9  15
BRANCH   8  27
HETATM   27  N4  UNL     1      -7.838 -10.001 -16.960  1.00  0.00    -0.234 N 
ATOM     28  H42 UNL     1      -7.910 -11.010 -16.823  1.00  0.00     0.174 HD
ATOM     29  H41 UNL     1      -7.518  -9.668 -17.870  1.00  0.00     0.174 HD
ENDBRANCH   8  27
TORSDOF 5
ENDMDL
MODEL 2
REMARK VINA RESULT: -7.546460687      3.527      6.066
REMARK  5 active torsions:
REMARK  status: ('A' for Active; 'I' for Inactive)
REMARK    1  A    between atoms: C2_2  and  C3_3 
REMARK    2  A    between atoms: N1_4  and  C4_6 
REMARK    3  A    between atoms: C8_13  and  N4_14 
REMARK    4  A    between atoms: N5_17  and  C9_18 
REMARK    5  A    between atoms: C9_18  and  C10_19 
ROOT
HETATM    1  C4  UNL     1      -8.018 -10.379 -18.959  1.00  0.00     0.145 A 
HETATM    2  C5  UNL     1      -7.358 -11.244 -19.793  1.00  0.00     0.105 A 
HETATM    3  C6  UNL     1      -7.871 -12.553 -20.167  1.00  0.00     0.104 C 
HETATM    4  N2  UNL     1      -8.253 -13.596 -20.473  1.00  0.00    -0.191 NA
HETATM    5  C7  UNL     1      -6.137 -10.842 -20.305  1.00  0.00     0.132 A 
HETATM    6  N3  UNL     1      -5.591  -9.663 -20.016  1.00  0.00    -0.200 N 
ATOM      7  H3  UNL     1      -4.688  -9.408 -20.415  1.00  0.00     0.183 HD
HETATM    8  C8  UNL     1      -6.246  -8.787 -19.178  1.00  0.00     0.679 A 
HETATM    9  N5  UNL     1      -7.409  -9.161 -18.689  1.00  0.00    -0.163 N 
ENDROOT
BRANCH   1  10
HETATM   10  N1  UNL     1      -9.099 -10.678 -18.426  1.00  0.00    -0.354 N 
HETATM   11  C3  UNL     1      -9.814 -11.574 -17.703  1.00  0.00     0.062 C 
ATOM     12  H1  UNL     1      -9.733  -9.903 -18.620  1.00  0.00     0.166 HD
BRANCH  11  13
HETATM   13  C2  UNL     1      -9.688 -11.492 -16.190  1.00  0.00     0.040 C 
HETATM   14  C1  UNL     1     -10.564 -10.405 -15.620  1.00  0.00     0.010 C 
ENDBRANCH  11  13
ENDBRANCH   1  10
BRANCH   9  15
HETATM   15  C9  UNL     1      -8.191  -8.281 -17.837  1.00  0.00     0.183 C 
BRANCH  15  16
HETATM   16  C10 UNL     1      -7.623  -8.022 -16.510  1.00  0.00    -0.063 C 
HETATM   17  C11 UNL     1      -7.046  -9.206 -15.764  1.00  0.00     0.045 C 
HETATM   18  C12 UNL     1      -7.570  -6.872 -15.867  1.00  0.00    -0.075 C 
HETATM   19  C13 UNL     1      -8.097  -5.605 -16.409  1.00  0.00     0.040 C 
HETATM   20  C18 UNL     1      -6.946  -6.766 -14.500  1.00  0.00     0.044 C 
HETATM   21  C14 UNL     1      -6.929  -4.635 -16.575  1.00  0.00     0.084 C 
HETATM   22  C15 UNL     1      -6.153  -4.559 -15.304  1.00  0.00     0.247 C 
HETATM   23  F1  UNL     1      -6.006  -3.226 -14.910  1.00  0.00    -0.206 F 
HETATM   24  F2  UNL     1      -4.866  -5.023 -15.523  1.00  0.00    -0.206 F 
HETATM   25  C16 UNL     1      -6.807  -5.298 -14.165  1.00  0.00     0.058 C 
HETATM   26  C17 UNL     1      -5.940  -5.119 -12.918  1.00  0.00     0.016 C 
ENDBRANCH  15  16
ENDBRANCH   9  15
BRANCH   8  27
HETATM   27  N4  UNL     1      -5.649  -7.670 -18.924  1.00  0.00    -0.234 N 
ATOM     28  H42 UNL     1      -4.749  -7.379 -19.305  1.00  0.00     0.174 HD
ATOM     29  H41 UNL     1      -6.133  -7.022 -18.301  1.00  0.00     0.174 HD
ENDBRANCH   8  27
TORSDOF 5
ENDMDL
MODEL 3
REMARK VINA RESULT: -7.508269261      3.875      5.710
REMARK  5 active torsions:
REMARK  status: ('A' for Active; 'I' for Inactive)
REMARK    1  A    between atoms: C2_2  and  C3_3 
REMARK    2  A    between atoms: N1_4  and  C4_6 
REMARK    3  A    between atoms: C8_13  and  N4_14 
REMARK    4  A    between atoms: N5_17  and  C9_18 
REMARK    5  A    between atoms: C9_18  and  C10_19 
ROOT
HETATM    1  C4  UNL     1      -7.557  -7.544 -16.208  1.00  0.00     0.145 A 
HETATM    2  C5  UNL     1      -7.907  -6.244 -15.948  1.00  0.00     0.105 A 
HETATM    3  C6  UNL     1      -8.438  -5.790 -14.672  1.00  0.00     0.104 C 
HETATM    4  N2  UNL     1      -8.867  -5.409 -13.673  1.00  0.00    -0.191 NA
HETATM    5  C7  UNL     1      -7.741  -5.317 -16.961  1.00  0.00     0.132 A 
HETATM    6  N3  UNL     1      -7.263  -5.642 -18.160  1.00  0.00    -0.200 N 
ATOM      7  H3  UNL     1      -7.158  -4.926 -18.878  1.00  0.00     0.183 HD
HETATM    8  C8  UNL     1      -6.909  -6.946 -18.431  1.00  0.00     0.679 A 
HETATM    9  N5  UNL     1      -7.062  -7.834 -17.472  1.00  0.00    -0.163 N 
ENDROOT
BRANCH   1  10
HETATM   10  N1  UNL     1      -7.711  -8.445 -15.366  1.00  0.00    -0.354 N 
HETATM   11  C3  UNL     1      -8.567  -9.182 -14.617  1.00  0.00     0.062 C 
ATOM     12  H1  UNL     1      -6.776  -8.779 -15.136  1.00  0.00     0.166 HD
BRANCH  11  13
HETATM   13  C2  UNL     1      -9.173 -10.411 -15.277  1.00  0.00     0.040 C 
HETATM   14  C1  UNL     1     -10.672 -10.439 -15.125  1.00  0.00     0.010 C 
ENDBRANCH  11  13
ENDBRANCH   1  10
BRANCH   9  15
HETATM   15  C9  UNL     1      -6.669  -9.220 -17.654  1.00  0.00     0.183 C 
BRANCH  15  16
HETATM   16  C10 UNL     1      -7.500  -9.993 -18.584  1.00  0.00    -0.063 C 
HETATM   17  C11 UNL     1      -8.990 -10.021 -18.317  1.00  0.00     0.045 C 
HETATM   18  C12 UNL     1      -7.102 -10.694 -19.627  1.00  0.00    -0.075 C 
HETATM   19  C13 UNL     1      -5.692 -10.815 -20.043  1.00  0.00     0.040 C 
HETATM   20  C18 UNL     1      -8.085 -11.437 -20.494  1.00  0.00     0.044 C 
HETATM   21  C14 UNL     1      -5.549 -10.195 -21.432  1.00  0.00     0.084 C 
HETATM   22  C15 UNL     1      -6.578 -10.768 -22.347  1.00  0.00     0.247 C 
HETATM   23  F1  UNL     1      -5.972 -11.252 -23.508  1.00  0.00    -0.206 F 
HETATM   24  F2  UNL     1      -7.430  -9.759 -22.767  1.00  0.00    -0.206 F 
HETATM   25  C16 UNL     1      -7.352 -11.906 -21.731  1.00  0.00     0.058 C 
HETATM   26  C17 UNL     1      -8.346 -12.426 -22.770  1.00  0.00     0.016 C 
ENDBRANCH  15  16
ENDBRANCH   9  15
BRANCH   8  27
HETATM   27  N4  UNL     1      -6.473  -7.194 -19.621  1.00  0.00    -0.234 N 
ATOM     28  H42 UNL     1      -6.953  -7.757 -20.323  1.00  0.00     0.174 HD
ATOM     29  H41 UNL     1      -5.578  -6.776 -19.878  1.00  0.00     0.174 HD
ENDBRANCH   8  27
TORSDOF 5
ENDMDL
MODEL 4
REMARK VINA RESULT: -7.506852825      1.627      3.762
REMARK  5 active torsions:
REMARK  status: ('A' for Active; 'I' for Inactive)
REMARK    1  A    between atoms: C2_2  and  C3_3 
REMARK    2  A    between atoms: N1_4  and  C4_6 
REMARK    3  A    between atoms: C8_13  and  N4_14 
REMARK    4  A    between atoms: N5_17  and  C9_18 
REMARK    5  A    between atoms: C9_18  and  C10_19 
ROOT
HETATM    1  C4  UNL     1      -7.760  -8.725 -15.618  1.00  0.00     0.145 A 
HETATM    2  C5  UNL     1      -8.839  -9.355 -15.054  1.00  0.00     0.105 A 
HETATM    3  C6  UNL     1      -9.450 -10.556 -15.602  1.00  0.00     0.104 C 
HETATM    4  N2  UNL     1      -9.954 -11.504 -16.020  1.00  0.00    -0.191 NA
HETATM    5  C7  UNL     1      -9.372  -8.812 -13.898  1.00  0.00     0.132 A 
HETATM    6  N3  UNL     1      -8.879  -7.715 -13.328  1.00  0.00    -0.200 N 
ATOM      7  H3  UNL     1      -9.304  -7.349 -12.477  1.00  0.00     0.183 HD
HETATM    8  C8  UNL     1      -7.795  -7.074 -13.887  1.00  0.00     0.679 A 
HETATM    9  N5  UNL     1      -7.281  -7.586 -14.986  1.00  0.00    -0.163 N 
ENDROOT
BRANCH   1  10
HETATM   10  N1  UNL     1      -7.247  -9.125 -16.676  1.00  0.00    -0.354 N 
HETATM   11  C3  UNL     1      -7.420  -9.704 -17.889  1.00  0.00     0.062 C 
ATOM     12  H1  UNL     1      -6.249  -8.930 -16.597  1.00  0.00     0.166 HD
BRANCH  11  13
HETATM   13  C2  UNL     1      -7.817  -8.789 -19.037  1.00  0.00     0.040 C 
HETATM   14  C1  UNL     1      -6.831  -8.870 -20.175  1.00  0.00     0.010 C 
ENDBRANCH  11  13
ENDBRANCH   1  10
BRANCH   9  15
HETATM   15  C9  UNL     1      -6.108  -7.004 -15.615  1.00  0.00     0.183 C 
BRANCH  15  16
HETATM   16  C10 UNL     1      -6.371  -6.192 -16.807  1.00  0.00    -0.063 C 
HETATM   17  C11 UNL     1      -7.636  -5.359 -16.808  1.00  0.00     0.045 C 
HETATM   18  C12 UNL     1      -5.644  -6.111 -17.904  1.00  0.00    -0.075 C 
HETATM   19  C13 UNL     1      -4.390  -6.860 -18.112  1.00  0.00     0.040 C 
HETATM   20  C18 UNL     1      -6.049  -5.222 -19.050  1.00  0.00     0.044 C 
HETATM   21  C14 UNL     1      -3.251  -5.852 -18.259  1.00  0.00     0.084 C 
HETATM   22  C15 UNL     1      -3.611  -4.832 -19.285  1.00  0.00     0.247 C 
HETATM   23  F1  UNL     1      -2.595  -4.732 -20.238  1.00  0.00    -0.206 F 
HETATM   24  F2  UNL     1      -3.682  -3.584 -18.687  1.00  0.00    -0.206 F 
HETATM   25  C16 UNL     1      -4.889  -5.154 -20.018  1.00  0.00     0.058 C 
HETATM   26  C17 UNL     1      -5.132  -4.060 -21.059  1.00  0.00     0.016 C 
ENDBRANCH  15  16
ENDBRANCH   9  15
BRANCH   8  27
HETATM   27  N4  UNL     1      -7.382  -6.004 -13.293  1.00  0.00    -0.234 N 
ATOM     28  H42 UNL     1      -7.827  -5.565 -12.487  1.00  0.00     0.174 HD
ATOM     29  H41 UNL     1      -6.530  -5.577 -13.657  1.00  0.00     0.174 HD
ENDBRANCH   8  27
TORSDOF 5
ENDMDL
MODEL 5
REMARK VINA RESULT: -7.473990236      1.747      3.218
REMARK  5 active torsions:
REMARK  status: ('A' for Active; 'I' for Inactive)
REMARK    1  A    between atoms: C2_2  and  C3_3 
REMARK    2  A    between atoms: N1_4  and  C4_6 
REMARK    3  A    between atoms: C8_13  and  N4_14 
REMARK    4  A    between atoms: N5_17  and  C9_18 
REMARK    5  A    between atoms: C9_18  and  C10_19 
ROOT
HETATM    1  C4  UNL     1      -8.169  -9.048 -17.245  1.00  0.00     0.145 A 
HETATM    2  C5  UNL     1      -8.457 -10.361 -17.514  1.00  0.00     0.105 A 
HETATM    3  C6  UNL     1      -9.372 -11.165 -16.719  1.00  0.00     0.104 C 
HETATM    4  N2  UNL     1     -10.088 -11.824 -16.101  1.00  0.00    -0.191 NA
HETATM    5  C7  UNL     1      -7.838 -10.947 -18.604  1.00  0.00     0.132 A 
HETATM    6  N3  UNL     1      -6.986 -10.288 -19.385  1.00  0.00    -0.200 N 
ATOM      7  H3  UNL     1      -6.552 -10.761 -20.178  1.00  0.00     0.183 HD
HETATM    8  C8  UNL     1      -6.690  -8.968 -19.124  1.00  0.00     0.679 A 
HETATM    9  N5  UNL     1      -7.276  -8.403 -18.090  1.00  0.00    -0.163 N 
ENDROOT
BRANCH   1  10
HETATM   10  N1  UNL     1      -8.651  -8.458 -16.264  1.00  0.00    -0.354 N 
HETATM   11  C3  UNL     1      -8.742  -8.359 -14.915  1.00  0.00     0.062 C 
ATOM     12  H1  UNL     1      -9.242  -7.718 -16.642  1.00  0.00     0.166 HD
BRANCH  11  13
HETATM   13  C2  UNL     1      -7.661  -7.552 -14.212  1.00  0.00     0.040 C 
HETATM   14  C1  UNL     1      -7.967  -6.076 -14.237  1.00  0.00     0.010 C 
ENDBRANCH  11  13
ENDBRANCH   1  10
BRANCH   9  15
HETATM   15  C9  UNL     1      -7.059  -7.002 -17.770  1.00  0.00     0.183 C 
BRANCH  15  16
HETATM   16  C10 UNL     1      -5.668  -6.626 -17.500  1.00  0.00    -0.063 C 
HETATM   17  C11 UNL     1      -4.923  -7.439 -16.463  1.00  0.00     0.045 C 
HETATM   18  C12 UNL     1      -4.981  -5.639 -18.042  1.00  0.00    -0.075 C 
HETATM   19  C13 UNL     1      -5.531  -4.717 -19.053  1.00  0.00     0.040 C 
HETATM   20  C18 UNL     1      -3.547  -5.379 -17.660  1.00  0.00     0.044 C 
HETATM   21  C14 UNL     1      -4.734  -4.894 -20.344  1.00  0.00     0.084 C 
HETATM   22  C15 UNL     1      -3.275  -4.791 -20.053  1.00  0.00     0.247 C 
HETATM   23  F1  UNL     1      -2.682  -3.852 -20.900  1.00  0.00    -0.206 F 
HETATM   24  F2  UNL     1      -2.661  -5.998 -20.352  1.00  0.00    -0.206 F 
HETATM   25  C16 UNL     1      -2.981  -4.372 -18.635  1.00  0.00     0.058 C 
HETATM   26  C17 UNL     1      -1.464  -4.271 -18.471  1.00  0.00     0.016 C 
ENDBRANCH  15  16
ENDBRANCH   9  15
BRANCH   8  27
HETATM   27  N4  UNL     1      -5.839  -8.397 -19.910  1.00  0.00    -0.234 N 
ATOM     28  H42 UNL     1      -5.573  -8.729 -20.837  1.00  0.00     0.174 HD
ATOM     29  H41 UNL     1      -5.413  -7.532 -19.574  1.00  0.00     0.174 HD
ENDBRANCH   8  27
TORSDOF 5
ENDMDL
