MODEL 1
REMARK VINA RESULT: -7.736377190      0.000      0.000
REMARK  4 active torsions:
REMARK  status: ('A' for Active; 'I' for Inactive)
REMARK    1  A    between atoms: O1_1  and  C1_3 
REMARK    2  A    between atoms: C6_12  and  C7_13 
REMARK    3  A    between atoms: C7_13  and  C8_14 
REMARK    4  A    between atoms: C8_14  and  N2_15 
ROOT
HETATM    1  C1  UNL     1      -8.935 -10.962 -17.761  1.00  0.00     0.122 A 
HETATM    2  C2  UNL     1      -8.206 -11.116 -18.909  1.00  0.00     0.049 A 
HETATM    3 BR1  UNL     1      -8.680 -12.453 -20.213  1.00  0.00    -0.048 Br
HETATM    4  C3  UNL     1      -7.130 -10.316 -19.140  1.00  0.00     0.052 A 
HETATM    5  C4  UNL     1      -6.776  -9.353 -18.217  1.00  0.00     0.048 A 
HETATM    6  N1  UNL     1      -5.780  -8.446 -18.199  1.00  0.00    -0.349 N 
ATOM      7  H1  UNL     1      -5.082  -8.340 -18.935  1.00  0.00     0.166 HD
HETATM    8  C5  UNL     1      -5.829  -7.702 -17.083  1.00  0.00     0.088 A 
HETATM    9  S1  UNL     1      -4.711  -6.406 -16.662  1.00  0.00    -0.032 SA
HETATM   10  C6  UNL     1      -6.929  -8.185 -16.369  1.00  0.00    -0.006 A 
HETATM   11  C13 UNL     1      -7.532  -9.211 -17.053  1.00  0.00     0.041 A 
HETATM   12  C14 UNL     1      -8.623 -10.008 -16.800  1.00  0.00     0.163 A 
HETATM   13  F1  UNL     1      -9.334  -9.841 -15.666  1.00  0.00    -0.202 F 
ENDROOT
BRANCH  10  14
HETATM   14  C7  UNL     1      -7.312  -7.580 -15.059  1.00  0.00     0.072 C 
BRANCH  14  15
HETATM   15  C8  UNL     1      -8.307  -6.498 -15.380  1.00  0.00     0.277 C 
BRANCH  15  16
HETATM   16  N2  UNL     1      -8.538  -5.521 -14.403  1.00  0.00     0.092 N 
HETATM   17  C9  UNL     1      -7.482  -4.706 -13.950  1.00  0.00     0.298 C 
HETATM   18  C10 UNL     1      -6.812  -5.100 -12.678  1.00  0.00     0.198 C 
HETATM   19  O2  UNL     1      -7.505  -5.969 -11.876  1.00  0.00    -0.388 OA
HETATM   20  C11 UNL     1      -8.854  -5.644 -11.954  1.00  0.00     0.198 C 
HETATM   21  C12 UNL     1      -9.325  -6.046 -13.318  1.00  0.00     0.298 C 
ENDBRANCH  15  16
ENDBRANCH  14  15
ENDBRANCH  10  14
BRANCH   1  22
HETATM   22  O1  UNL     1     -10.022 -11.775 -17.536  1.00  0.00    -0.356 OA
ATOM     23  H1  UNL     1     -10.407 -11.811 -16.668  1.00  0.00     0.218 HD
ENDBRANCH   1  22
TORSDOF 4
ENDMDL
MODEL 2
REMARK VINA RESULT: -7.728938833      1.078      1.330
REMARK  4 active torsions:
REMARK  status: ('A' for Active; 'I' for Inactive)
REMARK    1  A    between atoms: O1_1  and  C1_3 
REMARK    2  A    between atoms: C6_12  and  C7_13 
REMARK    3  A    between atoms: C7_13  and  C8_14 
REMARK    4  A    between atoms: C8_14  and  N2_15 
ROOT
HETATM    1  C1  UNL     1      -9.136 -10.964 -17.470  1.00  0.00     0.122 A 
HETATM    2  C2  UNL     1      -8.467 -11.170 -18.647  1.00  0.00     0.049 A 
HETATM    3 BR1  UNL     1      -9.049 -12.519 -19.895  1.00  0.00    -0.048 Br
HETATM    4  C3  UNL     1      -7.377 -10.414 -18.947  1.00  0.00     0.052 A 
HETATM    5  C4  UNL     1      -6.947  -9.443 -18.066  1.00  0.00     0.048 A 
HETATM    6  N1  UNL     1      -5.922  -8.572 -18.115  1.00  0.00    -0.349 N 
ATOM      7  H1  UNL     1      -5.256  -8.507 -18.885  1.00  0.00     0.166 HD
HETATM    8  C5  UNL     1      -5.892  -7.802 -17.017  1.00  0.00     0.088 A 
HETATM    9  S1  UNL     1      -4.712  -6.537 -16.680  1.00  0.00    -0.032 SA
HETATM   10  C6  UNL     1      -6.973  -8.229 -16.241  1.00  0.00    -0.006 A 
HETATM   11  C13 UNL     1      -7.643  -9.249 -16.871  1.00  0.00     0.041 A 
HETATM   12  C14 UNL     1      -8.746 -10.000 -16.548  1.00  0.00     0.163 A 
HETATM   13  F1  UNL     1      -9.397  -9.783 -15.387  1.00  0.00    -0.202 F 
ENDROOT
BRANCH  10  14
HETATM   14  C7  UNL     1      -7.272  -7.581 -14.930  1.00  0.00     0.072 C 
BRANCH  14  15
HETATM   15  C8  UNL     1      -8.183  -6.424 -15.240  1.00  0.00     0.277 C 
BRANCH  15  16
HETATM   16  N2  UNL     1      -8.052  -5.270 -14.458  1.00  0.00     0.092 N 
HETATM   17  C9  UNL     1      -7.740  -4.036 -15.061  1.00  0.00     0.298 C 
HETATM   18  C10 UNL     1      -6.313  -3.604 -15.038  1.00  0.00     0.198 C 
HETATM   19  O2  UNL     1      -5.509  -4.233 -14.122  1.00  0.00    -0.388 OA
HETATM   20  C11 UNL     1      -6.255  -4.450 -12.971  1.00  0.00     0.198 C 
HETATM   21  C12 UNL     1      -7.253  -5.521 -13.288  1.00  0.00     0.298 C 
ENDBRANCH  15  16
ENDBRANCH  14  15
ENDBRANCH  10  14
BRANCH   1  22
HETATM   22  O1  UNL     1     -10.238 -11.734 -17.175  1.00  0.00    -0.356 OA
ATOM     23  H1  UNL     1     -10.738 -11.551 -16.388  1.00  0.00     0.218 HD
ENDBRANCH   1  22
TORSDOF 4
ENDMDL
MODEL 3
REMARK VINA RESULT: -7.700072064      2.512      3.014
REMARK  4 active torsions:
REMARK  status: ('A' for Active; 'I' for Inactive)
REMARK    1  A    between atoms: O1_1  and  C1_3 
REMARK    2  A    between atoms: C6_12  and  C7_13 
REMARK    3  A    between atoms: C7_13  and  C8_14 
REMARK    4  A    between atoms: C8_14  and  N2_15 
ROOT
HETATM    1  C1  UNL     1      -7.270 -10.843 -19.652  1.00  0.00     0.122 A 
HETATM    2  C2  UNL     1      -8.324 -11.705 -19.513  1.00  0.00     0.049 A 
HETATM    3 BR1  UNL     1      -8.751 -12.980 -20.894  1.00  0.00    -0.048 Br
HETATM    4  C3  UNL     1      -9.085 -11.668 -18.386  1.00  0.00     0.052 A 
HETATM    5  C4  UNL     1      -8.794 -10.762 -17.387  1.00  0.00     0.048 A 
HETATM    6  N1  UNL     1      -9.370 -10.520 -16.194  1.00  0.00    -0.349 N 
ATOM      7  H1  UNL     1     -10.183 -11.021 -15.834  1.00  0.00     0.166 HD
HETATM    8  C5  UNL     1      -8.734  -9.533 -15.545  1.00  0.00     0.088 A 
HETATM    9  S1  UNL     1      -9.166  -8.903 -13.956  1.00  0.00    -0.032 SA
HETATM   10  C6  UNL     1      -7.697  -9.143 -16.396  1.00  0.00    -0.006 A 
HETATM   11  C13 UNL     1      -7.714  -9.891 -17.547  1.00  0.00     0.041 A 
HETATM   12  C14 UNL     1      -6.932  -9.912 -18.677  1.00  0.00     0.163 A 
HETATM   13  F1  UNL     1      -5.895  -9.059 -18.797  1.00  0.00    -0.202 F 
ENDROOT
BRANCH  10  14
HETATM   14  C7  UNL     1      -6.751  -8.060 -15.997  1.00  0.00     0.072 C 
BRANCH  14  15
HETATM   15  C8  UNL     1      -7.269  -6.802 -16.638  1.00  0.00     0.277 C 
BRANCH  15  16
HETATM   16  N2  UNL     1      -7.011  -5.589 -15.985  1.00  0.00     0.092 N 
HETATM   17  C9  UNL     1      -6.625  -5.581 -14.631  1.00  0.00     0.298 C 
HETATM   18  C10 UNL     1      -7.690  -5.319 -13.619  1.00  0.00     0.198 C 
HETATM   19  O2  UNL     1      -8.840  -4.741 -14.091  1.00  0.00    -0.388 OA
HETATM   20  C11 UNL     1      -8.490  -3.828 -15.078  1.00  0.00     0.198 C 
HETATM   21  C12 UNL     1      -8.035  -4.618 -16.267  1.00  0.00     0.298 C 
ENDBRANCH  15  16
ENDBRANCH  14  15
ENDBRANCH  10  14
BRANCH   1  22
HETATM   22  O1  UNL     1      -6.505 -10.887 -20.796  1.00  0.00    -0.356 OA
ATOM     23  H1  UNL     1      -5.563 -10.982 -20.724  1.00  0.00     0.218 HD
ENDBRANCH   1  22
TORSDOF 4
ENDMDL
MODEL 4
REMARK VINA RESULT: -7.594721796      2.838      3.411
REMARK  4 active torsions:
REMARK  status: ('A' for Active; 'I' for Inactive)
REMARK    1  A    between atoms: O1_1  and  C1_3 
REMARK    2  A    between atoms: C6_12  and  C7_13 
REMARK    3  A    between atoms: C7_13  and  C8_14 
REMARK    4  A    between atoms: C8_14  and  N2_15 
ROOT
HETATM    1  C1  UNL     1      -6.539 -10.467 -19.717  1.00  0.00     0.122 A 
HETATM    2  C2  UNL     1      -7.418 -11.391 -20.216  1.00  0.00     0.049 A 
HETATM    3 BR1  UNL     1      -7.109 -12.234 -21.921  1.00  0.00    -0.048 Br
HETATM    4  C3  UNL     1      -8.527 -11.725 -19.502  1.00  0.00     0.052 A 
HETATM    5  C4  UNL     1      -8.764 -11.132 -18.278  1.00  0.00     0.048 A 
HETATM    6  N1  UNL     1      -9.760 -11.278 -17.384  1.00  0.00    -0.349 N 
ATOM      7  H1  UNL     1     -10.554 -11.907 -17.503  1.00  0.00     0.166 HD
HETATM    8  C5  UNL     1      -9.568 -10.488 -16.317  1.00  0.00     0.088 A 
HETATM    9  S1  UNL     1     -10.636 -10.369 -14.920  1.00  0.00    -0.032 SA
HETATM   10  C6  UNL     1      -8.373  -9.809 -16.574  1.00  0.00    -0.006 A 
HETATM   11  C13 UNL     1      -7.855 -10.192 -17.787  1.00  0.00     0.041 A 
HETATM   12  C14 UNL     1      -6.729  -9.841 -18.491  1.00  0.00     0.163 A 
HETATM   13  F1  UNL     1      -5.871  -8.932 -17.985  1.00  0.00    -0.202 F 
ENDROOT
BRANCH  10  14
HETATM   14  C7  UNL     1      -7.822  -8.837 -15.585  1.00  0.00     0.072 C 
BRANCH  14  15
HETATM   15  C8  UNL     1      -8.135  -7.470 -16.132  1.00  0.00     0.277 C 
BRANCH  15  16
HETATM   16  N2  UNL     1      -7.414  -6.386 -15.615  1.00  0.00     0.092 N 
HETATM   17  C9  UNL     1      -7.318  -6.198 -14.222  1.00  0.00     0.298 C 
HETATM   18  C10 UNL     1      -8.258  -5.223 -13.598  1.00  0.00     0.198 C 
HETATM   19  O2  UNL     1      -8.854  -4.331 -14.451  1.00  0.00    -0.388 OA
HETATM   20  C11 UNL     1      -7.926  -3.975 -15.422  1.00  0.00     0.198 C 
HETATM   21  C12 UNL     1      -7.737  -5.168 -16.308  1.00  0.00     0.298 C 
ENDBRANCH  15  16
ENDBRANCH  14  15
ENDBRANCH  10  14
BRANCH   1  22
HETATM   22  O1  UNL     1      -5.420 -10.136 -20.446  1.00  0.00    -0.356 OA
ATOM     23  H1  UNL     1      -5.373 -10.374 -21.364  1.00  0.00     0.218 HD
ENDBRANCH   1  22
TORSDOF 4
ENDMDL
MODEL 5
REMARK VINA RESULT: -7.542623013      2.648      3.112
REMARK  4 active torsions:
REMARK  status: ('A' for Active; 'I' for Inactive)
REMARK    1  A    between atoms: O1_1  and  C1_3 
REMARK    2  A    between atoms: C6_12  and  C7_13 
REMARK    3  A    between atoms: C7_13  and  C8_14 
REMARK    4  A    between atoms: C8_14  and  N2_15 
ROOT
HETATM    1  C1  UNL     1      -7.301 -10.719 -19.511  1.00  0.00     0.122 A 
HETATM    2  C2  UNL     1      -8.325 -11.613 -19.346  1.00  0.00     0.049 A 
HETATM    3 BR1  UNL     1      -8.728 -12.920 -20.704  1.00  0.00    -0.048 Br
HETATM    4  C3  UNL     1      -9.071 -11.585 -18.209  1.00  0.00     0.052 A 
HETATM    5  C4  UNL     1      -8.796 -10.656 -17.226  1.00  0.00     0.048 A 
HETATM    6  N1  UNL     1      -9.364 -10.417 -16.029  1.00  0.00    -0.349 N 
ATOM      7  H1  UNL     1     -10.155 -10.939 -15.651  1.00  0.00     0.166 HD
HETATM    8  C5  UNL     1      -8.752  -9.401 -15.401  1.00  0.00     0.088 A 
HETATM    9  S1  UNL     1      -9.183  -8.763 -13.816  1.00  0.00    -0.032 SA
HETATM   10  C6  UNL     1      -7.740  -8.989 -16.273  1.00  0.00    -0.006 A 
HETATM   11  C13 UNL     1      -7.748  -9.753 -17.413  1.00  0.00     0.041 A 
HETATM   12  C14 UNL     1      -6.981  -9.765 -18.553  1.00  0.00     0.163 A 
HETATM   13  F1  UNL     1      -5.974  -8.880 -18.699  1.00  0.00    -0.202 F 
ENDROOT
BRANCH  10  14
HETATM   14  C7  UNL     1      -6.824  -7.871 -15.901  1.00  0.00     0.072 C 
BRANCH  14  15
HETATM   15  C8  UNL     1      -7.385  -6.641 -16.561  1.00  0.00     0.277 C 
BRANCH  15  16
HETATM   16  N2  UNL     1      -7.295  -5.432 -15.859  1.00  0.00     0.092 N 
HETATM   17  C9  UNL     1      -6.525  -4.370 -16.373  1.00  0.00     0.298 C 
HETATM   18  C10 UNL     1      -5.144  -4.204 -15.835  1.00  0.00     0.198 C 
HETATM   19  O2  UNL     1      -4.882  -4.834 -14.646  1.00  0.00    -0.388 OA
HETATM   20  C11 UNL     1      -6.020  -4.751 -13.854  1.00  0.00     0.198 C 
HETATM   21  C12 UNL     1      -7.046  -5.659 -14.461  1.00  0.00     0.298 C 
ENDBRANCH  15  16
ENDBRANCH  14  15
ENDBRANCH  10  14
BRANCH   1  22
HETATM   22  O1  UNL     1      -6.551 -10.754 -20.664  1.00  0.00    -0.356 OA
ATOM     23  H1  UNL     1      -6.633 -10.050 -21.297  1.00  0.00     0.218 HD
ENDBRANCH   1  22
TORSDOF 4
ENDMDL
