MODEL 1
REMARK VINA RESULT: -9.365417551      0.000      0.000
REMARK  6 active torsions:
REMARK  status: ('A' for Active; 'I' for Inactive)
REMARK    1  A    between atoms: O1_2  and  C2_3 
REMARK    2  A    between atoms: C8_11  and  N2_12 
REMARK    3  A    between atoms: N2_12  and  C9_14 
REMARK    4  A    between atoms: C9_14  and  C10_15 
REMARK    5  A    between atoms: C13_19  and  O2_20 
REMARK    6  A    between atoms: C19_28  and  O3_29 
ROOT
HETATM    1  C2  UNL     1      -7.875 -12.167 -20.546  1.00  0.00     0.103 A 
HETATM    2  C3  UNL     1      -8.798 -12.304 -19.523  1.00  0.00     0.070 A 
HETATM    3  C4  UNL     1      -8.789 -11.479 -18.414  1.00  0.00     0.047 A 
HETATM    4  N1  UNL     1      -9.705 -11.625 -17.425  1.00  0.00    -0.359 N 
ATOM      5  H1  UNL     1     -10.412 -12.357 -17.492  1.00  0.00     0.166 HD
HETATM    6  C5  UNL     1      -9.685 -10.807 -16.349  1.00  0.00     0.007 A 
HETATM    7  C6  UNL     1     -10.677 -10.957 -15.288  1.00  0.00     0.068 C 
HETATM    8  C7  UNL     1      -8.727  -9.787 -16.217  1.00  0.00     0.054 A 
HETATM    9  C8  UNL     1      -7.814  -9.654 -17.224  1.00  0.00     0.042 A 
HETATM   10  C17 UNL     1      -7.823 -10.502 -18.353  1.00  0.00     0.020 A 
HETATM   11  C18 UNL     1      -6.888 -10.350 -19.371  1.00  0.00     0.055 A 
HETATM   12  C19 UNL     1      -6.895 -11.169 -20.476  1.00  0.00     0.102 A 
ENDROOT
BRANCH   9  13
HETATM   13  N2  UNL     1      -6.879  -8.768 -17.221  1.00  0.00    -0.385 N 
ATOM     14  H2  UNL     1      -6.441  -8.489 -18.100  1.00  0.00     0.160 HD
BRANCH  13  15
HETATM   15  C9  UNL     1      -6.446  -8.166 -15.984  1.00  0.00     0.162 C 
BRANCH  15  16
HETATM   16  C10 UNL     1      -7.082  -6.852 -15.727  1.00  0.00     0.007 A 
HETATM   17  C11 UNL     1      -6.780  -5.781 -16.597  1.00  0.00     0.127 A 
HETATM   18  F1  UNL     1      -5.974  -6.022 -17.649  1.00  0.00    -0.205 F 
HETATM   19  C12 UNL     1      -7.333  -4.576 -16.315  1.00  0.00     0.082 A 
HETATM   20  C13 UNL     1      -8.184  -4.321 -15.215  1.00  0.00     0.107 A 
HETATM   21  C14 UNL     1      -8.470  -5.410 -14.358  1.00  0.00     0.156 A 
HETATM   22  F2  UNL     1      -9.259  -5.217 -13.301  1.00  0.00    -0.203 F 
HETATM   23  C15 UNL     1      -7.891  -6.652 -14.662  1.00  0.00    -0.010 A 
HETATM   24  C16 UNL     1      -8.239  -7.729 -13.660  1.00  0.00     0.052 C 
BRANCH  20  25
HETATM   25  O2  UNL     1      -8.695  -3.139 -14.978  1.00  0.00    -0.357 OA
ATOM     26  H2  UNL     1      -9.384  -2.763 -15.512  1.00  0.00     0.217 HD
ENDBRANCH  20  25
ENDBRANCH  15  16
ENDBRANCH  13  15
ENDBRANCH   9  13
BRANCH  12  27
HETATM   27  O3  UNL     1      -5.981 -11.057 -21.514  1.00  0.00    -0.353 OA
HETATM   28  C20 UNL     1      -6.118 -10.093 -22.537  1.00  0.00     0.210 C 
ENDBRANCH  12  27
BRANCH   1  29
HETATM   29  O1  UNL     1      -7.867 -12.970 -21.642  1.00  0.00    -0.353 OA
HETATM   30  C1  UNL     1      -8.767 -12.851 -22.718  1.00  0.00     0.210 C 
ENDBRANCH   1  29
TORSDOF 6
ENDMDL
MODEL 2
REMARK VINA RESULT: -9.276456103      1.285      1.498
REMARK  6 active torsions:
REMARK  status: ('A' for Active; 'I' for Inactive)
REMARK    1  A    between atoms: O1_2  and  C2_3 
REMARK    2  A    between atoms: C8_11  and  N2_12 
REMARK    3  A    between atoms: N2_12  and  C9_14 
REMARK    4  A    between atoms: C9_14  and  C10_15 
REMARK    5  A    between atoms: C13_19  and  O2_20 
REMARK    6  A    between atoms: C19_28  and  O3_29 
ROOT
HETATM    1  C2  UNL     1      -7.880 -12.015 -20.271  1.00  0.00     0.103 A 
HETATM    2  C3  UNL     1      -8.832 -12.069 -19.267  1.00  0.00     0.070 A 
HETATM    3  C4  UNL     1      -8.785 -11.231 -18.167  1.00  0.00     0.047 A 
HETATM    4  N1  UNL     1      -9.729 -11.295 -17.197  1.00  0.00    -0.359 N 
ATOM      5  H1  UNL     1     -10.489 -11.972 -17.272  1.00  0.00     0.166 HD
HETATM    6  C5  UNL     1      -9.671 -10.466 -16.131  1.00  0.00     0.007 A 
HETATM    7  C6  UNL     1     -10.694 -10.527 -15.090  1.00  0.00     0.068 C 
HETATM    8  C7  UNL     1      -8.642  -9.520 -15.989  1.00  0.00     0.054 A 
HETATM    9  C8  UNL     1      -7.700  -9.470 -16.978  1.00  0.00     0.042 A 
HETATM   10  C17 UNL     1      -7.749 -10.329 -18.096  1.00  0.00     0.020 A 
HETATM   11  C18 UNL     1      -6.784 -10.261 -19.095  1.00  0.00     0.055 A 
HETATM   12  C19 UNL     1      -6.829 -11.093 -20.190  1.00  0.00     0.102 A 
ENDROOT
BRANCH   9  13
HETATM   13  N2  UNL     1      -6.701  -8.656 -16.965  1.00  0.00    -0.385 N 
ATOM     14  H2  UNL     1      -6.118  -8.555 -17.796  1.00  0.00     0.160 HD
BRANCH  13  15
HETATM   15  C9  UNL     1      -6.401  -7.886 -15.782  1.00  0.00     0.162 C 
BRANCH  15  16
HETATM   16  C10 UNL     1      -6.316  -6.430 -16.047  1.00  0.00     0.007 A 
HETATM   17  C11 UNL     1      -5.163  -5.933 -16.691  1.00  0.00     0.127 A 
HETATM   18  F1  UNL     1      -4.221  -6.814 -17.083  1.00  0.00    -0.205 F 
HETATM   19  C12 UNL     1      -5.083  -4.593 -16.879  1.00  0.00     0.082 A 
HETATM   20  C13 UNL     1      -6.072  -3.665 -16.475  1.00  0.00     0.107 A 
HETATM   21  C14 UNL     1      -7.218  -4.189 -15.831  1.00  0.00     0.156 A 
HETATM   22  F2  UNL     1      -8.173  -3.354 -15.421  1.00  0.00    -0.203 F 
HETATM   23  C15 UNL     1      -7.287  -5.578 -15.643  1.00  0.00    -0.010 A 
HETATM   24  C16 UNL     1      -8.537  -6.017 -14.916  1.00  0.00     0.052 C 
BRANCH  20  25
HETATM   25  O2  UNL     1      -5.953  -2.377 -16.674  1.00  0.00    -0.357 OA
ATOM     26  H2  UNL     1      -5.539  -1.798 -16.045  1.00  0.00     0.217 HD
ENDBRANCH  20  25
ENDBRANCH  15  16
ENDBRANCH  13  15
ENDBRANCH   9  13
BRANCH  12  27
HETATM   27  O3  UNL     1      -5.887 -11.064 -21.209  1.00  0.00    -0.353 OA
HETATM   28  C20 UNL     1      -4.580 -11.574 -21.042  1.00  0.00     0.210 C 
ENDBRANCH  12  27
BRANCH   1  29
HETATM   29  O1  UNL     1      -7.908 -12.831 -21.356  1.00  0.00    -0.353 OA
HETATM   30  C1  UNL     1      -8.779 -12.663 -22.451  1.00  0.00     0.210 C 
ENDBRANCH   1  29
TORSDOF 6
ENDMDL
MODEL 3
REMARK VINA RESULT: -9.126711888      0.982      1.898
REMARK  6 active torsions:
REMARK  status: ('A' for Active; 'I' for Inactive)
REMARK    1  A    between atoms: O1_2  and  C2_3 
REMARK    2  A    between atoms: C8_11  and  N2_12 
REMARK    3  A    between atoms: N2_12  and  C9_14 
REMARK    4  A    between atoms: C9_14  and  C10_15 
REMARK    5  A    between atoms: C13_19  and  O2_20 
REMARK    6  A    between atoms: C19_28  and  O3_29 
ROOT
HETATM    1  C2  UNL     1      -7.705 -11.850 -20.557  1.00  0.00     0.103 A 
HETATM    2  C3  UNL     1      -8.649 -12.096 -19.574  1.00  0.00     0.070 A 
HETATM    3  C4  UNL     1      -8.703 -11.354 -18.408  1.00  0.00     0.047 A 
HETATM    4  N1  UNL     1      -9.638 -11.606 -17.459  1.00  0.00    -0.359 N 
ATOM      5  H1  UNL     1     -10.314 -12.357 -17.600  1.00  0.00     0.166 HD
HETATM    6  C5  UNL     1      -9.679 -10.869 -16.328  1.00  0.00     0.007 A 
HETATM    7  C6  UNL     1     -10.692 -11.133 -15.309  1.00  0.00     0.068 C 
HETATM    8  C7  UNL     1      -8.766  -9.827 -16.094  1.00  0.00     0.054 A 
HETATM    9  C8  UNL     1      -7.831  -9.587 -17.062  1.00  0.00     0.042 A 
HETATM   10  C17 UNL     1      -7.777 -10.349 -18.248  1.00  0.00     0.020 A 
HETATM   11  C18 UNL     1      -6.822 -10.089 -19.225  1.00  0.00     0.055 A 
HETATM   12  C19 UNL     1      -6.767 -10.825 -20.386  1.00  0.00     0.102 A 
ENDROOT
BRANCH   9  13
HETATM   13  N2  UNL     1      -6.932  -8.669 -16.968  1.00  0.00    -0.385 N 
ATOM     14  H2  UNL     1      -6.477  -8.316 -17.810  1.00  0.00     0.160 HD
BRANCH  13  15
HETATM   15  C9  UNL     1      -6.565  -8.135 -15.679  1.00  0.00     0.162 C 
BRANCH  15  16
HETATM   16  C10 UNL     1      -7.073  -6.760 -15.456  1.00  0.00     0.007 A 
HETATM   17  C11 UNL     1      -8.243  -6.596 -14.685  1.00  0.00     0.127 A 
HETATM   18  F1  UNL     1      -8.808  -7.693 -14.141  1.00  0.00    -0.205 F 
HETATM   19  C12 UNL     1      -8.719  -5.336 -14.535  1.00  0.00     0.082 A 
HETATM   20  C13 UNL     1      -8.126  -4.182 -15.099  1.00  0.00     0.107 A 
HETATM   21  C14 UNL     1      -6.954  -4.373 -15.868  1.00  0.00     0.156 A 
HETATM   22  F2  UNL     1      -6.364  -3.318 -16.430  1.00  0.00    -0.203 F 
HETATM   23  C15 UNL     1      -6.473  -5.684 -16.015  1.00  0.00    -0.010 A 
HETATM   24  C16 UNL     1      -5.239  -5.769 -16.884  1.00  0.00     0.052 C 
BRANCH  20  25
HETATM   25  O2  UNL     1      -8.620  -2.982 -14.932  1.00  0.00    -0.357 OA
ATOM     26  H2  UNL     1      -8.090  -2.243 -14.658  1.00  0.00     0.217 HD
ENDBRANCH  20  25
ENDBRANCH  15  16
ENDBRANCH  13  15
ENDBRANCH   9  13
BRANCH  12  27
HETATM   27  O3  UNL     1      -5.831 -10.603 -21.386  1.00  0.00    -0.353 OA
HETATM   28  C20 UNL     1      -4.516 -11.114 -21.313  1.00  0.00     0.210 C 
ENDBRANCH  12  27
BRANCH   1  29
HETATM   29  O1  UNL     1      -7.636 -12.570 -21.707  1.00  0.00    -0.353 OA
HETATM   30  C1  UNL     1      -8.708 -12.731 -22.606  1.00  0.00     0.210 C 
ENDBRANCH   1  29
TORSDOF 6
ENDMDL
MODEL 4
REMARK VINA RESULT: -9.011904504      1.487      2.331
REMARK  6 active torsions:
REMARK  status: ('A' for Active; 'I' for Inactive)
REMARK    1  A    between atoms: O1_2  and  C2_3 
REMARK    2  A    between atoms: C8_11  and  N2_12 
REMARK    3  A    between atoms: N2_12  and  C9_14 
REMARK    4  A    between atoms: C9_14  and  C10_15 
REMARK    5  A    between atoms: C13_19  and  O2_20 
REMARK    6  A    between atoms: C19_28  and  O3_29 
ROOT
HETATM    1  C2  UNL     1      -7.881 -11.962 -20.182  1.00  0.00     0.103 A 
HETATM    2  C3  UNL     1      -8.806 -12.023 -19.152  1.00  0.00     0.070 A 
HETATM    3  C4  UNL     1      -8.806 -11.109 -18.114  1.00  0.00     0.047 A 
HETATM    4  N1  UNL     1      -9.723 -11.181 -17.118  1.00  0.00    -0.359 N 
ATOM      5  H1  UNL     1     -10.425 -11.922 -17.127  1.00  0.00     0.166 HD
HETATM    6  C5  UNL     1      -9.713 -10.278 -16.113  1.00  0.00     0.007 A 
HETATM    7  C6  UNL     1     -10.706 -10.349 -15.044  1.00  0.00     0.068 C 
HETATM    8  C7  UNL     1      -8.763  -9.243 -16.062  1.00  0.00     0.054 A 
HETATM    9  C8  UNL     1      -7.848  -9.186 -17.076  1.00  0.00     0.042 A 
HETATM   10  C17 UNL     1      -7.848 -10.123 -18.131  1.00  0.00     0.020 A 
HETATM   11  C18 UNL     1      -6.912 -10.047 -19.156  1.00  0.00     0.055 A 
HETATM   12  C19 UNL     1      -6.909 -10.954 -20.191  1.00  0.00     0.102 A 
ENDROOT
BRANCH   9  13
HETATM   13  N2  UNL     1      -6.920  -8.295 -17.143  1.00  0.00    -0.385 N 
ATOM     14  H2  UNL     1      -6.818  -7.732 -17.988  1.00  0.00     0.160 HD
BRANCH  13  15
HETATM   15  C9  UNL     1      -6.023  -8.087 -16.032  1.00  0.00     0.162 C 
BRANCH  15  16
HETATM   16  C10 UNL     1      -5.953  -6.670 -15.604  1.00  0.00     0.007 A 
HETATM   17  C11 UNL     1      -6.761  -6.257 -14.523  1.00  0.00     0.127 A 
HETATM   18  F1  UNL     1      -7.513  -7.184 -13.898  1.00  0.00    -0.205 F 
HETATM   19  C12 UNL     1      -6.719  -4.946 -14.180  1.00  0.00     0.082 A 
HETATM   20  C13 UNL     1      -5.926  -3.971 -14.829  1.00  0.00     0.107 A 
HETATM   21  C14 UNL     1      -5.126  -4.411 -15.910  1.00  0.00     0.156 A 
HETATM   22  F2  UNL     1      -4.370  -3.527 -16.562  1.00  0.00    -0.203 F 
HETATM   23  C15 UNL     1      -5.180  -5.770 -16.254  1.00  0.00    -0.010 A 
HETATM   24  C16 UNL     1      -4.312  -6.116 -17.443  1.00  0.00     0.052 C 
BRANCH  20  25
HETATM   25  O2  UNL     1      -5.918  -2.713 -14.466  1.00  0.00    -0.357 OA
ATOM     26  H2  UNL     1      -5.320  -2.077 -14.840  1.00  0.00     0.217 HD
ENDBRANCH  20  25
ENDBRANCH  15  16
ENDBRANCH  13  15
ENDBRANCH   9  13
BRANCH  12  27
HETATM   27  O3  UNL     1      -5.994 -10.920 -21.233  1.00  0.00    -0.353 OA
HETATM   28  C20 UNL     1      -4.661 -11.363 -21.080  1.00  0.00     0.210 C 
ENDBRANCH  12  27
BRANCH   1  29
HETATM   29  O1  UNL     1      -7.864 -12.852 -21.208  1.00  0.00    -0.353 OA
HETATM   30  C1  UNL     1      -8.730 -12.798 -22.317  1.00  0.00     0.210 C 
ENDBRANCH   1  29
TORSDOF 6
ENDMDL
MODEL 5
REMARK VINA RESULT: -9.010182826      3.823      6.933
REMARK  6 active torsions:
REMARK  status: ('A' for Active; 'I' for Inactive)
REMARK    1  A    between atoms: O1_2  and  C2_3 
REMARK    2  A    between atoms: C8_11  and  N2_12 
REMARK    3  A    between atoms: N2_12  and  C9_14 
REMARK    4  A    between atoms: C9_14  and  C10_15 
REMARK    5  A    between atoms: C13_19  and  O2_20 
REMARK    6  A    between atoms: C19_28  and  O3_29 
ROOT
HETATM    1  C2  UNL     1      -3.469  -3.713 -18.503  1.00  0.00     0.103 A 
HETATM    2  C3  UNL     1      -4.458  -3.168 -17.702  1.00  0.00     0.070 A 
HETATM    3  C4  UNL     1      -5.515  -3.924 -17.228  1.00  0.00     0.047 A 
HETATM    4  N1  UNL     1      -6.471  -3.374 -16.440  1.00  0.00    -0.359 N 
ATOM      5  H1  UNL     1      -6.418  -2.386 -16.192  1.00  0.00     0.166 HD
HETATM    6  C5  UNL     1      -7.495  -4.127 -15.981  1.00  0.00     0.007 A 
HETATM    7  C6  UNL     1      -8.521  -3.539 -15.124  1.00  0.00     0.068 C 
HETATM    8  C7  UNL     1      -7.607  -5.491 -16.301  1.00  0.00     0.054 A 
HETATM    9  C8  UNL     1      -6.633  -6.028 -17.095  1.00  0.00     0.042 A 
HETATM   10  C17 UNL     1      -5.558  -5.253 -17.580  1.00  0.00     0.020 A 
HETATM   11  C18 UNL     1      -4.573  -5.816 -18.384  1.00  0.00     0.055 A 
HETATM   12  C19 UNL     1      -3.521  -5.067 -18.857  1.00  0.00     0.102 A 
ENDROOT
BRANCH   9  13
HETATM   13  N2  UNL     1      -6.622  -7.261 -17.468  1.00  0.00    -0.385 N 
ATOM     14  H2  UNL     1      -6.760  -7.494 -18.452  1.00  0.00     0.160 HD
BRANCH  13  15
HETATM   15  C9  UNL     1      -6.416  -8.315 -16.505  1.00  0.00     0.162 C 
BRANCH  15  16
HETATM   16  C10 UNL     1      -7.677  -8.979 -16.097  1.00  0.00     0.007 A 
HETATM   17  C11 UNL     1      -8.244  -8.631 -14.852  1.00  0.00     0.127 A 
HETATM   18  F1  UNL     1      -7.640  -7.672 -14.122  1.00  0.00    -0.205 F 
HETATM   19  C12 UNL     1      -9.369  -9.286 -14.476  1.00  0.00     0.082 A 
HETATM   20  C13 UNL     1     -10.009 -10.289 -15.241  1.00  0.00     0.107 A 
HETATM   21  C14 UNL     1      -9.421 -10.619 -16.485  1.00  0.00     0.156 A 
HETATM   22  F2  UNL     1      -9.980 -11.567 -17.238  1.00  0.00    -0.203 F 
HETATM   23  C15 UNL     1      -8.256  -9.933 -16.862  1.00  0.00    -0.010 A 
HETATM   24  C16 UNL     1      -7.700 -10.394 -18.190  1.00  0.00     0.052 C 
BRANCH  20  25
HETATM   25  O2  UNL     1     -11.095 -10.899 -14.838  1.00  0.00    -0.357 OA
ATOM     26  H2  UNL     1     -11.911 -10.864 -15.322  1.00  0.00     0.217 HD
ENDBRANCH  20  25
ENDBRANCH  15  16
ENDBRANCH  13  15
ENDBRANCH   9  13
BRANCH  12  27
HETATM   27  O3  UNL     1      -2.517  -5.585 -19.663  1.00  0.00    -0.353 OA
HETATM   28  C20 UNL     1      -2.722  -6.712 -20.490  1.00  0.00     0.210 C 
ENDBRANCH  12  27
BRANCH   1  29
HETATM   29  O1  UNL     1      -2.425  -2.986 -18.980  1.00  0.00    -0.353 OA
HETATM   30  C1  UNL     1      -1.229  -2.760 -18.272  1.00  0.00     0.210 C 
ENDBRANCH   1  29
TORSDOF 6
ENDMDL
