MODEL 1
REMARK VINA RESULT: -9.599827019      0.000      0.000
REMARK  5 active torsions:
REMARK  status: ('A' for Active; 'I' for Inactive)
REMARK    1  A    between atoms: N1_1  and  C1_5 
REMARK    2  A    between atoms: C1_5  and  C2_6 
REMARK    3  A    between atoms: C1_5  and  C11_22 
REMARK    4  A    between atoms: C5_9  and  O1_10 
REMARK    5  A    between atoms: O1_10  and  C6_11 
ROOT
HETATM    1  C2  UNL     1      -8.426  -8.822 -15.140  1.00  0.00    -0.024 A 
HETATM    2  C3  UNL     1      -7.881  -8.759 -16.407  1.00  0.00     0.012 A 
HETATM    3  C4  UNL     1      -8.142  -9.719 -17.368  1.00  0.00     0.041 A 
HETATM    4  C5  UNL     1      -8.957 -10.786 -17.114  1.00  0.00     0.117 A 
HETATM    5  C9  UNL     1      -9.515 -10.862 -15.836  1.00  0.00     0.150 A 
HETATM    6  F2  UNL     1     -10.341 -11.906 -15.519  1.00  0.00    -0.203 F 
HETATM    7  C10 UNL     1      -9.252  -9.902 -14.882  1.00  0.00     0.054 A 
ENDROOT
BRANCH   1   8
HETATM    8  C1  UNL     1      -8.138  -7.791 -14.126  1.00  0.00     0.225 C 
BRANCH   8   9
HETATM    9  N1  UNL     1      -9.298  -7.424 -13.346  1.00  0.00    -0.070 N 
ATOM     10  H13 UNL     1     -10.095  -8.018 -13.577  1.00  0.00     0.275 HD
ATOM     11  H12 UNL     1      -9.175  -7.683 -12.367  1.00  0.00     0.275 HD
ATOM     12  H11 UNL     1      -9.542  -6.438 -13.433  1.00  0.00     0.275 HD
ENDBRANCH   8   9
BRANCH   8  13
HETATM   13  C11 UNL     1      -7.482  -6.555 -14.684  1.00  0.00    -0.007 C 
HETATM   14  C12 UNL     1      -7.106  -5.602 -13.579  1.00  0.00     0.016 C 
HETATM   15  C13 UNL     1      -6.264  -4.462 -14.119  1.00  0.00    -0.013 C 
HETATM   16  C14 UNL     1      -7.117  -3.698 -15.136  1.00  0.00     0.009 C 
HETATM   17  C18 UNL     1      -5.022  -4.925 -14.811  1.00  0.00     0.009 C 
HETATM   18  C15 UNL     1      -7.552  -4.656 -16.202  1.00  0.00    -0.013 C 
HETATM   19  C16 UNL     1      -6.326  -5.170 -16.946  1.00  0.00     0.009 C 
HETATM   20  C20 UNL     1      -8.338  -5.823 -15.663  1.00  0.00     0.016 C 
HETATM   21  C17 UNL     1      -5.428  -5.850 -15.938  1.00  0.00    -0.013 C 
HETATM   22  C19 UNL     1      -6.173  -6.998 -15.346  1.00  0.00     0.016 C 
ENDBRANCH   8  13
ENDBRANCH   1   8
BRANCH   4  23
HETATM   23  O1  UNL     1      -9.292 -11.800 -17.982  1.00  0.00    -0.277 OA
BRANCH  23  24
HETATM   24  C6  UNL     1      -8.802 -11.934 -19.267  1.00  0.00     0.222 C 
HETATM   25  N2  UNL     1      -9.471 -12.631 -20.148  1.00  0.00    -0.352 N 
HETATM   26  C7  UNL     1      -8.800 -12.655 -21.426  1.00  0.00     0.182 C 
ATOM     27  H2  UNL     1     -10.358 -13.098 -19.956  1.00  0.00     0.163 HD
HETATM   28  C8  UNL     1      -7.481 -12.014 -21.139  1.00  0.00     0.289 C 
HETATM   29  F1  UNL     1      -7.148 -11.082 -22.110  1.00  0.00    -0.225 F 
HETATM   30  N3  UNL     1      -7.611 -11.409 -19.837  1.00  0.00    -0.324 N 
ATOM     31  H3  UNL     1      -6.974 -10.738 -19.408  1.00  0.00     0.166 HD
ENDBRANCH  23  24
ENDBRANCH   4  23
TORSDOF 5
ENDMDL
MODEL 2
REMARK VINA RESULT: -9.557983602      0.130      1.445
REMARK  5 active torsions:
REMARK  status: ('A' for Active; 'I' for Inactive)
REMARK    1  A    between atoms: N1_1  and  C1_5 
REMARK    2  A    between atoms: C1_5  and  C2_6 
REMARK    3  A    between atoms: C1_5  and  C11_22 
REMARK    4  A    between atoms: C5_9  and  O1_10 
REMARK    5  A    between atoms: O1_10  and  C6_11 
ROOT
HETATM    1  C2  UNL     1      -8.394  -8.852 -15.221  1.00  0.00    -0.024 A 
HETATM    2  C3  UNL     1      -7.841  -8.809 -16.486  1.00  0.00     0.012 A 
HETATM    3  C4  UNL     1      -8.115  -9.771 -17.441  1.00  0.00     0.041 A 
HETATM    4  C5  UNL     1      -8.951 -10.821 -17.184  1.00  0.00     0.117 A 
HETATM    5  C9  UNL     1      -9.517 -10.877 -15.909  1.00  0.00     0.150 A 
HETATM    6  F2  UNL     1     -10.364 -11.903 -15.589  1.00  0.00    -0.203 F 
HETATM    7  C10 UNL     1      -9.241  -9.915 -14.960  1.00  0.00     0.054 A 
ENDROOT
BRANCH   1   8
HETATM    8  C1  UNL     1      -8.092  -7.820 -14.213  1.00  0.00     0.225 C 
BRANCH   8   9
HETATM    9  N1  UNL     1      -9.260  -7.387 -13.478  1.00  0.00    -0.070 N 
ATOM     10  H13 UNL     1     -10.057  -7.263 -14.102  1.00  0.00     0.275 HD
ATOM     11  H12 UNL     1      -9.621  -8.141 -12.894  1.00  0.00     0.275 HD
ATOM     12  H11 UNL     1      -9.095  -6.546 -12.926  1.00  0.00     0.275 HD
ENDBRANCH   8   9
BRANCH   8  13
HETATM   13  C11 UNL     1      -7.361  -6.625 -14.767  1.00  0.00    -0.007 C 
HETATM   14  C12 UNL     1      -8.238  -5.855 -15.722  1.00  0.00     0.016 C 
HETATM   15  C13 UNL     1      -7.580  -4.546 -16.114  1.00  0.00    -0.013 C 
HETATM   16  C14 UNL     1      -6.273  -4.883 -16.836  1.00  0.00     0.009 C 
HETATM   17  C18 UNL     1      -7.251  -3.678 -14.941  1.00  0.00     0.009 C 
HETATM   18  C15 UNL     1      -5.425  -5.708 -15.917  1.00  0.00    -0.013 C 
HETATM   19  C16 UNL     1      -5.056  -4.878 -14.693  1.00  0.00     0.009 C 
HETATM   20  C20 UNL     1      -6.098  -6.982 -15.476  1.00  0.00     0.016 C 
HETATM   21  C17 UNL     1      -6.342  -4.460 -14.018  1.00  0.00    -0.013 C 
HETATM   22  C19 UNL     1      -7.068  -5.690 -13.590  1.00  0.00     0.016 C 
ENDBRANCH   8  13
ENDBRANCH   1   8
BRANCH   4  23
HETATM   23  O1  UNL     1      -9.300 -11.834 -18.047  1.00  0.00    -0.277 OA
BRANCH  23  24
HETATM   24  C6  UNL     1      -8.811 -11.983 -19.330  1.00  0.00     0.222 C 
HETATM   25  N2  UNL     1      -9.489 -12.675 -20.208  1.00  0.00    -0.352 N 
HETATM   26  C7  UNL     1      -8.817 -12.717 -21.485  1.00  0.00     0.182 C 
ATOM     27  H2  UNL     1     -10.383 -13.128 -20.014  1.00  0.00     0.163 HD
HETATM   28  C8  UNL     1      -7.490 -12.093 -21.201  1.00  0.00     0.289 C 
HETATM   29  F1  UNL     1      -7.141 -11.172 -22.177  1.00  0.00    -0.225 F 
HETATM   30  N3  UNL     1      -7.612 -11.479 -19.902  1.00  0.00    -0.324 N 
ATOM     31  H3  UNL     1      -6.965 -10.814 -19.477  1.00  0.00     0.166 HD
ENDBRANCH  23  24
ENDBRANCH   4  23
TORSDOF 5
ENDMDL
MODEL 3
REMARK VINA RESULT: -9.480925513      0.161      1.472
REMARK  5 active torsions:
REMARK  status: ('A' for Active; 'I' for Inactive)
REMARK    1  A    between atoms: N1_1  and  C1_5 
REMARK    2  A    between atoms: C1_5  and  C2_6 
REMARK    3  A    between atoms: C1_5  and  C11_22 
REMARK    4  A    between atoms: C5_9  and  O1_10 
REMARK    5  A    between atoms: O1_10  and  C6_11 
ROOT
HETATM    1  C2  UNL     1      -8.510  -8.720 -15.033  1.00  0.00    -0.024 A 
HETATM    2  C3  UNL     1      -7.994  -8.640 -16.312  1.00  0.00     0.012 A 
HETATM    3  C4  UNL     1      -8.237  -9.615 -17.264  1.00  0.00     0.041 A 
HETATM    4  C5  UNL     1      -9.003 -10.712 -16.989  1.00  0.00     0.117 A 
HETATM    5  C9  UNL     1      -9.531 -10.804 -15.700  1.00  0.00     0.150 A 
HETATM    6  F2  UNL     1     -10.308 -11.879 -15.362  1.00  0.00    -0.203 F 
HETATM    7  C10 UNL     1      -9.287  -9.830 -14.755  1.00  0.00     0.054 A 
ENDROOT
BRANCH   1   8
HETATM    8  C1  UNL     1      -8.242  -7.674 -14.030  1.00  0.00     0.225 C 
BRANCH   8   9
HETATM    9  N1  UNL     1      -9.439  -7.205 -13.367  1.00  0.00    -0.070 N 
ATOM     10  H13 UNL     1      -9.622  -6.228 -13.595  1.00  0.00     0.275 HD
ATOM     11  H12 UNL     1     -10.271  -7.630 -13.776  1.00  0.00     0.275 HD
ATOM     12  H11 UNL     1      -9.417  -7.345 -12.358  1.00  0.00     0.275 HD
ENDBRANCH   8   9
BRANCH   8  13
HETATM   13  C11 UNL     1      -7.459  -6.504 -14.564  1.00  0.00    -0.007 C 
HETATM   14  C12 UNL     1      -6.245  -6.974 -15.325  1.00  0.00     0.016 C 
HETATM   15  C13 UNL     1      -5.576  -5.813 -16.035  1.00  0.00    -0.013 C 
HETATM   16  C14 UNL     1      -5.110  -4.823 -14.964  1.00  0.00     0.009 C 
HETATM   17  C18 UNL     1      -6.492  -5.089 -16.969  1.00  0.00     0.009 C 
HETATM   18  C15 UNL     1      -6.301  -4.403 -14.159  1.00  0.00    -0.013 C 
HETATM   19  C16 UNL     1      -7.280  -3.659 -15.058  1.00  0.00     0.009 C 
HETATM   20  C20 UNL     1      -7.006  -5.561 -13.499  1.00  0.00     0.016 C 
HETATM   21  C17 UNL     1      -7.682  -4.595 -16.175  1.00  0.00    -0.013 C 
HETATM   22  C19 UNL     1      -8.356  -5.781 -15.572  1.00  0.00     0.016 C 
ENDBRANCH   8  13
ENDBRANCH   1   8
BRANCH   4  23
HETATM   23  O1  UNL     1      -9.315 -11.741 -17.847  1.00  0.00    -0.277 OA
BRANCH  23  24
HETATM   24  C6  UNL     1      -8.821 -11.878 -19.130  1.00  0.00     0.222 C 
HETATM   25  N2  UNL     1      -9.487 -12.579 -20.010  1.00  0.00    -0.352 N 
HETATM   26  C7  UNL     1      -8.813 -12.606 -21.287  1.00  0.00     0.182 C 
ATOM     27  H2  UNL     1     -10.372 -13.049 -19.819  1.00  0.00     0.163 HD
HETATM   28  C8  UNL     1      -7.497 -11.959 -20.999  1.00  0.00     0.289 C 
HETATM   29  F1  UNL     1      -7.164 -11.030 -21.973  1.00  0.00    -0.225 F 
HETATM   30  N3  UNL     1      -7.631 -11.352 -19.699  1.00  0.00    -0.324 N 
ATOM     31  H3  UNL     1      -6.997 -10.677 -19.271  1.00  0.00     0.166 HD
ENDBRANCH  23  24
ENDBRANCH   4  23
TORSDOF 5
ENDMDL
MODEL 4
REMARK VINA RESULT: -9.255033222      2.480      3.334
REMARK  5 active torsions:
REMARK  status: ('A' for Active; 'I' for Inactive)
REMARK    1  A    between atoms: N1_1  and  C1_5 
REMARK    2  A    between atoms: C1_5  and  C2_6 
REMARK    3  A    between atoms: C1_5  and  C11_22 
REMARK    4  A    between atoms: C5_9  and  O1_10 
REMARK    5  A    between atoms: O1_10  and  C6_11 
ROOT
HETATM    1  C2  UNL     1      -7.688 -10.286 -18.025  1.00  0.00    -0.024 A 
HETATM    2  C3  UNL     1      -6.656 -10.070 -18.916  1.00  0.00     0.012 A 
HETATM    3  C4  UNL     1      -6.611 -10.691 -20.152  1.00  0.00     0.041 A 
HETATM    4  C5  UNL     1      -7.588 -11.555 -20.558  1.00  0.00     0.117 A 
HETATM    5  C9  UNL     1      -8.637 -11.782 -19.665  1.00  0.00     0.150 A 
HETATM    6  F2  UNL     1      -9.648 -12.637 -20.013  1.00  0.00    -0.203 F 
HETATM    7  C10 UNL     1      -8.678 -11.160 -18.435  1.00  0.00     0.054 A 
ENDROOT
BRANCH   1   8
HETATM    8  C1  UNL     1      -7.722  -9.617 -16.711  1.00  0.00     0.225 C 
BRANCH   8   9
HETATM    9  N1  UNL     1      -9.024  -9.667 -16.084  1.00  0.00    -0.070 N 
ATOM     10  H13 UNL     1      -9.749  -9.338 -16.722  1.00  0.00     0.275 HD
ATOM     11  H12 UNL     1      -9.333 -10.632 -15.965  1.00  0.00     0.275 HD
ATOM     12  H11 UNL     1      -9.061  -9.161 -15.200  1.00  0.00     0.275 HD
ENDBRANCH   8   9
BRANCH   8  13
HETATM   13  C11 UNL     1      -7.219  -8.198 -16.737  1.00  0.00    -0.007 C 
HETATM   14  C12 UNL     1      -7.915  -7.362 -15.693  1.00  0.00     0.016 C 
HETATM   15  C13 UNL     1      -7.264  -5.998 -15.580  1.00  0.00    -0.013 C 
HETATM   16  C14 UNL     1      -7.422  -5.296 -16.931  1.00  0.00     0.009 C 
HETATM   17  C18 UNL     1      -5.805  -6.066 -15.260  1.00  0.00     0.009 C 
HETATM   18  C15 UNL     1      -6.792  -6.154 -17.985  1.00  0.00    -0.013 C 
HETATM   19  C16 UNL     1      -5.297  -6.268 -17.714  1.00  0.00     0.009 C 
HETATM   20  C20 UNL     1      -7.395  -7.533 -18.062  1.00  0.00     0.016 C 
HETATM   21  C17 UNL     1      -5.124  -6.877 -16.341  1.00  0.00    -0.013 C 
HETATM   22  C19 UNL     1      -5.737  -8.237 -16.351  1.00  0.00     0.016 C 
ENDBRANCH   8  13
ENDBRANCH   1   8
BRANCH   4  23
HETATM   23  O1  UNL     1      -7.654 -12.229 -21.755  1.00  0.00    -0.277 OA
BRANCH  23  24
HETATM   24  C6  UNL     1      -7.681 -11.630 -23.000  1.00  0.00     0.222 C 
HETATM   25  N2  UNL     1      -7.280 -12.296 -24.050  1.00  0.00    -0.352 N 
HETATM   26  C7  UNL     1      -7.382 -11.502 -25.252  1.00  0.00     0.182 C 
ATOM     27  H2  UNL     1      -6.937 -13.256 -24.024  1.00  0.00     0.163 HD
HETATM   28  C8  UNL     1      -7.734 -10.142 -24.744  1.00  0.00     0.289 C 
HETATM   29  F1  UNL     1      -8.761  -9.574 -25.481  1.00  0.00    -0.225 F 
HETATM   30  N3  UNL     1      -8.099 -10.321 -23.360  1.00  0.00    -0.324 N 
ATOM     31  H3  UNL     1      -8.566  -9.641 -22.759  1.00  0.00     0.166 HD
ENDBRANCH  23  24
ENDBRANCH   4  23
TORSDOF 5
ENDMDL
MODEL 5
REMARK VINA RESULT: -9.174052930      2.438      3.609
REMARK  5 active torsions:
REMARK  status: ('A' for Active; 'I' for Inactive)
REMARK    1  A    between atoms: N1_1  and  C1_5 
REMARK    2  A    between atoms: C1_5  and  C2_6 
REMARK    3  A    between atoms: C1_5  and  C11_22 
REMARK    4  A    between atoms: C5_9  and  O1_10 
REMARK    5  A    between atoms: O1_10  and  C6_11 
ROOT
HETATM    1  C2  UNL     1      -7.704 -10.235 -17.967  1.00  0.00    -0.024 A 
HETATM    2  C3  UNL     1      -6.659  -9.995 -18.836  1.00  0.00     0.012 A 
HETATM    3  C4  UNL     1      -6.569 -10.621 -20.067  1.00  0.00     0.041 A 
HETATM    4  C5  UNL     1      -7.513 -11.513 -20.490  1.00  0.00     0.117 A 
HETATM    5  C9  UNL     1      -8.576 -11.764 -19.620  1.00  0.00     0.150 A 
HETATM    6  F2  UNL     1      -9.556 -12.648 -19.985  1.00  0.00    -0.203 F 
HETATM    7  C10 UNL     1      -8.661 -11.137 -18.394  1.00  0.00     0.054 A 
ENDROOT
BRANCH   1   8
HETATM    8  C1  UNL     1      -7.786  -9.560 -16.658  1.00  0.00     0.225 C 
BRANCH   8   9
HETATM    9  N1  UNL     1      -9.135  -9.489 -16.141  1.00  0.00    -0.070 N 
ATOM     10  H13 UNL     1      -9.702  -8.843 -16.691  1.00  0.00     0.275 HD
ATOM     11  H12 UNL     1      -9.641 -10.355 -16.326  1.00  0.00     0.275 HD
ATOM     12  H11 UNL     1      -9.170  -9.251 -15.151  1.00  0.00     0.275 HD
ENDBRANCH   8   9
BRANCH   8  13
HETATM   13  C11 UNL     1      -7.155  -8.194 -16.637  1.00  0.00    -0.007 C 
HETATM   14  C12 UNL     1      -7.362  -7.487 -17.953  1.00  0.00     0.016 C 
HETATM   15  C13 UNL     1      -6.912  -6.041 -17.860  1.00  0.00    -0.013 C 
HETATM   16  C14 UNL     1      -5.412  -6.043 -17.553  1.00  0.00     0.009 C 
HETATM   17  C18 UNL     1      -7.606  -5.278 -16.778  1.00  0.00     0.009 C 
HETATM   18  C15 UNL     1      -5.191  -6.803 -16.282  1.00  0.00    -0.013 C 
HETATM   19  C16 UNL     1      -5.880  -6.076 -15.134  1.00  0.00     0.009 C 
HETATM   20  C20 UNL     1      -5.691  -8.223 -16.348  1.00  0.00     0.016 C 
HETATM   21  C17 UNL     1      -7.352  -5.986 -15.464  1.00  0.00    -0.013 C 
HETATM   22  C19 UNL     1      -7.892  -7.371 -15.577  1.00  0.00     0.016 C 
ENDBRANCH   8  13
ENDBRANCH   1   8
BRANCH   4  23
HETATM   23  O1  UNL     1      -7.534 -12.195 -21.685  1.00  0.00    -0.277 OA
BRANCH  23  24
HETATM   24  C6  UNL     1      -7.589 -11.603 -22.932  1.00  0.00     0.222 C 
HETATM   25  N2  UNL     1      -7.128 -12.243 -23.975  1.00  0.00    -0.352 N 
HETATM   26  C7  UNL     1      -7.271 -11.462 -25.181  1.00  0.00     0.182 C 
ATOM     27  H2  UNL     1      -6.718 -13.176 -23.940  1.00  0.00     0.163 HD
HETATM   28  C8  UNL     1      -7.725 -10.129 -24.682  1.00  0.00     0.289 C 
HETATM   29  F1  UNL     1      -8.781  -9.638 -25.434  1.00  0.00    -0.225 F 
HETATM   30  N3  UNL     1      -8.094 -10.329 -23.303  1.00  0.00    -0.324 N 
ATOM     31  H3  UNL     1      -8.615  -9.682 -22.710  1.00  0.00     0.166 HD
ENDBRANCH  23  24
ENDBRANCH   4  23
TORSDOF 5
ENDMDL
