MODEL 1
REMARK VINA RESULT: -8.236946227      0.000      0.000
REMARK  4 active torsions:
REMARK  status: ('A' for Active; 'I' for Inactive)
REMARK    1  A    between atoms: C2_2  and  N1_3 
REMARK    2  A    between atoms: N1_3  and  C3_5 
REMARK    3  A    between atoms: N5_22  and  C14_23 
REMARK    4  A    between atoms: C14_23  and  C15_24 
ROOT
HETATM    1  C3  UNL     1      -5.098  -4.234 -16.553  1.00  0.00     0.132 A 
HETATM    2  N2  UNL     1      -5.384  -2.995 -16.080  1.00  0.00    -0.285 N 
ATOM      3  H2  UNL     1      -4.694  -2.287 -15.829  1.00  0.00     0.188 HD
HETATM    4  N3  UNL     1      -6.692  -2.847 -15.993  1.00  0.00    -0.303 N 
ATOM      5  H3  UNL     1      -7.183  -2.014 -15.668  1.00  0.00     0.186 HD
HETATM    6  C4  UNL     1      -7.264  -3.992 -16.410  1.00  0.00     0.039 A 
HETATM    7  C5  UNL     1      -8.745  -4.168 -16.442  1.00  0.00     0.071 C 
HETATM    8  C6  UNL     1      -6.292  -4.909 -16.778  1.00  0.00     0.077 A 
HETATM    9  C7  UNL     1      -6.556  -6.226 -17.288  1.00  0.00     0.129 A 
HETATM   10  N4  UNL     1      -6.771  -6.408 -18.621  1.00  0.00    -0.339 N 
ATOM     11  H4  UNL     1      -6.765  -5.647 -19.300  1.00  0.00     0.167 HD
HETATM   12  C8  UNL     1      -6.989  -7.671 -18.942  1.00  0.00     0.061 A 
HETATM   13  C9  UNL     1      -7.223  -8.355 -20.127  1.00  0.00     0.032 A 
HETATM   14  C10 UNL     1      -7.371  -9.713 -20.085  1.00  0.00     0.002 A 
HETATM   15  C11 UNL     1      -7.296 -10.431 -18.903  1.00  0.00     0.002 A 
HETATM   16  C12 UNL     1      -7.067  -9.751 -17.737  1.00  0.00     0.032 A 
HETATM   17  C13 UNL     1      -6.915  -8.373 -17.761  1.00  0.00     0.067 A 
HETATM   18  N5  UNL     1      -6.649  -7.446 -16.767  1.00  0.00    -0.304 N 
ENDROOT
BRANCH  18  19
HETATM   19  C14 UNL     1      -6.399  -7.779 -15.422  1.00  0.00     0.116 C 
BRANCH  19  20
HETATM   20  C15 UNL     1      -7.371  -7.269 -14.452  1.00  0.00     0.057 A 
HETATM   21  C16 UNL     1      -7.251  -6.179 -13.662  1.00  0.00     0.131 A 
HETATM   22  F1  UNL     1      -6.131  -5.436 -13.658  1.00  0.00    -0.205 F 
HETATM   23  C17 UNL     1      -8.248  -5.746 -12.816  1.00  0.00     0.043 A 
HETATM   24  C18 UNL     1      -9.427  -6.440 -12.758  1.00  0.00     0.006 A 
HETATM   25  C19 UNL     1      -9.635  -7.563 -13.530  1.00  0.00     0.043 A 
HETATM   26  C20 UNL     1      -8.602  -7.941 -14.353  1.00  0.00     0.131 A 
HETATM   27  F2  UNL     1      -8.884  -9.040 -15.133  1.00  0.00    -0.205 F 
ENDBRANCH  19  20
ENDBRANCH  18  19
BRANCH   1  28
HETATM   28  N1  UNL     1      -3.999  -4.795 -16.792  1.00  0.00    -0.375 N 
ATOM     29  H1  UNL     1      -3.643  -5.368 -16.027  1.00  0.00     0.161 HD
BRANCH  28  30
HETATM   30  C2  UNL     1      -3.168  -4.772 -17.941  1.00  0.00     0.116 C 
HETATM   31  C1  UNL     1      -3.681  -3.986 -19.104  1.00  0.00     0.026 C 
ENDBRANCH  28  30
ENDBRANCH   1  28
TORSDOF 4
ENDMDL
MODEL 2
REMARK VINA RESULT: -8.151071160      0.134      1.587
REMARK  4 active torsions:
REMARK  status: ('A' for Active; 'I' for Inactive)
REMARK    1  A    between atoms: C2_2  and  N1_3 
REMARK    2  A    between atoms: N1_3  and  C3_5 
REMARK    3  A    between atoms: N5_22  and  C14_23 
REMARK    4  A    between atoms: C14_23  and  C15_24 
ROOT
HETATM    1  C3  UNL     1      -5.048  -4.260 -16.559  1.00  0.00     0.132 A 
HETATM    2  N2  UNL     1      -5.317  -3.006 -16.118  1.00  0.00    -0.285 N 
ATOM      3  H2  UNL     1      -4.618  -2.309 -15.861  1.00  0.00     0.188 HD
HETATM    4  N3  UNL     1      -6.624  -2.825 -16.073  1.00  0.00    -0.303 N 
ATOM      5  H3  UNL     1      -7.104  -1.974 -15.778  1.00  0.00     0.186 HD
HETATM    6  C4  UNL     1      -7.211  -3.964 -16.484  1.00  0.00     0.039 A 
HETATM    7  C5  UNL     1      -8.694  -4.105 -16.556  1.00  0.00     0.071 C 
HETATM    8  C6  UNL     1      -6.251  -4.911 -16.806  1.00  0.00     0.077 A 
HETATM    9  C7  UNL     1      -6.532  -6.231 -17.299  1.00  0.00     0.129 A 
HETATM   10  N4  UNL     1      -6.713  -6.434 -18.634  1.00  0.00    -0.339 N 
ATOM     11  H4  UNL     1      -6.669  -5.687 -19.327  1.00  0.00     0.167 HD
HETATM   12  C8  UNL     1      -6.952  -7.698 -18.937  1.00  0.00     0.061 A 
HETATM   13  C9  UNL     1      -7.167  -8.399 -20.116  1.00  0.00     0.032 A 
HETATM   14  C10 UNL     1      -7.349  -9.752 -20.052  1.00  0.00     0.002 A 
HETATM   15  C11 UNL     1      -7.327 -10.448 -18.855  1.00  0.00     0.002 A 
HETATM   16  C12 UNL     1      -7.115  -9.751 -17.696  1.00  0.00     0.032 A 
HETATM   17  C13 UNL     1      -6.929  -8.378 -17.741  1.00  0.00     0.067 A 
HETATM   18  N5  UNL     1      -6.669  -7.438 -16.758  1.00  0.00    -0.304 N 
ENDROOT
BRANCH  18  19
HETATM   19  C14 UNL     1      -6.467  -7.750 -15.400  1.00  0.00     0.116 C 
BRANCH  19  20
HETATM   20  C15 UNL     1      -7.523  -7.311 -14.484  1.00  0.00     0.057 A 
HETATM   21  C16 UNL     1      -8.726  -7.888 -14.278  1.00  0.00     0.131 A 
HETATM   22  F1  UNL     1      -9.115  -8.968 -14.978  1.00  0.00    -0.205 F 
HETATM   23  C17 UNL     1      -9.636  -7.430 -13.350  1.00  0.00     0.043 A 
HETATM   24  C18 UNL     1      -9.322  -6.336 -12.588  1.00  0.00     0.006 A 
HETATM   25  C19 UNL     1      -8.114  -5.686 -12.732  1.00  0.00     0.043 A 
HETATM   26  C20 UNL     1      -7.253  -6.194 -13.673  1.00  0.00     0.131 A 
HETATM   27  F2  UNL     1      -6.047  -5.533 -13.740  1.00  0.00    -0.205 F 
ENDBRANCH  19  20
ENDBRANCH  18  19
BRANCH   1  28
HETATM   28  N1  UNL     1      -3.957  -4.852 -16.756  1.00  0.00    -0.375 N 
ATOM     29  H1  UNL     1      -3.573  -5.311 -15.930  1.00  0.00     0.161 HD
BRANCH  28  30
HETATM   30  C2  UNL     1      -3.166  -4.992 -17.925  1.00  0.00     0.116 C 
HETATM   31  C1  UNL     1      -3.450  -4.022 -19.026  1.00  0.00     0.026 C 
ENDBRANCH  28  30
ENDBRANCH   1  28
TORSDOF 4
ENDMDL
MODEL 3
REMARK VINA RESULT: -8.004990457      0.985      1.912
REMARK  4 active torsions:
REMARK  status: ('A' for Active; 'I' for Inactive)
REMARK    1  A    between atoms: C2_2  and  N1_3 
REMARK    2  A    between atoms: N1_3  and  C3_5 
REMARK    3  A    between atoms: N5_22  and  C14_23 
REMARK    4  A    between atoms: C14_23  and  C15_24 
ROOT
HETATM    1  C3  UNL     1      -4.707  -4.754 -17.153  1.00  0.00     0.132 A 
HETATM    2  N2  UNL     1      -4.952  -3.525 -16.631  1.00  0.00    -0.285 N 
ATOM      3  H2  UNL     1      -4.238  -2.852 -16.350  1.00  0.00     0.188 HD
HETATM    4  N3  UNL     1      -6.255  -3.334 -16.544  1.00  0.00    -0.303 N 
ATOM      5  H3  UNL     1      -6.717  -2.497 -16.188  1.00  0.00     0.186 HD
HETATM    6  C4  UNL     1      -6.865  -4.441 -17.008  1.00  0.00     0.039 A 
HETATM    7  C5  UNL     1      -8.351  -4.562 -17.053  1.00  0.00     0.071 C 
HETATM    8  C6  UNL     1      -5.924  -5.376 -17.409  1.00  0.00     0.077 A 
HETATM    9  C7  UNL     1      -6.232  -6.662 -17.972  1.00  0.00     0.129 A 
HETATM   10  N4  UNL     1      -6.446  -6.782 -19.312  1.00  0.00    -0.339 N 
ATOM     11  H4  UNL     1      -6.410  -5.996 -19.960  1.00  0.00     0.167 HD
HETATM   12  C8  UNL     1      -6.707  -8.024 -19.684  1.00  0.00     0.061 A 
HETATM   13  C9  UNL     1      -6.959  -8.651 -20.896  1.00  0.00     0.032 A 
HETATM   14  C10 UNL     1      -7.155 -10.003 -20.909  1.00  0.00     0.002 A 
HETATM   15  C11 UNL     1      -7.113 -10.770 -19.756  1.00  0.00     0.002 A 
HETATM   16  C12 UNL     1      -6.866 -10.145 -18.563  1.00  0.00     0.032 A 
HETATM   17  C13 UNL     1      -6.665  -8.774 -18.531  1.00  0.00     0.067 A 
HETATM   18  N5  UNL     1      -6.370  -7.897 -17.501  1.00  0.00    -0.304 N 
ENDROOT
BRANCH  18  19
HETATM   19  C14 UNL     1      -6.140  -8.292 -16.169  1.00  0.00     0.116 C 
BRANCH  19  20
HETATM   20  C15 UNL     1      -7.277  -8.140 -15.257  1.00  0.00     0.057 A 
HETATM   21  C16 UNL     1      -8.328  -8.975 -15.105  1.00  0.00     0.131 A 
HETATM   22  F1  UNL     1      -8.462 -10.077 -15.864  1.00  0.00    -0.205 F 
HETATM   23  C17 UNL     1      -9.325  -8.774 -14.177  1.00  0.00     0.043 A 
HETATM   24  C18 UNL     1      -9.267  -7.678 -13.357  1.00  0.00     0.006 A 
HETATM   25  C19 UNL     1      -8.229  -6.774 -13.444  1.00  0.00     0.043 A 
HETATM   26  C20 UNL     1      -7.267  -7.034 -14.389  1.00  0.00     0.131 A 
HETATM   27  F2  UNL     1      -6.234  -6.124 -14.397  1.00  0.00    -0.205 F 
ENDBRANCH  19  20
ENDBRANCH  18  19
BRANCH   1  28
HETATM   28  N1  UNL     1      -3.628  -5.344 -17.410  1.00  0.00    -0.375 N 
ATOM     29  H1  UNL     1      -3.373  -6.066 -16.737  1.00  0.00     0.161 HD
BRANCH  28  30
HETATM   30  C2  UNL     1      -2.704  -5.181 -18.473  1.00  0.00     0.116 C 
HETATM   31  C1  UNL     1      -2.941  -6.027 -19.682  1.00  0.00     0.026 C 
ENDBRANCH  28  30
ENDBRANCH   1  28
TORSDOF 4
ENDMDL
MODEL 4
REMARK VINA RESULT: -7.644931493      1.217      1.431
REMARK  4 active torsions:
REMARK  status: ('A' for Active; 'I' for Inactive)
REMARK    1  A    between atoms: C2_2  and  N1_3 
REMARK    2  A    between atoms: N1_3  and  C3_5 
REMARK    3  A    between atoms: N5_22  and  C14_23 
REMARK    4  A    between atoms: C14_23  and  C15_24 
ROOT
HETATM    1  C3  UNL     1      -4.452  -5.117 -17.556  1.00  0.00     0.132 A 
HETATM    2  N2  UNL     1      -4.606  -3.875 -17.033  1.00  0.00    -0.285 N 
ATOM      3  H2  UNL     1      -3.846  -3.237 -16.796  1.00  0.00     0.188 HD
HETATM    4  N3  UNL     1      -5.892  -3.618 -16.878  1.00  0.00    -0.303 N 
ATOM      5  H3  UNL     1      -6.292  -2.757 -16.505  1.00  0.00     0.186 HD
HETATM    6  C4  UNL     1      -6.580  -4.696 -17.299  1.00  0.00     0.039 A 
HETATM    7  C5  UNL     1      -8.070  -4.742 -17.263  1.00  0.00     0.071 C 
HETATM    8  C6  UNL     1      -5.709  -5.680 -17.741  1.00  0.00     0.077 A 
HETATM    9  C7  UNL     1      -6.110  -6.951 -18.276  1.00  0.00     0.129 A 
HETATM   10  N4  UNL     1      -6.402  -7.069 -19.601  1.00  0.00    -0.339 N 
ATOM     11  H4  UNL     1      -6.362  -6.290 -20.258  1.00  0.00     0.167 HD
HETATM   12  C8  UNL     1      -6.744  -8.298 -19.948  1.00  0.00     0.061 A 
HETATM   13  C9  UNL     1      -7.091  -8.920 -21.140  1.00  0.00     0.032 A 
HETATM   14  C10 UNL     1      -7.355 -10.261 -21.130  1.00  0.00     0.002 A 
HETATM   15  C11 UNL     1      -7.289 -11.021 -19.975  1.00  0.00     0.002 A 
HETATM   16  C12 UNL     1      -6.947 -10.403 -18.802  1.00  0.00     0.032 A 
HETATM   17  C13 UNL     1      -6.677  -9.043 -18.793  1.00  0.00     0.067 A 
HETATM   18  N5  UNL     1      -6.285  -8.175 -17.787  1.00  0.00    -0.304 N 
ENDROOT
BRANCH  18  19
HETATM   19  C14 UNL     1      -6.003  -8.574 -16.466  1.00  0.00     0.116 C 
BRANCH  19  20
HETATM   20  C15 UNL     1      -7.024  -8.237 -15.471  1.00  0.00     0.057 A 
HETATM   21  C16 UNL     1      -7.040  -7.177 -14.633  1.00  0.00     0.131 A 
HETATM   22  F1  UNL     1      -6.024  -6.296 -14.599  1.00  0.00    -0.205 F 
HETATM   23  C17 UNL     1      -8.077  -6.914 -13.766  1.00  0.00     0.043 A 
HETATM   24  C18 UNL     1      -9.156  -7.756 -13.736  1.00  0.00     0.006 A 
HETATM   25  C19 UNL     1      -9.224  -8.862 -14.558  1.00  0.00     0.043 A 
HETATM   26  C20 UNL     1      -8.158  -9.066 -15.400  1.00  0.00     0.131 A 
HETATM   27  F2  UNL     1      -8.302 -10.157 -16.228  1.00  0.00    -0.205 F 
ENDBRANCH  19  20
ENDBRANCH  18  19
BRANCH   1  28
HETATM   28  N1  UNL     1      -3.419  -5.762 -17.865  1.00  0.00    -0.375 N 
ATOM     29  H1  UNL     1      -3.161  -6.489 -17.198  1.00  0.00     0.161 HD
BRANCH  28  30
HETATM   30  C2  UNL     1      -2.548  -5.655 -18.980  1.00  0.00     0.116 C 
HETATM   31  C1  UNL     1      -3.206  -5.605 -20.321  1.00  0.00     0.026 C 
ENDBRANCH  28  30
ENDBRANCH   1  28
TORSDOF 4
ENDMDL
MODEL 5
REMARK VINA RESULT: -7.223566843      2.363      5.254
REMARK  4 active torsions:
REMARK  status: ('A' for Active; 'I' for Inactive)
REMARK    1  A    between atoms: C2_2  and  N1_3 
REMARK    2  A    between atoms: N1_3  and  C3_5 
REMARK    3  A    between atoms: N5_22  and  C14_23 
REMARK    4  A    between atoms: C14_23  and  C15_24 
ROOT
HETATM    1  C3  UNL     1      -6.901  -3.914 -15.649  1.00  0.00     0.132 A 
HETATM    2  N2  UNL     1      -6.193  -3.215 -14.727  1.00  0.00    -0.285 N 
ATOM      3  H2  UNL     1      -6.483  -2.332 -14.307  1.00  0.00     0.188 HD
HETATM    4  N3  UNL     1      -5.071  -3.854 -14.455  1.00  0.00    -0.303 N 
ATOM      5  H3  UNL     1      -4.352  -3.554 -13.796  1.00  0.00     0.186 HD
HETATM    6  C4  UNL     1      -5.044  -4.974 -15.203  1.00  0.00     0.039 A 
HETATM    7  C5  UNL     1      -3.906  -5.936 -15.140  1.00  0.00     0.071 C 
HETATM    8  C6  UNL     1      -6.187  -5.059 -15.982  1.00  0.00     0.077 A 
HETATM    9  C7  UNL     1      -6.489  -6.138 -16.881  1.00  0.00     0.129 A 
HETATM   10  N4  UNL     1      -7.114  -7.255 -16.417  1.00  0.00    -0.339 N 
ATOM     11  H4  UNL     1      -7.383  -7.385 -15.442  1.00  0.00     0.167 HD
HETATM   12  C8  UNL     1      -7.335  -8.155 -17.360  1.00  0.00     0.061 A 
HETATM   13  C9  UNL     1      -7.944  -9.401 -17.403  1.00  0.00     0.032 A 
HETATM   14  C10 UNL     1      -8.027 -10.052 -18.602  1.00  0.00     0.002 A 
HETATM   15  C11 UNL     1      -7.527  -9.513 -19.775  1.00  0.00     0.002 A 
HETATM   16  C12 UNL     1      -6.926  -8.284 -19.726  1.00  0.00     0.032 A 
HETATM   17  C13 UNL     1      -6.831  -7.609 -18.519  1.00  0.00     0.067 A 
HETATM   18  N5  UNL     1      -6.319  -6.368 -18.180  1.00  0.00    -0.304 N 
ENDROOT
BRANCH  18  19
HETATM   19  C14 UNL     1      -5.800  -5.447 -19.110  1.00  0.00     0.116 C 
BRANCH  19  20
HETATM   20  C15 UNL     1      -4.344  -5.285 -19.097  1.00  0.00     0.057 A 
HETATM   21  C16 UNL     1      -3.417  -6.122 -19.612  1.00  0.00     0.131 A 
HETATM   22  F1  UNL     1      -3.767  -7.289 -20.182  1.00  0.00    -0.205 F 
HETATM   23  C17 UNL     1      -2.066  -5.855 -19.599  1.00  0.00     0.043 A 
HETATM   24  C18 UNL     1      -1.620  -4.686 -19.042  1.00  0.00     0.006 A 
HETATM   25  C19 UNL     1      -2.496  -3.774 -18.494  1.00  0.00     0.043 A 
HETATM   26  C20 UNL     1      -3.829  -4.100 -18.540  1.00  0.00     0.131 A 
HETATM   27  F2  UNL     1      -4.659  -3.132 -18.021  1.00  0.00    -0.205 F 
ENDBRANCH  19  20
ENDBRANCH  18  19
BRANCH   1  28
HETATM   28  N1  UNL     1      -8.012  -3.683 -16.189  1.00  0.00    -0.375 N 
ATOM     29  H1  UNL     1      -7.957  -3.132 -17.046  1.00  0.00     0.161 HD
BRANCH  28  30
HETATM   30  C2  UNL     1      -9.329  -4.053 -15.814  1.00  0.00     0.116 C 
HETATM   31  C1  UNL     1      -9.437  -5.085 -14.739  1.00  0.00     0.026 C 
ENDBRANCH  28  30
ENDBRANCH   1  28
TORSDOF 4
ENDMDL
