MODEL 1
REMARK VINA RESULT: -8.321114223      0.000      0.000
REMARK  5 active torsions:
REMARK  status: ('A' for Active; 'I' for Inactive)
REMARK    1  A    between atoms: C5_5  and  O1_6 
REMARK    2  A    between atoms: O1_6  and  C6_7 
REMARK    3  A    between atoms: C6_7  and  C7_8 
REMARK    4  A    between atoms: C7_8  and  C8_9 
REMARK    5  A    between atoms: C10_15  and  O4_16 
ROOT
HETATM    1  O1  UNL     1      -7.206  -7.529 -14.638  1.00  0.00    -0.348 OA
ENDROOT
BRANCH   1   2
HETATM    2  C5  UNL     1      -7.563  -8.447 -15.559  1.00  0.00     0.097 A 
HETATM    3  C3  UNL     1      -6.908  -8.528 -16.769  1.00  0.00    -0.020 A 
HETATM    4  C2  UNL     1      -7.239  -9.458 -17.749  1.00  0.00    -0.035 A 
HETATM    5  C4  UNL     1      -5.786  -7.578 -17.051  1.00  0.00     0.052 C 
HETATM    6  C1  UNL     1      -6.534  -9.534 -19.035  1.00  0.00     0.050 C 
HETATM    7  C14 UNL     1      -8.278 -10.331 -17.471  1.00  0.00     0.025 A 
HETATM    8  C12 UNL     1      -8.947 -10.284 -16.292  1.00  0.00    -0.019 A 
HETATM    9 BR1  UNL     1      -8.795 -11.649 -18.780  1.00  0.00    -0.050 Br
HETATM   10  C11 UNL     1      -8.584  -9.333 -15.331  1.00  0.00     0.075 A 
HETATM   11  C13 UNL     1     -10.051 -11.223 -16.015  1.00  0.00     0.051 C 
HETATM   12 CL1  UNL     1      -9.501  -9.363 -13.839  1.00  0.00    -0.081 Cl
ENDBRANCH   1   2
BRANCH   1  13
HETATM   13  C6  UNL     1      -7.911  -6.550 -13.986  1.00  0.00     0.182 C 
BRANCH  13  14
HETATM   14  C7  UNL     1      -7.195  -5.370 -13.452  1.00  0.00     0.096 C 
BRANCH  14  15
HETATM   15  C8  UNL     1      -6.700  -4.589 -14.630  1.00  0.00     0.111 A 
HETATM   16  O2  UNL     1      -5.555  -4.635 -15.246  1.00  0.00    -0.261 OA
HETATM   17  C9  UNL     1      -5.506  -3.782 -16.247  1.00  0.00     0.371 A 
HETATM   18  O3  UNL     1      -4.497  -3.667 -16.967  1.00  0.00    -0.238 OA
HETATM   19  N1  UNL     1      -6.658  -3.128 -16.317  1.00  0.00    -0.281 N 
HETATM   20  C10 UNL     1      -7.422  -3.609 -15.323  1.00  0.00     0.175 A 
ATOM     21  H1  UNL     1      -6.912  -2.405 -16.990  1.00  0.00     0.173 HD
BRANCH  20  22
HETATM   22  O4  UNL     1      -8.710  -3.223 -15.007  1.00  0.00    -0.344 OA
ATOM     23  H4  UNL     1      -9.194  -2.548 -15.468  1.00  0.00     0.219 HD
ENDBRANCH  20  22
ENDBRANCH  14  15
ENDBRANCH  13  14
ENDBRANCH   1  13
TORSDOF 5
ENDMDL
MODEL 2
REMARK VINA RESULT: -8.210520975      1.230      2.450
REMARK  5 active torsions:
REMARK  status: ('A' for Active; 'I' for Inactive)
REMARK    1  A    between atoms: C5_5  and  O1_6 
REMARK    2  A    between atoms: O1_6  and  C6_7 
REMARK    3  A    between atoms: C6_7  and  C7_8 
REMARK    4  A    between atoms: C7_8  and  C8_9 
REMARK    5  A    between atoms: C10_15  and  O4_16 
ROOT
HETATM    1  O1  UNL     1      -7.326  -7.616 -14.553  1.00  0.00    -0.348 OA
ENDROOT
BRANCH   1   2
HETATM    2  C5  UNL     1      -7.644  -8.512 -15.509  1.00  0.00     0.097 A 
HETATM    3  C3  UNL     1      -8.665  -9.418 -15.318  1.00  0.00    -0.020 A 
HETATM    4  C2  UNL     1      -9.030 -10.361 -16.273  1.00  0.00    -0.035 A 
HETATM    5  C4  UNL     1      -9.423  -9.396 -14.027  1.00  0.00     0.052 C 
HETATM    6  C1  UNL     1     -10.119 -11.322 -16.059  1.00  0.00     0.050 C 
HETATM    7  C14 UNL     1      -8.320 -10.367 -17.464  1.00  0.00     0.025 A 
HETATM    8  C12 UNL     1      -7.309  -9.491 -17.690  1.00  0.00    -0.019 A 
HETATM    9 BR1  UNL     1      -8.768 -11.643 -18.837  1.00  0.00    -0.050 Br
HETATM   10  C11 UNL     1      -6.971  -8.558 -16.702  1.00  0.00     0.075 A 
HETATM   11  C13 UNL     1      -6.565  -9.514 -18.964  1.00  0.00     0.051 C 
HETATM   12 CL1  UNL     1      -5.661  -7.465 -17.098  1.00  0.00    -0.081 Cl
ENDBRANCH   1   2
BRANCH   1  13
HETATM   13  C6  UNL     1      -7.931  -6.459 -14.133  1.00  0.00     0.182 C 
BRANCH  13  14
HETATM   14  C7  UNL     1      -7.103  -5.366 -13.573  1.00  0.00     0.096 C 
BRANCH  14  15
HETATM   15  C8  UNL     1      -6.613  -4.553 -14.732  1.00  0.00     0.111 A 
HETATM   16  O2  UNL     1      -5.473  -4.587 -15.359  1.00  0.00    -0.261 OA
HETATM   17  C9  UNL     1      -5.427  -3.704 -16.334  1.00  0.00     0.371 A 
HETATM   18  O3  UNL     1      -4.424  -3.573 -17.058  1.00  0.00    -0.238 OA
HETATM   19  N1  UNL     1      -6.576  -3.042 -16.373  1.00  0.00    -0.281 N 
HETATM   20  C10 UNL     1      -7.335  -3.548 -15.389  1.00  0.00     0.175 A 
ATOM     21  H1  UNL     1      -6.831  -2.297 -17.023  1.00  0.00     0.173 HD
BRANCH  20  22
HETATM   22  O4  UNL     1      -8.618  -3.165 -15.050  1.00  0.00    -0.344 OA
ATOM     23  H4  UNL     1      -9.135  -2.537 -15.541  1.00  0.00     0.219 HD
ENDBRANCH  20  22
ENDBRANCH  14  15
ENDBRANCH  13  14
ENDBRANCH   1  13
TORSDOF 5
ENDMDL
MODEL 3
REMARK VINA RESULT: -8.050421110      2.111      3.258
REMARK  5 active torsions:
REMARK  status: ('A' for Active; 'I' for Inactive)
REMARK    1  A    between atoms: C5_5  and  O1_6 
REMARK    2  A    between atoms: O1_6  and  C6_7 
REMARK    3  A    between atoms: C6_7  and  C7_8 
REMARK    4  A    between atoms: C7_8  and  C8_9 
REMARK    5  A    between atoms: C10_15  and  O4_16 
ROOT
HETATM    1  O1  UNL     1      -6.302  -6.804 -17.093  1.00  0.00    -0.348 OA
ENDROOT
BRANCH   1   2
HETATM    2  C5  UNL     1      -7.115  -7.858 -16.877  1.00  0.00     0.097 A 
HETATM    3  C3  UNL     1      -7.854  -7.957 -15.718  1.00  0.00    -0.020 A 
HETATM    4  C2  UNL     1      -8.706  -9.023 -15.451  1.00  0.00    -0.035 A 
HETATM    5  C4  UNL     1      -7.744  -6.871 -14.693  1.00  0.00     0.052 C 
HETATM    6  C1  UNL     1      -9.489  -9.117 -14.212  1.00  0.00     0.050 C 
HETATM    7  C14 UNL     1      -8.798 -10.018 -16.411  1.00  0.00     0.025 A 
HETATM    8  C12 UNL     1      -8.087  -9.958 -17.564  1.00  0.00    -0.019 A 
HETATM    9 BR1  UNL     1      -9.959 -11.528 -16.113  1.00  0.00    -0.050 Br
HETATM   10  C11 UNL     1      -7.240  -8.868 -17.796  1.00  0.00     0.075 A 
HETATM   11  C13 UNL     1      -8.199 -11.028 -18.574  1.00  0.00     0.051 C 
HETATM   12 CL1  UNL     1      -6.377  -8.879 -19.320  1.00  0.00    -0.081 Cl
ENDBRANCH   1   2
BRANCH   1  13
HETATM   13  C6  UNL     1      -4.937  -6.669 -17.074  1.00  0.00     0.182 C 
BRANCH  13  14
HETATM   14  C7  UNL     1      -4.341  -5.321 -16.936  1.00  0.00     0.096 C 
BRANCH  14  15
HETATM   15  C8  UNL     1      -4.983  -4.678 -15.745  1.00  0.00     0.111 A 
HETATM   16  O2  UNL     1      -5.018  -5.061 -14.502  1.00  0.00    -0.261 OA
HETATM   17  C9  UNL     1      -5.689  -4.214 -13.751  1.00  0.00     0.371 A 
HETATM   18  O3  UNL     1      -5.842  -4.394 -12.529  1.00  0.00    -0.238 OA
HETATM   19  N1  UNL     1      -6.131  -3.218 -14.507  1.00  0.00    -0.281 N 
HETATM   20  C10 UNL     1      -5.707  -3.478 -15.754  1.00  0.00     0.175 A 
ATOM     21  H1  UNL     1      -6.681  -2.415 -14.203  1.00  0.00     0.173 HD
BRANCH  20  22
HETATM   22  O4  UNL     1      -5.930  -2.714 -16.883  1.00  0.00    -0.344 OA
ATOM     23  H4  UNL     1      -5.484  -1.897 -17.071  1.00  0.00     0.219 HD
ENDBRANCH  20  22
ENDBRANCH  14  15
ENDBRANCH  13  14
ENDBRANCH   1  13
TORSDOF 5
ENDMDL
MODEL 4
REMARK VINA RESULT: -8.039739309      2.363      3.465
REMARK  5 active torsions:
REMARK  status: ('A' for Active; 'I' for Inactive)
REMARK    1  A    between atoms: C5_5  and  O1_6 
REMARK    2  A    between atoms: O1_6  and  C6_7 
REMARK    3  A    between atoms: C6_7  and  C7_8 
REMARK    4  A    between atoms: C7_8  and  C8_9 
REMARK    5  A    between atoms: C10_15  and  O4_16 
ROOT
HETATM    1  O1  UNL     1      -5.664  -7.558 -17.345  1.00  0.00    -0.348 OA
ENDROOT
BRANCH   1   2
HETATM    2  C5  UNL     1      -6.743  -8.189 -16.839  1.00  0.00     0.097 A 
HETATM    3  C3  UNL     1      -7.320  -7.771 -15.659  1.00  0.00    -0.020 A 
HETATM    4  C2  UNL     1      -8.434  -8.388 -15.100  1.00  0.00    -0.035 A 
HETATM    5  C4  UNL     1      -6.729  -6.600 -14.938  1.00  0.00     0.052 C 
HETATM    6  C1  UNL     1      -9.039  -7.935 -13.841  1.00  0.00     0.050 C 
HETATM    7  C14 UNL     1      -8.970  -9.470 -15.781  1.00  0.00     0.025 A 
HETATM    8  C12 UNL     1      -8.432  -9.911 -16.946  1.00  0.00    -0.019 A 
HETATM    9 BR1  UNL     1     -10.515 -10.377 -15.069  1.00  0.00    -0.050 Br
HETATM   10  C11 UNL     1      -7.310  -9.263 -17.476  1.00  0.00     0.075 A 
HETATM   11  C13 UNL     1      -9.017 -11.064 -17.656  1.00  0.00     0.051 C 
HETATM   12 CL1  UNL     1      -6.701  -9.901 -18.989  1.00  0.00    -0.081 Cl
ENDBRANCH   1   2
BRANCH   1  13
HETATM   13  C6  UNL     1      -5.503  -6.710 -18.410  1.00  0.00     0.182 C 
BRANCH  13  14
HETATM   14  C7  UNL     1      -6.186  -5.396 -18.404  1.00  0.00     0.096 C 
BRANCH  14  15
HETATM   15  C8  UNL     1      -5.146  -4.364 -18.094  1.00  0.00     0.111 A 
HETATM   16  O2  UNL     1      -3.967  -4.179 -18.612  1.00  0.00    -0.261 OA
HETATM   17  C9  UNL     1      -3.349  -3.154 -18.064  1.00  0.00     0.371 A 
HETATM   18  O3  UNL     1      -2.208  -2.806 -18.416  1.00  0.00    -0.238 OA
HETATM   19  N1  UNL     1      -4.134  -2.620 -17.137  1.00  0.00    -0.281 N 
HETATM   20  C10 UNL     1      -5.260  -3.351 -17.132  1.00  0.00     0.175 A 
ATOM     21  H1  UNL     1      -3.924  -1.815 -16.547  1.00  0.00     0.173 HD
BRANCH  20  22
HETATM   22  O4  UNL     1      -6.366  -3.166 -16.327  1.00  0.00    -0.344 OA
ATOM     23  H4  UNL     1      -6.882  -2.368 -16.303  1.00  0.00     0.219 HD
ENDBRANCH  20  22
ENDBRANCH  14  15
ENDBRANCH  13  14
ENDBRANCH   1  13
TORSDOF 5
ENDMDL
MODEL 5
REMARK VINA RESULT: -8.027967726      2.823      4.011
REMARK  5 active torsions:
REMARK  status: ('A' for Active; 'I' for Inactive)
REMARK    1  A    between atoms: C5_5  and  O1_6 
REMARK    2  A    between atoms: O1_6  and  C6_7 
REMARK    3  A    between atoms: C6_7  and  C7_8 
REMARK    4  A    between atoms: C7_8  and  C8_9 
REMARK    5  A    between atoms: C10_15  and  O4_16 
ROOT
HETATM    1  O1  UNL     1      -5.749  -7.497 -17.726  1.00  0.00    -0.348 OA
ENDROOT
BRANCH   1   2
HETATM    2  C5  UNL     1      -6.759  -8.222 -17.201  1.00  0.00     0.097 A 
HETATM    3  C3  UNL     1      -7.330  -7.872 -15.997  1.00  0.00    -0.020 A 
HETATM    4  C2  UNL     1      -8.372  -8.587 -15.417  1.00  0.00    -0.035 A 
HETATM    5  C4  UNL     1      -6.813  -6.669 -15.271  1.00  0.00     0.052 C 
HETATM    6  C1  UNL     1      -8.973  -8.205 -14.132  1.00  0.00     0.050 C 
HETATM    7  C14 UNL     1      -8.841  -9.696 -16.103  1.00  0.00     0.025 A 
HETATM    8  C12 UNL     1      -8.306 -10.073 -17.291  1.00  0.00    -0.019 A 
HETATM    9 BR1  UNL     1     -10.285 -10.738 -15.363  1.00  0.00    -0.050 Br
HETATM   10  C11 UNL     1      -7.257  -9.327 -17.841  1.00  0.00     0.075 A 
HETATM   11  C13 UNL     1      -8.818 -11.257 -18.006  1.00  0.00     0.051 C 
HETATM   12 CL1  UNL     1      -6.645  -9.888 -19.384  1.00  0.00    -0.081 Cl
ENDBRANCH   1   2
BRANCH   1  13
HETATM   13  C6  UNL     1      -5.685  -6.640 -18.794  1.00  0.00     0.182 C 
BRANCH  13  14
HETATM   14  C7  UNL     1      -5.851  -5.185 -18.572  1.00  0.00     0.096 C 
BRANCH  14  15
HETATM   15  C8  UNL     1      -4.482  -4.580 -18.599  1.00  0.00     0.111 A 
HETATM   16  O2  UNL     1      -3.911  -3.835 -19.500  1.00  0.00    -0.261 OA
HETATM   17  C9  UNL     1      -2.687  -3.500 -19.151  1.00  0.00     0.371 A 
HETATM   18  O3  UNL     1      -1.966  -2.789 -19.874  1.00  0.00    -0.238 OA
HETATM   19  N1  UNL     1      -2.411  -4.036 -17.970  1.00  0.00    -0.281 N 
HETATM   20  C10 UNL     1      -3.508  -4.714 -17.599  1.00  0.00     0.175 A 
ATOM     21  H1  UNL     1      -1.538  -3.950 -17.447  1.00  0.00     0.173 HD
BRANCH  20  22
HETATM   22  O4  UNL     1      -3.684  -5.436 -16.436  1.00  0.00    -0.344 OA
ATOM     23  H4  UNL     1      -3.176  -6.205 -16.202  1.00  0.00     0.219 HD
ENDBRANCH  20  22
ENDBRANCH  14  15
ENDBRANCH  13  14
ENDBRANCH   1  13
TORSDOF 5
ENDMDL
