MODEL 1
REMARK VINA RESULT: -9.231348874      0.000      0.000
REMARK  5 active torsions:
REMARK  status: ('A' for Active; 'I' for Inactive)
REMARK    1  A    between atoms: C3_3  and  C4_4 
REMARK    2  A    between atoms: C7_10  and  O1_11 
REMARK    3  A    between atoms: N2_20  and  C13_22 
REMARK    4  A    between atoms: C13_22  and  C14_23 
REMARK    5  A    between atoms: C14_23  and  N3_24 
ROOT
HETATM    1  C1  UNL     1      -6.192  -9.913 -19.994  1.00  0.00     0.053 C 
HETATM    2  C2  UNL     1      -6.821  -9.695 -18.707  1.00  0.00    -0.002 A 
HETATM    3  C3  UNL     1      -7.943 -10.414 -18.306  1.00  0.00     0.070 A 
HETATM    4  C5  UNL     1      -8.462 -10.090 -17.074  1.00  0.00     0.009 A 
HETATM    5  C6  UNL     1      -9.564 -10.737 -16.586  1.00  0.00     0.051 A 
HETATM    6  C7  UNL     1     -10.136 -10.455 -15.350  1.00  0.00     0.067 A 
HETATM    7  C8  UNL     1      -9.548  -9.475 -14.596  1.00  0.00     0.045 A 
HETATM    8  C9  UNL     1      -8.436  -8.790 -15.037  1.00  0.00    -0.032 A 
HETATM    9  C10 UNL     1      -7.820  -7.727 -14.192  1.00  0.00     0.050 C 
HETATM   10  C11 UNL     1      -7.904  -9.102 -16.269  1.00  0.00     0.051 A 
HETATM   11  N1  UNL     1      -6.827  -8.432 -16.685  1.00  0.00    -0.341 N 
ATOM     12  H1  UNL     1      -6.411  -7.706 -16.102  1.00  0.00     0.167 HD
HETATM   13  C12 UNL     1      -6.312  -8.724 -17.859  1.00  0.00     0.108 A 
HETATM   14  N2  UNL     1      -5.258  -8.058 -18.252  1.00  0.00    -0.374 N 
ATOM     15  H2  UNL     1      -4.848  -8.271 -19.161  1.00  0.00     0.161 HD
ENDROOT
BRANCH  14  16
HETATM   16  C13 UNL     1      -4.660  -7.033 -17.440  1.00  0.00     0.151 C 
BRANCH  16  17
HETATM   17  C14 UNL     1      -4.928  -5.647 -17.980  1.00  0.00     0.292 C 
BRANCH  17  18
HETATM   18  N3  UNL     1      -5.798  -4.882 -17.134  1.00  0.00     0.090 N 
HETATM   19  C15 UNL     1      -5.483  -5.269 -15.752  1.00  0.00     0.272 C 
HETATM   20  C16 UNL     1      -6.151  -4.228 -14.881  1.00  0.00     0.030 C 
HETATM   21  C17 UNL     1      -7.600  -4.081 -15.153  1.00  0.00     0.003 C 
HETATM   22  C18 UNL     1      -8.123  -4.898 -16.289  1.00  0.00     0.030 C 
HETATM   23  C19 UNL     1      -7.163  -5.231 -17.359  1.00  0.00     0.272 C 
ENDBRANCH  17  18
ENDBRANCH  16  17
ENDBRANCH  14  16
BRANCH   3  24
HETATM   24  C4  UNL     1      -8.427 -11.412 -19.160  1.00  0.00     0.419 C 
HETATM   25  F1  UNL     1      -8.233 -11.722 -20.404  1.00  0.00    -0.166 F 
HETATM   26  F2  UNL     1      -8.447 -12.689 -18.540  1.00  0.00    -0.166 F 
HETATM   27  F3  UNL     1      -9.862 -11.153 -19.180  1.00  0.00    -0.166 F 
ENDBRANCH   3  24
BRANCH   6  28
HETATM   28  O1  UNL     1     -11.241 -11.180 -14.982  1.00  0.00    -0.361 OA
ATOM     29  H1  UNL     1     -11.132 -11.832 -14.300  1.00  0.00     0.217 HD
ENDBRANCH   6  28
TORSDOF 5
ENDMDL
MODEL 2
REMARK VINA RESULT: -9.186694176      2.261      4.287
REMARK  5 active torsions:
REMARK  status: ('A' for Active; 'I' for Inactive)
REMARK    1  A    between atoms: C3_3  and  C4_4 
REMARK    2  A    between atoms: C7_10  and  O1_11 
REMARK    3  A    between atoms: N2_20  and  C13_22 
REMARK    4  A    between atoms: C13_22  and  C14_23 
REMARK    5  A    between atoms: C14_23  and  N3_24 
ROOT
HETATM    1  C1  UNL     1      -8.409  -8.698 -14.731  1.00  0.00     0.053 C 
HETATM    2  C2  UNL     1      -8.101  -9.221 -16.046  1.00  0.00    -0.002 A 
HETATM    3  C3  UNL     1      -8.918 -10.155 -16.676  1.00  0.00     0.070 A 
HETATM    4  C5  UNL     1      -8.496 -10.596 -17.910  1.00  0.00     0.009 A 
HETATM    5  C6  UNL     1      -9.226 -11.515 -18.612  1.00  0.00     0.051 A 
HETATM    6  C7  UNL     1      -8.854 -11.998 -19.862  1.00  0.00     0.067 A 
HETATM    7  C8  UNL     1      -7.691 -11.515 -20.401  1.00  0.00     0.045 A 
HETATM    8  C9  UNL     1      -6.915 -10.588 -19.738  1.00  0.00    -0.032 A 
HETATM    9  C10 UNL     1      -5.654 -10.083 -20.350  1.00  0.00     0.050 C 
HETATM   10  C11 UNL     1      -7.323 -10.138 -18.501  1.00  0.00     0.051 A 
HETATM   11  N1  UNL     1      -6.564  -9.240 -17.869  1.00  0.00    -0.341 N 
ATOM     12  H1  UNL     1      -5.701  -8.899 -18.294  1.00  0.00     0.167 HD
HETATM   13  C12 UNL     1      -6.946  -8.804 -16.688  1.00  0.00     0.108 A 
HETATM   14  N2  UNL     1      -6.189  -7.927 -16.082  1.00  0.00    -0.374 N 
ATOM     15  H2  UNL     1      -6.471  -7.581 -15.165  1.00  0.00     0.161 HD
ENDROOT
BRANCH  14  16
HETATM   16  C13 UNL     1      -4.972  -7.435 -16.670  1.00  0.00     0.151 C 
BRANCH  16  17
HETATM   17  C14 UNL     1      -4.959  -5.928 -16.781  1.00  0.00     0.292 C 
BRANCH  17  18
HETATM   18  N3  UNL     1      -4.495  -5.471 -18.058  1.00  0.00     0.090 N 
HETATM   19  C15 UNL     1      -5.475  -5.936 -19.051  1.00  0.00     0.272 C 
HETATM   20  C16 UNL     1      -5.158  -5.170 -20.317  1.00  0.00     0.030 C 
HETATM   21  C17 UNL     1      -3.748  -5.311 -20.748  1.00  0.00     0.003 C 
HETATM   22  C18 UNL     1      -2.871  -6.087 -19.820  1.00  0.00     0.030 C 
HETATM   23  C19 UNL     1      -3.248  -6.080 -18.394  1.00  0.00     0.272 C 
ENDBRANCH  17  18
ENDBRANCH  16  17
ENDBRANCH  14  16
BRANCH   3  24
HETATM   24  C4  UNL     1     -10.097 -10.544 -16.029  1.00  0.00     0.419 C 
HETATM   25  F1  UNL     1     -10.571 -10.398 -14.830  1.00  0.00    -0.166 F 
HETATM   26  F2  UNL     1     -11.248 -10.322 -16.828  1.00  0.00    -0.166 F 
HETATM   27  F3  UNL     1     -10.047 -11.999 -16.111  1.00  0.00    -0.166 F 
ENDBRANCH   3  24
BRANCH   6  28
HETATM   28  O1  UNL     1      -9.678 -12.918 -20.458  1.00  0.00    -0.361 OA
ATOM     29  H1  UNL     1      -9.272 -13.674 -20.867  1.00  0.00     0.217 HD
ENDBRANCH   6  28
TORSDOF 5
ENDMDL
MODEL 3
REMARK VINA RESULT: -9.163013632      2.303      4.225
REMARK  5 active torsions:
REMARK  status: ('A' for Active; 'I' for Inactive)
REMARK    1  A    between atoms: C3_3  and  C4_4 
REMARK    2  A    between atoms: C7_10  and  O1_11 
REMARK    3  A    between atoms: N2_20  and  C13_22 
REMARK    4  A    between atoms: C13_22  and  C14_23 
REMARK    5  A    between atoms: C14_23  and  N3_24 
ROOT
HETATM    1  C1  UNL     1      -8.373  -8.696 -14.820  1.00  0.00     0.053 C 
HETATM    2  C2  UNL     1      -8.078  -9.234 -16.132  1.00  0.00    -0.002 A 
HETATM    3  C3  UNL     1      -8.905 -10.170 -16.745  1.00  0.00     0.070 A 
HETATM    4  C5  UNL     1      -8.497 -10.625 -17.978  1.00  0.00     0.009 A 
HETATM    5  C6  UNL     1      -9.237 -11.548 -18.664  1.00  0.00     0.051 A 
HETATM    6  C7  UNL     1      -8.879 -12.045 -19.912  1.00  0.00     0.067 A 
HETATM    7  C8  UNL     1      -7.718 -11.574 -20.466  1.00  0.00     0.045 A 
HETATM    8  C9  UNL     1      -6.932 -10.644 -19.819  1.00  0.00    -0.032 A 
HETATM    9  C10 UNL     1      -5.674 -10.152 -20.448  1.00  0.00     0.050 C 
HETATM   10  C11 UNL     1      -7.326 -10.179 -18.584  1.00  0.00     0.051 A 
HETATM   11  N1  UNL     1      -6.557  -9.279 -17.967  1.00  0.00    -0.341 N 
ATOM     12  H1  UNL     1      -5.697  -8.947 -18.404  1.00  0.00     0.167 HD
HETATM   13  C12 UNL     1      -6.927  -8.829 -16.788  1.00  0.00     0.108 A 
HETATM   14  N2  UNL     1      -6.161  -7.949 -16.198  1.00  0.00    -0.374 N 
ATOM     15  H2  UNL     1      -6.433  -7.592 -15.282  1.00  0.00     0.161 HD
ENDROOT
BRANCH  14  16
HETATM   16  C13 UNL     1      -4.947  -7.470 -16.801  1.00  0.00     0.151 C 
BRANCH  16  17
HETATM   17  C14 UNL     1      -5.061  -6.032 -17.250  1.00  0.00     0.292 C 
BRANCH  17  18
HETATM   18  N3  UNL     1      -4.361  -5.777 -18.475  1.00  0.00     0.090 N 
HETATM   19  C15 UNL     1      -3.648  -4.505 -18.293  1.00  0.00     0.272 C 
HETATM   20  C16 UNL     1      -2.665  -4.426 -19.440  1.00  0.00     0.030 C 
HETATM   21  C17 UNL     1      -3.304  -4.576 -20.768  1.00  0.00     0.003 C 
HETATM   22  C18 UNL     1      -4.768  -4.875 -20.743  1.00  0.00     0.030 C 
HETATM   23  C19 UNL     1      -5.276  -5.585 -19.554  1.00  0.00     0.272 C 
ENDBRANCH  17  18
ENDBRANCH  16  17
ENDBRANCH  14  16
BRANCH   3  24
HETATM   24  C4  UNL     1     -10.080 -10.547 -16.083  1.00  0.00     0.419 C 
HETATM   25  F1  UNL     1     -10.557 -10.360 -14.892  1.00  0.00    -0.166 F 
HETATM   26  F2  UNL     1     -11.234 -10.368 -16.890  1.00  0.00    -0.166 F 
HETATM   27  F3  UNL     1     -10.015 -12.003 -16.109  1.00  0.00    -0.166 F 
ENDBRANCH   3  24
BRANCH   6  28
HETATM   28  O1  UNL     1      -9.713 -12.968 -20.492  1.00  0.00    -0.361 OA
ATOM     29  H1  UNL     1      -9.316 -13.644 -21.028  1.00  0.00     0.217 HD
ENDBRANCH   6  28
TORSDOF 5
ENDMDL
MODEL 4
REMARK VINA RESULT: -9.108257391      3.139      4.855
REMARK  5 active torsions:
REMARK  status: ('A' for Active; 'I' for Inactive)
REMARK    1  A    between atoms: C3_3  and  C4_4 
REMARK    2  A    between atoms: C7_10  and  O1_11 
REMARK    3  A    between atoms: N2_20  and  C13_22 
REMARK    4  A    between atoms: C13_22  and  C14_23 
REMARK    5  A    between atoms: C14_23  and  N3_24 
ROOT
HETATM    1  C1  UNL     1      -6.311  -5.957 -14.376  1.00  0.00     0.053 C 
HETATM    2  C2  UNL     1      -6.945  -7.015 -15.135  1.00  0.00    -0.002 A 
HETATM    3  C3  UNL     1      -7.980  -7.780 -14.607  1.00  0.00     0.070 A 
HETATM    4  C5  UNL     1      -8.475  -8.774 -15.420  1.00  0.00     0.009 A 
HETATM    5  C6  UNL     1      -9.493  -9.584 -14.996  1.00  0.00     0.051 A 
HETATM    6  C7  UNL     1     -10.036 -10.604 -15.769  1.00  0.00     0.067 A 
HETATM    7  C8  UNL     1      -9.510 -10.791 -17.020  1.00  0.00     0.045 A 
HETATM    8  C9  UNL     1      -8.483 -10.006 -17.499  1.00  0.00    -0.032 A 
HETATM    9  C10 UNL     1      -7.932 -10.236 -18.864  1.00  0.00     0.050 C 
HETATM   10  C11 UNL     1      -7.976  -9.007 -16.697  1.00  0.00     0.051 A 
HETATM   11  N1  UNL     1      -6.982  -8.253 -17.173  1.00  0.00    -0.341 N 
ATOM     12  H1  UNL     1      -6.610  -8.416 -18.108  1.00  0.00     0.167 HD
HETATM   13  C12 UNL     1      -6.493  -7.296 -16.415  1.00  0.00     0.108 A 
HETATM   14  N2  UNL     1      -5.519  -6.568 -16.895  1.00  0.00    -0.374 N 
ATOM     15  H2  UNL     1      -5.127  -5.824 -16.318  1.00  0.00     0.161 HD
ENDROOT
BRANCH  14  16
HETATM   16  C13 UNL     1      -4.984  -6.786 -18.212  1.00  0.00     0.151 C 
BRANCH  16  17
HETATM   17  C14 UNL     1      -5.440  -5.732 -19.195  1.00  0.00     0.292 C 
BRANCH  17  18
HETATM   18  N3  UNL     1      -4.351  -4.972 -19.737  1.00  0.00     0.090 N 
HETATM   19  C15 UNL     1      -3.527  -5.913 -20.508  1.00  0.00     0.272 C 
HETATM   20  C16 UNL     1      -2.598  -5.051 -21.334  1.00  0.00     0.030 C 
HETATM   21  C17 UNL     1      -1.818  -4.088 -20.523  1.00  0.00     0.003 C 
HETATM   22  C18 UNL     1      -2.150  -4.064 -19.066  1.00  0.00     0.030 C 
HETATM   23  C19 UNL     1      -3.523  -4.456 -18.695  1.00  0.00     0.272 C 
ENDBRANCH  17  18
ENDBRANCH  16  17
ENDBRANCH  14  16
BRANCH   3  24
HETATM   24  C4  UNL     1      -8.447  -7.465 -13.325  1.00  0.00     0.419 C 
HETATM   25  F1  UNL     1      -8.024  -6.709 -12.360  1.00  0.00    -0.166 F 
HETATM   26  F2  UNL     1      -9.842  -7.207 -13.308  1.00  0.00    -0.166 F 
HETATM   27  F3  UNL     1      -8.453  -8.760 -12.655  1.00  0.00    -0.166 F 
ENDBRANCH   3  24
BRANCH   6  28
HETATM   28  O1  UNL     1     -11.055 -11.342 -15.222  1.00  0.00    -0.361 OA
ATOM     29  H1  UNL     1     -11.914 -10.939 -15.175  1.00  0.00     0.217 HD
ENDBRANCH   6  28
TORSDOF 5
ENDMDL
MODEL 5
REMARK VINA RESULT: -9.088869682      3.212      4.850
REMARK  5 active torsions:
REMARK  status: ('A' for Active; 'I' for Inactive)
REMARK    1  A    between atoms: C3_3  and  C4_4 
REMARK    2  A    between atoms: C7_10  and  O1_11 
REMARK    3  A    between atoms: N2_20  and  C13_22 
REMARK    4  A    between atoms: C13_22  and  C14_23 
REMARK    5  A    between atoms: C14_23  and  N3_24 
ROOT
HETATM    1  C1  UNL     1      -6.352  -5.938 -14.289  1.00  0.00     0.053 C 
HETATM    2  C2  UNL     1      -6.963  -7.004 -15.057  1.00  0.00    -0.002 A 
HETATM    3  C3  UNL     1      -8.019  -7.758 -14.555  1.00  0.00     0.070 A 
HETATM    4  C5  UNL     1      -8.490  -8.761 -15.372  1.00  0.00     0.009 A 
HETATM    5  C6  UNL     1      -9.524  -9.562 -14.973  1.00  0.00     0.051 A 
HETATM    6  C7  UNL     1     -10.044 -10.590 -15.753  1.00  0.00     0.067 A 
HETATM    7  C8  UNL     1      -9.476 -10.794 -16.982  1.00  0.00     0.045 A 
HETATM    8  C9  UNL     1      -8.431 -10.018 -17.435  1.00  0.00    -0.032 A 
HETATM    9  C10 UNL     1      -7.833 -10.268 -18.778  1.00  0.00     0.050 C 
HETATM   10  C11 UNL     1      -7.947  -9.011 -16.629  1.00  0.00     0.051 A 
HETATM   11  N1  UNL     1      -6.935  -8.266 -17.079  1.00  0.00    -0.341 N 
ATOM     12  H1  UNL     1      -6.531  -8.443 -17.999  1.00  0.00     0.167 HD
HETATM   13  C12 UNL     1      -6.468  -7.302 -16.316  1.00  0.00     0.108 A 
HETATM   14  N2  UNL     1      -5.476  -6.583 -16.772  1.00  0.00    -0.374 N 
ATOM     15  H2  UNL     1      -5.101  -5.833 -16.191  1.00  0.00     0.161 HD
ENDROOT
BRANCH  14  16
HETATM   16  C13 UNL     1      -4.897  -6.819 -18.067  1.00  0.00     0.151 C 
BRANCH  16  17
HETATM   17  C14 UNL     1      -3.598  -6.069 -18.257  1.00  0.00     0.292 C 
BRANCH  17  18
HETATM   18  N3  UNL     1      -3.402  -5.636 -19.610  1.00  0.00     0.090 N 
HETATM   19  C15 UNL     1      -2.678  -4.359 -19.539  1.00  0.00     0.272 C 
HETATM   20  C16 UNL     1      -2.189  -4.096 -20.946  1.00  0.00     0.030 C 
HETATM   21  C17 UNL     1      -3.273  -4.121 -21.955  1.00  0.00     0.003 C 
HETATM   22  C18 UNL     1      -4.622  -4.497 -21.435  1.00  0.00     0.030 C 
HETATM   23  C19 UNL     1      -4.651  -5.367 -20.244  1.00  0.00     0.272 C 
ENDBRANCH  17  18
ENDBRANCH  16  17
ENDBRANCH  14  16
BRANCH   3  24
HETATM   24  C4  UNL     1      -8.528  -7.426 -13.294  1.00  0.00     0.419 C 
HETATM   25  F1  UNL     1      -8.170  -6.611 -12.351  1.00  0.00    -0.166 F 
HETATM   26  F2  UNL     1      -9.937  -7.251 -13.311  1.00  0.00    -0.166 F 
HETATM   27  F3  UNL     1      -8.471  -8.693 -12.576  1.00  0.00    -0.166 F 
ENDBRANCH   3  24
BRANCH   6  28
HETATM   28  O1  UNL     1     -11.084 -11.317 -15.232  1.00  0.00    -0.361 OA
ATOM     29  H1  UNL     1     -11.834 -11.476 -15.793  1.00  0.00     0.217 HD
ENDBRANCH   6  28
TORSDOF 5
ENDMDL
