MODEL 1
REMARK VINA RESULT: -8.039430182      0.000      0.000
REMARK  7 active torsions:
REMARK  status: ('A' for Active; 'I' for Inactive)
REMARK    1  A    between atoms: O1_1  and  C1_3 
REMARK    2  A    between atoms: C1_3  and  C2_5 
REMARK    3  A    between atoms: C1_3  and  C17_25 
REMARK    4  A    between atoms: C2_5  and  C3_6 
REMARK    5  A    between atoms: C3_6  and  N1_7 
REMARK    6  A    between atoms: N1_7  and  C4_9 
REMARK    7  A    between atoms: C5_12  and  C6_13 
ROOT
HETATM    1  C4  UNL     1      -7.565 -10.178 -18.996  1.00  0.00     0.148 A 
HETATM    2  N2  UNL     1      -7.167  -9.298 -18.061  1.00  0.00    -0.339 N 
ATOM      3  H2  UNL     1      -7.368  -9.460 -17.074  1.00  0.00     0.168 HD
HETATM    4  C5  UNL     1      -6.527  -8.244 -18.440  1.00  0.00     0.026 A 
HETATM    5  C16 UNL     1      -6.283  -8.063 -19.769  1.00  0.00     0.079 A 
HETATM    6  S1  UNL     1      -7.011  -9.474 -20.441  1.00  0.00    -0.064 SA
ENDROOT
BRANCH   1   7
HETATM    7  N1  UNL     1      -8.206 -11.276 -18.775  1.00  0.00    -0.350 N 
ATOM      8  H1  UNL     1      -7.735 -12.125 -19.086  1.00  0.00     0.167 HD
BRANCH   7   9
HETATM    9  C3  UNL     1      -9.446 -11.475 -18.174  1.00  0.00     0.069 C 
BRANCH   9  10
HETATM   10  C2  UNL     1      -9.476 -11.770 -16.698  1.00  0.00     0.128 C 
BRANCH  10  11
HETATM   11  C1  UNL     1     -10.224 -10.679 -15.942  1.00  0.00     0.305 C 
HETATM   12  F1  UNL     1     -10.802  -9.892 -16.950  1.00  0.00    -0.201 F 
BRANCH  11  13
HETATM   13  O1  UNL     1     -11.224 -11.128 -15.132  1.00  0.00    -0.355 OA
ATOM     14  H1  UNL     1     -11.750 -11.744 -15.630  1.00  0.00     0.213 HD
ENDBRANCH  11  13
BRANCH  11  15
HETATM   15  C17 UNL     1      -9.246  -9.772 -15.213  1.00  0.00     0.449 C 
HETATM   16  F2  UNL     1      -9.217  -8.520 -15.795  1.00  0.00    -0.165 F 
HETATM   17  F3  UNL     1      -9.689  -9.654 -13.875  1.00  0.00    -0.165 F 
HETATM   18  F4  UNL     1      -7.976 -10.273 -15.161  1.00  0.00    -0.165 F 
ENDBRANCH  11  15
ENDBRANCH  10  11
ENDBRANCH   9  10
ENDBRANCH   7   9
ENDBRANCH   1   7
BRANCH   4  19
HETATM   19  C6  UNL     1      -5.987  -7.221 -17.449  1.00  0.00     0.004 C 
HETATM   20  C7  UNL     1      -4.609  -6.766 -17.811  1.00  0.00     0.020 C 
HETATM   21  C8  UNL     1      -4.258  -5.641 -16.845  1.00  0.00    -0.013 C 
HETATM   22  C9  UNL     1      -5.188  -4.460 -17.000  1.00  0.00     0.009 C 
HETATM   23  C13 UNL     1      -4.324  -6.096 -15.412  1.00  0.00     0.009 C 
HETATM   24  C10 UNL     1      -6.611  -4.912 -16.712  1.00  0.00    -0.013 C 
HETATM   25  C11 UNL     1      -6.724  -5.476 -15.304  1.00  0.00     0.009 C 
HETATM   26  C15 UNL     1      -6.920  -6.015 -17.654  1.00  0.00     0.020 C 
HETATM   27  C12 UNL     1      -5.713  -6.572 -15.126  1.00  0.00    -0.013 C 
HETATM   28  C14 UNL     1      -6.037  -7.723 -16.055  1.00  0.00     0.020 C 
ENDBRANCH   4  19
TORSDOF 7
ENDMDL
MODEL 2
REMARK VINA RESULT: -7.991510097      0.578      1.855
REMARK  7 active torsions:
REMARK  status: ('A' for Active; 'I' for Inactive)
REMARK    1  A    between atoms: O1_1  and  C1_3 
REMARK    2  A    between atoms: C1_3  and  C2_5 
REMARK    3  A    between atoms: C1_3  and  C17_25 
REMARK    4  A    between atoms: C2_5  and  C3_6 
REMARK    5  A    between atoms: C3_6  and  N1_7 
REMARK    6  A    between atoms: N1_7  and  C4_9 
REMARK    7  A    between atoms: C5_12  and  C6_13 
ROOT
HETATM    1  C4  UNL     1      -7.572  -9.736 -18.898  1.00  0.00     0.148 A 
HETATM    2  N2  UNL     1      -7.381  -8.768 -17.986  1.00  0.00    -0.339 N 
ATOM      3  H2  UNL     1      -7.688  -8.893 -17.021  1.00  0.00     0.168 HD
HETATM    4  C5  UNL     1      -6.802  -7.676 -18.356  1.00  0.00     0.026 A 
HETATM    5  C16 UNL     1      -6.411  -7.546 -19.656  1.00  0.00     0.079 A 
HETATM    6  S1  UNL     1      -6.911  -9.060 -20.312  1.00  0.00    -0.064 SA
ENDROOT
BRANCH   1   7
HETATM    7  N1  UNL     1      -8.129 -10.880 -18.680  1.00  0.00    -0.350 N 
ATOM      8  H1  UNL     1      -7.567 -11.691 -18.937  1.00  0.00     0.167 HD
BRANCH   7   9
HETATM    9  C3  UNL     1      -9.381 -11.171 -18.148  1.00  0.00     0.069 C 
BRANCH   9  10
HETATM   10  C2  UNL     1      -9.450 -11.627 -16.715  1.00  0.00     0.128 C 
BRANCH  10  11
HETATM   11  C1  UNL     1     -10.248 -10.642 -15.871  1.00  0.00     0.305 C 
HETATM   12  F1  UNL     1     -10.903  -9.830 -16.809  1.00  0.00    -0.201 F 
BRANCH  11  13
HETATM   13  O1  UNL     1     -11.196 -11.211 -15.073  1.00  0.00    -0.355 OA
ATOM     14  H1  UNL     1     -10.751 -11.647 -14.355  1.00  0.00     0.213 HD
ENDBRANCH  11  13
BRANCH  11  15
HETATM   15  C17 UNL     1      -9.315  -9.722 -15.101  1.00  0.00     0.449 C 
HETATM   16  F2  UNL     1      -9.626  -9.727 -13.756  1.00  0.00    -0.165 F 
HETATM   17  F3  UNL     1      -7.997 -10.203 -15.278  1.00  0.00    -0.165 F 
HETATM   18  F4  UNL     1      -9.325  -8.434 -15.559  1.00  0.00    -0.165 F 
ENDBRANCH  11  15
ENDBRANCH  10  11
ENDBRANCH   9  10
ENDBRANCH   7   9
ENDBRANCH   1   7
BRANCH   4  19
HETATM   19  C6  UNL     1      -6.491  -6.549 -17.380  1.00  0.00     0.004 C 
HETATM   20  C7  UNL     1      -7.654  -5.627 -17.202  1.00  0.00     0.020 C 
HETATM   21  C8  UNL     1      -7.269  -4.655 -16.094  1.00  0.00    -0.013 C 
HETATM   22  C9  UNL     1      -7.042  -5.366 -14.780  1.00  0.00     0.009 C 
HETATM   23  C13 UNL     1      -6.016  -3.893 -16.431  1.00  0.00     0.009 C 
HETATM   24  C10 UNL     1      -5.911  -6.369 -14.951  1.00  0.00    -0.013 C 
HETATM   25  C11 UNL     1      -4.632  -5.671 -15.389  1.00  0.00     0.009 C 
HETATM   26  C15 UNL     1      -6.305  -7.291 -16.045  1.00  0.00     0.020 C 
HETATM   27  C12 UNL     1      -4.902  -4.872 -16.631  1.00  0.00    -0.013 C 
HETATM   28  C14 UNL     1      -5.269  -5.803 -17.768  1.00  0.00     0.020 C 
ENDBRANCH   4  19
TORSDOF 7
ENDMDL
MODEL 3
REMARK VINA RESULT: -7.847050536      2.698      3.602
REMARK  7 active torsions:
REMARK  status: ('A' for Active; 'I' for Inactive)
REMARK    1  A    between atoms: O1_1  and  C1_3 
REMARK    2  A    between atoms: C1_3  and  C2_5 
REMARK    3  A    between atoms: C1_3  and  C17_25 
REMARK    4  A    between atoms: C2_5  and  C3_6 
REMARK    5  A    between atoms: C3_6  and  N1_7 
REMARK    6  A    between atoms: N1_7  and  C4_9 
REMARK    7  A    between atoms: C5_12  and  C6_13 
ROOT
HETATM    1  C4  UNL     1      -9.341  -9.420 -14.827  1.00  0.00     0.148 A 
HETATM    2  N2  UNL     1      -8.385  -8.823 -15.559  1.00  0.00    -0.339 N 
ATOM      3  H2  UNL     1      -8.228  -9.091 -16.530  1.00  0.00     0.168 HD
HETATM    4  C5  UNL     1      -7.670  -7.903 -15.005  1.00  0.00     0.026 A 
HETATM    5  C16 UNL     1      -7.908  -7.577 -13.703  1.00  0.00     0.079 A 
HETATM    6  S1  UNL     1      -9.204  -8.648 -13.319  1.00  0.00    -0.064 SA
ENDROOT
BRANCH   1   7
HETATM    7  N1  UNL     1     -10.138 -10.349 -15.239  1.00  0.00    -0.350 N 
ATOM      8  H1  UNL     1     -11.004 -10.444 -14.710  1.00  0.00     0.167 HD
BRANCH   7   9
HETATM    9  C3  UNL     1      -9.991 -11.239 -16.299  1.00  0.00     0.069 C 
BRANCH   9  10
HETATM   10  C2  UNL     1     -10.104 -10.695 -17.698  1.00  0.00     0.128 C 
BRANCH  10  11
HETATM   11  C1  UNL     1      -9.136 -11.406 -18.636  1.00  0.00     0.305 C 
HETATM   12  F1  UNL     1      -8.590 -12.438 -17.856  1.00  0.00    -0.201 F 
BRANCH  11  13
HETATM   13  O1  UNL     1      -9.714 -11.970 -19.734  1.00  0.00    -0.355 OA
ATOM     14  H1  UNL     1     -10.397 -11.384 -20.039  1.00  0.00     0.213 HD
ENDBRANCH  11  13
BRANCH  11  15
HETATM   15  C17 UNL     1      -7.974 -10.493 -18.993  1.00  0.00     0.449 C 
HETATM   16  F2  UNL     1      -7.322 -10.954 -20.120  1.00  0.00    -0.165 F 
HETATM   17  F3  UNL     1      -8.503  -9.208 -19.251  1.00  0.00    -0.165 F 
HETATM   18  F4  UNL     1      -7.069 -10.346 -17.979  1.00  0.00    -0.165 F 
ENDBRANCH  11  15
ENDBRANCH  10  11
ENDBRANCH   9  10
ENDBRANCH   7   9
ENDBRANCH   1   7
BRANCH   4  19
HETATM   19  C6  UNL     1      -6.604  -7.131 -15.771  1.00  0.00     0.004 C 
HETATM   20  C7  UNL     1      -5.470  -8.010 -16.191  1.00  0.00     0.020 C 
HETATM   21  C8  UNL     1      -4.567  -7.159 -17.076  1.00  0.00    -0.013 C 
HETATM   22  C9  UNL     1      -5.281  -6.702 -18.326  1.00  0.00     0.009 C 
HETATM   23  C13 UNL     1      -4.071  -5.936 -16.353  1.00  0.00     0.009 C 
HETATM   24  C10 UNL     1      -6.487  -5.866 -17.929  1.00  0.00    -0.013 C 
HETATM   25  C11 UNL     1      -6.060  -4.658 -17.107  1.00  0.00     0.009 C 
HETATM   26  C15 UNL     1      -7.339  -6.712 -17.057  1.00  0.00     0.020 C 
HETATM   27  C12 UNL     1      -5.251  -5.120 -15.929  1.00  0.00    -0.013 C 
HETATM   28  C14 UNL     1      -6.117  -5.955 -15.009  1.00  0.00     0.020 C 
ENDBRANCH   4  19
TORSDOF 7
ENDMDL
MODEL 4
REMARK VINA RESULT: -7.832293164      2.703      3.806
REMARK  7 active torsions:
REMARK  status: ('A' for Active; 'I' for Inactive)
REMARK    1  A    between atoms: O1_1  and  C1_3 
REMARK    2  A    between atoms: C1_3  and  C2_5 
REMARK    3  A    between atoms: C1_3  and  C17_25 
REMARK    4  A    between atoms: C2_5  and  C3_6 
REMARK    5  A    between atoms: C3_6  and  N1_7 
REMARK    6  A    between atoms: N1_7  and  C4_9 
REMARK    7  A    between atoms: C5_12  and  C6_13 
ROOT
HETATM    1  C4  UNL     1      -9.407  -9.400 -14.822  1.00  0.00     0.148 A 
HETATM    2  N2  UNL     1      -8.541  -8.710 -15.583  1.00  0.00    -0.339 N 
ATOM      3  H2  UNL     1      -8.458  -8.900 -16.582  1.00  0.00     0.168 HD
HETATM    4  C5  UNL     1      -7.816  -7.801 -15.023  1.00  0.00     0.026 A 
HETATM    5  C16 UNL     1      -7.953  -7.580 -13.684  1.00  0.00     0.079 A 
HETATM    6  S1  UNL     1      -9.169  -8.733 -13.275  1.00  0.00    -0.064 SA
ENDROOT
BRANCH   1   7
HETATM    7  N1  UNL     1     -10.200 -10.331 -15.235  1.00  0.00    -0.350 N 
ATOM      8  H1  UNL     1     -11.080 -10.408 -14.726  1.00  0.00     0.167 HD
BRANCH   7   9
HETATM    9  C3  UNL     1     -10.033 -11.244 -16.272  1.00  0.00     0.069 C 
BRANCH   9  10
HETATM   10  C2  UNL     1     -10.164 -10.739 -17.684  1.00  0.00     0.128 C 
BRANCH  10  11
HETATM   11  C1  UNL     1      -9.157 -11.425 -18.599  1.00  0.00     0.305 C 
HETATM   12  F1  UNL     1      -8.636 -12.471 -17.822  1.00  0.00    -0.201 F 
BRANCH  11  13
HETATM   13  O1  UNL     1      -9.691 -11.967 -19.731  1.00  0.00    -0.355 OA
ATOM     14  H1  UNL     1     -10.631 -11.836 -19.703  1.00  0.00     0.213 HD
ENDBRANCH  11  13
BRANCH  11  15
HETATM   15  C17 UNL     1      -7.987 -10.500 -18.892  1.00  0.00     0.449 C 
HETATM   16  F2  UNL     1      -7.225 -10.994 -19.932  1.00  0.00    -0.165 F 
HETATM   17  F3  UNL     1      -8.518  -9.242 -19.259  1.00  0.00    -0.165 F 
HETATM   18  F4  UNL     1      -7.183 -10.283 -17.809  1.00  0.00    -0.165 F 
ENDBRANCH  11  15
ENDBRANCH  10  11
ENDBRANCH   9  10
ENDBRANCH   7   9
ENDBRANCH   1   7
BRANCH   4  19
HETATM   19  C6  UNL     1      -6.850  -6.929 -15.815  1.00  0.00     0.004 C 
HETATM   20  C7  UNL     1      -6.338  -5.783 -15.004  1.00  0.00     0.020 C 
HETATM   21  C8  UNL     1      -5.273  -5.095 -15.850  1.00  0.00    -0.013 C 
HETATM   22  C9  UNL     1      -4.107  -6.013 -16.135  1.00  0.00     0.009 C 
HETATM   23  C13 UNL     1      -5.827  -4.627 -17.168  1.00  0.00     0.009 C 
HETATM   24  C10 UNL     1      -4.612  -7.230 -16.895  1.00  0.00    -0.013 C 
HETATM   25  C11 UNL     1      -5.274  -6.814 -18.201  1.00  0.00     0.009 C 
HETATM   26  C15 UNL     1      -5.656  -7.869 -16.057  1.00  0.00     0.020 C 
HETATM   27  C12 UNL     1      -6.354  -5.812 -17.913  1.00  0.00    -0.013 C 
HETATM   28  C14 UNL     1      -7.447  -6.460 -17.089  1.00  0.00     0.020 C 
ENDBRANCH   4  19
TORSDOF 7
ENDMDL
MODEL 5
REMARK VINA RESULT: -7.784194209      2.716      3.686
REMARK  7 active torsions:
REMARK  status: ('A' for Active; 'I' for Inactive)
REMARK    1  A    between atoms: O1_1  and  C1_3 
REMARK    2  A    between atoms: C1_3  and  C2_5 
REMARK    3  A    between atoms: C1_3  and  C17_25 
REMARK    4  A    between atoms: C2_5  and  C3_6 
REMARK    5  A    between atoms: C3_6  and  N1_7 
REMARK    6  A    between atoms: N1_7  and  C4_9 
REMARK    7  A    between atoms: C5_12  and  C6_13 
ROOT
HETATM    1  C4  UNL     1      -9.466  -9.663 -14.910  1.00  0.00     0.148 A 
HETATM    2  N2  UNL     1      -8.537  -9.018 -15.636  1.00  0.00    -0.339 N 
ATOM      3  H2  UNL     1      -8.397  -9.242 -16.621  1.00  0.00     0.168 HD
HETATM    4  C5  UNL     1      -7.827  -8.108 -15.059  1.00  0.00     0.026 A 
HETATM    5  C16 UNL     1      -8.043  -7.841 -13.740  1.00  0.00     0.079 A 
HETATM    6  S1  UNL     1      -9.310  -8.952 -13.373  1.00  0.00    -0.064 SA
ENDROOT
BRANCH   1   7
HETATM    7  N1  UNL     1     -10.254 -10.589 -15.344  1.00  0.00    -0.350 N 
ATOM      8  H1  UNL     1     -11.107 -10.722 -14.801  1.00  0.00     0.167 HD
BRANCH   7   9
HETATM    9  C3  UNL     1     -10.114 -11.432 -16.442  1.00  0.00     0.069 C 
BRANCH   9  10
HETATM   10  C2  UNL     1     -10.133 -10.812 -17.814  1.00  0.00     0.128 C 
BRANCH  10  11
HETATM   11  C1  UNL     1      -9.127 -11.496 -18.731  1.00  0.00     0.305 C 
HETATM   12  F1  UNL     1      -8.568 -12.511 -17.940  1.00  0.00    -0.201 F 
BRANCH  11  13
HETATM   13  O1  UNL     1      -9.667 -12.076 -19.840  1.00  0.00    -0.355 OA
ATOM     14  H1  UNL     1      -8.990 -12.597 -20.257  1.00  0.00     0.213 HD
ENDBRANCH  11  13
BRANCH  11  15
HETATM   15  C17 UNL     1      -7.984 -10.551 -19.066  1.00  0.00     0.449 C 
HETATM   16  F2  UNL     1      -7.359 -10.938 -20.235  1.00  0.00    -0.165 F 
HETATM   17  F3  UNL     1      -8.533  -9.259 -19.237  1.00  0.00    -0.165 F 
HETATM   18  F4  UNL     1      -7.054 -10.451 -18.070  1.00  0.00    -0.165 F 
ENDBRANCH  11  15
ENDBRANCH  10  11
ENDBRANCH   9  10
ENDBRANCH   7   9
ENDBRANCH   1   7
BRANCH   4  19
HETATM   19  C6  UNL     1      -6.792  -7.284 -15.815  1.00  0.00     0.004 C 
HETATM   20  C7  UNL     1      -7.369  -6.650 -17.039  1.00  0.00     0.020 C 
HETATM   21  C8  UNL     1      -6.288  -5.736 -17.604  1.00  0.00    -0.013 C 
HETATM   22  C9  UNL     1      -5.930  -4.630 -16.638  1.00  0.00     0.009 C 
HETATM   23  C13 UNL     1      -5.028  -6.496 -17.924  1.00  0.00     0.009 C 
HETATM   24  C10 UNL     1      -5.411  -5.249 -15.350  1.00  0.00    -0.013 C 
HETATM   25  C11 UNL     1      -4.188  -6.113 -15.620  1.00  0.00     0.009 C 
HETATM   26  C15 UNL     1      -6.475  -6.143 -14.832  1.00  0.00     0.020 C 
HETATM   27  C12 UNL     1      -4.524  -7.134 -16.668  1.00  0.00    -0.013 C 
HETATM   28  C14 UNL     1      -5.584  -8.079 -16.141  1.00  0.00     0.020 C 
ENDBRANCH   4  19
TORSDOF 7
ENDMDL
