MODEL 1
REMARK VINA RESULT: -8.175403914      0.000      0.000
REMARK  7 active torsions:
REMARK  status: ('A' for Active; 'I' for Inactive)
REMARK    1  A    between atoms: C4_4  and  C5_5 
REMARK    2  A    between atoms: C5_5  and  C8_8 
REMARK    3  A    between atoms: C9_14  and  N2_15 
REMARK    4  A    between atoms: N2_15  and  C10_17 
REMARK    5  A    between atoms: C10_17  and  C11_18 
REMARK    6  A    between atoms: C10_17  and  C17_24 
REMARK    7  A    between atoms: C11_18  and  C12_19 
ROOT
HETATM    1  C1  UNL     1      -4.380  -4.887 -20.769  1.00  0.00     0.068 C 
HETATM    2  C2  UNL     1      -5.295  -5.646 -19.850  1.00  0.00     0.024 A 
HETATM    3  C3  UNL     1      -5.503  -5.220 -18.552  1.00  0.00     0.051 A 
HETATM    4  C4  UNL     1      -6.336  -5.897 -17.694  1.00  0.00     0.045 A 
HETATM    5  N1  UNL     1      -6.963  -7.002 -18.136  1.00  0.00    -0.195 N 
ATOM      6  H1  UNL     1      -7.586  -7.521 -17.518  1.00  0.00     0.184 HD
HETATM    7  C9  UNL     1      -6.759  -7.417 -19.403  1.00  0.00     0.679 A 
HETATM    8  N3  UNL     1      -5.944  -6.756 -20.245  1.00  0.00    -0.196 N 
ATOM      9  H3  UNL     1      -5.816  -7.101 -21.196  1.00  0.00     0.184 HD
ENDROOT
BRANCH   7  10
HETATM   10  N2  UNL     1      -7.369  -8.469 -19.769  1.00  0.00    -0.211 N 
ATOM     11  H2  UNL     1      -7.976  -8.389 -20.585  1.00  0.00     0.178 HD
BRANCH  10  12
HETATM   12  C10 UNL     1      -7.285  -9.773 -19.139  1.00  0.00     0.200 C 
BRANCH  12  13
HETATM   13  C11 UNL     1      -8.600 -10.000 -18.463  1.00  0.00     0.041 C 
BRANCH  13  14
HETATM   14  C12 UNL     1      -8.559 -10.484 -17.058  1.00  0.00    -0.012 C 
HETATM   15  C13 UNL     1      -8.516  -9.497 -15.970  1.00  0.00     0.005 C 
HETATM   16  C14 UNL     1      -9.682  -9.860 -15.016  1.00  0.00     0.000 C 
HETATM   17  C15 UNL     1     -10.681 -10.448 -16.029  1.00  0.00     0.000 C 
HETATM   18  C16 UNL     1      -9.768 -11.352 -16.804  1.00  0.00     0.005 C 
ENDBRANCH  13  14
ENDBRANCH  12  13
BRANCH  12  19
HETATM   19  C17 UNL     1      -6.806 -10.848 -19.998  1.00  0.00     0.197 C 
HETATM   20  O1  UNL     1      -5.627 -10.933 -20.448  1.00  0.00    -0.646 OA
HETATM   21  O2  UNL     1      -7.684 -11.870 -20.363  1.00  0.00    -0.646 OA
ENDBRANCH  12  19
ENDBRANCH  10  12
ENDBRANCH   7  10
BRANCH   4  22
HETATM   22  C5  UNL     1      -6.503  -5.394 -16.315  1.00  0.00     0.093 C 
HETATM   23  C6  UNL     1      -7.956  -5.426 -15.887  1.00  0.00     0.031 C 
HETATM   24  C7  UNL     1      -6.093  -3.918 -16.231  1.00  0.00     0.031 C 
BRANCH  22  25
HETATM   25  C8  UNL     1      -5.684  -6.226 -15.357  1.00  0.00     0.400 C 
HETATM   26  F1  UNL     1      -4.695  -6.943 -15.995  1.00  0.00    -0.170 F 
HETATM   27  F2  UNL     1      -6.565  -7.083 -14.717  1.00  0.00    -0.170 F 
HETATM   28  F3  UNL     1      -5.121  -5.428 -14.366  1.00  0.00    -0.170 F 
ENDBRANCH  22  25
ENDBRANCH   4  22
TORSDOF 7
ENDMDL
MODEL 2
REMARK VINA RESULT: -8.051293656      0.864      1.398
REMARK  7 active torsions:
REMARK  status: ('A' for Active; 'I' for Inactive)
REMARK    1  A    between atoms: C4_4  and  C5_5 
REMARK    2  A    between atoms: C5_5  and  C8_8 
REMARK    3  A    between atoms: C9_14  and  N2_15 
REMARK    4  A    between atoms: N2_15  and  C10_17 
REMARK    5  A    between atoms: C10_17  and  C11_18 
REMARK    6  A    between atoms: C10_17  and  C17_24 
REMARK    7  A    between atoms: C11_18  and  C12_19 
ROOT
HETATM    1  C1  UNL     1      -4.167  -4.899 -20.842  1.00  0.00     0.068 C 
HETATM    2  C2  UNL     1      -5.086  -5.504 -19.817  1.00  0.00     0.024 A 
HETATM    3  C3  UNL     1      -5.174  -4.968 -18.545  1.00  0.00     0.051 A 
HETATM    4  C4  UNL     1      -6.007  -5.504 -17.593  1.00  0.00     0.045 A 
HETATM    5  N1  UNL     1      -6.754  -6.575 -17.913  1.00  0.00    -0.195 N 
ATOM      6  H1  UNL     1      -7.380  -6.991 -17.223  1.00  0.00     0.184 HD
HETATM    7  C9  UNL     1      -6.667  -7.097 -19.154  1.00  0.00     0.679 A 
HETATM    8  N3  UNL     1      -5.852  -6.575 -20.089  1.00  0.00    -0.196 N 
ATOM      9  H3  UNL     1      -5.814  -6.997 -21.016  1.00  0.00     0.184 HD
ENDROOT
BRANCH   7  10
HETATM   10  N2  UNL     1      -7.387  -8.112 -19.403  1.00  0.00    -0.211 N 
ATOM     11  H2  UNL     1      -8.375  -7.942 -19.591  1.00  0.00     0.178 HD
BRANCH  10  12
HETATM   12  C10 UNL     1      -6.941  -9.492 -19.448  1.00  0.00     0.200 C 
BRANCH  12  13
HETATM   13  C11 UNL     1      -7.473 -10.148 -18.213  1.00  0.00     0.041 C 
BRANCH  13  14
HETATM   14  C12 UNL     1      -8.772  -9.648 -17.692  1.00  0.00    -0.012 C 
HETATM   15  C13 UNL     1      -9.926 -10.558 -17.674  1.00  0.00     0.005 C 
HETATM   16  C14 UNL     1     -10.465 -10.537 -16.222  1.00  0.00     0.000 C 
HETATM   17  C15 UNL     1      -9.154 -10.287 -15.455  1.00  0.00     0.000 C 
HETATM   18  C16 UNL     1      -8.579  -9.169 -16.274  1.00  0.00     0.005 C 
ENDBRANCH  13  14
ENDBRANCH  12  13
BRANCH  12  19
HETATM   19  C17 UNL     1      -7.187 -10.185 -20.705  1.00  0.00     0.197 C 
HETATM   20  O1  UNL     1      -7.271 -11.441 -20.826  1.00  0.00    -0.646 OA
HETATM   21  O2  UNL     1      -7.349  -9.438 -21.873  1.00  0.00    -0.646 OA
ENDBRANCH  12  19
ENDBRANCH  10  12
ENDBRANCH   7  10
BRANCH   4  22
HETATM   22  C5  UNL     1      -6.043  -4.891 -16.249  1.00  0.00     0.093 C 
HETATM   23  C6  UNL     1      -7.462  -4.567 -15.827  1.00  0.00     0.031 C 
HETATM   24  C7  UNL     1      -5.310  -3.542 -16.257  1.00  0.00     0.031 C 
BRANCH  22  25
HETATM   25  C8  UNL     1      -5.423  -5.823 -15.237  1.00  0.00     0.400 C 
HETATM   26  F1  UNL     1      -6.173  -6.963 -15.042  1.00  0.00    -0.170 F 
HETATM   27  F2  UNL     1      -5.311  -5.112 -14.053  1.00  0.00    -0.170 F 
HETATM   28  F3  UNL     1      -4.128  -6.171 -15.612  1.00  0.00    -0.170 F 
ENDBRANCH  22  25
ENDBRANCH   4  22
TORSDOF 7
ENDMDL
MODEL 3
REMARK VINA RESULT: -7.995924446      1.204      1.798
REMARK  7 active torsions:
REMARK  status: ('A' for Active; 'I' for Inactive)
REMARK    1  A    between atoms: C4_4  and  C5_5 
REMARK    2  A    between atoms: C5_5  and  C8_8 
REMARK    3  A    between atoms: C9_14  and  N2_15 
REMARK    4  A    between atoms: N2_15  and  C10_17 
REMARK    5  A    between atoms: C10_17  and  C11_18 
REMARK    6  A    between atoms: C10_17  and  C17_24 
REMARK    7  A    between atoms: C11_18  and  C12_19 
ROOT
HETATM    1  C1  UNL     1      -4.625  -4.919 -20.531  1.00  0.00     0.068 C 
HETATM    2  C2  UNL     1      -5.523  -5.709 -19.621  1.00  0.00     0.024 A 
HETATM    3  C3  UNL     1      -5.726  -5.311 -18.312  1.00  0.00     0.051 A 
HETATM    4  C4  UNL     1      -6.543  -6.017 -17.462  1.00  0.00     0.045 A 
HETATM    5  N1  UNL     1      -7.157  -7.122 -17.920  1.00  0.00    -0.195 N 
ATOM      6  H1  UNL     1      -7.768  -7.662 -17.308  1.00  0.00     0.184 HD
HETATM    7  C9  UNL     1      -6.957  -7.509 -19.197  1.00  0.00     0.679 A 
HETATM    8  N3  UNL     1      -6.158  -6.820 -20.032  1.00  0.00    -0.196 N 
ATOM      9  H3  UNL     1      -6.033  -7.145 -20.991  1.00  0.00     0.184 HD
ENDROOT
BRANCH   7  10
HETATM   10  N2  UNL     1      -7.555  -8.562 -19.579  1.00  0.00    -0.211 N 
ATOM     11  H2  UNL     1      -8.160  -8.478 -20.395  1.00  0.00     0.178 HD
BRANCH  10  12
HETATM   12  C10 UNL     1      -7.458  -9.874 -18.967  1.00  0.00     0.200 C 
BRANCH  12  13
HETATM   13  C11 UNL     1      -8.760 -10.110 -18.268  1.00  0.00     0.041 C 
BRANCH  13  14
HETATM   14  C12 UNL     1      -8.692 -10.592 -16.864  1.00  0.00    -0.012 C 
HETATM   15  C13 UNL     1      -8.516  -9.609 -15.786  1.00  0.00     0.005 C 
HETATM   16  C14 UNL     1      -9.662  -9.872 -14.776  1.00  0.00     0.000 C 
HETATM   17  C15 UNL     1     -10.752 -10.379 -15.736  1.00  0.00     0.000 C 
HETATM   18  C16 UNL     1      -9.954 -11.357 -16.548  1.00  0.00     0.005 C 
ENDBRANCH  13  14
ENDBRANCH  12  13
BRANCH  12  19
HETATM   19  C17 UNL     1      -6.995 -10.938 -19.848  1.00  0.00     0.197 C 
HETATM   20  O1  UNL     1      -7.685 -11.946 -20.178  1.00  0.00    -0.646 OA
HETATM   21  O2  UNL     1      -5.707 -10.867 -20.381  1.00  0.00    -0.646 OA
ENDBRANCH  12  19
ENDBRANCH  10  12
ENDBRANCH   7  10
BRANCH   4  22
HETATM   22  C5  UNL     1      -6.706  -5.543 -16.072  1.00  0.00     0.093 C 
HETATM   23  C6  UNL     1      -5.927  -4.266 -15.828  1.00  0.00     0.031 C 
HETATM   24  C7  UNL     1      -6.119  -6.564 -15.087  1.00  0.00     0.031 C 
BRANCH  22  25
HETATM   25  C8  UNL     1      -8.165  -5.301 -15.775  1.00  0.00     0.400 C 
HETATM   26  F1  UNL     1      -8.815  -4.663 -16.809  1.00  0.00    -0.170 F 
HETATM   27  F2  UNL     1      -8.218  -4.529 -14.624  1.00  0.00    -0.170 F 
HETATM   28  F3  UNL     1      -8.816  -6.495 -15.477  1.00  0.00    -0.170 F 
ENDBRANCH  22  25
ENDBRANCH   4  22
TORSDOF 7
ENDMDL
MODEL 4
REMARK VINA RESULT: -7.957047696      1.312      1.554
REMARK  7 active torsions:
REMARK  status: ('A' for Active; 'I' for Inactive)
REMARK    1  A    between atoms: C4_4  and  C5_5 
REMARK    2  A    between atoms: C5_5  and  C8_8 
REMARK    3  A    between atoms: C9_14  and  N2_15 
REMARK    4  A    between atoms: N2_15  and  C10_17 
REMARK    5  A    between atoms: C10_17  and  C11_18 
REMARK    6  A    between atoms: C10_17  and  C17_24 
REMARK    7  A    between atoms: C11_18  and  C12_19 
ROOT
HETATM    1  C1  UNL     1      -3.202  -5.591 -18.359  1.00  0.00     0.068 C 
HETATM    2  C2  UNL     1      -4.644  -5.925 -18.094  1.00  0.00     0.024 A 
HETATM    3  C3  UNL     1      -5.296  -5.405 -16.990  1.00  0.00     0.051 A 
HETATM    4  C4  UNL     1      -6.613  -5.696 -16.728  1.00  0.00     0.045 A 
HETATM    5  N1  UNL     1      -7.279  -6.506 -17.569  1.00  0.00    -0.195 N 
ATOM      6  H1  UNL     1      -8.257  -6.736 -17.396  1.00  0.00     0.184 HD
HETATM    7  C9  UNL     1      -6.642  -7.012 -18.645  1.00  0.00     0.679 A 
HETATM    8  N3  UNL     1      -5.352  -6.730 -18.905  1.00  0.00    -0.196 N 
ATOM      9  H3  UNL     1      -4.905  -7.132 -19.729  1.00  0.00     0.184 HD
ENDROOT
BRANCH   7  10
HETATM   10  N2  UNL     1      -7.313  -7.777 -19.405  1.00  0.00    -0.211 N 
ATOM     11  H2  UNL     1      -7.949  -7.329 -20.064  1.00  0.00     0.178 HD
BRANCH  10  12
HETATM   12  C10 UNL     1      -7.261  -9.227 -19.426  1.00  0.00     0.200 C 
BRANCH  12  13
HETATM   13  C11 UNL     1      -8.541  -9.704 -18.817  1.00  0.00     0.041 C 
BRANCH  13  14
HETATM   14  C12 UNL     1      -8.447 -10.374 -17.493  1.00  0.00    -0.012 C 
HETATM   15  C13 UNL     1      -8.340  -9.545 -16.285  1.00  0.00     0.005 C 
HETATM   16  C14 UNL     1      -9.469 -10.022 -15.337  1.00  0.00     0.000 C 
HETATM   17  C15 UNL     1     -10.521 -10.456 -16.374  1.00  0.00     0.000 C 
HETATM   18  C16 UNL     1      -9.658 -11.256 -17.305  1.00  0.00     0.005 C 
ENDBRANCH  13  14
ENDBRANCH  12  13
BRANCH  12  19
HETATM   19  C17 UNL     1      -6.896  -9.816 -20.708  1.00  0.00     0.197 C 
HETATM   20  O1  UNL     1      -7.348  -9.436 -21.826  1.00  0.00    -0.646 OA
HETATM   21  O2  UNL     1      -5.985 -10.873 -20.735  1.00  0.00    -0.646 OA
ENDBRANCH  12  19
ENDBRANCH  10  12
ENDBRANCH   7  10
BRANCH   4  22
HETATM   22  C5  UNL     1      -7.245  -5.118 -15.524  1.00  0.00     0.093 C 
HETATM   23  C6  UNL     1      -8.529  -4.389 -15.870  1.00  0.00     0.031 C 
HETATM   24  C7  UNL     1      -6.334  -4.051 -14.902  1.00  0.00     0.031 C 
BRANCH  22  25
HETATM   25  C8  UNL     1      -7.545  -6.206 -14.523  1.00  0.00     0.400 C 
HETATM   26  F1  UNL     1      -6.678  -7.272 -14.626  1.00  0.00    -0.170 F 
HETATM   27  F2  UNL     1      -8.847  -6.620 -14.758  1.00  0.00    -0.170 F 
HETATM   28  F3  UNL     1      -7.520  -5.705 -13.224  1.00  0.00    -0.170 F 
ENDBRANCH  22  25
ENDBRANCH   4  22
TORSDOF 7
ENDMDL
MODEL 5
REMARK VINA RESULT: -7.778653455      1.248      1.397
REMARK  7 active torsions:
REMARK  status: ('A' for Active; 'I' for Inactive)
REMARK    1  A    between atoms: C4_4  and  C5_5 
REMARK    2  A    between atoms: C5_5  and  C8_8 
REMARK    3  A    between atoms: C9_14  and  N2_15 
REMARK    4  A    between atoms: N2_15  and  C10_17 
REMARK    5  A    between atoms: C10_17  and  C11_18 
REMARK    6  A    between atoms: C10_17  and  C17_24 
REMARK    7  A    between atoms: C11_18  and  C12_19 
ROOT
HETATM    1  C1  UNL     1      -5.111  -4.839 -20.220  1.00  0.00     0.068 C 
HETATM    2  C2  UNL     1      -5.529  -5.740 -19.092  1.00  0.00     0.024 A 
HETATM    3  C3  UNL     1      -5.931  -5.212 -17.879  1.00  0.00     0.051 A 
HETATM    4  C4  UNL     1      -6.318  -6.016 -16.834  1.00  0.00     0.045 A 
HETATM    5  N1  UNL     1      -6.304  -7.350 -17.002  1.00  0.00    -0.195 N 
ATOM      6  H1  UNL     1      -6.587  -7.968 -16.242  1.00  0.00     0.184 HD
HETATM    7  C9  UNL     1      -5.911  -7.864 -18.186  1.00  0.00     0.679 A 
HETATM    8  N3  UNL     1      -5.532  -7.079 -19.211  1.00  0.00    -0.196 N 
ATOM      9  H3  UNL     1      -5.242  -7.506 -20.091  1.00  0.00     0.184 HD
ENDROOT
BRANCH   7  10
HETATM   10  N2  UNL     1      -5.909  -9.130 -18.292  1.00  0.00    -0.211 N 
ATOM     11  H2  UNL     1      -5.160  -9.631 -17.814  1.00  0.00     0.178 HD
BRANCH  10  12
HETATM   12  C10 UNL     1      -6.869  -9.931 -19.027  1.00  0.00     0.200 C 
BRANCH  12  13
HETATM   13  C11 UNL     1      -8.194  -9.714 -18.368  1.00  0.00     0.041 C 
BRANCH  13  14
HETATM   14  C12 UNL     1      -8.440 -10.442 -17.096  1.00  0.00    -0.012 C 
HETATM   15  C13 UNL     1      -8.605  -9.669 -15.857  1.00  0.00     0.005 C 
HETATM   16  C14 UNL     1      -9.942 -10.141 -15.232  1.00  0.00     0.000 C 
HETATM   17  C15 UNL     1     -10.724 -10.491 -16.511  1.00  0.00     0.000 C 
HETATM   18  C16 UNL     1      -9.684 -11.284 -17.247  1.00  0.00     0.005 C 
ENDBRANCH  13  14
ENDBRANCH  12  13
BRANCH  12  19
HETATM   19  C17 UNL     1      -6.833  -9.771 -20.475  1.00  0.00     0.197 C 
HETATM   20  O1  UNL     1      -6.273 -10.579 -21.271  1.00  0.00    -0.646 OA
HETATM   21  O2  UNL     1      -7.453  -8.661 -21.052  1.00  0.00    -0.646 OA
ENDBRANCH  12  19
ENDBRANCH  10  12
ENDBRANCH   7  10
BRANCH   4  22
HETATM   22  C5  UNL     1      -6.724  -5.386 -15.561  1.00  0.00     0.093 C 
HETATM   23  C6  UNL     1      -7.514  -6.348 -14.696  1.00  0.00     0.031 C 
HETATM   24  C7  UNL     1      -7.676  -4.211 -15.825  1.00  0.00     0.031 C 
BRANCH  22  25
HETATM   25  C8  UNL     1      -5.506  -4.920 -14.802  1.00  0.00     0.400 C 
HETATM   26  F1  UNL     1      -4.399  -5.702 -15.049  1.00  0.00    -0.170 F 
HETATM   27  F2  UNL     1      -5.833  -4.959 -13.456  1.00  0.00    -0.170 F 
HETATM   28  F3  UNL     1      -5.217  -3.591 -15.098  1.00  0.00    -0.170 F 
ENDBRANCH  22  25
ENDBRANCH   4  22
TORSDOF 7
ENDMDL
