MODEL 1
REMARK VINA RESULT: -8.963959195      0.000      0.000
REMARK  6 active torsions:
REMARK  status: ('A' for Active; 'I' for Inactive)
REMARK    1  A    between atoms: C4_4  and  C5_5 
REMARK    2  A    between atoms: N1_11  and  C8_12 
REMARK    3  A    between atoms: C8_12  and  C9_13 
REMARK    4  A    between atoms: C9_13  and  N2_14 
REMARK    5  A    between atoms: C11_16  and  C12_17 
REMARK    6  A    between atoms: C18_23  and  N3_24 
ROOT
HETATM    1  N2  UNL     1      -6.071  -7.875 -17.532  1.00  0.00    -0.340 N 
HETATM    2  C10 UNL     1      -6.955  -8.468 -16.738  1.00  0.00     0.101 A 
HETATM    3  C11 UNL     1      -7.493  -9.605 -17.352  1.00  0.00    -0.021 A 
HETATM    4  C17 UNL     1      -6.868  -9.660 -18.586  1.00  0.00     0.060 A 
HETATM    5  C18 UNL     1      -6.932 -10.510 -19.663  1.00  0.00     0.114 A 
HETATM    6  N4  UNL     1      -6.163 -10.283 -20.762  1.00  0.00    -0.338 N 
ATOM      7  H4  UNL     1      -6.214 -10.916 -21.561  1.00  0.00     0.168 HD
HETATM    8  C19 UNL     1      -5.346  -9.238 -20.793  1.00  0.00     0.183 A 
HETATM    9  N5  UNL     1      -5.241  -8.386 -19.786  1.00  0.00    -0.338 N 
ATOM     10  H5  UNL     1      -4.602  -7.593 -19.846  1.00  0.00     0.168 HD
HETATM   11  C20 UNL     1      -5.991  -8.579 -18.675  1.00  0.00     0.123 A 
ENDROOT
BRANCH   1  12
HETATM   12  C9  UNL     1      -5.308  -6.679 -17.241  1.00  0.00     0.160 C 
BRANCH  12  13
HETATM   13  C8  UNL     1      -6.229  -5.506 -17.220  1.00  0.00     0.293 C 
BRANCH  13  14
HETATM   14  N1  UNL     1      -6.698  -5.111 -15.922  1.00  0.00     0.094 N 
HETATM   15  C2  UNL     1      -8.070  -5.527 -15.763  1.00  0.00     0.219 C 
HETATM   16  C1  UNL     1      -9.032  -4.386 -16.055  1.00  0.00     0.043 C 
HETATM   17  C3  UNL     1      -8.378  -6.062 -14.399  1.00  0.00     0.049 C 
HETATM   18  C4  UNL     1      -7.684  -5.230 -13.317  1.00  0.00     0.097 C 
HETATM   19  C6  UNL     1      -6.177  -5.301 -13.526  1.00  0.00     0.044 C 
HETATM   20  C7  UNL     1      -5.895  -5.793 -14.929  1.00  0.00     0.273 C 
BRANCH  18  21
HETATM   21  C5  UNL     1      -8.094  -5.791 -11.993  1.00  0.00     0.391 C 
HETATM   22  F1  UNL     1      -9.412  -6.209 -12.087  1.00  0.00    -0.171 F 
HETATM   23  F2  UNL     1      -7.325  -6.873 -11.610  1.00  0.00    -0.171 F 
HETATM   24  F3  UNL     1      -8.064  -4.836 -10.988  1.00  0.00    -0.171 F 
ENDBRANCH  18  21
ENDBRANCH  13  14
ENDBRANCH  12  13
ENDBRANCH   1  12
BRANCH   3  25
HETATM   25  C12 UNL     1      -8.512 -10.508 -16.786  1.00  0.00     0.021 C 
HETATM   26  C13 UNL     1      -8.828  -9.966 -15.363  1.00  0.00     0.009 C 
HETATM   27  C14 UNL     1     -10.038 -10.799 -14.995  1.00  0.00     0.001 C 
HETATM   28  C15 UNL     1     -10.776 -10.953 -16.325  1.00  0.00     0.001 C 
HETATM   29  C16 UNL     1      -9.898 -10.305 -17.376  1.00  0.00     0.009 C 
ENDBRANCH   3  25
BRANCH   5  30
HETATM   30  N3  UNL     1      -7.672 -11.511 -19.683  1.00  0.00    -0.385 N 
ATOM     31  H32 UNL     1      -8.388 -11.576 -18.959  1.00  0.00     0.157 HD
ATOM     32  H31 UNL     1      -7.587 -12.242 -20.389  1.00  0.00     0.157 HD
ENDBRANCH   5  30
TORSDOF 6
ENDMDL
MODEL 2
REMARK VINA RESULT: -8.958327132      1.140      1.835
REMARK  6 active torsions:
REMARK  status: ('A' for Active; 'I' for Inactive)
REMARK    1  A    between atoms: C4_4  and  C5_5 
REMARK    2  A    between atoms: N1_11  and  C8_12 
REMARK    3  A    between atoms: C8_12  and  C9_13 
REMARK    4  A    between atoms: C9_13  and  N2_14 
REMARK    5  A    between atoms: C11_16  and  C12_17 
REMARK    6  A    between atoms: C18_23  and  N3_24 
ROOT
HETATM    1  N2  UNL     1      -6.564  -7.992 -18.919  1.00  0.00    -0.340 N 
HETATM    2  C10 UNL     1      -7.219  -8.402 -17.839  1.00  0.00     0.101 A 
HETATM    3  C11 UNL     1      -7.778  -9.669 -18.046  1.00  0.00    -0.021 A 
HETATM    4  C17 UNL     1      -7.414 -10.000 -19.339  1.00  0.00     0.060 A 
HETATM    5  C18 UNL     1      -7.627 -11.085 -20.154  1.00  0.00     0.114 A 
HETATM    6  N4  UNL     1      -7.116 -11.107 -21.415  1.00  0.00    -0.338 N 
ATOM      7  H4  UNL     1      -7.277 -11.914 -22.018  1.00  0.00     0.168 HD
HETATM    8  C19 UNL     1      -6.408 -10.077 -21.860  1.00  0.00     0.183 A 
HETATM    9  N5  UNL     1      -6.169  -9.005 -21.121  1.00  0.00    -0.338 N 
ATOM     10  H5  UNL     1      -5.621  -8.231 -21.497  1.00  0.00     0.168 HD
HETATM   11  C20 UNL     1      -6.662  -8.947 -19.861  1.00  0.00     0.123 A 
ENDROOT
BRANCH   1  12
HETATM   12  C9  UNL     1      -5.856  -6.739 -19.081  1.00  0.00     0.160 C 
BRANCH  12  13
HETATM   13  C8  UNL     1      -6.420  -5.733 -18.134  1.00  0.00     0.293 C 
BRANCH  13  14
HETATM   14  N1  UNL     1      -6.604  -6.189 -16.785  1.00  0.00     0.094 N 
HETATM   15  C2  UNL     1      -5.494  -5.746 -15.977  1.00  0.00     0.219 C 
HETATM   16  C1  UNL     1      -4.451  -6.840 -15.818  1.00  0.00     0.043 C 
HETATM   17  C3  UNL     1      -5.898  -5.282 -14.612  1.00  0.00     0.049 C 
HETATM   18  C4  UNL     1      -6.978  -6.194 -14.022  1.00  0.00     0.097 C 
HETATM   19  C6  UNL     1      -8.207  -6.152 -14.921  1.00  0.00     0.044 C 
HETATM   20  C7  UNL     1      -7.815  -5.588 -16.270  1.00  0.00     0.273 C 
BRANCH  18  21
HETATM   21  C5  UNL     1      -7.274  -5.700 -12.644  1.00  0.00     0.391 C 
HETATM   22  F1  UNL     1      -7.180  -6.769 -11.768  1.00  0.00    -0.171 F 
HETATM   23  F2  UNL     1      -6.393  -4.721 -12.225  1.00  0.00    -0.171 F 
HETATM   24  F3  UNL     1      -8.571  -5.220 -12.527  1.00  0.00    -0.171 F 
ENDBRANCH  18  21
ENDBRANCH  13  14
ENDBRANCH  12  13
ENDBRANCH   1  12
BRANCH   3  25
HETATM   25  C12 UNL     1      -8.586 -10.439 -17.083  1.00  0.00     0.021 C 
HETATM   26  C13 UNL     1      -8.554  -9.635 -15.752  1.00  0.00     0.009 C 
HETATM   27  C14 UNL     1      -9.599 -10.372 -14.940  1.00  0.00     0.001 C 
HETATM   28  C15 UNL     1     -10.643 -10.766 -15.986  1.00  0.00     0.001 C 
HETATM   29  C16 UNL     1     -10.083 -10.336 -17.328  1.00  0.00     0.009 C 
ENDBRANCH   3  25
BRANCH   5  30
HETATM   30  N3  UNL     1      -8.273 -12.083 -19.784  1.00  0.00    -0.385 N 
ATOM     31  H32 UNL     1      -9.086 -11.918 -19.191  1.00  0.00     0.157 HD
ATOM     32  H31 UNL     1      -8.021 -13.032 -20.060  1.00  0.00     0.157 HD
ENDBRANCH   5  30
TORSDOF 6
ENDMDL
MODEL 3
REMARK VINA RESULT: -8.895369356      1.477      3.544
REMARK  6 active torsions:
REMARK  status: ('A' for Active; 'I' for Inactive)
REMARK    1  A    between atoms: C4_4  and  C5_5 
REMARK    2  A    between atoms: N1_11  and  C8_12 
REMARK    3  A    between atoms: C8_12  and  C9_13 
REMARK    4  A    between atoms: C9_13  and  N2_14 
REMARK    5  A    between atoms: C11_16  and  C12_17 
REMARK    6  A    between atoms: C18_23  and  N3_24 
ROOT
HETATM    1  N2  UNL     1      -6.509  -8.516 -17.998  1.00  0.00    -0.340 N 
HETATM    2  C10 UNL     1      -6.326  -8.927 -19.247  1.00  0.00     0.101 A 
HETATM    3  C11 UNL     1      -7.185  -9.990 -19.553  1.00  0.00    -0.021 A 
HETATM    4  C17 UNL     1      -7.907 -10.196 -18.391  1.00  0.00     0.060 A 
HETATM    5  C18 UNL     1      -8.900 -11.067 -18.014  1.00  0.00     0.114 A 
HETATM    6  N4  UNL     1      -9.422 -11.010 -16.758  1.00  0.00    -0.338 N 
ATOM      7  H4  UNL     1     -10.158 -11.659 -16.481  1.00  0.00     0.168 HD
HETATM    8  C19 UNL     1      -8.970 -10.110 -15.894  1.00  0.00     0.183 A 
HETATM    9  N5  UNL     1      -8.016  -9.246 -16.201  1.00  0.00    -0.338 N 
ATOM     10  H5  UNL     1      -7.693  -8.568 -15.510  1.00  0.00     0.168 HD
HETATM   11  C20 UNL     1      -7.473  -9.271 -17.441  1.00  0.00     0.123 A 
ENDROOT
BRANCH   1  12
HETATM   12  C9  UNL     1      -5.810  -7.440 -17.327  1.00  0.00     0.160 C 
BRANCH  12  13
HETATM   13  C8  UNL     1      -6.679  -6.227 -17.313  1.00  0.00     0.293 C 
BRANCH  13  14
HETATM   14  N1  UNL     1      -6.937  -5.667 -16.017  1.00  0.00     0.094 N 
HETATM   15  C2  UNL     1      -8.348  -5.764 -15.727  1.00  0.00     0.219 C 
HETATM   16  C1  UNL     1      -9.068  -4.460 -16.032  1.00  0.00     0.043 C 
HETATM   17  C3  UNL     1      -8.642  -6.141 -14.309  1.00  0.00     0.049 C 
HETATM   18  C4  UNL     1      -7.695  -5.420 -13.345  1.00  0.00     0.097 C 
HETATM   19  C6  UNL     1      -6.262  -5.829 -13.658  1.00  0.00     0.044 C 
HETATM   20  C7  UNL     1      -6.214  -6.450 -15.038  1.00  0.00     0.273 C 
BRANCH  18  21
HETATM   21  C5  UNL     1      -8.097  -5.802 -11.957  1.00  0.00     0.391 C 
HETATM   22  F1  UNL     1      -9.437  -6.156 -11.974  1.00  0.00    -0.171 F 
HETATM   23  F2  UNL     1      -7.375  -6.873 -11.467  1.00  0.00    -0.171 F 
HETATM   24  F3  UNL     1      -7.990  -4.741 -11.070  1.00  0.00    -0.171 F 
ENDBRANCH  18  21
ENDBRANCH  13  14
ENDBRANCH  12  13
ENDBRANCH   1  12
BRANCH   3  25
HETATM   25  C12 UNL     1      -7.260 -10.716 -20.834  1.00  0.00     0.021 C 
HETATM   26  C13 UNL     1      -6.828  -9.702 -21.931  1.00  0.00     0.009 C 
HETATM   27  C14 UNL     1      -6.701 -10.611 -23.136  1.00  0.00     0.001 C 
HETATM   28  C15 UNL     1      -6.164 -11.912 -22.539  1.00  0.00     0.001 C 
HETATM   29  C16 UNL     1      -6.125 -11.707 -21.038  1.00  0.00     0.009 C 
ENDBRANCH   3  25
BRANCH   5  30
HETATM   30  N3  UNL     1      -9.369 -11.923 -18.786  1.00  0.00    -0.385 N 
ATOM     31  H32 UNL     1     -10.331 -12.220 -18.623  1.00  0.00     0.157 HD
ATOM     32  H31 UNL     1      -8.834 -12.315 -19.560  1.00  0.00     0.157 HD
ENDBRANCH   5  30
TORSDOF 6
ENDMDL
MODEL 4
REMARK VINA RESULT: -8.856671041      3.067      3.840
REMARK  6 active torsions:
REMARK  status: ('A' for Active; 'I' for Inactive)
REMARK    1  A    between atoms: C4_4  and  C5_5 
REMARK    2  A    between atoms: N1_11  and  C8_12 
REMARK    3  A    between atoms: C8_12  and  C9_13 
REMARK    4  A    between atoms: C9_13  and  N2_14 
REMARK    5  A    between atoms: C11_16  and  C12_17 
REMARK    6  A    between atoms: C18_23  and  N3_24 
ROOT
HETATM    1  N2  UNL     1      -6.836  -8.346 -19.173  1.00  0.00    -0.340 N 
HETATM    2  C10 UNL     1      -7.367  -8.511 -17.968  1.00  0.00     0.101 A 
HETATM    3  C11 UNL     1      -7.952  -9.777 -17.849  1.00  0.00    -0.021 A 
HETATM    4  C17 UNL     1      -7.736 -10.374 -19.079  1.00  0.00     0.060 A 
HETATM    5  C18 UNL     1      -8.044 -11.595 -19.626  1.00  0.00     0.114 A 
HETATM    6  N4  UNL     1      -7.678 -11.886 -20.904  1.00  0.00    -0.338 N 
ATOM      7  H4  UNL     1      -7.909 -12.794 -21.308  1.00  0.00     0.168 HD
HETATM    8  C19 UNL     1      -7.020 -10.987 -21.624  1.00  0.00     0.183 A 
HETATM    9  N5  UNL     1      -6.695  -9.795 -21.151  1.00  0.00    -0.338 N 
ATOM     10  H5  UNL     1      -6.189  -9.129 -21.735  1.00  0.00     0.168 HD
HETATM   11  C20 UNL     1      -7.043  -9.469 -19.883  1.00  0.00     0.123 A 
ENDROOT
BRANCH   1  12
HETATM   12  C9  UNL     1      -6.145  -7.172 -19.664  1.00  0.00     0.160 C 
BRANCH  12  13
HETATM   13  C8  UNL     1      -5.210  -6.680 -18.610  1.00  0.00     0.293 C 
BRANCH  13  14
HETATM   14  N1  UNL     1      -5.335  -5.290 -18.273  1.00  0.00     0.094 N 
HETATM   15  C2  UNL     1      -5.540  -5.160 -16.851  1.00  0.00     0.219 C 
HETATM   16  C1  UNL     1      -7.014  -4.999 -16.515  1.00  0.00     0.043 C 
HETATM   17  C3  UNL     1      -4.792  -4.014 -16.242  1.00  0.00     0.049 C 
HETATM   18  C4  UNL     1      -4.842  -2.784 -17.153  1.00  0.00     0.097 C 
HETATM   19  C6  UNL     1      -4.186  -3.126 -18.484  1.00  0.00     0.044 C 
HETATM   20  C7  UNL     1      -4.094  -4.631 -18.619  1.00  0.00     0.273 C 
BRANCH  18  21
HETATM   21  C5  UNL     1      -4.131  -1.677 -16.446  1.00  0.00     0.391 C 
HETATM   22  F1  UNL     1      -4.255  -1.882 -15.081  1.00  0.00    -0.171 F 
HETATM   23  F2  UNL     1      -2.785  -1.623 -16.752  1.00  0.00    -0.171 F 
HETATM   24  F3  UNL     1      -4.703  -0.439 -16.702  1.00  0.00    -0.171 F 
ENDBRANCH  18  21
ENDBRANCH  13  14
ENDBRANCH  12  13
ENDBRANCH   1  12
BRANCH   3  25
HETATM   25  C12 UNL     1      -8.650 -10.314 -16.666  1.00  0.00     0.021 C 
HETATM   26  C13 UNL     1      -8.571  -9.206 -15.578  1.00  0.00     0.009 C 
HETATM   27  C14 UNL     1      -9.518  -9.755 -14.531  1.00  0.00     0.001 C 
HETATM   28  C15 UNL     1     -10.607 -10.433 -15.365  1.00  0.00     0.001 C 
HETATM   29  C16 UNL     1     -10.163 -10.329 -16.810  1.00  0.00     0.009 C 
ENDBRANCH   3  25
BRANCH   5  30
HETATM   30  N3  UNL     1      -8.649 -12.479 -18.992  1.00  0.00    -0.385 N 
ATOM     31  H32 UNL     1      -8.596 -12.441 -17.974  1.00  0.00     0.157 HD
ATOM     32  H31 UNL     1      -9.186 -13.214 -19.452  1.00  0.00     0.157 HD
ENDBRANCH   5  30
TORSDOF 6
ENDMDL
MODEL 5
REMARK VINA RESULT: -8.843701544      2.170      2.790
REMARK  6 active torsions:
REMARK  status: ('A' for Active; 'I' for Inactive)
REMARK    1  A    between atoms: C4_4  and  C5_5 
REMARK    2  A    between atoms: N1_11  and  C8_12 
REMARK    3  A    between atoms: C8_12  and  C9_13 
REMARK    4  A    between atoms: C9_13  and  N2_14 
REMARK    5  A    between atoms: C11_16  and  C12_17 
REMARK    6  A    between atoms: C18_23  and  N3_24 
ROOT
HETATM    1  N2  UNL     1      -6.675  -8.426 -19.336  1.00  0.00    -0.340 N 
HETATM    2  C10 UNL     1      -7.262  -8.608 -18.159  1.00  0.00     0.101 A 
HETATM    3  C11 UNL     1      -7.870  -9.867 -18.094  1.00  0.00    -0.021 A 
HETATM    4  C17 UNL     1      -7.609 -10.440 -19.326  1.00  0.00     0.060 A 
HETATM    5  C18 UNL     1      -7.911 -11.645 -19.912  1.00  0.00     0.114 A 
HETATM    6  N4  UNL     1      -7.493 -11.915 -21.179  1.00  0.00    -0.338 N 
ATOM      7  H4  UNL     1      -7.720 -12.811 -21.612  1.00  0.00     0.168 HD
HETATM    8  C19 UNL     1      -6.790 -11.012 -21.850  1.00  0.00     0.183 A 
HETATM    9  N5  UNL     1      -6.469  -9.835 -21.337  1.00  0.00    -0.338 N 
ATOM     10  H5  UNL     1      -5.927  -9.165 -21.884  1.00  0.00     0.168 HD
HETATM   11  C20 UNL     1      -6.867  -9.531 -20.079  1.00  0.00     0.123 A 
ENDROOT
BRANCH   1  12
HETATM   12  C9  UNL     1      -5.945  -7.253 -19.771  1.00  0.00     0.160 C 
BRANCH  12  13
HETATM   13  C8  UNL     1      -4.607  -7.239 -19.111  1.00  0.00     0.293 C 
BRANCH  13  14
HETATM   14  N1  UNL     1      -4.446  -6.273 -18.061  1.00  0.00     0.094 N 
HETATM   15  C2  UNL     1      -5.353  -5.173 -18.282  1.00  0.00     0.219 C 
HETATM   16  C1  UNL     1      -4.654  -4.007 -18.965  1.00  0.00     0.043 C 
HETATM   17  C3  UNL     1      -5.993  -4.665 -17.028  1.00  0.00     0.049 C 
HETATM   18  C4  UNL     1      -4.983  -4.625 -15.877  1.00  0.00     0.097 C 
HETATM   19  C6  UNL     1      -4.476  -6.037 -15.614  1.00  0.00     0.044 C 
HETATM   20  C7  UNL     1      -4.795  -6.909 -16.809  1.00  0.00     0.273 C 
BRANCH  18  21
HETATM   21  C5  UNL     1      -5.685  -4.051 -14.689  1.00  0.00     0.391 C 
HETATM   22  F1  UNL     1      -7.011  -3.835 -15.029  1.00  0.00    -0.171 F 
HETATM   23  F2  UNL     1      -5.652  -4.889 -13.592  1.00  0.00    -0.171 F 
HETATM   24  F3  UNL     1      -5.174  -2.813 -14.327  1.00  0.00    -0.171 F 
ENDBRANCH  18  21
ENDBRANCH  13  14
ENDBRANCH  12  13
ENDBRANCH   1  12
BRANCH   3  25
HETATM   25  C12 UNL     1      -8.628 -10.417 -16.955  1.00  0.00     0.021 C 
HETATM   26  C13 UNL     1      -8.509  -9.370 -15.811  1.00  0.00     0.009 C 
HETATM   27  C14 UNL     1      -9.513  -9.911 -14.814  1.00  0.00     0.001 C 
HETATM   28  C15 UNL     1     -10.620 -10.478 -15.703  1.00  0.00     0.001 C 
HETATM   29  C16 UNL     1     -10.136 -10.331 -17.132  1.00  0.00     0.009 C 
ENDBRANCH   3  25
BRANCH   5  30
HETATM   30  N3  UNL     1      -8.557 -12.533 -19.325  1.00  0.00    -0.385 N 
ATOM     31  H32 UNL     1      -8.215 -12.830 -18.411  1.00  0.00     0.157 HD
ATOM     32  H31 UNL     1      -9.399 -12.951 -19.720  1.00  0.00     0.157 HD
ENDBRANCH   5  30
TORSDOF 6
ENDMDL
