MODEL 1
REMARK VINA RESULT: -8.041156457      0.000      0.000
REMARK  7 active torsions:
REMARK  status: ('A' for Active; 'I' for Inactive)
REMARK    1  A    between atoms: C2_2  and  N1_4 
REMARK    2  A    between atoms: C4_5  and  C5_6 
REMARK    3  A    between atoms: C8_9  and  N2_10 
REMARK    4  A    between atoms: C11_13  and  N3_14 
REMARK    5  A    between atoms: C16_22  and  C17_23 
REMARK    6  A    between atoms: C17_23  and  N4_24 
REMARK    7  A    between atoms: C19_29  and  C21_31 
ROOT
HETATM    1  N1  UNL     1      -6.354  -6.396 -16.203  1.00  0.00    -0.358 N 
HETATM    2  C4  UNL     1      -7.102  -7.560 -16.469  1.00  0.00     0.046 C 
HETATM    3  C16 UNL     1      -7.881  -7.863 -15.424  1.00  0.00    -0.025 C 
HETATM    4  C18 UNL     1      -7.647  -6.853 -14.358  1.00  0.00     0.078 C 
HETATM    5  C19 UNL     1      -7.114  -5.692 -15.146  1.00  0.00     0.131 C 
HETATM    6  C20 UNL     1      -6.180  -4.856 -14.297  1.00  0.00     0.048 C 
ENDROOT
BRANCH   2   7
HETATM    7  C5  UNL     1      -7.138  -8.345 -17.692  1.00  0.00    -0.009 A 
HETATM    8  C6  UNL     1      -7.092  -9.711 -17.700  1.00  0.00     0.016 A 
HETATM    9  C7  UNL     1      -7.095 -10.423 -18.914  1.00  0.00     0.030 A 
HETATM   10  C8  UNL     1      -7.144  -9.803 -20.129  1.00  0.00     0.030 A 
HETATM   11  C14 UNL     1      -7.191  -8.405 -20.132  1.00  0.00     0.030 A 
HETATM   12  C15 UNL     1      -7.188  -7.727 -18.943  1.00  0.00     0.016 A 
BRANCH  10  13
HETATM   13  N2  UNL     1      -7.157 -10.525 -21.350  1.00  0.00    -0.381 N 
HETATM   14  C9  UNL     1      -7.162 -11.962 -21.426  1.00  0.00     0.125 C 
HETATM   15  C10 UNL     1      -8.244 -12.360 -22.437  1.00  0.00     0.052 C 
HETATM   16  C11 UNL     1      -7.784 -11.892 -23.786  1.00  0.00     0.186 C 
HETATM   17  C12 UNL     1      -6.725 -10.814 -23.684  1.00  0.00     0.052 C 
HETATM   18  C13 UNL     1      -7.164  -9.813 -22.626  1.00  0.00     0.125 C 
BRANCH  16  19
HETATM   19  N3  UNL     1      -7.232 -13.014 -24.482  1.00  0.00    -0.075 N 
ATOM     20  H33 UNL     1      -6.509 -13.494 -23.945  1.00  0.00     0.274 HD
ATOM     21  H32 UNL     1      -7.886 -13.792 -24.557  1.00  0.00     0.274 HD
ATOM     22  H31 UNL     1      -6.898 -12.691 -25.391  1.00  0.00     0.274 HD
ENDBRANCH  16  19
ENDBRANCH  10  13
ENDBRANCH   2   7
BRANCH   1  23
HETATM   23  C2  UNL     1      -5.131  -5.879 -16.747  1.00  0.00     0.077 C 
HETATM   24  C1  UNL     1      -5.301  -4.941 -17.907  1.00  0.00     0.032 C 
HETATM   25  C3  UNL     1      -4.067  -6.880 -17.046  1.00  0.00     0.032 C 
ENDBRANCH   1  23
BRANCH   3  26
HETATM   26  C17 UNL     1      -8.818  -8.995 -15.279  1.00  0.00     0.266 C 
BRANCH  26  27
HETATM   27  N4  UNL     1      -9.096  -9.239 -13.849  1.00  0.00    -0.076 N 
ATOM     28  H43 UNL     1      -8.367  -8.858 -13.247  1.00  0.00     0.274 HD
ATOM     29  H42 UNL     1      -9.877  -8.678 -13.510  1.00  0.00     0.274 HD
ATOM     30  H41 UNL     1      -9.242 -10.236 -13.689  1.00  0.00     0.274 HD
ENDBRANCH  26  27
ENDBRANCH   3  26
BRANCH   5  31
HETATM   31  C21 UNL     1      -8.241  -4.878 -15.701  1.00  0.00     0.412 C 
HETATM   32  F1  UNL     1      -9.429  -5.062 -15.065  1.00  0.00    -0.168 F 
HETATM   33  F2  UNL     1      -7.892  -3.543 -15.514  1.00  0.00    -0.168 F 
HETATM   34  F3  UNL     1      -8.447  -5.119 -17.050  1.00  0.00    -0.168 F 
ENDBRANCH   5  31
TORSDOF 7
ENDMDL
MODEL 2
REMARK VINA RESULT: -7.977170308      1.307      1.523
REMARK  7 active torsions:
REMARK  status: ('A' for Active; 'I' for Inactive)
REMARK    1  A    between atoms: C2_2  and  N1_4 
REMARK    2  A    between atoms: C4_5  and  C5_6 
REMARK    3  A    between atoms: C8_9  and  N2_10 
REMARK    4  A    between atoms: C11_13  and  N3_14 
REMARK    5  A    between atoms: C16_22  and  C17_23 
REMARK    6  A    between atoms: C17_23  and  N4_24 
REMARK    7  A    between atoms: C19_29  and  C21_31 
ROOT
HETATM    1  N1  UNL     1      -6.335  -6.089 -16.377  1.00  0.00    -0.358 N 
HETATM    2  C4  UNL     1      -6.877  -7.373 -16.174  1.00  0.00     0.046 C 
HETATM    3  C16 UNL     1      -7.297  -7.509 -14.911  1.00  0.00    -0.025 C 
HETATM    4  C18 UNL     1      -7.015  -6.242 -14.186  1.00  0.00     0.078 C 
HETATM    5  C19 UNL     1      -6.935  -5.253 -15.313  1.00  0.00     0.131 C 
HETATM    6  C20 UNL     1      -6.008  -4.112 -14.957  1.00  0.00     0.048 C 
ENDROOT
BRANCH   2   7
HETATM    7  C5  UNL     1      -7.057  -8.437 -17.149  1.00  0.00    -0.009 A 
HETATM    8  C6  UNL     1      -6.048  -8.885 -17.955  1.00  0.00     0.016 A 
HETATM    9  C7  UNL     1      -6.283  -9.895 -18.907  1.00  0.00     0.030 A 
HETATM   10  C8  UNL     1      -7.508 -10.472 -19.077  1.00  0.00     0.030 A 
HETATM   11  C14 UNL     1      -8.548 -10.022 -18.257  1.00  0.00     0.030 A 
HETATM   12  C15 UNL     1      -8.303  -9.040 -17.336  1.00  0.00     0.016 A 
BRANCH  10  13
HETATM   13  N2  UNL     1      -7.738 -11.497 -20.031  1.00  0.00    -0.381 N 
HETATM   14  C9  UNL     1      -8.406 -12.736 -19.725  1.00  0.00     0.125 C 
HETATM   15  C10 UNL     1      -9.444 -12.976 -20.827  1.00  0.00     0.052 C 
HETATM   16  C11 UNL     1      -8.691 -13.234 -22.098  1.00  0.00     0.186 C 
HETATM   17  C12 UNL     1      -7.266 -12.724 -22.029  1.00  0.00     0.052 C 
HETATM   18  C13 UNL     1      -7.287 -11.333 -21.411  1.00  0.00     0.125 C 
BRANCH  16  19
HETATM   19  N3  UNL     1      -8.660 -14.648 -22.319  1.00  0.00    -0.075 N 
ATOM     20  H33 UNL     1      -9.583 -15.036 -22.516  1.00  0.00     0.274 HD
ATOM     21  H32 UNL     1      -8.215 -14.899 -23.200  1.00  0.00     0.274 HD
ATOM     22  H31 UNL     1      -8.214 -15.087 -21.513  1.00  0.00     0.274 HD
ENDBRANCH  16  19
ENDBRANCH  10  13
ENDBRANCH   2   7
BRANCH   1  23
HETATM   23  C2  UNL     1      -5.413  -5.562 -17.342  1.00  0.00     0.077 C 
HETATM   24  C1  UNL     1      -5.925  -5.528 -18.754  1.00  0.00     0.032 C 
HETATM   25  C3  UNL     1      -4.032  -6.123 -17.310  1.00  0.00     0.032 C 
ENDBRANCH   1  23
BRANCH   3  26
HETATM   26  C17 UNL     1      -7.923  -8.685 -14.276  1.00  0.00     0.266 C 
BRANCH  26  27
HETATM   27  N4  UNL     1      -9.239  -8.315 -13.717  1.00  0.00    -0.076 N 
ATOM     28  H43 UNL     1      -9.201  -8.175 -12.708  1.00  0.00     0.274 HD
ATOM     29  H42 UNL     1      -9.519  -7.372 -13.988  1.00  0.00     0.274 HD
ATOM     30  H41 UNL     1      -9.937  -9.011 -13.981  1.00  0.00     0.274 HD
ENDBRANCH  26  27
ENDBRANCH   3  26
BRANCH   5  31
HETATM   31  C21 UNL     1      -8.304  -4.767 -15.676  1.00  0.00     0.412 C 
HETATM   32  F1  UNL     1      -9.292  -5.215 -14.855  1.00  0.00    -0.168 F 
HETATM   33  F2  UNL     1      -8.277  -3.380 -15.545  1.00  0.00    -0.168 F 
HETATM   34  F3  UNL     1      -8.654  -5.103 -16.973  1.00  0.00    -0.168 F 
ENDBRANCH   5  31
TORSDOF 7
ENDMDL
MODEL 3
REMARK VINA RESULT: -7.968524855      0.379      1.010
REMARK  7 active torsions:
REMARK  status: ('A' for Active; 'I' for Inactive)
REMARK    1  A    between atoms: C2_2  and  N1_4 
REMARK    2  A    between atoms: C4_5  and  C5_6 
REMARK    3  A    between atoms: C8_9  and  N2_10 
REMARK    4  A    between atoms: C11_13  and  N3_14 
REMARK    5  A    between atoms: C16_22  and  C17_23 
REMARK    6  A    between atoms: C17_23  and  N4_24 
REMARK    7  A    between atoms: C19_29  and  C21_31 
ROOT
HETATM    1  N1  UNL     1      -6.364  -6.387 -16.184  1.00  0.00    -0.358 N 
HETATM    2  C4  UNL     1      -7.107  -7.551 -16.466  1.00  0.00     0.046 C 
HETATM    3  C16 UNL     1      -7.899  -7.861 -15.434  1.00  0.00    -0.025 C 
HETATM    4  C18 UNL     1      -7.682  -6.858 -14.359  1.00  0.00     0.078 C 
HETATM    5  C19 UNL     1      -7.138  -5.691 -15.132  1.00  0.00     0.131 C 
HETATM    6  C20 UNL     1      -6.217  -4.860 -14.266  1.00  0.00     0.048 C 
ENDROOT
BRANCH   2   7
HETATM    7  C5  UNL     1      -7.127  -8.328 -17.695  1.00  0.00    -0.009 A 
HETATM    8  C6  UNL     1      -7.041  -9.692 -17.713  1.00  0.00     0.016 A 
HETATM    9  C7  UNL     1      -7.029 -10.396 -18.932  1.00  0.00     0.030 A 
HETATM   10  C8  UNL     1      -7.101  -9.768 -20.142  1.00  0.00     0.030 A 
HETATM   11  C14 UNL     1      -7.189  -8.372 -20.135  1.00  0.00     0.030 A 
HETATM   12  C15 UNL     1      -7.200  -7.703 -18.942  1.00  0.00     0.016 A 
BRANCH  10  13
HETATM   13  N2  UNL     1      -7.100 -10.482 -21.368  1.00  0.00    -0.381 N 
HETATM   14  C9  UNL     1      -7.134  -9.847 -22.660  1.00  0.00     0.125 C 
HETATM   15  C10 UNL     1      -6.057 -10.515 -23.523  1.00  0.00     0.052 C 
HETATM   16  C11 UNL     1      -6.495 -11.929 -23.764  1.00  0.00     0.186 C 
HETATM   17  C12 UNL     1      -7.525 -12.386 -22.751  1.00  0.00     0.052 C 
HETATM   18  C13 UNL     1      -7.065 -11.943 -21.370  1.00  0.00     0.125 C 
BRANCH  16  19
HETATM   19  N3  UNL     1      -7.074 -12.000 -25.070  1.00  0.00    -0.075 N 
ATOM     20  H33 UNL     1      -7.992 -12.446 -25.071  1.00  0.00     0.274 HD
ATOM     21  H32 UNL     1      -7.364 -11.088 -25.423  1.00  0.00     0.274 HD
ATOM     22  H31 UNL     1      -6.409 -12.468 -25.688  1.00  0.00     0.274 HD
ENDBRANCH  16  19
ENDBRANCH  10  13
ENDBRANCH   2   7
BRANCH   1  23
HETATM   23  C2  UNL     1      -5.135  -5.866 -16.708  1.00  0.00     0.077 C 
HETATM   24  C1  UNL     1      -5.291  -4.911 -17.856  1.00  0.00     0.032 C 
HETATM   25  C3  UNL     1      -4.070  -6.865 -17.011  1.00  0.00     0.032 C 
ENDBRANCH   1  23
BRANCH   3  26
HETATM   26  C17 UNL     1      -8.837  -8.995 -15.308  1.00  0.00     0.266 C 
BRANCH  26  27
HETATM   27  N4  UNL     1      -9.148  -9.236 -13.885  1.00  0.00    -0.076 N 
ATOM     28  H43 UNL     1      -8.943 -10.195 -13.606  1.00  0.00     0.274 HD
ATOM     29  H42 UNL     1      -8.496  -8.757 -13.264  1.00  0.00     0.274 HD
ATOM     30  H41 UNL     1     -10.117  -8.981 -13.693  1.00  0.00     0.274 HD
ENDBRANCH  26  27
ENDBRANCH   3  26
BRANCH   5  31
HETATM   31  C21 UNL     1      -8.260  -4.875 -15.697  1.00  0.00     0.412 C 
HETATM   32  F1  UNL     1      -9.456  -5.065 -15.078  1.00  0.00    -0.168 F 
HETATM   33  F2  UNL     1      -7.915  -3.540 -15.496  1.00  0.00    -0.168 F 
HETATM   34  F3  UNL     1      -8.447  -5.107 -17.050  1.00  0.00    -0.168 F 
ENDBRANCH   5  31
TORSDOF 7
ENDMDL
MODEL 4
REMARK VINA RESULT: -7.307442002      4.708      9.404
REMARK  7 active torsions:
REMARK  status: ('A' for Active; 'I' for Inactive)
REMARK    1  A    between atoms: C2_2  and  N1_4 
REMARK    2  A    between atoms: C4_5  and  C5_6 
REMARK    3  A    between atoms: C8_9  and  N2_10 
REMARK    4  A    between atoms: C11_13  and  N3_14 
REMARK    5  A    between atoms: C16_22  and  C17_23 
REMARK    6  A    between atoms: C17_23  and  N4_24 
REMARK    7  A    between atoms: C19_29  and  C21_31 
ROOT
HETATM    1  N1  UNL     1      -5.373  -5.813 -17.599  1.00  0.00    -0.358 N 
HETATM    2  C4  UNL     1      -5.892  -4.750 -16.834  1.00  0.00     0.046 C 
HETATM    3  C16 UNL     1      -7.088  -5.076 -16.332  1.00  0.00    -0.025 C 
HETATM    4  C18 UNL     1      -7.429  -6.449 -16.789  1.00  0.00     0.078 C 
HETATM    5  C19 UNL     1      -6.074  -7.016 -17.097  1.00  0.00     0.131 C 
HETATM    6  C20 UNL     1      -6.169  -8.061 -18.187  1.00  0.00     0.048 C 
ENDROOT
BRANCH   2   7
HETATM    7  C5  UNL     1      -5.264  -3.475 -16.526  1.00  0.00    -0.009 A 
HETATM    8  C6  UNL     1      -4.739  -2.654 -17.484  1.00  0.00     0.016 A 
HETATM    9  C7  UNL     1      -4.111  -1.445 -17.129  1.00  0.00     0.030 A 
HETATM   10  C8  UNL     1      -3.991  -1.033 -15.833  1.00  0.00     0.030 A 
HETATM   11  C14 UNL     1      -4.525  -1.866 -14.845  1.00  0.00     0.030 A 
HETATM   12  C15 UNL     1      -5.133  -3.037 -15.206  1.00  0.00     0.016 A 
BRANCH  10  13
HETATM   13  N2  UNL     1      -3.366   0.191 -15.481  1.00  0.00    -0.381 N 
HETATM   14  C9  UNL     1      -2.541   0.953 -16.381  1.00  0.00     0.125 C 
HETATM   15  C10 UNL     1      -2.996   2.414 -16.288  1.00  0.00     0.052 C 
HETATM   16  C11 UNL     1      -2.641   2.902 -14.915  1.00  0.00     0.186 C 
HETATM   17  C12 UNL     1      -2.421   1.761 -13.944  1.00  0.00     0.052 C 
HETATM   18  C13 UNL     1      -3.538   0.746 -14.140  1.00  0.00     0.125 C 
BRANCH  16  19
HETATM   19  N3  UNL     1      -1.433   3.663 -15.010  1.00  0.00    -0.075 N 
ATOM     20  H33 UNL     1      -0.624   3.167 -14.634  1.00  0.00     0.274 HD
ATOM     21  H32 UNL     1      -1.102   3.756 -15.970  1.00  0.00     0.274 HD
ATOM     22  H31 UNL     1      -1.587   4.564 -14.558  1.00  0.00     0.274 HD
ENDBRANCH  16  19
ENDBRANCH  10  13
ENDBRANCH   2   7
BRANCH   1  23
HETATM   23  C2  UNL     1      -4.396  -5.873 -18.648  1.00  0.00     0.077 C 
HETATM   24  C1  UNL     1      -2.984  -5.599 -18.214  1.00  0.00     0.032 C 
HETATM   25  C3  UNL     1      -4.711  -5.106 -19.888  1.00  0.00     0.032 C 
ENDBRANCH   1  23
BRANCH   3  26
HETATM   26  C17 UNL     1      -7.975  -4.260 -15.479  1.00  0.00     0.266 C 
BRANCH  26  27
HETATM   27  N4  UNL     1      -9.376  -4.410 -15.921  1.00  0.00    -0.076 N 
ATOM     28  H43 UNL     1     -10.028  -3.941 -15.293  1.00  0.00     0.274 HD
ATOM     29  H42 UNL     1      -9.570  -3.872 -16.766  1.00  0.00     0.274 HD
ATOM     30  H41 UNL     1      -9.601  -5.398 -16.037  1.00  0.00     0.274 HD
ENDBRANCH  26  27
ENDBRANCH   3  26
BRANCH   5  31
HETATM   31  C21 UNL     1      -5.445  -7.563 -15.854  1.00  0.00     0.412 C 
HETATM   32  F1  UNL     1      -4.396  -6.832 -15.389  1.00  0.00    -0.168 F 
HETATM   33  F2  UNL     1      -6.426  -7.524 -14.866  1.00  0.00    -0.168 F 
HETATM   34  F3  UNL     1      -5.005  -8.867 -16.018  1.00  0.00    -0.168 F 
ENDBRANCH   5  31
TORSDOF 7
ENDMDL
MODEL 5
REMARK VINA RESULT: -7.232669238      4.425      8.811
REMARK  7 active torsions:
REMARK  status: ('A' for Active; 'I' for Inactive)
REMARK    1  A    between atoms: C2_2  and  N1_4 
REMARK    2  A    between atoms: C4_5  and  C5_6 
REMARK    3  A    between atoms: C8_9  and  N2_10 
REMARK    4  A    between atoms: C11_13  and  N3_14 
REMARK    5  A    between atoms: C16_22  and  C17_23 
REMARK    6  A    between atoms: C17_23  and  N4_24 
REMARK    7  A    between atoms: C19_29  and  C21_31 
ROOT
HETATM    1  N1  UNL     1      -4.765 -11.643 -22.785  1.00  0.00    -0.358 N 
HETATM    2  C4  UNL     1      -5.919 -10.922 -22.418  1.00  0.00     0.046 C 
HETATM    3  C16 UNL     1      -6.668 -10.660 -23.495  1.00  0.00    -0.025 C 
HETATM    4  C18 UNL     1      -5.983 -11.222 -24.689  1.00  0.00     0.078 C 
HETATM    5  C19 UNL     1      -5.112 -12.279 -24.075  1.00  0.00     0.131 C 
HETATM    6  C20 UNL     1      -3.866 -12.492 -24.907  1.00  0.00     0.048 C 
ENDROOT
BRANCH   2   7
HETATM    7  C5  UNL     1      -6.349 -10.534 -21.084  1.00  0.00    -0.009 A 
HETATM    8  C6  UNL     1      -5.942  -9.378 -20.479  1.00  0.00     0.016 A 
HETATM    9  C7  UNL     1      -6.361  -9.065 -19.172  1.00  0.00     0.030 A 
HETATM   10  C8  UNL     1      -7.181  -9.882 -18.449  1.00  0.00     0.030 A 
HETATM   11  C14 UNL     1      -7.604 -11.068 -19.059  1.00  0.00     0.030 A 
HETATM   12  C15 UNL     1      -7.188 -11.357 -20.330  1.00  0.00     0.016 A 
BRANCH  10  13
HETATM   13  N2  UNL     1      -7.609  -9.558 -17.135  1.00  0.00    -0.381 N 
HETATM   14  C9  UNL     1      -6.816  -8.800 -16.203  1.00  0.00     0.125 C 
HETATM   15  C10 UNL     1      -7.729  -7.730 -15.595  1.00  0.00     0.052 C 
HETATM   16  C11 UNL     1      -8.753  -8.440 -14.760  1.00  0.00     0.186 C 
HETATM   17  C12 UNL     1      -8.881  -9.901 -15.140  1.00  0.00     0.052 C 
HETATM   18  C13 UNL     1      -8.918  -9.998 -16.658  1.00  0.00     0.125 C 
BRANCH  16  19
HETATM   19  N3  UNL     1      -8.347  -8.357 -13.390  1.00  0.00    -0.075 N 
ATOM     20  H33 UNL     1      -7.478  -7.836 -13.268  1.00  0.00     0.274 HD
ATOM     21  H32 UNL     1      -8.950  -7.748 -12.838  1.00  0.00     0.274 HD
ATOM     22  H31 UNL     1      -8.294  -9.305 -13.016  1.00  0.00     0.274 HD
ENDBRANCH  16  19
ENDBRANCH  10  13
ENDBRANCH   2   7
BRANCH   1  23
HETATM   23  C2  UNL     1      -3.485 -11.816 -22.160  1.00  0.00     0.077 C 
HETATM   24  C1  UNL     1      -3.507 -12.601 -20.880  1.00  0.00     0.032 C 
HETATM   25  C3  UNL     1      -2.660 -10.585 -21.995  1.00  0.00     0.032 C 
ENDBRANCH   1  23
BRANCH   3  26
HETATM   26  C17 UNL     1      -7.951  -9.932 -23.562  1.00  0.00     0.266 C 
BRANCH  26  27
HETATM   27  N4  UNL     1      -8.494  -9.994 -24.933  1.00  0.00    -0.076 N 
ATOM     28  H43 UNL     1      -7.933 -10.590 -25.541  1.00  0.00     0.274 HD
ATOM     29  H42 UNL     1      -9.368 -10.520 -24.975  1.00  0.00     0.274 HD
ATOM     30  H41 UNL     1      -8.597  -9.052 -25.310  1.00  0.00     0.274 HD
ENDBRANCH  26  27
ENDBRANCH   3  26
BRANCH   5  31
HETATM   31  C21 UNL     1      -5.885 -13.549 -23.894  1.00  0.00     0.412 C 
HETATM   32  F1  UNL     1      -7.135 -13.524 -24.431  1.00  0.00    -0.168 F 
HETATM   33  F2  UNL     1      -5.180 -14.540 -24.573  1.00  0.00    -0.168 F 
HETATM   34  F3  UNL     1      -6.011 -13.900 -22.560  1.00  0.00    -0.168 F 
ENDBRANCH   5  31
TORSDOF 7
ENDMDL
