MODEL 1
REMARK VINA RESULT: -8.422360374      0.000      0.000
REMARK  7 active torsions:
REMARK  status: ('A' for Active; 'I' for Inactive)
REMARK    1  A    between atoms: N1_8  and  O1_10 
REMARK    2  A    between atoms: C8_12  and  N2_13 
REMARK    3  A    between atoms: N2_13  and  C9_14 
REMARK    4  A    between atoms: C12_17  and  C13_18 
REMARK    5  A    between atoms: C15_25  and  C16_26 
REMARK    6  A    between atoms: C17_27  and  C18_28 
REMARK    7  A    between atoms: C18_28  and  N4_29 
ROOT
HETATM    1  C1  UNL     1      -9.147 -11.443 -17.903  1.00  0.00     0.044 C 
HETATM    2  C2  UNL     1      -8.092 -10.784 -18.771  1.00  0.00    -0.075 C 
HETATM    3  C3  UNL     1      -7.665 -11.478 -19.781  1.00  0.00    -0.009 C 
HETATM    4  C4  UNL     1      -6.600 -10.856 -20.688  1.00  0.00     0.014 C 
HETATM    5  C5  UNL     1      -7.108 -11.218 -22.086  1.00  0.00     0.025 C 
HETATM    6  C6  UNL     1      -5.249 -11.454 -20.464  1.00  0.00     0.025 C 
HETATM    7  C7  UNL     1      -6.669  -9.455 -20.404  1.00  0.00     0.058 C 
HETATM    8  N1  UNL     1      -7.028  -8.526 -21.149  1.00  0.00    -0.273 N 
ATOM      9  H1  UNL     1      -6.985  -7.601 -20.722  1.00  0.00     0.193 HD
HETATM   10  C8  UNL     1      -6.385  -9.026 -18.938  1.00  0.00     0.225 C 
HETATM   11  C15 UNL     1      -7.676  -9.439 -18.289  1.00  0.00     0.078 C 
ENDROOT
BRANCH  10  12
HETATM   12  N2  UNL     1      -5.937  -7.754 -18.843  1.00  0.00    -0.418 NA
BRANCH  12  13
HETATM   13  C9  UNL     1      -5.600  -6.678 -18.511  1.00  0.00     0.173 A 
HETATM   14  C10 UNL     1      -5.523  -6.364 -17.138  1.00  0.00     0.064 A 
HETATM   15  C11 UNL     1      -5.134  -5.137 -16.664  1.00  0.00     0.022 A 
HETATM   16  C12 UNL     1      -4.802  -4.154 -17.567  1.00  0.00     0.063 A 
HETATM   17  C14 UNL     1      -4.882  -4.463 -18.905  1.00  0.00     0.106 A 
HETATM   18  N3  UNL     1      -5.264  -5.679 -19.374  1.00  0.00    -0.341 N 
ATOM     19  H3  UNL     1      -5.301  -5.845 -20.380  1.00  0.00     0.167 HD
BRANCH  16  20
HETATM   20  C13 UNL     1      -4.354  -2.790 -17.127  1.00  0.00     0.418 C 
HETATM   21  F1  UNL     1      -4.447  -2.756 -15.747  1.00  0.00    -0.166 F 
HETATM   22  F2  UNL     1      -3.099  -2.468 -17.526  1.00  0.00    -0.166 F 
HETATM   23  F3  UNL     1      -5.271  -1.839 -17.596  1.00  0.00    -0.166 F 
ENDBRANCH  16  20
ENDBRANCH  12  13
ENDBRANCH  10  12
BRANCH  11  24
HETATM   24  C16 UNL     1      -7.667  -9.390 -16.822  1.00  0.00    -0.013 C 
HETATM   25  C17 UNL     1      -8.225  -8.475 -16.083  1.00  0.00     0.013 C 
BRANCH  25  26
HETATM   26  C18 UNL     1      -8.186  -8.500 -14.567  1.00  0.00     0.084 C 
BRANCH  26  27
HETATM   27  N4  UNL     1      -8.349  -7.241 -14.021  1.00  0.00    -0.398 N 
HETATM   28  C19 UNL     1      -7.953  -6.925 -12.722  1.00  0.00     0.148 C 
HETATM   29  C20 UNL     1      -8.466  -6.115 -14.847  1.00  0.00     0.148 C 
ENDBRANCH  26  27
ENDBRANCH  25  26
ENDBRANCH  11  24
BRANCH   8  30
HETATM   30  O1  UNL     1      -7.466  -8.536 -22.426  1.00  0.00    -0.290 OA
ATOM     31  H1  UNL     1      -8.204  -8.098 -22.834  1.00  0.00     0.244 HD
ENDBRANCH   8  30
TORSDOF 7
ENDMDL
MODEL 2
REMARK VINA RESULT: -8.233971767      1.061      1.507
REMARK  7 active torsions:
REMARK  status: ('A' for Active; 'I' for Inactive)
REMARK    1  A    between atoms: N1_8  and  O1_10 
REMARK    2  A    between atoms: C8_12  and  N2_13 
REMARK    3  A    between atoms: N2_13  and  C9_14 
REMARK    4  A    between atoms: C12_17  and  C13_18 
REMARK    5  A    between atoms: C15_25  and  C16_26 
REMARK    6  A    between atoms: C17_27  and  C18_28 
REMARK    7  A    between atoms: C18_28  and  N4_29 
ROOT
HETATM    1  C1  UNL     1      -9.192 -11.597 -18.126  1.00  0.00     0.044 C 
HETATM    2  C2  UNL     1      -8.152 -11.098 -19.110  1.00  0.00    -0.075 C 
HETATM    3  C3  UNL     1      -7.873 -11.889 -20.100  1.00  0.00    -0.009 C 
HETATM    4  C4  UNL     1      -6.830 -11.429 -21.121  1.00  0.00     0.014 C 
HETATM    5  C5  UNL     1      -7.479 -11.819 -22.452  1.00  0.00     0.025 C 
HETATM    6  C6  UNL     1      -5.527 -12.144 -20.958  1.00  0.00     0.025 C 
HETATM    7  C7  UNL     1      -6.743 -10.014 -20.926  1.00  0.00     0.058 C 
HETATM    8  N1  UNL     1      -7.071  -9.099 -21.702  1.00  0.00    -0.273 N 
ATOM      9  H1  UNL     1      -6.907  -8.160 -21.342  1.00  0.00     0.193 HD
HETATM   10  C8  UNL     1      -6.305  -9.531 -19.516  1.00  0.00     0.225 C 
HETATM   11  C15 UNL     1      -7.574  -9.775 -18.748  1.00  0.00     0.078 C 
ENDROOT
BRANCH  10  12
HETATM   12  N2  UNL     1      -5.733  -8.305 -19.538  1.00  0.00    -0.418 NA
BRANCH  12  13
HETATM   13  C9  UNL     1      -5.383  -7.199 -19.350  1.00  0.00     0.173 A 
HETATM   14  C10 UNL     1      -4.702  -6.876 -18.159  1.00  0.00     0.064 A 
HETATM   15  C11 UNL     1      -4.254  -5.613 -17.863  1.00  0.00     0.022 A 
HETATM   16  C12 UNL     1      -4.480  -4.602 -18.768  1.00  0.00     0.063 A 
HETATM   17  C14 UNL     1      -5.149  -4.921 -19.927  1.00  0.00     0.106 A 
HETATM   18  N3  UNL     1      -5.590  -6.171 -20.221  1.00  0.00    -0.341 N 
ATOM     19  H3  UNL     1      -6.078  -6.343 -21.101  1.00  0.00     0.167 HD
BRANCH  16  20
HETATM   20  C13 UNL     1      -4.010  -3.197 -18.523  1.00  0.00     0.418 C 
HETATM   21  F1  UNL     1      -3.708  -2.648 -19.756  1.00  0.00    -0.166 F 
HETATM   22  F2  UNL     1      -4.909  -2.424 -17.866  1.00  0.00    -0.166 F 
HETATM   23  F3  UNL     1      -2.800  -3.242 -17.816  1.00  0.00    -0.166 F 
ENDBRANCH  16  20
ENDBRANCH  12  13
ENDBRANCH  10  12
BRANCH  11  24
HETATM   24  C16 UNL     1      -7.445  -9.642 -17.293  1.00  0.00    -0.013 C 
HETATM   25  C17 UNL     1      -7.622  -8.551 -16.605  1.00  0.00     0.013 C 
BRANCH  25  26
HETATM   26  C18 UNL     1      -7.484  -8.494 -15.095  1.00  0.00     0.084 C 
BRANCH  26  27
HETATM   27  N4  UNL     1      -8.709  -8.390 -14.464  1.00  0.00    -0.398 N 
HETATM   28  C19 UNL     1      -9.491  -9.499 -14.146  1.00  0.00     0.148 C 
HETATM   29  C20 UNL     1      -9.019  -7.262 -13.692  1.00  0.00     0.148 C 
ENDBRANCH  26  27
ENDBRANCH  25  26
ENDBRANCH  11  24
BRANCH   8  30
HETATM   30  O1  UNL     1      -7.607  -9.140 -22.940  1.00  0.00    -0.290 OA
ATOM     31  H1  UNL     1      -8.272  -8.598 -23.349  1.00  0.00     0.244 HD
ENDBRANCH   8  30
TORSDOF 7
ENDMDL
MODEL 3
REMARK VINA RESULT: -8.002315092      4.208      6.830
REMARK  7 active torsions:
REMARK  status: ('A' for Active; 'I' for Inactive)
REMARK    1  A    between atoms: N1_8  and  O1_10 
REMARK    2  A    between atoms: C8_12  and  N2_13 
REMARK    3  A    between atoms: N2_13  and  C9_14 
REMARK    4  A    between atoms: C12_17  and  C13_18 
REMARK    5  A    between atoms: C15_25  and  C16_26 
REMARK    6  A    between atoms: C17_27  and  C18_28 
REMARK    7  A    between atoms: C18_28  and  N4_29 
ROOT
HETATM    1  C1  UNL     1      -7.911  -6.849 -12.631  1.00  0.00     0.044 C 
HETATM    2  C2  UNL     1      -7.349  -6.357 -13.951  1.00  0.00    -0.075 C 
HETATM    3  C3  UNL     1      -6.935  -5.128 -13.976  1.00  0.00    -0.009 C 
HETATM    4  C4  UNL     1      -6.357  -4.586 -15.286  1.00  0.00     0.014 C 
HETATM    5  C5  UNL     1      -5.124  -3.816 -14.807  1.00  0.00     0.025 C 
HETATM    6  C6  UNL     1      -7.303  -3.658 -15.978  1.00  0.00     0.025 C 
HETATM    7  C7  UNL     1      -6.036  -5.757 -16.042  1.00  0.00     0.058 C 
HETATM    8  N1  UNL     1      -4.919  -6.178 -16.389  1.00  0.00    -0.273 N 
ATOM      9  H1  UNL     1      -4.941  -7.039 -16.935  1.00  0.00     0.193 HD
HETATM   10  C8  UNL     1      -7.213  -6.715 -16.377  1.00  0.00     0.225 C 
HETATM   11  C15 UNL     1      -7.406  -7.371 -15.039  1.00  0.00     0.078 C 
ENDROOT
BRANCH  10  12
HETATM   12  N2  UNL     1      -6.985  -7.455 -17.486  1.00  0.00    -0.418 NA
BRANCH  12  13
HETATM   13  C9  UNL     1      -6.980  -8.243 -18.359  1.00  0.00     0.173 A 
HETATM   14  C10 UNL     1      -7.095  -9.616 -18.060  1.00  0.00     0.064 A 
HETATM   15  C11 UNL     1      -7.104 -10.599 -19.016  1.00  0.00     0.022 A 
HETATM   16  C12 UNL     1      -6.990 -10.237 -20.339  1.00  0.00     0.063 A 
HETATM   17  C14 UNL     1      -6.874  -8.897 -20.625  1.00  0.00     0.106 A 
HETATM   18  N3  UNL     1      -6.868  -7.923 -19.679  1.00  0.00    -0.341 N 
ATOM     19  H3  UNL     1      -6.781  -6.946 -19.958  1.00  0.00     0.167 HD
BRANCH  16  20
HETATM   20  C13 UNL     1      -7.004 -11.253 -21.444  1.00  0.00     0.418 C 
HETATM   21  F1  UNL     1      -8.196 -11.947 -21.344  1.00  0.00    -0.166 F 
HETATM   22  F2  UNL     1      -6.867 -10.719 -22.683  1.00  0.00    -0.166 F 
HETATM   23  F3  UNL     1      -5.992 -12.194 -21.207  1.00  0.00    -0.166 F 
ENDBRANCH  16  20
ENDBRANCH  12  13
ENDBRANCH  10  12
BRANCH  11  24
HETATM   24  C16 UNL     1      -8.619  -8.190 -14.927  1.00  0.00    -0.013 C 
HETATM   25  C17 UNL     1      -8.677  -9.488 -15.006  1.00  0.00     0.013 C 
BRANCH  25  26
HETATM   26  C18 UNL     1      -9.971 -10.267 -14.867  1.00  0.00     0.084 C 
BRANCH  26  27
HETATM   27  N4  UNL     1     -10.298 -10.947 -16.024  1.00  0.00    -0.398 N 
HETATM   28  C19 UNL     1     -10.623 -10.298 -17.214  1.00  0.00     0.148 C 
HETATM   29  C20 UNL     1      -9.871 -12.267 -16.220  1.00  0.00     0.148 C 
ENDBRANCH  26  27
ENDBRANCH  25  26
ENDBRANCH  11  24
BRANCH   8  30
HETATM   30  O1  UNL     1      -3.681  -5.689 -16.165  1.00  0.00    -0.290 OA
ATOM     31  H1  UNL     1      -3.360  -4.795 -16.142  1.00  0.00     0.244 HD
ENDBRANCH   8  30
TORSDOF 7
ENDMDL
MODEL 4
REMARK VINA RESULT: -7.643625345      4.444      6.699
REMARK  7 active torsions:
REMARK  status: ('A' for Active; 'I' for Inactive)
REMARK    1  A    between atoms: N1_8  and  O1_10 
REMARK    2  A    between atoms: C8_12  and  N2_13 
REMARK    3  A    between atoms: N2_13  and  C9_14 
REMARK    4  A    between atoms: C12_17  and  C13_18 
REMARK    5  A    between atoms: C15_25  and  C16_26 
REMARK    6  A    between atoms: C17_27  and  C18_28 
REMARK    7  A    between atoms: C18_28  and  N4_29 
ROOT
HETATM    1  C1  UNL     1      -4.203  -6.240 -15.273  1.00  0.00     0.044 C 
HETATM    2  C2  UNL     1      -4.357  -6.316 -16.780  1.00  0.00    -0.075 C 
HETATM    3  C3  UNL     1      -3.882  -5.316 -17.457  1.00  0.00    -0.009 C 
HETATM    4  C4  UNL     1      -4.013  -5.347 -18.982  1.00  0.00     0.014 C 
HETATM    5  C5  UNL     1      -2.633  -4.868 -19.439  1.00  0.00     0.025 C 
HETATM    6  C6  UNL     1      -5.069  -4.412 -19.476  1.00  0.00     0.025 C 
HETATM    7  C7  UNL     1      -4.266  -6.722 -19.287  1.00  0.00     0.058 C 
HETATM    8  N1  UNL     1      -3.548  -7.528 -19.904  1.00  0.00    -0.273 N 
ATOM      9  H1  UNL     1      -3.948  -8.460 -20.005  1.00  0.00     0.193 HD
HETATM   10  C8  UNL     1      -5.544  -7.349 -18.666  1.00  0.00     0.225 C 
HETATM   11  C15 UNL     1      -5.086  -7.528 -17.246  1.00  0.00     0.078 C 
ENDROOT
BRANCH  10  12
HETATM   12  N2  UNL     1      -6.012  -8.399 -19.380  1.00  0.00    -0.418 NA
BRANCH  12  13
HETATM   13  C9  UNL     1      -6.513  -9.386 -19.775  1.00  0.00     0.173 A 
HETATM   14  C10 UNL     1      -7.246 -10.199 -18.886  1.00  0.00     0.064 A 
HETATM   15  C11 UNL     1      -7.867 -11.362 -19.263  1.00  0.00     0.022 A 
HETATM   16  C12 UNL     1      -7.773 -11.767 -20.575  1.00  0.00     0.063 A 
HETATM   17  C14 UNL     1      -7.054 -10.973 -21.437  1.00  0.00     0.106 A 
HETATM   18  N3  UNL     1      -6.442  -9.820 -21.064  1.00  0.00    -0.341 N 
ATOM     19  H3  UNL     1      -5.925  -9.274 -21.755  1.00  0.00     0.167 HD
BRANCH  16  20
HETATM   20  C13 UNL     1      -8.436 -13.021 -21.068  1.00  0.00     0.418 C 
HETATM   21  F1  UNL     1      -9.718 -13.034 -20.551  1.00  0.00    -0.166 F 
HETATM   22  F2  UNL     1      -8.466 -13.132 -22.419  1.00  0.00    -0.166 F 
HETATM   23  F3  UNL     1      -7.784 -14.128 -20.505  1.00  0.00    -0.166 F 
ENDBRANCH  16  20
ENDBRANCH  12  13
ENDBRANCH  10  12
BRANCH  11  24
HETATM   24  C16 UNL     1      -6.147  -7.894 -16.301  1.00  0.00    -0.013 C 
HETATM   25  C17 UNL     1      -7.381  -7.479 -16.335  1.00  0.00     0.013 C 
BRANCH  25  26
HETATM   26  C18 UNL     1      -8.427  -7.915 -15.327  1.00  0.00     0.084 C 
BRANCH  26  27
HETATM   27  N4  UNL     1      -8.548  -7.019 -14.282  1.00  0.00    -0.398 N 
HETATM   28  C19 UNL     1      -8.029  -7.266 -13.012  1.00  0.00     0.148 C 
HETATM   29  C20 UNL     1      -8.758  -5.656 -14.532  1.00  0.00     0.148 C 
ENDBRANCH  26  27
ENDBRANCH  25  26
ENDBRANCH  11  24
BRANCH   8  30
HETATM   30  O1  UNL     1      -2.328  -7.377 -20.463  1.00  0.00    -0.290 OA
ATOM     31  H1  UNL     1      -1.459  -7.443 -20.086  1.00  0.00     0.244 HD
ENDBRANCH   8  30
TORSDOF 7
ENDMDL
MODEL 5
REMARK VINA RESULT: -7.636484602      2.147      3.214
REMARK  7 active torsions:
REMARK  status: ('A' for Active; 'I' for Inactive)
REMARK    1  A    between atoms: N1_8  and  O1_10 
REMARK    2  A    between atoms: C8_12  and  N2_13 
REMARK    3  A    between atoms: N2_13  and  C9_14 
REMARK    4  A    between atoms: C12_17  and  C13_18 
REMARK    5  A    between atoms: C15_25  and  C16_26 
REMARK    6  A    between atoms: C17_27  and  C18_28 
REMARK    7  A    between atoms: C18_28  and  N4_29 
ROOT
HETATM    1  C1  UNL     1      -8.297 -13.785 -21.036  1.00  0.00     0.044 C 
HETATM    2  C2  UNL     1      -7.138 -12.807 -21.053  1.00  0.00    -0.075 C 
HETATM    3  C3  UNL     1      -6.079 -13.183 -21.701  1.00  0.00    -0.009 C 
HETATM    4  C4  UNL     1      -4.883 -12.230 -21.747  1.00  0.00     0.014 C 
HETATM    5  C5  UNL     1      -4.447 -12.322 -23.212  1.00  0.00     0.025 C 
HETATM    6  C6  UNL     1      -3.771 -12.674 -20.853  1.00  0.00     0.025 C 
HETATM    7  C7  UNL     1      -5.433 -10.955 -21.398  1.00  0.00     0.058 C 
HETATM    8  N1  UNL     1      -5.545  -9.936 -22.102  1.00  0.00    -0.273 N 
ATOM      9  H1  UNL     1      -5.966  -9.138 -21.628  1.00  0.00     0.193 HD
HETATM   10  C8  UNL     1      -6.102 -10.844 -20.001  1.00  0.00     0.225 C 
HETATM   11  C15 UNL     1      -7.392 -11.567 -20.269  1.00  0.00     0.078 C 
ENDROOT
BRANCH  10  12
HETATM   12  N2  UNL     1      -6.103  -9.580 -19.521  1.00  0.00    -0.418 NA
BRANCH  12  13
HETATM   13  C9  UNL     1      -6.073  -8.597 -18.876  1.00  0.00     0.173 A 
HETATM   14  C10 UNL     1      -6.857  -7.489 -19.257  1.00  0.00     0.064 A 
HETATM   15  C11 UNL     1      -6.886  -6.308 -18.560  1.00  0.00     0.022 A 
HETATM   16  C12 UNL     1      -6.111  -6.188 -17.429  1.00  0.00     0.063 A 
HETATM   17  C14 UNL     1      -5.345  -7.271 -17.063  1.00  0.00     0.106 A 
HETATM   18  N3  UNL     1      -5.319  -8.441 -17.752  1.00  0.00    -0.341 N 
ATOM     19  H3  UNL     1      -4.731  -9.208 -17.426  1.00  0.00     0.167 HD
BRANCH  16  20
HETATM   20  C13 UNL     1      -6.098  -4.934 -16.604  1.00  0.00     0.418 C 
HETATM   21  F1  UNL     1      -5.477  -3.956 -17.360  1.00  0.00    -0.166 F 
HETATM   22  F2  UNL     1      -7.329  -4.521 -16.212  1.00  0.00    -0.166 F 
HETATM   23  F3  UNL     1      -5.275  -5.135 -15.487  1.00  0.00    -0.166 F 
ENDBRANCH  16  20
ENDBRANCH  12  13
ENDBRANCH  10  12
BRANCH  11  24
HETATM   24  C16 UNL     1      -8.191 -11.859 -19.074  1.00  0.00    -0.013 C 
HETATM   25  C17 UNL     1      -8.969 -11.023 -18.449  1.00  0.00     0.013 C 
BRANCH  25  26
HETATM   26  C18 UNL     1      -9.777 -11.404 -17.224  1.00  0.00     0.084 C 
BRANCH  26  27
HETATM   27  N4  UNL     1      -9.557 -10.542 -16.166  1.00  0.00    -0.398 N 
HETATM   28  C19 UNL     1      -8.677  -9.464 -16.242  1.00  0.00     0.148 C 
HETATM   29  C20 UNL     1     -10.515 -10.397 -15.154  1.00  0.00     0.148 C 
ENDBRANCH  26  27
ENDBRANCH  25  26
ENDBRANCH  11  24
BRANCH   8  30
HETATM   30  O1  UNL     1      -5.203  -9.708 -23.388  1.00  0.00    -0.290 OA
ATOM     31  H1  UNL     1      -5.647  -9.221 -24.073  1.00  0.00     0.244 HD
ENDBRANCH   8  30
TORSDOF 7
ENDMDL
