MODEL 1
REMARK VINA RESULT: -7.840903804      0.000      0.000
REMARK  6 active torsions:
REMARK  status: ('A' for Active; 'I' for Inactive)
REMARK    1  A    between atoms: N2_8  and  C7_9 
REMARK    2  A    between atoms: C7_9  and  C8_10 
REMARK    3  A    between atoms: C8_10  and  C9_11 
REMARK    4  A    between atoms: C9_11  and  N3_12 
REMARK    5  A    between atoms: C10_13  and  O1_14 
REMARK    6  A    between atoms: C13_18  and  O2_19 
ROOT
HETATM    1  N3  UNL     1      -5.622  -5.126 -15.475  1.00  0.00    -0.308 N 
HETATM    2  C10 UNL     1      -4.484  -5.755 -15.816  1.00  0.00     0.151 A 
HETATM    3  C11 UNL     1      -4.021  -5.268 -17.013  1.00  0.00     0.008 A 
HETATM    4  C12 UNL     1      -4.916  -4.309 -17.410  1.00  0.00     0.014 A 
HETATM    5  C13 UNL     1      -5.895  -4.240 -16.448  1.00  0.00     0.151 A 
HETATM    6  C14 UNL     1      -4.474  -3.732 -18.713  1.00  0.00     0.096 C 
HETATM    7  C15 UNL     1      -2.973  -3.961 -18.637  1.00  0.00     0.025 C 
HETATM    8  C16 UNL     1      -2.943  -5.357 -18.062  1.00  0.00     0.025 C 
HETATM    9  C17 UNL     1      -3.378  -6.334 -19.103  1.00  0.00     0.015 C 
HETATM   10  C18 UNL     1      -4.126  -5.697 -20.242  1.00  0.00     0.080 C 
HETATM   11  C19 UNL     1      -5.044  -4.583 -19.805  1.00  0.00     0.251 C 
HETATM   12  F1  UNL     1      -5.203  -3.754 -20.926  1.00  0.00    -0.206 F 
HETATM   13  F2  UNL     1      -6.313  -5.050 -19.519  1.00  0.00    -0.206 F 
ENDROOT
BRANCH   1  14
HETATM   14  C9  UNL     1      -6.419  -5.349 -14.294  1.00  0.00     0.135 C 
BRANCH  14  15
HETATM   15  C8  UNL     1      -7.685  -6.121 -14.510  1.00  0.00     0.040 C 
BRANCH  15  16
HETATM   16  C7  UNL     1      -7.505  -7.597 -14.270  1.00  0.00     0.128 C 
BRANCH  16  17
HETATM   17  N2  UNL     1      -7.641  -8.392 -15.430  1.00  0.00    -0.372 N 
HETATM   18  C6  UNL     1      -8.848  -8.951 -15.798  1.00  0.00     0.093 C 
HETATM   19  C5  UNL     1      -8.779 -10.208 -16.628  1.00  0.00     0.316 C 
HETATM   20  N1  UNL     1      -8.334  -9.966 -17.987  1.00  0.00     0.089 N 
HETATM   21  C3  UNL     1      -6.866  -9.925 -18.070  1.00  0.00     0.281 C 
HETATM   22  C4  UNL     1      -8.720 -11.058 -18.871  1.00  0.00     0.310 C 
HETATM   23  C2  UNL     1      -6.340  -8.655 -17.493  1.00  0.00     0.048 C 
HETATM   24  C1  UNL     1      -7.101  -7.489 -18.049  1.00  0.00     0.017 C 
HETATM   25  C20 UNL     1      -6.419  -8.771 -15.988  1.00  0.00     0.069 C 
ENDBRANCH  16  17
ENDBRANCH  15  16
ENDBRANCH  14  15
ENDBRANCH   1  14
BRANCH   2  26
HETATM   26  O1  UNL     1      -3.796  -6.763 -15.128  1.00  0.00    -0.345 OA
ATOM     27  H1  UNL     1      -3.079  -7.308 -15.429  1.00  0.00     0.219 HD
ENDBRANCH   2  26
BRANCH   5  28
HETATM   28  O2  UNL     1      -7.010  -3.366 -16.483  1.00  0.00    -0.345 OA
ATOM     29  H2  UNL     1      -7.229  -2.774 -17.193  1.00  0.00     0.219 HD
ENDBRANCH   5  28
TORSDOF 6
ENDMDL
MODEL 2
REMARK VINA RESULT: -7.473968531      3.346      6.670
REMARK  6 active torsions:
REMARK  status: ('A' for Active; 'I' for Inactive)
REMARK    1  A    between atoms: N2_8  and  C7_9 
REMARK    2  A    between atoms: C7_9  and  C8_10 
REMARK    3  A    between atoms: C8_10  and  C9_11 
REMARK    4  A    between atoms: C9_11  and  N3_12 
REMARK    5  A    between atoms: C10_13  and  O1_14 
REMARK    6  A    between atoms: C13_18  and  O2_19 
ROOT
HETATM    1  N3  UNL     1      -7.968 -10.426 -18.321  1.00  0.00    -0.308 N 
HETATM    2  C10 UNL     1      -8.609 -11.528 -18.748  1.00  0.00     0.151 A 
HETATM    3  C11 UNL     1      -7.966 -12.050 -19.844  1.00  0.00     0.008 A 
HETATM    4  C12 UNL     1      -6.896 -11.228 -20.087  1.00  0.00     0.014 A 
HETATM    5  C13 UNL     1      -6.919 -10.234 -19.138  1.00  0.00     0.151 A 
HETATM    6  C14 UNL     1      -6.147 -11.736 -21.273  1.00  0.00     0.096 C 
HETATM    7  C15 UNL     1      -6.486 -13.217 -21.219  1.00  0.00     0.025 C 
HETATM    8  C16 UNL     1      -7.956 -13.142 -20.880  1.00  0.00     0.025 C 
HETATM    9  C17 UNL     1      -8.719 -12.668 -22.073  1.00  0.00     0.015 C 
HETATM   10  C18 UNL     1      -7.855 -11.989 -23.100  1.00  0.00     0.080 C 
HETATM   11  C19 UNL     1      -6.767 -11.135 -22.496  1.00  0.00     0.251 C 
HETATM   12  F1  UNL     1      -5.757 -11.056 -23.468  1.00  0.00    -0.206 F 
HETATM   13  F2  UNL     1      -7.187  -9.833 -22.306  1.00  0.00    -0.206 F 
ENDROOT
BRANCH   1  14
HETATM   14  C9  UNL     1      -8.326  -9.590 -17.202  1.00  0.00     0.135 C 
BRANCH  14  15
HETATM   15  C8  UNL     1      -7.306  -9.511 -16.108  1.00  0.00     0.040 C 
BRANCH  15  16
HETATM   16  C7  UNL     1      -7.261  -8.150 -15.463  1.00  0.00     0.128 C 
BRANCH  16  17
HETATM   17  N2  UNL     1      -6.473  -7.207 -16.160  1.00  0.00    -0.372 N 
HETATM   18  C6  UNL     1      -7.021  -6.314 -17.057  1.00  0.00     0.093 C 
HETATM   19  C5  UNL     1      -6.108  -5.812 -18.147  1.00  0.00     0.316 C 
HETATM   20  N1  UNL     1      -5.095  -4.895 -17.660  1.00  0.00     0.089 N 
HETATM   21  C3  UNL     1      -3.930  -5.618 -17.127  1.00  0.00     0.281 C 
HETATM   22  C4  UNL     1      -4.555  -4.082 -18.742  1.00  0.00     0.310 C 
HETATM   23  C2  UNL     1      -4.250  -6.231 -15.805  1.00  0.00     0.048 C 
HETATM   24  C1  UNL     1      -4.906  -5.216 -14.918  1.00  0.00     0.017 C 
HETATM   25  C20 UNL     1      -5.102  -7.453 -16.064  1.00  0.00     0.069 C 
ENDBRANCH  16  17
ENDBRANCH  15  16
ENDBRANCH  14  15
ENDBRANCH   1  14
BRANCH   2  26
HETATM   26  O1  UNL     1      -9.760 -12.134 -18.226  1.00  0.00    -0.345 OA
ATOM     27  H1  UNL     1     -10.538 -12.429 -18.684  1.00  0.00     0.219 HD
ENDBRANCH   2  26
BRANCH   5  28
HETATM   28  O2  UNL     1      -5.977  -9.179 -19.042  1.00  0.00    -0.345 OA
ATOM     29  H2  UNL     1      -5.230  -9.049 -19.614  1.00  0.00     0.219 HD
ENDBRANCH   5  28
TORSDOF 6
ENDMDL
MODEL 3
REMARK VINA RESULT: -7.246495433      3.343      6.805
REMARK  6 active torsions:
REMARK  status: ('A' for Active; 'I' for Inactive)
REMARK    1  A    between atoms: N2_8  and  C7_9 
REMARK    2  A    between atoms: C7_9  and  C8_10 
REMARK    3  A    between atoms: C8_10  and  C9_11 
REMARK    4  A    between atoms: C9_11  and  N3_12 
REMARK    5  A    between atoms: C10_13  and  O1_14 
REMARK    6  A    between atoms: C13_18  and  O2_19 
ROOT
HETATM    1  N3  UNL     1      -7.879 -10.310 -18.364  1.00  0.00    -0.308 N 
HETATM    2  C10 UNL     1      -8.545 -11.425 -18.714  1.00  0.00     0.151 A 
HETATM    3  C11 UNL     1      -7.954 -11.997 -19.813  1.00  0.00     0.008 A 
HETATM    4  C12 UNL     1      -6.892 -11.194 -20.140  1.00  0.00     0.014 A 
HETATM    5  C13 UNL     1      -6.866 -10.161 -19.234  1.00  0.00     0.151 A 
HETATM    6  C14 UNL     1      -6.199 -11.758 -21.335  1.00  0.00     0.096 C 
HETATM    7  C15 UNL     1      -6.544 -13.233 -21.201  1.00  0.00     0.025 C 
HETATM    8  C16 UNL     1      -7.996 -13.133 -20.801  1.00  0.00     0.025 C 
HETATM    9  C17 UNL     1      -8.809 -12.704 -21.978  1.00  0.00     0.015 C 
HETATM   10  C18 UNL     1      -7.989 -12.077 -23.071  1.00  0.00     0.080 C 
HETATM   11  C19 UNL     1      -6.870 -11.206 -22.554  1.00  0.00     0.251 C 
HETATM   12  F1  UNL     1      -5.905 -11.176 -23.572  1.00  0.00    -0.206 F 
HETATM   13  F2  UNL     1      -7.274  -9.893 -22.401  1.00  0.00    -0.206 F 
ENDROOT
BRANCH   1  14
HETATM   14  C9  UNL     1      -8.182  -9.425 -17.267  1.00  0.00     0.135 C 
BRANCH  14  15
HETATM   15  C8  UNL     1      -7.119  -9.316 -16.217  1.00  0.00     0.040 C 
BRANCH  15  16
HETATM   16  C7  UNL     1      -7.426  -8.250 -15.198  1.00  0.00     0.128 C 
BRANCH  16  17
HETATM   17  N2  UNL     1      -6.901  -6.978 -15.516  1.00  0.00    -0.372 N 
HETATM   18  C6  UNL     1      -6.089  -6.775 -16.613  1.00  0.00     0.093 C 
HETATM   19  C5  UNL     1      -5.128  -5.616 -16.529  1.00  0.00     0.316 C 
HETATM   20  N1  UNL     1      -5.785  -4.326 -16.619  1.00  0.00     0.089 N 
HETATM   21  C3  UNL     1      -6.296  -3.894 -15.309  1.00  0.00     0.281 C 
HETATM   22  C4  UNL     1      -4.847  -3.281 -17.008  1.00  0.00     0.310 C 
HETATM   23  C2  UNL     1      -7.509  -4.674 -14.932  1.00  0.00     0.048 C 
HETATM   24  C1  UNL     1      -8.473  -4.704 -16.081  1.00  0.00     0.017 C 
HETATM   25  C20 UNL     1      -7.050  -6.044 -14.489  1.00  0.00     0.069 C 
ENDBRANCH  16  17
ENDBRANCH  15  16
ENDBRANCH  14  15
ENDBRANCH   1  14
BRANCH   2  26
HETATM   26  O1  UNL     1      -9.674 -11.999 -18.116  1.00  0.00    -0.345 OA
ATOM     27  H1  UNL     1     -10.220 -12.709 -18.432  1.00  0.00     0.219 HD
ENDBRANCH   2  26
BRANCH   5  28
HETATM   28  O2  UNL     1      -5.916  -9.110 -19.225  1.00  0.00    -0.345 OA
ATOM     29  H2  UNL     1      -5.330  -8.899 -18.508  1.00  0.00     0.219 HD
ENDBRANCH   5  28
TORSDOF 6
ENDMDL
MODEL 4
REMARK VINA RESULT: -7.241409269      3.383      5.918
REMARK  6 active torsions:
REMARK  status: ('A' for Active; 'I' for Inactive)
REMARK    1  A    between atoms: N2_8  and  C7_9 
REMARK    2  A    between atoms: C7_9  and  C8_10 
REMARK    3  A    between atoms: C8_10  and  C9_11 
REMARK    4  A    between atoms: C9_11  and  N3_12 
REMARK    5  A    between atoms: C10_13  and  O1_14 
REMARK    6  A    between atoms: C13_18  and  O2_19 
ROOT
HETATM    1  N3  UNL     1      -7.593  -8.724 -16.731  1.00  0.00    -0.308 N 
HETATM    2  C10 UNL     1      -8.373  -8.596 -15.644  1.00  0.00     0.151 A 
HETATM    3  C11 UNL     1      -8.323  -7.304 -15.181  1.00  0.00     0.008 A 
HETATM    4  C12 UNL     1      -7.477  -6.628 -16.022  1.00  0.00     0.014 A 
HETATM    5  C13 UNL     1      -7.039  -7.523 -16.968  1.00  0.00     0.151 A 
HETATM    6  C14 UNL     1      -7.372  -5.208 -15.575  1.00  0.00     0.096 C 
HETATM    7  C15 UNL     1      -8.710  -5.023 -14.878  1.00  0.00     0.025 C 
HETATM    8  C16 UNL     1      -8.808  -6.335 -14.136  1.00  0.00     0.025 C 
HETATM    9  C17 UNL     1      -7.837  -6.340 -13.001  1.00  0.00     0.015 C 
HETATM   10  C18 UNL     1      -6.755  -5.305 -13.141  1.00  0.00     0.080 C 
HETATM   11  C19 UNL     1      -6.275  -5.129 -14.560  1.00  0.00     0.251 C 
HETATM   12  F1  UNL     1      -5.748  -3.830 -14.630  1.00  0.00    -0.206 F 
HETATM   13  F2  UNL     1      -5.212  -5.964 -14.847  1.00  0.00    -0.206 F 
ENDROOT
BRANCH   1  14
HETATM   14  C9  UNL     1      -7.375  -9.918 -17.509  1.00  0.00     0.135 C 
BRANCH  14  15
HETATM   15  C8  UNL     1      -8.265 -10.079 -18.703  1.00  0.00     0.040 C 
BRANCH  15  16
HETATM   16  C7  UNL     1      -8.161 -11.451 -19.317  1.00  0.00     0.128 C 
BRANCH  16  17
HETATM   17  N2  UNL     1      -7.680 -11.453 -20.645  1.00  0.00    -0.372 N 
HETATM   18  C6  UNL     1      -7.001 -10.378 -21.180  1.00  0.00     0.093 C 
HETATM   19  C5  UNL     1      -7.077 -10.215 -22.678  1.00  0.00     0.316 C 
HETATM   20  N1  UNL     1      -6.311 -11.217 -23.396  1.00  0.00     0.089 N 
HETATM   21  C3  UNL     1      -7.082 -12.457 -23.571  1.00  0.00     0.281 C 
HETATM   22  C4  UNL     1      -6.011 -10.779 -24.753  1.00  0.00     0.310 C 
HETATM   23  C2  UNL     1      -7.174 -13.207 -22.285  1.00  0.00     0.048 C 
HETATM   24  C1  UNL     1      -5.816 -13.314 -21.659  1.00  0.00     0.017 C 
HETATM   25  C20 UNL     1      -8.190 -12.499 -21.417  1.00  0.00     0.069 C 
ENDBRANCH  16  17
ENDBRANCH  15  16
ENDBRANCH  14  15
ENDBRANCH   1  14
BRANCH   2  26
HETATM   26  O1  UNL     1      -9.157  -9.565 -15.005  1.00  0.00    -0.345 OA
ATOM     27  H1  UNL     1      -9.611  -9.511 -14.172  1.00  0.00     0.219 HD
ENDBRANCH   2  26
BRANCH   5  28
HETATM   28  O2  UNL     1      -6.145  -7.218 -18.025  1.00  0.00    -0.345 OA
ATOM     29  H2  UNL     1      -5.926  -6.346 -18.331  1.00  0.00     0.219 HD
ENDBRANCH   5  28
TORSDOF 6
ENDMDL
MODEL 5
REMARK VINA RESULT: -7.210670128      3.825      6.216
REMARK  6 active torsions:
REMARK  status: ('A' for Active; 'I' for Inactive)
REMARK    1  A    between atoms: N2_8  and  C7_9 
REMARK    2  A    between atoms: C7_9  and  C8_10 
REMARK    3  A    between atoms: C8_10  and  C9_11 
REMARK    4  A    between atoms: C9_11  and  N3_12 
REMARK    5  A    between atoms: C10_13  and  O1_14 
REMARK    6  A    between atoms: C13_18  and  O2_19 
ROOT
HETATM    1  N3  UNL     1      -8.298  -9.987 -18.107  1.00  0.00    -0.308 N 
HETATM    2  C10 UNL     1      -7.565  -9.091 -18.791  1.00  0.00     0.151 A 
HETATM    3  C11 UNL     1      -6.856  -8.302 -17.919  1.00  0.00     0.008 A 
HETATM    4  C12 UNL     1      -7.176  -8.740 -16.660  1.00  0.00     0.014 A 
HETATM    5  C13 UNL     1      -8.066  -9.776 -16.800  1.00  0.00     0.151 A 
HETATM    6  C14 UNL     1      -6.438  -7.921 -15.653  1.00  0.00     0.096 C 
HETATM    7  C15 UNL     1      -5.224  -7.493 -16.462  1.00  0.00     0.025 C 
HETATM    8  C16 UNL     1      -5.883  -7.162 -17.780  1.00  0.00     0.025 C 
HETATM    9  C17 UNL     1      -6.659  -5.894 -17.644  1.00  0.00     0.015 C 
HETATM   10  C18 UNL     1      -6.953  -5.526 -16.216  1.00  0.00     0.080 C 
HETATM   11  C19 UNL     1      -7.271  -6.717 -15.345  1.00  0.00     0.251 C 
HETATM   12  F1  UNL     1      -6.958  -6.329 -14.033  1.00  0.00    -0.206 F 
HETATM   13  F2  UNL     1      -8.627  -6.987 -15.327  1.00  0.00    -0.206 F 
ENDROOT
BRANCH   1  14
HETATM   14  C9  UNL     1      -9.177 -10.991 -18.654  1.00  0.00     0.135 C 
BRANCH  14  15
HETATM   15  C8  UNL     1      -8.507 -12.248 -19.117  1.00  0.00     0.040 C 
BRANCH  15  16
HETATM   16  C7  UNL     1      -8.900 -12.623 -20.522  1.00  0.00     0.128 C 
BRANCH  16  17
HETATM   17  N2  UNL     1      -7.876 -12.437 -21.477  1.00  0.00    -0.372 N 
HETATM   18  C6  UNL     1      -8.016 -11.572 -22.543  1.00  0.00     0.093 C 
HETATM   19  C5  UNL     1      -7.199 -11.883 -23.771  1.00  0.00     0.316 C 
HETATM   20  N1  UNL     1      -5.782 -11.629 -23.589  1.00  0.00     0.089 N 
HETATM   21  C3  UNL     1      -5.111 -12.772 -22.950  1.00  0.00     0.281 C 
HETATM   22  C4  UNL     1      -5.104 -11.477 -24.870  1.00  0.00     0.310 C 
HETATM   23  C2  UNL     1      -5.456 -12.843 -21.501  1.00  0.00     0.048 C 
HETATM   24  C1  UNL     1      -5.286 -11.494 -20.870  1.00  0.00     0.017 C 
HETATM   25  C20 UNL     1      -6.860 -13.392 -21.394  1.00  0.00     0.069 C 
ENDBRANCH  16  17
ENDBRANCH  15  16
ENDBRANCH  14  15
ENDBRANCH   1  14
BRANCH   2  26
HETATM   26  O1  UNL     1      -7.469  -8.909 -20.177  1.00  0.00    -0.345 OA
ATOM     27  H1  UNL     1      -7.615  -8.120 -20.686  1.00  0.00     0.219 HD
ENDBRANCH   2  26
BRANCH   5  28
HETATM   28  O2  UNL     1      -8.642 -10.506 -15.730  1.00  0.00    -0.345 OA
ATOM     29  H2  UNL     1      -9.157 -11.299 -15.814  1.00  0.00     0.219 HD
ENDBRANCH   5  28
TORSDOF 6
ENDMDL
