MODEL 1
REMARK VINA RESULT: -7.220960373      0.000      0.000
REMARK  2 active torsions:
REMARK  status: ('A' for Active; 'I' for Inactive)
REMARK    1  A    between atoms: O1_2  and  C2_3 
REMARK    2  A    between atoms: C2_3  and  O2_4 
ROOT
HETATM    1  C2  UNL     1      82.469  45.819 -34.539  1.00  0.00     0.418 C 
HETATM    2  O3  UNL     1      83.773  45.676 -35.038  1.00  0.00    -0.279 OA
HETATM    3  C3  UNL     1      84.907  46.411 -34.990  1.00  0.00     0.140 C 
HETATM    4  C4  UNL     1      85.345  47.362 -35.777  1.00  0.00     0.006 C 
HETATM    5  C5  UNL     1      84.746  47.950 -36.982  1.00  0.00    -0.028 C 
HETATM    6  C6  UNL     1      85.004  46.941 -38.130  1.00  0.00     0.019 C 
HETATM    7  C7  UNL     1      85.511  49.193 -37.443  1.00  0.00     0.019 C 
HETATM    8  C8  UNL     1      83.280  48.153 -37.003  1.00  0.00     0.013 C 
HETATM    9  C9  UNL     1      82.659  48.823 -35.814  1.00  0.00     0.009 C 
HETATM   10  C10 UNL     1      81.208  48.453 -35.658  1.00  0.00     0.028 C 
HETATM   11  C11 UNL     1      80.201  49.476 -35.902  1.00  0.00    -0.041 C 
HETATM   12  C12 UNL     1      78.917  48.844 -36.479  1.00  0.00     0.015 C 
HETATM   13  C13 UNL     1      80.664  50.402 -37.016  1.00  0.00     0.015 C 
HETATM   14  C14 UNL     1      79.780  50.347 -34.767  1.00  0.00     0.009 C 
HETATM   15  C15 UNL     1      80.010  49.825 -33.404  1.00  0.00     0.004 C 
HETATM   16  C16 UNL     1      81.066  48.805 -33.251  1.00  0.00     0.038 C 
HETATM   17  C17 UNL     1      81.086  47.722 -34.310  1.00  0.00     0.070 C 
HETATM   18  C18 UNL     1      79.819  46.927 -34.216  1.00  0.00     0.047 C 
HETATM   19  O4  UNL     1      82.228  47.042 -34.143  1.00  0.00    -0.297 OA
ENDROOT
BRANCH   1  20
HETATM   20  O1  UNL     1      81.629  45.263 -35.499  1.00  0.00    -0.314 OA
HETATM   21  C1  UNL     1      81.826  43.886 -35.546  1.00  0.00     0.210 C 
ENDBRANCH   1  20
BRANCH   1  22
HETATM   22  O2  UNL     1      82.348  44.942 -33.427  1.00  0.00    -0.319 OA
ATOM     23  H2  UNL     1      83.063  44.328 -33.541  1.00  0.00     0.218 HD
ENDBRANCH   1  22
TORSDOF 2
ENDMDL
MODEL 2
REMARK VINA RESULT: -6.952437159      2.434      3.618
REMARK  2 active torsions:
REMARK  status: ('A' for Active; 'I' for Inactive)
REMARK    1  A    between atoms: O1_2  and  C2_3 
REMARK    2  A    between atoms: C2_3  and  O2_4 
ROOT
HETATM    1  C2  UNL     1      85.552  43.481 -35.010  1.00  0.00     0.418 C 
HETATM    2  O3  UNL     1      86.595  43.928 -35.836  1.00  0.00    -0.279 OA
HETATM    3  C3  UNL     1      87.381  45.026 -35.883  1.00  0.00     0.140 C 
HETATM    4  C4  UNL     1      87.207  46.179 -36.481  1.00  0.00     0.006 C 
HETATM    5  C5  UNL     1      86.093  46.664 -37.306  1.00  0.00    -0.028 C 
HETATM    6  C6  UNL     1      86.276  46.016 -38.702  1.00  0.00     0.019 C 
HETATM    7  C7  UNL     1      86.223  48.159 -37.605  1.00  0.00     0.019 C 
HETATM    8  C8  UNL     1      84.718  46.286 -36.910  1.00  0.00     0.013 C 
HETATM    9  C9  UNL     1      84.337  46.480 -35.473  1.00  0.00     0.009 C 
HETATM   10  C10 UNL     1      83.217  45.561 -35.062  1.00  0.00     0.028 C 
HETATM   11  C11 UNL     1      81.912  46.140 -34.777  1.00  0.00    -0.041 C 
HETATM   12  C12 UNL     1      80.787  45.157 -35.161  1.00  0.00     0.015 C 
HETATM   13  C13 UNL     1      81.663  47.328 -35.693  1.00  0.00     0.015 C 
HETATM   14  C14 UNL     1      81.625  46.602 -33.387  1.00  0.00     0.009 C 
HETATM   15  C15 UNL     1      82.442  46.011 -32.307  1.00  0.00     0.004 C 
HETATM   16  C16 UNL     1      83.759  45.466 -32.689  1.00  0.00     0.038 C 
HETATM   17  C17 UNL     1      83.782  44.646 -33.962  1.00  0.00     0.070 C 
HETATM   18  C18 UNL     1      82.944  43.420 -33.766  1.00  0.00     0.047 C 
HETATM   19  O4  UNL     1      85.072  44.442 -34.265  1.00  0.00    -0.297 OA
ENDROOT
BRANCH   1  20
HETATM   20  O1  UNL     1      84.672  42.794 -35.842  1.00  0.00    -0.314 OA
HETATM   21  C1  UNL     1      85.287  42.552 -37.068  1.00  0.00     0.210 C 
ENDBRANCH   1  20
BRANCH   1  22
HETATM   22  O2  UNL     1      86.089  42.469 -34.168  1.00  0.00    -0.319 OA
ATOM     23  H2  UNL     1      86.237  42.913 -33.343  1.00  0.00     0.218 HD
ENDBRANCH   1  22
TORSDOF 2
ENDMDL
MODEL 3
REMARK VINA RESULT: -6.863299096      1.575      4.826
REMARK  2 active torsions:
REMARK  status: ('A' for Active; 'I' for Inactive)
REMARK    1  A    between atoms: O1_2  and  C2_3 
REMARK    2  A    between atoms: C2_3  and  O2_4 
ROOT
HETATM    1  C2  UNL     1      81.306  46.901 -32.885  1.00  0.00     0.418 C 
HETATM    2  O3  UNL     1      80.401  47.959 -33.053  1.00  0.00    -0.279 OA
HETATM    3  C3  UNL     1      79.486  48.304 -33.987  1.00  0.00     0.140 C 
HETATM    4  C4  UNL     1      79.604  49.014 -35.081  1.00  0.00     0.006 C 
HETATM    5  C5  UNL     1      80.779  49.679 -35.661  1.00  0.00    -0.028 C 
HETATM    6  C6  UNL     1      80.985  50.980 -34.844  1.00  0.00     0.019 C 
HETATM    7  C7  UNL     1      80.492  50.203 -37.069  1.00  0.00     0.019 C 
HETATM    8  C8  UNL     1      82.085  48.987 -35.573  1.00  0.00     0.013 C 
HETATM    9  C9  UNL     1      82.129  47.545 -35.983  1.00  0.00     0.009 C 
HETATM   10  C10 UNL     1      83.265  46.811 -35.322  1.00  0.00     0.028 C 
HETATM   11  C11 UNL     1      84.383  46.374 -36.147  1.00  0.00    -0.041 C 
HETATM   12  C12 UNL     1      85.696  46.402 -35.339  1.00  0.00     0.015 C 
HETATM   13  C13 UNL     1      84.634  47.384 -37.254  1.00  0.00     0.015 C 
HETATM   14  C14 UNL     1      84.306  45.033 -36.798  1.00  0.00     0.009 C 
HETATM   15  C15 UNL     1      83.383  44.051 -36.194  1.00  0.00     0.004 C 
HETATM   16  C16 UNL     1      82.269  44.589 -35.391  1.00  0.00     0.038 C 
HETATM   17  C17 UNL     1      82.630  45.717 -34.447  1.00  0.00     0.070 C 
HETATM   18  C18 UNL     1      83.583  45.200 -33.414  1.00  0.00     0.047 C 
HETATM   19  O4  UNL     1      81.475  46.221 -33.990  1.00  0.00    -0.297 OA
ENDROOT
BRANCH   1  20
HETATM   20  O1  UNL     1      82.431  47.452 -32.277  1.00  0.00    -0.314 OA
HETATM   21  C1  UNL     1      82.506  47.011 -30.958  1.00  0.00     0.210 C 
ENDBRANCH   1  20
BRANCH   1  22
HETATM   22  O2  UNL     1      80.766  46.040 -31.893  1.00  0.00    -0.319 OA
ATOM     23  H2  UNL     1      80.805  46.556 -31.096  1.00  0.00     0.218 HD
ENDBRANCH   1  22
TORSDOF 2
ENDMDL
MODEL 4
REMARK VINA RESULT: -6.613402633      2.881      5.458
REMARK  2 active torsions:
REMARK  status: ('A' for Active; 'I' for Inactive)
REMARK    1  A    between atoms: O1_2  and  C2_3 
REMARK    2  A    between atoms: C2_3  and  O2_4 
ROOT
HETATM    1  C2  UNL     1      86.296  43.762 -35.265  1.00  0.00     0.418 C 
HETATM    2  O3  UNL     1      86.313  42.467 -35.806  1.00  0.00    -0.279 OA
HETATM    3  C3  UNL     1      85.946  41.911 -36.982  1.00  0.00     0.140 C 
HETATM    4  C4  UNL     1      84.797  41.422 -37.378  1.00  0.00     0.006 C 
HETATM    5  C5  UNL     1      83.516  41.313 -36.668  1.00  0.00    -0.028 C 
HETATM    6  C6  UNL     1      83.654  40.101 -35.711  1.00  0.00     0.019 C 
HETATM    7  C7  UNL     1      82.387  40.878 -37.606  1.00  0.00     0.019 C 
HETATM    8  C8  UNL     1      83.113  42.428 -35.781  1.00  0.00     0.013 C 
HETATM    9  C9  UNL     1      83.208  43.818 -36.336  1.00  0.00     0.009 C 
HETATM   10  C10 UNL     1      83.362  44.845 -35.247  1.00  0.00     0.028 C 
HETATM   11  C11 UNL     1      82.255  45.756 -34.990  1.00  0.00    -0.041 C 
HETATM   12  C12 UNL     1      82.198  46.132 -33.495  1.00  0.00     0.015 C 
HETATM   13  C13 UNL     1      80.933  45.042 -35.220  1.00  0.00     0.015 C 
HETATM   14  C14 UNL     1      82.192  47.034 -35.758  1.00  0.00     0.009 C 
HETATM   15  C15 UNL     1      83.459  47.528 -36.337  1.00  0.00     0.004 C 
HETATM   16  C16 UNL     1      84.515  46.527 -36.579  1.00  0.00     0.038 C 
HETATM   17  C17 UNL     1      84.727  45.518 -35.470  1.00  0.00     0.070 C 
HETATM   18  C18 UNL     1      85.205  46.237 -34.245  1.00  0.00     0.047 C 
HETATM   19  O4  UNL     1      85.540  44.573 -35.959  1.00  0.00    -0.297 OA
ENDROOT
BRANCH   1  20
HETATM   20  O1  UNL     1      86.019  43.607 -33.909  1.00  0.00    -0.314 OA
HETATM   21  C1  UNL     1      85.910  42.252 -33.611  1.00  0.00     0.210 C 
ENDBRANCH   1  20
BRANCH   1  22
HETATM   22  O2  UNL     1      87.633  44.244 -35.289  1.00  0.00    -0.319 OA
ATOM     23  H2  UNL     1      88.142  43.491 -35.563  1.00  0.00     0.218 HD
ENDBRANCH   1  22
TORSDOF 2
ENDMDL
MODEL 5
REMARK VINA RESULT: -6.596419012      2.442      5.859
REMARK  2 active torsions:
REMARK  status: ('A' for Active; 'I' for Inactive)
REMARK    1  A    between atoms: O1_2  and  C2_3 
REMARK    2  A    between atoms: C2_3  and  O2_4 
ROOT
HETATM    1  C2  UNL     1      83.528  42.878 -35.174  1.00  0.00     0.418 C 
HETATM    2  O3  UNL     1      82.307  43.339 -34.658  1.00  0.00    -0.279 OA
HETATM    3  C3  UNL     1      81.226  43.974 -35.164  1.00  0.00     0.140 C 
HETATM    4  C4  UNL     1      80.971  45.252 -35.303  1.00  0.00     0.006 C 
HETATM    5  C5  UNL     1      81.779  46.426 -34.949  1.00  0.00    -0.028 C 
HETATM    6  C6  UNL     1      81.632  46.607 -33.417  1.00  0.00     0.019 C 
HETATM    7  C7  UNL     1      81.170  47.716 -35.504  1.00  0.00     0.019 C 
HETATM    8  C8  UNL     1      83.242  46.356 -35.166  1.00  0.00     0.013 C 
HETATM    9  C9  UNL     1      83.718  45.861 -36.498  1.00  0.00     0.009 C 
HETATM   10  C10 UNL     1      85.103  45.278 -36.415  1.00  0.00     0.028 C 
HETATM   11  C11 UNL     1      86.198  45.995 -37.054  1.00  0.00    -0.041 C 
HETATM   12  C12 UNL     1      87.512  45.787 -36.273  1.00  0.00     0.015 C 
HETATM   13  C13 UNL     1      85.965  47.493 -36.951  1.00  0.00     0.015 C 
HETATM   14  C14 UNL     1      86.499  45.705 -38.487  1.00  0.00     0.009 C 
HETATM   15  C15 UNL     1      86.035  44.405 -39.016  1.00  0.00     0.004 C 
HETATM   16  C16 UNL     1      84.908  43.764 -38.313  1.00  0.00     0.038 C 
HETATM   17  C17 UNL     1      84.978  43.794 -36.801  1.00  0.00     0.070 C 
HETATM   18  C18 UNL     1      86.164  42.996 -36.354  1.00  0.00     0.047 C 
HETATM   19  O4  UNL     1      83.783  43.386 -36.352  1.00  0.00    -0.297 OA
ENDROOT
BRANCH   1  20
HETATM   20  O1  UNL     1      84.466  43.065 -34.162  1.00  0.00    -0.314 OA
HETATM   21  C1  UNL     1      84.416  41.989 -33.280  1.00  0.00     0.210 C 
ENDBRANCH   1  20
BRANCH   1  22
HETATM   22  O2  UNL     1      83.427  41.466 -35.293  1.00  0.00    -0.319 OA
ATOM     23  H2  UNL     1      82.644  41.250 -34.801  1.00  0.00     0.218 HD
ENDBRANCH   1  22
TORSDOF 2
ENDMDL
