MODEL 1
REMARK VINA RESULT: -9.050311087      0.000      0.000
REMARK  2 active torsions:
REMARK  status: ('A' for Active; 'I' for Inactive)
REMARK    1  A    between atoms: C4_4  and  C5_5 
REMARK    2  A    between atoms: C14_18  and  O5_19 
ROOT
HETATM    1  C1  UNL     1      82.334  45.519 -33.472  1.00  0.00     0.043 C 
HETATM    2  C2  UNL     1      82.554  46.128 -34.816  1.00  0.00    -0.085 C 
HETATM    3  C3  UNL     1      82.027  47.306 -35.034  1.00  0.00     0.010 C 
HETATM    4  C4  UNL     1      82.129  48.075 -36.297  1.00  0.00     0.186 C 
HETATM    5  O2  UNL     1      83.317  48.790 -36.445  1.00  0.00    -0.286 OA
HETATM    6  C13 UNL     1      84.324  48.534 -37.367  1.00  0.00     0.409 C 
HETATM    7  O3  UNL     1      84.887  49.592 -37.799  1.00  0.00    -0.229 OA
HETATM    8  O4  UNL     1      84.599  47.260 -37.702  1.00  0.00    -0.266 OA
HETATM    9  C14 UNL     1      85.274  46.218 -37.149  1.00  0.00     0.272 C 
HETATM   10  C15 UNL     1      84.804  45.698 -35.809  1.00  0.00     0.041 C 
HETATM   11  C16 UNL     1      85.266  46.526 -34.654  1.00  0.00     0.015 C 
HETATM   12  C17 UNL     1      83.353  45.343 -35.787  1.00  0.00     0.042 C 
ENDROOT
BRANCH   4  13
HETATM   13  C5  UNL     1      80.914  49.014 -36.404  1.00  0.00     0.154 C 
HETATM   14  C6  UNL     1      81.364  50.406 -36.460  1.00  0.00     0.035 C 
HETATM   15  C7  UNL     1      81.099  51.254 -35.251  1.00  0.00     0.002 C 
HETATM   16  C8  UNL     1      80.125  52.326 -35.619  1.00  0.00     0.000 C 
HETATM   17  C9  UNL     1      78.689  51.996 -35.265  1.00  0.00     0.000 C 
HETATM   18  C10 UNL     1      77.942  51.292 -36.332  1.00  0.00     0.002 C 
HETATM   19  C11 UNL     1      78.116  49.846 -36.499  1.00  0.00     0.026 C 
HETATM   20  C12 UNL     1      78.763  49.084 -35.399  1.00  0.00     0.168 C 
HETATM   21  O1  UNL     1      79.990  48.596 -35.572  1.00  0.00    -0.383 OA
ENDBRANCH   4  13
BRANCH   9  22
HETATM   22  O5  UNL     1      85.163  45.113 -38.033  1.00  0.00    -0.370 OA
ATOM     23  H5  UNL     1      84.583  44.478 -37.630  1.00  0.00     0.212 HD
ENDBRANCH   9  22
TORSDOF 2
ENDMDL
MODEL 2
REMARK VINA RESULT: -8.998628409      1.827      2.950
REMARK  2 active torsions:
REMARK  status: ('A' for Active; 'I' for Inactive)
REMARK    1  A    between atoms: C4_4  and  C5_5 
REMARK    2  A    between atoms: C14_18  and  O5_19 
ROOT
HETATM    1  C1  UNL     1      85.327  48.860 -37.493  1.00  0.00     0.043 C 
HETATM    2  C2  UNL     1      84.322  48.372 -36.504  1.00  0.00    -0.085 C 
HETATM    3  C3  UNL     1      83.060  48.591 -36.774  1.00  0.00     0.010 C 
HETATM    4  C4  UNL     1      81.915  48.189 -35.924  1.00  0.00     0.186 C 
HETATM    5  O2  UNL     1      81.519  46.860 -36.074  1.00  0.00    -0.286 OA
HETATM    6  C13 UNL     1      81.642  45.851 -35.127  1.00  0.00     0.409 C 
HETATM    7  O3  UNL     1      80.677  45.021 -35.153  1.00  0.00    -0.229 OA
HETATM    8  O4  UNL     1      82.713  45.844 -34.312  1.00  0.00    -0.266 OA
HETATM    9  C14 UNL     1      84.021  45.484 -34.403  1.00  0.00     0.272 C 
HETATM   10  C15 UNL     1      84.882  46.193 -35.423  1.00  0.00     0.041 C 
HETATM   11  C16 UNL     1      84.709  45.672 -36.812  1.00  0.00     0.015 C 
HETATM   12  C17 UNL     1      84.843  47.682 -35.301  1.00  0.00     0.042 C 
ENDROOT
BRANCH   4  13
HETATM   13  C5  UNL     1      80.735  49.140 -36.199  1.00  0.00     0.154 C 
HETATM   14  C6  UNL     1      81.223  50.517 -36.312  1.00  0.00     0.035 C 
HETATM   15  C7  UNL     1      80.877  51.453 -35.191  1.00  0.00     0.002 C 
HETATM   16  C8  UNL     1      79.963  52.514 -35.714  1.00  0.00     0.000 C 
HETATM   17  C9  UNL     1      78.495  52.235 -35.462  1.00  0.00     0.000 C 
HETATM   18  C10 UNL     1      77.824  51.471 -36.538  1.00  0.00     0.002 C 
HETATM   19  C11 UNL     1      77.977  50.014 -36.591  1.00  0.00     0.026 C 
HETATM   20  C12 UNL     1      78.510  49.320 -35.389  1.00  0.00     0.168 C 
HETATM   21  O1  UNL     1      79.735  48.799 -35.423  1.00  0.00    -0.383 OA
ENDBRANCH   4  13
BRANCH   9  22
HETATM   22  O5  UNL     1      84.632  45.756 -33.151  1.00  0.00    -0.370 OA
ATOM     23  H5  UNL     1      83.941  45.847 -32.506  1.00  0.00     0.212 HD
ENDBRANCH   9  22
TORSDOF 2
ENDMDL
MODEL 3
REMARK VINA RESULT: -8.930195271      1.938      6.277
REMARK  2 active torsions:
REMARK  status: ('A' for Active; 'I' for Inactive)
REMARK    1  A    between atoms: C4_4  and  C5_5 
REMARK    2  A    between atoms: C14_18  and  O5_19 
ROOT
HETATM    1  C1  UNL     1      79.805  47.836 -33.050  1.00  0.00     0.043 C 
HETATM    2  C2  UNL     1      80.634  48.687 -33.953  1.00  0.00    -0.085 C 
HETATM    3  C3  UNL     1      81.309  48.081 -34.895  1.00  0.00     0.010 C 
HETATM    4  C4  UNL     1      82.187  48.743 -35.888  1.00  0.00     0.186 C 
HETATM    5  O2  UNL     1      81.517  49.289 -36.983  1.00  0.00    -0.286 OA
HETATM    6  C13 UNL     1      81.383  50.639 -37.278  1.00  0.00     0.409 C 
HETATM    7  O3  UNL     1      81.400  50.882 -38.528  1.00  0.00    -0.229 OA
HETATM    8  O4  UNL     1      81.254  51.522 -36.270  1.00  0.00    -0.266 OA
HETATM    9  C14 UNL     1      80.261  51.929 -35.435  1.00  0.00     0.272 C 
HETATM   10  C15 UNL     1      79.627  50.898 -34.530  1.00  0.00     0.041 C 
HETATM   11  C16 UNL     1      78.611  50.046 -35.218  1.00  0.00     0.015 C 
HETATM   12  C17 UNL     1      80.618  50.147 -33.701  1.00  0.00     0.042 C 
ENDROOT
BRANCH   4  13
HETATM   13  C5  UNL     1      83.256  47.737 -36.353  1.00  0.00     0.154 C 
HETATM   14  C6  UNL     1      83.166  46.512 -35.556  1.00  0.00     0.035 C 
HETATM   15  C7  UNL     1      84.275  46.255 -34.578  1.00  0.00     0.002 C 
HETATM   16  C8  UNL     1      85.028  45.040 -35.013  1.00  0.00     0.000 C 
HETATM   17  C9  UNL     1      86.280  45.349 -35.810  1.00  0.00     0.000 C 
HETATM   18  C10 UNL     1      86.067  45.440 -37.272  1.00  0.00     0.002 C 
HETATM   19  C11 UNL     1      85.530  46.677 -37.847  1.00  0.00     0.026 C 
HETATM   20  C12 UNL     1      85.534  47.902 -37.006  1.00  0.00     0.168 C 
HETATM   21  O1  UNL     1      84.382  48.383 -36.543  1.00  0.00    -0.383 OA
ENDBRANCH   4  13
BRANCH   9  22
HETATM   22  O5  UNL     1      80.805  52.905 -34.560  1.00  0.00    -0.370 OA
ATOM     23  H5  UNL     1      80.353  52.830 -33.728  1.00  0.00     0.212 HD
ENDBRANCH   9  22
TORSDOF 2
ENDMDL
MODEL 4
REMARK VINA RESULT: -8.924493511      1.172      2.035
REMARK  2 active torsions:
REMARK  status: ('A' for Active; 'I' for Inactive)
REMARK    1  A    between atoms: C4_4  and  C5_5 
REMARK    2  A    between atoms: C14_18  and  O5_19 
ROOT
HETATM    1  C1  UNL     1      82.915  44.155 -34.134  1.00  0.00     0.043 C 
HETATM    2  C2  UNL     1      83.166  45.106 -35.256  1.00  0.00    -0.085 C 
HETATM    3  C3  UNL     1      82.829  46.357 -35.069  1.00  0.00     0.010 C 
HETATM    4  C4  UNL     1      82.994  47.450 -36.055  1.00  0.00     0.186 C 
HETATM    5  O2  UNL     1      84.275  48.002 -36.101  1.00  0.00    -0.286 OA
HETATM    6  C13 UNL     1      85.180  47.898 -37.149  1.00  0.00     0.409 C 
HETATM    7  O3  UNL     1      85.887  48.946 -37.305  1.00  0.00    -0.229 OA
HETATM    8  O4  UNL     1      85.226  46.760 -37.866  1.00  0.00    -0.266 OA
HETATM    9  C14 UNL     1      85.748  45.514 -37.709  1.00  0.00     0.272 C 
HETATM   10  C15 UNL     1      85.264  44.685 -36.541  1.00  0.00     0.041 C 
HETATM   11  C16 UNL     1      85.912  45.048 -35.245  1.00  0.00     0.015 C 
HETATM   12  C17 UNL     1      83.778  44.549 -36.485  1.00  0.00     0.042 C 
ENDROOT
BRANCH   4  13
HETATM   13  C5  UNL     1      81.945  48.540 -35.767  1.00  0.00     0.154 C 
HETATM   14  C6  UNL     1      80.786  47.949 -35.094  1.00  0.00     0.035 C 
HETATM   15  C7  UNL     1      79.518  47.846 -35.889  1.00  0.00     0.002 C 
HETATM   16  C8  UNL     1      78.491  48.741 -35.277  1.00  0.00     0.000 C 
HETATM   17  C9  UNL     1      78.383  50.096 -35.946  1.00  0.00     0.000 C 
HETATM   18  C10 UNL     1      79.272  51.133 -35.374  1.00  0.00     0.002 C 
HETATM   19  C11 UNL     1      80.682  51.173 -35.773  1.00  0.00     0.026 C 
HETATM   20  C12 UNL     1      81.095  50.401 -36.974  1.00  0.00     0.168 C 
HETATM   21  O1  UNL     1      81.840  49.307 -36.826  1.00  0.00    -0.383 OA
ENDBRANCH   4  13
BRANCH   9  22
HETATM   22  O5  UNL     1      85.415  44.757 -38.863  1.00  0.00    -0.370 OA
ATOM     23  H5  UNL     1      85.223  45.369 -39.563  1.00  0.00     0.212 HD
ENDBRANCH   9  22
TORSDOF 2
ENDMDL
MODEL 5
REMARK VINA RESULT: -8.713630966      2.223      3.178
REMARK  2 active torsions:
REMARK  status: ('A' for Active; 'I' for Inactive)
REMARK    1  A    between atoms: C4_4  and  C5_5 
REMARK    2  A    between atoms: C14_18  and  O5_19 
ROOT
HETATM    1  C1  UNL     1      85.698  48.051 -36.888  1.00  0.00     0.043 C 
HETATM    2  C2  UNL     1      84.680  47.394 -36.018  1.00  0.00    -0.085 C 
HETATM    3  C3  UNL     1      83.422  47.545 -36.346  1.00  0.00     0.010 C 
HETATM    4  C4  UNL     1      82.266  46.976 -35.615  1.00  0.00     0.186 C 
HETATM    5  O2  UNL     1      81.986  45.644 -35.918  1.00  0.00    -0.286 OA
HETATM    6  C13 UNL     1      82.135  44.556 -35.068  1.00  0.00     0.409 C 
HETATM    7  O3  UNL     1      81.242  43.664 -35.236  1.00  0.00    -0.229 OA
HETATM    8  O4  UNL     1      83.155  44.544 -34.189  1.00  0.00    -0.266 OA
HETATM    9  C14 UNL     1      84.491  44.293 -34.230  1.00  0.00     0.272 C 
HETATM   10  C15 UNL     1      85.349  45.163 -35.119  1.00  0.00     0.041 C 
HETATM   11  C16 UNL     1      85.298  44.774 -36.561  1.00  0.00     0.015 C 
HETATM   12  C17 UNL     1      85.185  46.624 -34.857  1.00  0.00     0.042 C 
ENDROOT
BRANCH   4  13
HETATM   13  C5  UNL     1      81.032  47.861 -35.872  1.00  0.00     0.154 C 
HETATM   14  C6  UNL     1      81.450  49.139 -36.454  1.00  0.00     0.035 C 
HETATM   15  C7  UNL     1      81.336  50.352 -35.579  1.00  0.00     0.002 C 
HETATM   16  C8  UNL     1      80.305  51.267 -36.156  1.00  0.00     0.000 C 
HETATM   17  C9  UNL     1      78.934  51.119 -35.525  1.00  0.00     0.000 C 
HETATM   18  C10 UNL     1      78.062  50.121 -36.183  1.00  0.00     0.002 C 
HETATM   19  C11 UNL     1      78.235  48.698 -35.874  1.00  0.00     0.026 C 
HETATM   20  C12 UNL     1      79.035  48.332 -34.676  1.00  0.00     0.168 C 
HETATM   21  O1  UNL     1      80.235  47.777 -34.834  1.00  0.00    -0.383 OA
ENDBRANCH   4  13
BRANCH   9  22
HETATM   22  O5  UNL     1      85.006  44.480 -32.921  1.00  0.00    -0.370 OA
ATOM     23  H5  UNL     1      84.268  44.607 -32.336  1.00  0.00     0.212 HD
ENDBRANCH   9  22
TORSDOF 2
ENDMDL
