MODEL 1
REMARK VINA RESULT: -7.873701079      0.000      0.000
REMARK  1 active torsions:
REMARK  status: ('A' for Active; 'I' for Inactive)
REMARK    1  A    between atoms: C5_9  and  C6_10 
ROOT
HETATM    1  C1  UNL     1      79.661  46.110 -35.146  1.00  0.00     0.066 C 
HETATM    2  C2  UNL     1      80.598  47.267 -34.885  1.00  0.00     0.183 C 
HETATM    3  C3  UNL     1      80.959  47.369 -33.449  1.00  0.00     0.101 C 
HETATM    4  N1  UNL     1      81.242  47.436 -32.327  1.00  0.00    -0.194 NA
HETATM    5  O1  UNL     1      79.886  48.418 -35.162  1.00  0.00    -0.323 OA
HETATM    6  C4  UNL     1      80.557  49.432 -35.744  1.00  0.00     0.206 C 
HETATM    7  O2  UNL     1      81.788  49.183 -36.267  1.00  0.00    -0.199 OA
HETATM    8  O3  UNL     1      82.522  48.325 -35.640  1.00  0.00    -0.221 OA
HETATM    9  C5  UNL     1      81.827  47.091 -35.695  1.00  0.00     0.266 C 
HETATM   10  C10 UNL     1      79.675  50.035 -36.838  1.00  0.00     0.052 C 
HETATM   11  C11 UNL     1      80.282  51.269 -37.418  1.00  0.00     0.014 C 
HETATM   12  C12 UNL     1      80.387  52.315 -36.334  1.00  0.00    -0.013 C 
HETATM   13  C13 UNL     1      79.060  52.635 -35.730  1.00  0.00     0.009 C 
HETATM   14  C14 UNL     1      78.446  51.372 -35.193  1.00  0.00    -0.013 C 
HETATM   15  C15 UNL     1      78.316  50.319 -36.275  1.00  0.00     0.014 C 
HETATM   16  C16 UNL     1      79.346  50.833 -34.112  1.00  0.00     0.014 C 
HETATM   17  C17 UNL     1      80.714  50.537 -34.691  1.00  0.00     0.052 C 
HETATM   18  C18 UNL     1      81.322  51.779 -35.281  1.00  0.00     0.014 C 
ENDROOT
BRANCH   9  19
HETATM   19  C6  UNL     1      82.756  46.076 -35.202  1.00  0.00     0.088 A 
HETATM   20  C7  UNL     1      82.627  44.716 -35.299  1.00  0.00     0.037 A 
HETATM   21  C8  UNL     1      83.740  44.146 -34.697  1.00  0.00     0.027 A 
HETATM   22  C9  UNL     1      84.497  45.209 -34.261  1.00  0.00     0.142 A 
HETATM   23  O4  UNL     1      83.898  46.307 -34.571  1.00  0.00    -0.324 OA
ENDBRANCH   9  19
TORSDOF 1
ENDMDL
MODEL 2
REMARK VINA RESULT: -7.463803024      1.581      2.098
REMARK  1 active torsions:
REMARK  status: ('A' for Active; 'I' for Inactive)
REMARK    1  A    between atoms: C5_9  and  C6_10 
ROOT
HETATM    1  C1  UNL     1      81.424  44.530 -35.371  1.00  0.00     0.066 C 
HETATM    2  C2  UNL     1      82.023  45.867 -34.998  1.00  0.00     0.183 C 
HETATM    3  C3  UNL     1      82.554  45.865 -33.612  1.00  0.00     0.101 C 
HETATM    4  N1  UNL     1      82.974  45.850 -32.531  1.00  0.00    -0.194 NA
HETATM    5  O1  UNL     1      80.980  46.774 -34.984  1.00  0.00    -0.323 OA
HETATM    6  C4  UNL     1      81.240  48.018 -35.435  1.00  0.00     0.206 C 
HETATM    7  O2  UNL     1      82.397  48.235 -36.117  1.00  0.00    -0.199 OA
HETATM    8  O3  UNL     1      83.430  47.559 -35.737  1.00  0.00    -0.221 OA
HETATM    9  C5  UNL     1      83.114  46.194 -35.947  1.00  0.00     0.266 C 
HETATM   10  C10 UNL     1      80.068  48.475 -36.304  1.00  0.00     0.052 C 
HETATM   11  C11 UNL     1      80.205  49.907 -36.705  1.00  0.00     0.014 C 
HETATM   12  C12 UNL     1      80.174  50.765 -35.463  1.00  0.00    -0.013 C 
HETATM   13  C13 UNL     1      78.918  50.574 -34.679  1.00  0.00     0.009 C 
HETATM   14  C14 UNL     1      78.776  49.120 -34.324  1.00  0.00    -0.013 C 
HETATM   15  C15 UNL     1      78.787  48.247 -35.563  1.00  0.00     0.014 C 
HETATM   16  C16 UNL     1      79.945  48.729 -33.458  1.00  0.00     0.014 C 
HETATM   17  C17 UNL     1      81.236  48.952 -34.218  1.00  0.00     0.052 C 
HETATM   18  C18 UNL     1      81.371  50.392 -34.628  1.00  0.00     0.014 C 
ENDROOT
BRANCH   9  19
HETATM   19  C6  UNL     1      84.356  45.450 -35.747  1.00  0.00     0.088 A 
HETATM   20  C7  UNL     1      85.576  45.956 -35.386  1.00  0.00     0.037 A 
HETATM   21  C8  UNL     1      86.466  44.893 -35.313  1.00  0.00     0.027 A 
HETATM   22  C9  UNL     1      85.724  43.781 -35.639  1.00  0.00     0.142 A 
HETATM   23  O4  UNL     1      84.511  44.141 -35.883  1.00  0.00    -0.324 OA
ENDBRANCH   9  19
TORSDOF 1
ENDMDL
MODEL 3
REMARK VINA RESULT: -7.412052827      2.331      3.766
REMARK  1 active torsions:
REMARK  status: ('A' for Active; 'I' for Inactive)
REMARK    1  A    between atoms: C5_9  and  C6_10 
ROOT
HETATM    1  C1  UNL     1      84.162  45.521 -36.414  1.00  0.00     0.066 C 
HETATM    2  C2  UNL     1      83.167  45.445 -35.279  1.00  0.00     0.183 C 
HETATM    3  C3  UNL     1      82.383  44.185 -35.320  1.00  0.00     0.101 C 
HETATM    4  N1  UNL     1      81.782  43.194 -35.355  1.00  0.00    -0.194 NA
HETATM    5  O1  UNL     1      82.245  46.451 -35.497  1.00  0.00    -0.323 OA
HETATM    6  C4  UNL     1      81.773  47.099 -34.413  1.00  0.00     0.206 C 
HETATM    7  O2  UNL     1      82.411  46.928 -33.223  1.00  0.00    -0.199 OA
HETATM    8  O3  UNL     1      82.906  45.757 -32.994  1.00  0.00    -0.221 OA
HETATM    9  C5  UNL     1      83.891  45.538 -33.989  1.00  0.00     0.266 C 
HETATM   10  C10 UNL     1      81.718  48.595 -34.726  1.00  0.00     0.052 C 
HETATM   11  C11 UNL     1      81.050  49.362 -33.633  1.00  0.00     0.014 C 
HETATM   12  C12 UNL     1      79.617  48.898 -33.518  1.00  0.00    -0.013 C 
HETATM   13  C13 UNL     1      78.866  49.073 -34.796  1.00  0.00     0.009 C 
HETATM   14  C14 UNL     1      79.579  48.330 -35.892  1.00  0.00    -0.013 C 
HETATM   15  C15 UNL     1      81.013  48.799 -36.032  1.00  0.00     0.014 C 
HETATM   16  C16 UNL     1      79.590  46.866 -35.541  1.00  0.00     0.014 C 
HETATM   17  C17 UNL     1      80.313  46.666 -34.225  1.00  0.00     0.052 C 
HETATM   18  C18 UNL     1      79.645  47.444 -33.126  1.00  0.00     0.014 C 
ENDROOT
BRANCH   9  19
HETATM   19  C6  UNL     1      84.612  44.331 -33.592  1.00  0.00     0.088 A 
HETATM   20  C7  UNL     1      84.575  43.706 -32.374  1.00  0.00     0.037 A 
HETATM   21  C8  UNL     1      85.412  42.601 -32.445  1.00  0.00     0.027 A 
HETATM   22  C9  UNL     1      85.920  42.616 -33.724  1.00  0.00     0.142 A 
HETATM   23  O4  UNL     1      85.435  43.628 -34.357  1.00  0.00    -0.324 OA
ENDBRANCH   9  19
TORSDOF 1
ENDMDL
MODEL 4
REMARK VINA RESULT: -7.394792837      2.162      3.614
REMARK  1 active torsions:
REMARK  status: ('A' for Active; 'I' for Inactive)
REMARK    1  A    between atoms: C5_9  and  C6_10 
ROOT
HETATM    1  C1  UNL     1      84.045  45.734 -33.296  1.00  0.00     0.066 C 
HETATM    2  C2  UNL     1      83.079  45.858 -34.452  1.00  0.00     0.183 C 
HETATM    3  C3  UNL     1      83.788  46.022 -35.746  1.00  0.00     0.101 C 
HETATM    4  N1  UNL     1      84.350  46.140 -36.753  1.00  0.00    -0.194 NA
HETATM    5  O1  UNL     1      82.390  47.041 -34.264  1.00  0.00    -0.323 OA
HETATM    6  C4  UNL     1      81.084  47.054 -34.599  1.00  0.00     0.206 C 
HETATM    7  O2  UNL     1      80.461  45.868 -34.835  1.00  0.00    -0.199 OA
HETATM    8  O3  UNL     1      81.165  44.944 -35.399  1.00  0.00    -0.221 OA
HETATM    9  C5  UNL     1      82.224  44.647 -34.504  1.00  0.00     0.266 C 
HETATM   10  C10 UNL     1      80.311  47.805 -33.514  1.00  0.00     0.052 C 
HETATM   11  C11 UNL     1      78.882  48.006 -33.895  1.00  0.00     0.014 C 
HETATM   12  C12 UNL     1      78.825  48.869 -35.133  1.00  0.00    -0.013 C 
HETATM   13  C13 UNL     1      79.488  50.191 -34.927  1.00  0.00     0.009 C 
HETATM   14  C14 UNL     1      80.913  49.966 -34.501  1.00  0.00    -0.013 C 
HETATM   15  C15 UNL     1      80.984  49.116 -33.248  1.00  0.00     0.014 C 
HETATM   16  C16 UNL     1      81.628  49.239 -35.609  1.00  0.00     0.014 C 
HETATM   17  C17 UNL     1      80.949  47.910 -35.865  1.00  0.00     0.052 C 
HETATM   18  C18 UNL     1      79.508  48.112 -36.242  1.00  0.00     0.014 C 
ENDROOT
BRANCH   9  19
HETATM   19  C6  UNL     1      82.876  43.448 -35.025  1.00  0.00     0.088 A 
HETATM   20  C7  UNL     1      82.607  42.803 -36.203  1.00  0.00     0.037 A 
HETATM   21  C8  UNL     1      83.464  41.714 -36.290  1.00  0.00     0.027 A 
HETATM   22  C9  UNL     1      84.219  41.759 -35.141  1.00  0.00     0.142 A 
HETATM   23  O4  UNL     1      83.852  42.773 -34.435  1.00  0.00    -0.324 OA
ENDBRANCH   9  19
TORSDOF 1
ENDMDL
MODEL 5
REMARK VINA RESULT: -7.367244390      1.462      6.388
REMARK  1 active torsions:
REMARK  status: ('A' for Active; 'I' for Inactive)
REMARK    1  A    between atoms: C5_9  and  C6_10 
ROOT
HETATM    1  C1  UNL     1      81.016  47.810 -32.722  1.00  0.00     0.066 C 
HETATM    2  C2  UNL     1      81.382  47.294 -34.094  1.00  0.00     0.183 C 
HETATM    3  C3  UNL     1      80.214  46.693 -34.785  1.00  0.00     0.101 C 
HETATM    4  N1  UNL     1      79.294  46.234 -35.321  1.00  0.00    -0.194 NA
HETATM    5  O1  UNL     1      82.264  46.248 -33.898  1.00  0.00    -0.323 OA
HETATM    6  C4  UNL     1      83.273  46.119 -34.782  1.00  0.00     0.206 C 
HETATM    7  O2  UNL     1      83.530  47.150 -35.632  1.00  0.00    -0.199 OA
HETATM    8  O3  UNL     1      82.511  47.822 -36.053  1.00  0.00    -0.221 OA
HETATM    9  C5  UNL     1      81.920  48.411 -34.907  1.00  0.00     0.266 C 
HETATM   10  C10 UNL     1      84.554  45.789 -34.014  1.00  0.00     0.052 C 
HETATM   11  C11 UNL     1      85.682  45.468 -34.937  1.00  0.00     0.014 C 
HETATM   12  C12 UNL     1      85.328  44.229 -35.726  1.00  0.00    -0.013 C 
HETATM   13  C13 UNL     1      85.045  43.061 -34.841  1.00  0.00     0.009 C 
HETATM   14  C14 UNL     1      83.937  43.420 -33.890  1.00  0.00    -0.013 C 
HETATM   15  C15 UNL     1      84.287  44.651 -33.077  1.00  0.00     0.014 C 
HETATM   16  C16 UNL     1      82.701  43.720 -34.697  1.00  0.00     0.014 C 
HETATM   17  C17 UNL     1      82.975  44.878 -35.633  1.00  0.00     0.052 C 
HETATM   18  C18 UNL     1      84.116  44.557 -36.558  1.00  0.00     0.014 C 
ENDROOT
BRANCH   9  19
HETATM   19  C6  UNL     1      80.922  49.357 -35.401  1.00  0.00     0.088 A 
HETATM   20  C7  UNL     1      80.703  49.727 -36.701  1.00  0.00     0.037 A 
HETATM   21  C8  UNL     1      79.661  50.645 -36.706  1.00  0.00     0.027 A 
HETATM   22  C9  UNL     1      79.299  50.783 -35.386  1.00  0.00     0.142 A 
HETATM   23  O4  UNL     1      80.048  50.024 -34.662  1.00  0.00    -0.324 OA
ENDBRANCH   9  19
TORSDOF 1
ENDMDL
