MODEL 1
REMARK VINA RESULT: -9.205519787      0.000      0.000
REMARK  1 active torsions:
REMARK  status: ('A' for Active; 'I' for Inactive)
REMARK    1  A    between atoms: C8_11  and  C9_12 
ROOT
HETATM    1  C1  UNL     1      79.069  52.794 -36.040  1.00  0.00     0.000 C 
HETATM    2  C2  UNL     1      78.113  51.687 -35.714  1.00  0.00     0.003 C 
HETATM    3  C3  UNL     1      78.657  50.320 -35.890  1.00  0.00     0.043 C 
HETATM    4  C4  UNL     1      80.079  50.133 -35.499  1.00  0.00     0.120 C 
HETATM    5  C5  UNL     1      80.963  51.309 -35.743  1.00  0.00     0.043 C 
HETATM    6  C6  UNL     1      80.314  52.571 -35.177  1.00  0.00     0.003 C 
HETATM    7  C7  UNL     1      80.634  48.960 -36.295  1.00  0.00     0.277 C 
HETATM    8  N1  UNL     1      81.538  48.251 -35.407  1.00  0.00    -0.037 N 
ATOM      9  H11 UNL     1      82.263  48.848 -35.008  1.00  0.00     0.280 HD
ATOM     10  H12 UNL     1      82.160  47.606 -35.895  1.00  0.00     0.280 HD
HETATM   11  C8  UNL     1      80.709  47.605 -34.405  1.00  0.00     0.408 C 
HETATM   12  O1  UNL     1      79.859  48.558 -33.913  1.00  0.00    -0.200 OA
HETATM   13  O2  UNL     1      80.204  49.784 -34.144  1.00  0.00    -0.225 OA
ENDROOT
BRANCH  11  14
HETATM   14  C9  UNL     1      81.575  46.988 -33.323  1.00  0.00     0.082 A 
HETATM   15  N2  UNL     1      81.367  47.390 -32.068  1.00  0.00    -0.325 N 
HETATM   16  S1  UNL     1      82.483  46.526 -31.161  1.00  0.00    -0.018 SA
ATOM     17  H2  UNL     1      80.682  48.069 -31.736  1.00  0.00     0.174 HD
HETATM   18  C10 UNL     1      83.217  45.645 -32.419  1.00  0.00     0.008 A 
HETATM   19  C11 UNL     1      82.538  46.076 -33.528  1.00  0.00    -0.012 A 
HETATM   20  C17 UNL     1      84.323  44.631 -32.443  1.00  0.00     0.048 C 
HETATM   21  C12 UNL     1      82.944  45.473 -34.859  1.00  0.00     0.026 C 
HETATM   22  C13 UNL     1      81.815  44.607 -35.433  1.00  0.00     0.010 C 
HETATM   23  C15 UNL     1      83.753  44.259 -34.744  1.00  0.00    -0.006 C 
HETATM   24  C14 UNL     1      82.897  43.593 -35.804  1.00  0.00     0.006 C 
HETATM   25  C16 UNL     1      83.817  43.570 -33.434  1.00  0.00     0.010 C 
ENDBRANCH  11  14
TORSDOF 1
ENDMDL
MODEL 2
REMARK VINA RESULT: -8.945340012      3.276      7.431
REMARK  1 active torsions:
REMARK  status: ('A' for Active; 'I' for Inactive)
REMARK    1  A    between atoms: C8_11  and  C9_12 
ROOT
HETATM    1  C1  UNL     1      86.562  41.894 -36.309  1.00  0.00     0.000 C 
HETATM    2  C2  UNL     1      85.097  41.910 -35.995  1.00  0.00     0.003 C 
HETATM    3  C3  UNL     1      84.627  43.113 -35.269  1.00  0.00     0.043 C 
HETATM    4  C4  UNL     1      85.253  44.399 -35.672  1.00  0.00     0.120 C 
HETATM    5  C5  UNL     1      86.684  44.306 -36.084  1.00  0.00     0.043 C 
HETATM    6  C6  UNL     1      86.859  43.174 -37.095  1.00  0.00     0.003 C 
HETATM    7  C7  UNL     1      85.169  45.353 -34.490  1.00  0.00     0.277 C 
HETATM    8  N1  UNL     1      84.922  46.673 -35.041  1.00  0.00    -0.037 N 
ATOM      9  H11 UNL     1      85.610  46.954 -35.739  1.00  0.00     0.280 HD
ATOM     10  H12 UNL     1      85.098  47.427 -34.378  1.00  0.00     0.280 HD
HETATM   11  C8  UNL     1      83.560  46.659 -35.548  1.00  0.00     0.408 C 
HETATM   12  O1  UNL     1      83.437  45.544 -36.333  1.00  0.00    -0.200 OA
HETATM   13  O2  UNL     1      84.550  45.013 -36.724  1.00  0.00    -0.225 OA
ENDROOT
BRANCH  11  14
HETATM   14  C9  UNL     1      83.269  47.938 -36.310  1.00  0.00     0.082 A 
HETATM   15  N2  UNL     1      84.139  48.301 -37.253  1.00  0.00    -0.325 N 
HETATM   16  S1  UNL     1      83.517  49.734 -37.868  1.00  0.00    -0.018 SA
ATOM     17  H2  UNL     1      84.991  47.817 -37.536  1.00  0.00     0.174 HD
HETATM   18  C10 UNL     1      82.126  49.854 -36.895  1.00  0.00     0.008 A 
HETATM   19  C11 UNL     1      82.209  48.736 -36.107  1.00  0.00    -0.012 A 
HETATM   20  C17 UNL     1      81.019  50.863 -36.819  1.00  0.00     0.048 C 
HETATM   21  C12 UNL     1      81.095  48.521 -35.100  1.00  0.00     0.026 C 
HETATM   22  C13 UNL     1      80.264  47.284 -35.461  1.00  0.00     0.010 C 
HETATM   23  C15 UNL     1      79.903  49.335 -35.344  1.00  0.00    -0.006 C 
HETATM   24  C14 UNL     1      79.029  48.117 -35.115  1.00  0.00     0.006 C 
HETATM   25  C16 UNL     1      79.756  50.002 -36.658  1.00  0.00     0.010 C 
ENDBRANCH  11  14
TORSDOF 1
ENDMDL
MODEL 3
REMARK VINA RESULT: -8.828520787      2.980      7.391
REMARK  1 active torsions:
REMARK  status: ('A' for Active; 'I' for Inactive)
REMARK    1  A    between atoms: C8_11  and  C9_12 
ROOT
HETATM    1  C1  UNL     1      85.307  40.874 -34.864  1.00  0.00     0.000 C 
HETATM    2  C2  UNL     1      83.831  41.096 -34.994  1.00  0.00     0.003 C 
HETATM    3  C3  UNL     1      83.343  42.383 -34.442  1.00  0.00     0.043 C 
HETATM    4  C4  UNL     1      84.231  43.556 -34.649  1.00  0.00     0.120 C 
HETATM    5  C5  UNL     1      85.692  43.256 -34.623  1.00  0.00     0.043 C 
HETATM    6  C6  UNL     1      85.994  42.067 -35.534  1.00  0.00     0.003 C 
HETATM    7  C7  UNL     1      83.943  44.564 -33.546  1.00  0.00     0.277 C 
HETATM    8  N1  UNL     1      84.052  45.879 -34.151  1.00  0.00    -0.037 N 
ATOM      9  H11 UNL     1      84.945  46.035 -34.618  1.00  0.00     0.280 HD
ATOM     10  H12 UNL     1      84.132  46.632 -33.468  1.00  0.00     0.280 HD
HETATM   11  C8  UNL     1      82.908  46.022 -35.035  1.00  0.00     0.408 C 
HETATM   12  O1  UNL     1      82.862  44.900 -35.817  1.00  0.00    -0.200 OA
HETATM   13  O2  UNL     1      83.956  44.209 -35.863  1.00  0.00    -0.225 OA
ENDROOT
BRANCH  11  14
HETATM   14  C9  UNL     1      83.031  47.293 -35.854  1.00  0.00     0.082 A 
HETATM   15  N2  UNL     1      84.101  47.415 -36.639  1.00  0.00    -0.325 N 
HETATM   16  S1  UNL     1      83.916  48.914 -37.372  1.00  0.00    -0.018 SA
ATOM     17  H2  UNL     1      84.862  46.747 -36.765  1.00  0.00     0.174 HD
HETATM   18  C10 UNL     1      82.444  49.376 -36.652  1.00  0.00     0.008 A 
HETATM   19  C11 UNL     1      82.151  48.307 -35.846  1.00  0.00    -0.012 A 
HETATM   20  C17 UNL     1      81.586  50.600 -36.781  1.00  0.00     0.048 C 
HETATM   21  C12 UNL     1      80.867  48.385 -35.042  1.00  0.00     0.026 C 
HETATM   22  C13 UNL     1      79.857  47.336 -35.522  1.00  0.00     0.010 C 
HETATM   23  C15 UNL     1      79.938  49.420 -35.497  1.00  0.00    -0.006 C 
HETATM   24  C14 UNL     1      78.795  48.429 -35.404  1.00  0.00     0.006 C 
HETATM   25  C16 UNL     1      80.157  50.035 -36.827  1.00  0.00     0.010 C 
ENDBRANCH  11  14
TORSDOF 1
ENDMDL
MODEL 4
REMARK VINA RESULT: -8.726987881      2.137      7.144
REMARK  1 active torsions:
REMARK  status: ('A' for Active; 'I' for Inactive)
REMARK    1  A    between atoms: C8_11  and  C9_12 
ROOT
HETATM    1  C1  UNL     1      84.125  43.793 -33.881  1.00  0.00     0.000 C 
HETATM    2  C2  UNL     1      84.010  44.976 -32.968  1.00  0.00     0.003 C 
HETATM    3  C3  UNL     1      83.753  46.267 -33.649  1.00  0.00     0.043 C 
HETATM    4  C4  UNL     1      82.836  46.213 -34.816  1.00  0.00     0.120 C 
HETATM    5  C5  UNL     1      82.913  44.962 -35.625  1.00  0.00     0.043 C 
HETATM    6  C6  UNL     1      82.837  43.745 -34.706  1.00  0.00     0.003 C 
HETATM    7  C7  UNL     1      83.172  47.382 -35.732  1.00  0.00     0.277 C 
HETATM    8  N1  UNL     1      81.912  47.855 -36.275  1.00  0.00    -0.037 N 
ATOM      9  H11 UNL     1      81.370  47.124 -36.735  1.00  0.00     0.280 HD
ATOM     10  H12 UNL     1      82.024  48.461 -37.088  1.00  0.00     0.280 HD
HETATM   11  C8  UNL     1      81.203  48.492 -35.178  1.00  0.00     0.408 C 
HETATM   12  O1  UNL     1      81.221  47.614 -34.127  1.00  0.00    -0.200 OA
HETATM   13  O2  UNL     1      81.495  46.386 -34.433  1.00  0.00    -0.225 OA
ENDROOT
BRANCH  11  14
HETATM   14  C9  UNL     1      79.794  48.857 -35.602  1.00  0.00     0.082 A 
HETATM   15  N2  UNL     1      78.873  47.894 -35.564  1.00  0.00    -0.325 N 
HETATM   16  S1  UNL     1      77.466  48.638 -36.097  1.00  0.00    -0.018 SA
ATOM     17  H2  UNL     1      78.996  46.923 -35.276  1.00  0.00     0.174 HD
HETATM   18  C10 UNL     1      78.083  50.201 -36.368  1.00  0.00     0.008 A 
HETATM   19  C11 UNL     1      79.402  50.072 -36.019  1.00  0.00    -0.012 A 
HETATM   20  C17 UNL     1      77.456  51.474 -36.854  1.00  0.00     0.048 C 
HETATM   21  C12 UNL     1      80.268  51.311 -36.137  1.00  0.00     0.026 C 
HETATM   22  C13 UNL     1      80.731  51.788 -34.755  1.00  0.00     0.010 C 
HETATM   23  C15 UNL     1      79.513  52.559 -36.263  1.00  0.00    -0.006 C 
HETATM   24  C14 UNL     1      80.419  53.206 -35.233  1.00  0.00     0.006 C 
HETATM   25  C16 UNL     1      78.067  52.549 -35.941  1.00  0.00     0.010 C 
ENDBRANCH  11  14
TORSDOF 1
ENDMDL
MODEL 5
REMARK VINA RESULT: -8.668512943      2.541      3.382
REMARK  1 active torsions:
REMARK  status: ('A' for Active; 'I' for Inactive)
REMARK    1  A    between atoms: C8_11  and  C9_12 
ROOT
HETATM    1  C1  UNL     1      78.291  50.776 -36.119  1.00  0.00     0.000 C 
HETATM    2  C2  UNL     1      79.756  51.030 -36.305  1.00  0.00     0.003 C 
HETATM    3  C3  UNL     1      80.646  50.224 -35.436  1.00  0.00     0.043 C 
HETATM    4  C4  UNL     1      80.221  48.820 -35.198  1.00  0.00     0.120 C 
HETATM    5  C5  UNL     1      78.746  48.607 -35.134  1.00  0.00     0.043 C 
HETATM    6  C6  UNL     1      78.073  49.276 -36.332  1.00  0.00     0.003 C 
HETATM    7  C7  UNL     1      80.815  48.368 -33.872  1.00  0.00     0.277 C 
HETATM    8  N1  UNL     1      81.179  46.972 -34.039  1.00  0.00    -0.037 N 
ATOM      9  H11 UNL     1      80.405  46.388 -34.355  1.00  0.00     0.280 HD
ATOM     10  H12 UNL     1      81.349  46.491 -33.156  1.00  0.00     0.280 HD
HETATM   11  C8  UNL     1      82.322  46.949 -34.935  1.00  0.00     0.408 C 
HETATM   12  O1  UNL     1      81.995  47.715 -36.021  1.00  0.00    -0.200 OA
HETATM   13  O2  UNL     1      80.731  47.950 -36.177  1.00  0.00    -0.225 OA
ENDROOT
BRANCH  11  14
HETATM   14  C9  UNL     1      82.663  45.521 -35.317  1.00  0.00     0.082 A 
HETATM   15  N2  UNL     1      81.661  44.642 -35.358  1.00  0.00    -0.325 N 
HETATM   16  S1  UNL     1      82.391  43.195 -35.796  1.00  0.00    -0.018 SA
ATOM     17  H2  UNL     1      80.674  44.811 -35.166  1.00  0.00     0.174 HD
HETATM   18  C10 UNL     1      83.998  43.741 -35.924  1.00  0.00     0.008 A 
HETATM   19  C11 UNL     1      83.893  45.071 -35.610  1.00  0.00    -0.012 A 
HETATM   20  C17 UNL     1      85.283  43.053 -36.280  1.00  0.00     0.048 C 
HETATM   21  C12 UNL     1      85.173  45.885 -35.633  1.00  0.00     0.026 C 
HETATM   22  C13 UNL     1      85.139  46.924 -36.760  1.00  0.00     0.010 C 
HETATM   23  C15 UNL     1      86.283  45.234 -36.329  1.00  0.00    -0.006 C 
HETATM   24  C14 UNL     1      86.589  46.533 -37.048  1.00  0.00     0.006 C 
HETATM   25  C16 UNL     1      85.992  44.066 -37.193  1.00  0.00     0.010 C 
ENDBRANCH  11  14
TORSDOF 1
ENDMDL
