MODEL 1
REMARK VINA RESULT: -7.096879333      0.000      0.000
REMARK  5 active torsions:
REMARK  status: ('A' for Active; 'I' for Inactive)
REMARK    1  A    between atoms: C2_2  and  O1_3 
REMARK    2  A    between atoms: O1_3  and  N1_4 
REMARK       I    between atoms: N1_4  and  C3_5 
REMARK       I    between atoms: C3_5  and  N2_6 
REMARK       I    between atoms: C3_5  and  N4_20 
REMARK    3  A    between atoms: N2_6  and  C4_8 
REMARK    4  A    between atoms: C7_12  and  C8_13 
REMARK    5  A    between atoms: C8_13  and  N3_14 
ROOT
HETATM    1  N1  UNL     1      35.636  18.305  17.768  1.00  0.00    -0.242 NA
HETATM    2  C3  UNL     1      36.522  17.993  17.145  1.00  0.00     0.298 C 
HETATM    3  N2  UNL     1      36.725  16.844  16.355  1.00  0.00    -0.306 N 
ATOM      4  H2  UNL     1      36.298  16.818  15.429  1.00  0.00     0.170 HD
HETATM    5  N4  UNL     1      37.669  18.922  16.967  1.00  0.00    -0.279 N 
HETATM    6  C12 UNL     1      37.767  20.193  17.552  1.00  0.00     0.141 C 
HETATM    7  C13 UNL     1      39.244  20.602  17.492  1.00  0.00     0.022 C 
HETATM    8  C14 UNL     1      39.601  21.030  16.095  1.00  0.00     0.013 C 
HETATM    9  C15 UNL     1      39.667  19.863  15.117  1.00  0.00     0.098 C 
HETATM   10  S2  UNL     1      38.990  18.382  15.913  1.00  0.00    -0.050 SA
ENDROOT
BRANCH   3  11
HETATM   11  C4  UNL     1      37.482  15.724  16.767  1.00  0.00     0.098 A 
HETATM   12  S1  UNL     1      38.934  15.188  15.953  1.00  0.00    -0.075 SA
HETATM   13  C5  UNL     1      39.231  13.766  16.809  1.00  0.00    -0.007 A 
HETATM   14  C6  UNL     1      38.207  13.700  17.696  1.00  0.00    -0.023 A 
HETATM   15  C11 UNL     1      40.204  12.633  17.088  1.00  0.00     0.047 C 
HETATM   16  C7  UNL     1      37.279  14.720  17.703  1.00  0.00     0.067 A 
HETATM   17  C9  UNL     1      38.161  12.254  18.232  1.00  0.00     0.041 C 
HETATM   18  C10 UNL     1      39.279  11.545  17.520  1.00  0.00     0.010 C 
BRANCH  16  19
HETATM   19  C8  UNL     1      36.216  14.838  18.705  1.00  0.00    -0.034 C 
BRANCH  19  20
HETATM   20  N3  UNL     1      35.339  14.900  19.526  1.00  0.00    -0.365 N 
ATOM     21  H32 UNL     1      35.344  14.219  18.767  1.00  0.00     0.165 HD
ATOM     22  H31 UNL     1      34.610  14.976  20.235  1.00  0.00     0.165 HD
ENDBRANCH  19  20
ENDBRANCH  16  19
ENDBRANCH   3  11
BRANCH   1  23
HETATM   23  O1  UNL     1      34.485  18.428  18.404  1.00  0.00    -0.206 OA
BRANCH  23  24
HETATM   24  C2  UNL     1      33.372  18.327  17.400  1.00  0.00     0.213 C 
HETATM   25  C1  UNL     1      32.996  16.851  17.661  1.00  0.00     0.037 C 
ENDBRANCH  23  24
ENDBRANCH   1  23
TORSDOF 5
ENDMDL
MODEL 2
REMARK VINA RESULT: -6.908313053      2.508      3.124
REMARK  5 active torsions:
REMARK  status: ('A' for Active; 'I' for Inactive)
REMARK    1  A    between atoms: C2_2  and  O1_3 
REMARK    2  A    between atoms: O1_3  and  N1_4 
REMARK       I    between atoms: N1_4  and  C3_5 
REMARK       I    between atoms: C3_5  and  N2_6 
REMARK       I    between atoms: C3_5  and  N4_20 
REMARK    3  A    between atoms: N2_6  and  C4_8 
REMARK    4  A    between atoms: C7_12  and  C8_13 
REMARK    5  A    between atoms: C8_13  and  N3_14 
ROOT
HETATM    1  N1  UNL     1      37.439  17.480  13.448  1.00  0.00    -0.242 NA
HETATM    2  C3  UNL     1      38.497  17.195  13.717  1.00  0.00     0.298 C 
HETATM    3  N2  UNL     1      39.169  15.962  13.601  1.00  0.00    -0.306 N 
ATOM      4  H2  UNL     1      39.525  15.695  12.684  1.00  0.00     0.170 HD
HETATM    5  N4  UNL     1      39.456  18.238  14.167  1.00  0.00    -0.279 N 
HETATM    6  C12 UNL     1      39.144  19.597  14.323  1.00  0.00     0.141 C 
HETATM    7  C13 UNL     1      40.237  20.209  15.207  1.00  0.00     0.022 C 
HETATM    8  C14 UNL     1      41.492  20.413  14.405  1.00  0.00     0.013 C 
HETATM    9  C15 UNL     1      42.201  19.106  14.072  1.00  0.00     0.098 C 
HETATM   10  S2  UNL     1      41.119  17.718  14.501  1.00  0.00    -0.050 SA
ENDROOT
BRANCH   3  11
HETATM   11  C4  UNL     1      39.378  15.071  14.678  1.00  0.00     0.098 A 
HETATM   12  S1  UNL     1      40.460  13.700  14.601  1.00  0.00    -0.075 SA
HETATM   13  C5  UNL     1      40.125  12.989  16.093  1.00  0.00    -0.007 A 
HETATM   14  C6  UNL     1      39.172  13.792  16.629  1.00  0.00    -0.023 A 
HETATM   15  C11 UNL     1      40.522  11.938  17.116  1.00  0.00     0.047 C 
HETATM   16  C7  UNL     1      38.768  14.899  15.913  1.00  0.00     0.067 A 
HETATM   17  C9  UNL     1      38.516  13.010  17.786  1.00  0.00     0.041 C 
HETATM   18  C10 UNL     1      39.223  11.684  17.803  1.00  0.00     0.010 C 
BRANCH  16  19
HETATM   19  C8  UNL     1      37.859  15.918  16.445  1.00  0.00    -0.034 C 
BRANCH  19  20
HETATM   20  N3  UNL     1      37.097  16.755  16.850  1.00  0.00    -0.365 N 
ATOM     21  H32 UNL     1      36.856  16.093  16.113  1.00  0.00     0.165 HD
ATOM     22  H31 UNL     1      36.471  17.475  17.213  1.00  0.00     0.165 HD
ENDBRANCH  19  20
ENDBRANCH  16  19
ENDBRANCH   3  11
BRANCH   1  23
HETATM   23  O1  UNL     1      36.182  17.543  13.050  1.00  0.00    -0.206 OA
BRANCH  23  24
HETATM   24  C2  UNL     1      35.431  18.451  13.982  1.00  0.00     0.213 C 
HETATM   25  C1  UNL     1      34.399  17.416  14.485  1.00  0.00     0.037 C 
ENDBRANCH  23  24
ENDBRANCH   1  23
TORSDOF 5
ENDMDL
MODEL 3
REMARK VINA RESULT: -6.830870825      1.922      2.085
REMARK  5 active torsions:
REMARK  status: ('A' for Active; 'I' for Inactive)
REMARK    1  A    between atoms: C2_2  and  O1_3 
REMARK    2  A    between atoms: O1_3  and  N1_4 
REMARK       I    between atoms: N1_4  and  C3_5 
REMARK       I    between atoms: C3_5  and  N2_6 
REMARK       I    between atoms: C3_5  and  N4_20 
REMARK    3  A    between atoms: N2_6  and  C4_8 
REMARK    4  A    between atoms: C7_12  and  C8_13 
REMARK    5  A    between atoms: C8_13  and  N3_14 
ROOT
HETATM    1  N1  UNL     1      35.988  17.518  15.174  1.00  0.00    -0.242 NA
HETATM    2  C3  UNL     1      37.108  17.483  15.305  1.00  0.00     0.298 C 
HETATM    3  N2  UNL     1      38.059  16.573  14.800  1.00  0.00    -0.306 N 
ATOM      4  H2  UNL     1      38.360  16.683  13.832  1.00  0.00     0.170 HD
HETATM    5  N4  UNL     1      37.809  18.589  16.008  1.00  0.00    -0.279 N 
HETATM    6  C12 UNL     1      37.175  19.705  16.574  1.00  0.00     0.141 C 
HETATM    7  C13 UNL     1      38.169  20.335  17.558  1.00  0.00     0.022 C 
HETATM    8  C14 UNL     1      39.221  21.101  16.805  1.00  0.00     0.013 C 
HETATM    9  C15 UNL     1      40.201  20.194  16.069  1.00  0.00     0.098 C 
HETATM   10  S2  UNL     1      39.577  18.493  16.107  1.00  0.00    -0.050 SA
ENDROOT
BRANCH   3  11
HETATM   11  C4  UNL     1      38.621  15.518  15.553  1.00  0.00     0.098 A 
HETATM   12  S1  UNL     1      40.006  14.588  15.029  1.00  0.00    -0.075 SA
HETATM   13  C5  UNL     1      40.049  13.429  16.253  1.00  0.00    -0.007 A 
HETATM   14  C6  UNL     1      38.993  13.748  17.041  1.00  0.00    -0.023 A 
HETATM   15  C11 UNL     1      40.827  12.296  16.899  1.00  0.00     0.047 C 
HETATM   16  C7  UNL     1      38.231  14.846  16.704  1.00  0.00     0.067 A 
HETATM   17  C9  UNL     1      38.707  12.524  17.937  1.00  0.00     0.041 C 
HETATM   18  C10 UNL     1      39.732  11.503  17.529  1.00  0.00     0.010 C 
BRANCH  16  19
HETATM   19  C8  UNL     1      37.159  15.378  17.551  1.00  0.00    -0.034 C 
BRANCH  19  20
HETATM   20  N3  UNL     1      36.261  15.821  18.216  1.00  0.00    -0.365 N 
ATOM     21  H32 UNL     1      36.431  14.822  18.105  1.00  0.00     0.165 HD
ATOM     22  H31 UNL     1      35.508  16.224  18.774  1.00  0.00     0.165 HD
ENDBRANCH  19  20
ENDBRANCH  16  19
ENDBRANCH   3  11
BRANCH   1  23
HETATM   23  O1  UNL     1      34.719  17.328  14.862  1.00  0.00    -0.206 OA
BRANCH  23  24
HETATM   24  C2  UNL     1      34.363  18.250  13.732  1.00  0.00     0.213 C 
HETATM   25  C1  UNL     1      34.720  17.296  12.570  1.00  0.00     0.037 C 
ENDBRANCH  23  24
ENDBRANCH   1  23
TORSDOF 5
ENDMDL
MODEL 4
REMARK VINA RESULT: -6.786399830      1.854      2.820
REMARK  5 active torsions:
REMARK  status: ('A' for Active; 'I' for Inactive)
REMARK    1  A    between atoms: C2_2  and  O1_3 
REMARK    2  A    between atoms: O1_3  and  N1_4 
REMARK       I    between atoms: N1_4  and  C3_5 
REMARK       I    between atoms: C3_5  and  N2_6 
REMARK       I    between atoms: C3_5  and  N4_20 
REMARK    3  A    between atoms: N2_6  and  C4_8 
REMARK    4  A    between atoms: C7_12  and  C8_13 
REMARK    5  A    between atoms: C8_13  and  N3_14 
ROOT
HETATM    1  N1  UNL     1      36.512  18.804  17.317  1.00  0.00    -0.242 NA
HETATM    2  C3  UNL     1      37.399  18.547  16.668  1.00  0.00     0.298 C 
HETATM    3  N2  UNL     1      37.506  17.660  15.578  1.00  0.00    -0.306 N 
ATOM      4  H2  UNL     1      37.166  17.976  14.670  1.00  0.00     0.170 HD
HETATM    5  N4  UNL     1      38.678  19.286  16.831  1.00  0.00    -0.279 N 
HETATM    6  C12 UNL     1      38.902  20.297  17.776  1.00  0.00     0.141 C 
HETATM    7  C13 UNL     1      40.422  20.459  17.908  1.00  0.00     0.022 C 
HETATM    8  C14 UNL     1      40.963  21.210  16.723  1.00  0.00     0.013 C 
HETATM    9  C15 UNL     1      40.951  20.385  15.442  1.00  0.00     0.098 C 
HETATM   10  S2  UNL     1      39.999  18.868  15.723  1.00  0.00    -0.050 SA
ENDROOT
BRANCH   3  11
HETATM   11  C4  UNL     1      38.055  16.361  15.666  1.00  0.00     0.098 A 
HETATM   12  S1  UNL     1      37.938  15.358  17.093  1.00  0.00    -0.075 SA
HETATM   13  C5  UNL     1      38.906  14.065  16.611  1.00  0.00    -0.007 A 
HETATM   14  C6  UNL     1      39.330  14.419  15.372  1.00  0.00    -0.023 A 
HETATM   15  C11 UNL     1      39.383  12.654  16.914  1.00  0.00     0.047 C 
HETATM   16  C7  UNL     1      38.890  15.615  14.846  1.00  0.00     0.067 A 
HETATM   17  C9  UNL     1      40.529  13.512  15.024  1.00  0.00     0.041 C 
HETATM   18  C10 UNL     1      40.708  12.633  16.229  1.00  0.00     0.010 C 
BRANCH  16  19
HETATM   19  C8  UNL     1      39.156  16.039  13.468  1.00  0.00    -0.034 C 
BRANCH  19  20
HETATM   20  N3  UNL     1      39.371  16.420  12.349  1.00  0.00    -0.365 N 
ATOM     21  H32 UNL     1      39.477  15.447  12.635  1.00  0.00     0.165 HD
ATOM     22  H31 UNL     1      39.546  16.772  11.407  1.00  0.00     0.165 HD
ENDBRANCH  19  20
ENDBRANCH  16  19
ENDBRANCH   3  11
BRANCH   1  23
HETATM   23  O1  UNL     1      35.337  18.924  17.908  1.00  0.00    -0.206 OA
BRANCH  23  24
HETATM   24  C2  UNL     1      34.720  17.560  18.022  1.00  0.00     0.213 C 
HETATM   25  C1  UNL     1      33.481  17.966  18.851  1.00  0.00     0.037 C 
ENDBRANCH  23  24
ENDBRANCH   1  23
TORSDOF 5
ENDMDL
MODEL 5
REMARK VINA RESULT: -6.757204826      1.199      1.219
REMARK  5 active torsions:
REMARK  status: ('A' for Active; 'I' for Inactive)
REMARK    1  A    between atoms: C2_2  and  O1_3 
REMARK    2  A    between atoms: O1_3  and  N1_4 
REMARK       I    between atoms: N1_4  and  C3_5 
REMARK       I    between atoms: C3_5  and  N2_6 
REMARK       I    between atoms: C3_5  and  N4_20 
REMARK    3  A    between atoms: N2_6  and  C4_8 
REMARK    4  A    between atoms: C7_12  and  C8_13 
REMARK    5  A    between atoms: C8_13  and  N3_14 
ROOT
HETATM    1  N1  UNL     1      35.680  18.298  15.981  1.00  0.00    -0.242 NA
HETATM    2  C3  UNL     1      36.783  18.115  15.832  1.00  0.00     0.298 C 
HETATM    3  N2  UNL     1      37.453  17.072  15.162  1.00  0.00    -0.306 N 
ATOM      4  H2  UNL     1      37.511  17.117  14.145  1.00  0.00     0.170 HD
HETATM    5  N4  UNL     1      37.772  19.132  16.276  1.00  0.00    -0.279 N 
HETATM    6  C12 UNL     1      37.447  20.337  16.916  1.00  0.00     0.141 C 
HETATM    7  C13 UNL     1      38.728  20.848  17.586  1.00  0.00     0.022 C 
HETATM    8  C14 UNL     1      39.644  21.446  16.554  1.00  0.00     0.013 C 
HETATM    9  C15 UNL     1      40.284  20.397  15.652  1.00  0.00     0.098 C 
HETATM   10  S2  UNL     1      39.481  18.797  15.940  1.00  0.00    -0.050 SA
ENDROOT
BRANCH   3  11
HETATM   11  C4  UNL     1      38.050  15.968  15.812  1.00  0.00     0.098 A 
HETATM   12  S1  UNL     1      39.370  15.045  15.132  1.00  0.00    -0.075 SA
HETATM   13  C5  UNL     1      39.484  13.821  16.285  1.00  0.00    -0.007 A 
HETATM   14  C6  UNL     1      38.499  14.115  17.170  1.00  0.00    -0.023 A 
HETATM   15  C11 UNL     1      40.286  12.641  16.808  1.00  0.00     0.047 C 
HETATM   16  C7  UNL     1      37.737  15.242  16.953  1.00  0.00     0.067 A 
HETATM   17  C9  UNL     1      38.259  12.849  18.021  1.00  0.00     0.041 C 
HETATM   18  C10 UNL     1      39.227  11.835  17.480  1.00  0.00     0.010 C 
BRANCH  16  19
HETATM   19  C8  UNL     1      36.745  15.745  17.908  1.00  0.00    -0.034 C 
BRANCH  19  20
HETATM   20  N3  UNL     1      35.923  16.124  18.699  1.00  0.00    -0.365 N 
ATOM     21  H32 UNL     1      36.801  15.685  18.976  1.00  0.00     0.165 HD
ATOM     22  H31 UNL     1      35.208  16.455  19.347  1.00  0.00     0.165 HD
ENDBRANCH  19  20
ENDBRANCH  16  19
ENDBRANCH   3  11
BRANCH   1  23
HETATM   23  O1  UNL     1      34.360  18.275  16.004  1.00  0.00    -0.206 OA
BRANCH  23  24
HETATM   24  C2  UNL     1      33.893  17.018  15.327  1.00  0.00     0.213 C 
HETATM   25  C1  UNL     1      33.214  16.368  16.554  1.00  0.00     0.037 C 
ENDBRANCH  23  24
ENDBRANCH   1  23
TORSDOF 5
ENDMDL
