MODEL 1
REMARK VINA RESULT: -8.658854857      0.000      0.000
REMARK  3 active torsions:
REMARK  status: ('A' for Active; 'I' for Inactive)
REMARK    1  A    between atoms: C3_6  and  C4_7 
REMARK    2  A    between atoms: C11_15  and  C12_16 
REMARK    3  A    between atoms: C12_16  and  O2_17 
ROOT
HETATM    1  C4  UNL     1      37.405  15.650  17.188  1.00  0.00     0.059 A 
HETATM    2  C5  UNL     1      38.323  14.677  17.496  1.00  0.00     0.032 A 
HETATM    3  C6  UNL     1      39.564  14.802  16.965  1.00  0.00    -0.036 A 
HETATM    4  C7  UNL     1      39.763  15.905  16.165  1.00  0.00    -0.010 A 
HETATM    5  S1  UNL     1      38.265  16.713  16.177  1.00  0.00    -0.090 SA
HETATM    6  C8  UNL     1      41.118  16.110  15.523  1.00  0.00     0.046 C 
HETATM    7  C9  UNL     1      42.102  16.074  16.642  1.00  0.00     0.006 C 
HETATM    8  C10 UNL     1      41.882  14.923  17.596  1.00  0.00     0.013 C 
HETATM    9  C11 UNL     1      40.833  13.988  17.036  1.00  0.00     0.061 C 
ENDROOT
BRANCH   9  10
HETATM   10  C12 UNL     1      40.763  12.673  17.679  1.00  0.00     0.125 C 
HETATM   11  C13 UNL     1      40.592  11.650  16.542  1.00  0.00     0.047 C 
HETATM   12  C14 UNL     1      41.733  10.770  16.276  1.00  0.00     0.004 C 
HETATM   13  C15 UNL     1      42.490  10.310  17.503  1.00  0.00     0.008 C 
HETATM   14  C16 UNL     1      43.023  11.617  18.120  1.00  0.00     0.081 C 
HETATM   15  C17 UNL     1      41.745  12.245  18.646  1.00  0.00     0.161 C 
HETATM   16  O3  UNL     1      41.712  12.307  19.851  1.00  0.00    -0.295 OA
BRANCH  10  17
HETATM   17  O2  UNL     1      39.478  12.635  18.297  1.00  0.00    -0.381 OA
ATOM     18  H2  UNL     1      39.552  11.974  18.975  1.00  0.00     0.211 HD
ENDBRANCH  10  17
ENDBRANCH   9  10
BRANCH   1  19
HETATM   19  C3  UNL     1      36.006  15.746  17.633  1.00  0.00     0.189 A 
HETATM   20  O1  UNL     1      35.543  15.477  18.806  1.00  0.00    -0.217 OA
HETATM   21  N1  UNL     1      34.239  15.678  18.841  1.00  0.00    -0.247 N 
HETATM   22  C2  UNL     1      33.832  16.100  17.626  1.00  0.00     0.100 A 
ATOM     23  H1  UNL     1      33.638  15.538  19.654  1.00  0.00     0.196 HD
HETATM   24  C1  UNL     1      32.476  16.461  17.141  1.00  0.00     0.091 C 
HETATM   25  N2  UNL     1      34.976  16.133  16.881  1.00  0.00    -0.323 N 
ATOM     26  H2  UNL     1      35.033  16.410  15.901  1.00  0.00     0.169 HD
ENDBRANCH   1  19
TORSDOF 3
ENDMDL
MODEL 2
REMARK VINA RESULT: -8.569068924      2.991      4.371
REMARK  3 active torsions:
REMARK  status: ('A' for Active; 'I' for Inactive)
REMARK    1  A    between atoms: C3_6  and  C4_7 
REMARK    2  A    between atoms: C11_15  and  C12_16 
REMARK    3  A    between atoms: C12_16  and  O2_17 
ROOT
HETATM    1  C4  UNL     1      38.178  15.716  16.012  1.00  0.00     0.059 A 
HETATM    2  C5  UNL     1      38.952  14.621  16.302  1.00  0.00     0.032 A 
HETATM    3  C6  UNL     1      38.567  13.845  17.345  1.00  0.00    -0.036 A 
HETATM    4  C7  UNL     1      37.429  14.251  18.004  1.00  0.00    -0.010 A 
HETATM    5  S1  UNL     1      36.940  15.657  17.178  1.00  0.00    -0.090 SA
HETATM    6  C8  UNL     1      36.941  13.445  19.188  1.00  0.00     0.046 C 
HETATM    7  C9  UNL     1      36.803  12.046  18.693  1.00  0.00     0.006 C 
HETATM    8  C10 UNL     1      37.997  11.574  17.895  1.00  0.00     0.013 C 
HETATM    9  C11 UNL     1      39.111  12.593  17.990  1.00  0.00     0.061 C 
ENDROOT
BRANCH   9  10
HETATM   10  C12 UNL     1      40.427  12.120  17.554  1.00  0.00     0.125 C 
HETATM   11  C13 UNL     1      41.236  13.379  17.195  1.00  0.00     0.047 C 
HETATM   12  C14 UNL     1      42.344  13.723  18.090  1.00  0.00     0.004 C 
HETATM   13  C15 UNL     1      43.120  12.544  18.637  1.00  0.00     0.008 C 
HETATM   14  C16 UNL     1      42.072  11.756  19.446  1.00  0.00     0.081 C 
HETATM   15  C17 UNL     1      41.200  11.189  18.340  1.00  0.00     0.161 C 
HETATM   16  O3  UNL     1      41.270   9.986  18.257  1.00  0.00    -0.295 OA
BRANCH  10  17
HETATM   17  O2  UNL     1      40.204  11.544  16.269  1.00  0.00    -0.381 OA
ATOM     18  H2  UNL     1      40.707  12.081  15.669  1.00  0.00     0.211 HD
ENDBRANCH  10  17
ENDBRANCH   9  10
BRANCH   1  19
HETATM   19  C3  UNL     1      38.375  16.706  14.943  1.00  0.00     0.189 A 
HETATM   20  O1  UNL     1      37.490  17.503  14.448  1.00  0.00    -0.217 OA
HETATM   21  N1  UNL     1      38.025  18.253  13.503  1.00  0.00    -0.247 N 
HETATM   22  C2  UNL     1      39.328  17.927  13.377  1.00  0.00     0.100 A 
ATOM     23  H1  UNL     1      37.535  18.962  12.958  1.00  0.00     0.196 HD
HETATM   24  C1  UNL     1      40.369  18.469  12.466  1.00  0.00     0.091 C 
HETATM   25  N2  UNL     1      39.521  16.943  14.304  1.00  0.00    -0.323 N 
ATOM     26  H2  UNL     1      40.403  16.463  14.480  1.00  0.00     0.169 HD
ENDBRANCH   1  19
TORSDOF 3
ENDMDL
MODEL 3
REMARK VINA RESULT: -8.456512826      2.828      4.178
REMARK  3 active torsions:
REMARK  status: ('A' for Active; 'I' for Inactive)
REMARK    1  A    between atoms: C3_6  and  C4_7 
REMARK    2  A    between atoms: C11_15  and  C12_16 
REMARK    3  A    between atoms: C12_16  and  O2_17 
ROOT
HETATM    1  C4  UNL     1      37.429  16.273  16.134  1.00  0.00     0.059 A 
HETATM    2  C5  UNL     1      38.431  15.382  16.421  1.00  0.00     0.032 A 
HETATM    3  C6  UNL     1      38.213  14.502  17.430  1.00  0.00    -0.036 A 
HETATM    4  C7  UNL     1      36.994  14.608  18.060  1.00  0.00    -0.010 A 
HETATM    5  S1  UNL     1      36.209  15.886  17.255  1.00  0.00    -0.090 SA
HETATM    6  C8  UNL     1      36.678  13.671  19.206  1.00  0.00     0.046 C 
HETATM    7  C9  UNL     1      36.888  12.296  18.670  1.00  0.00     0.006 C 
HETATM    8  C10 UNL     1      38.180  12.144  17.902  1.00  0.00     0.013 C 
HETATM    9  C11 UNL     1      39.019  13.392  18.060  1.00  0.00     0.061 C 
ENDROOT
BRANCH   9  10
HETATM   10  C12 UNL     1      40.421  13.257  17.657  1.00  0.00     0.125 C 
HETATM   11  C13 UNL     1      41.080  12.341  18.704  1.00  0.00     0.047 C 
HETATM   12  C14 UNL     1      41.467  11.001  18.252  1.00  0.00     0.004 C 
HETATM   13  C15 UNL     1      42.009  10.929  16.842  1.00  0.00     0.008 C 
HETATM   14  C16 UNL     1      40.836  11.413  15.969  1.00  0.00     0.081 C 
HETATM   15  C17 UNL     1      40.794  12.892  16.311  1.00  0.00     0.161 C 
HETATM   16  O3  UNL     1      41.091  13.599  15.379  1.00  0.00    -0.295 OA
BRANCH  10  17
HETATM   17  O2  UNL     1      41.015  14.517  17.961  1.00  0.00    -0.381 OA
ATOM     18  H2  UNL     1      40.880  15.045  17.184  1.00  0.00     0.211 HD
ENDBRANCH  10  17
ENDBRANCH   9  10
BRANCH   1  19
HETATM   19  C3  UNL     1      37.416  17.317  15.098  1.00  0.00     0.189 A 
HETATM   20  O1  UNL     1      36.430  17.638  14.330  1.00  0.00    -0.217 OA
HETATM   21  N1  UNL     1      36.781  18.620  13.522  1.00  0.00    -0.247 N 
HETATM   22  C2  UNL     1      38.062  18.956  13.776  1.00  0.00     0.100 A 
ATOM     23  H1  UNL     1      36.181  19.054  12.819  1.00  0.00     0.196 HD
HETATM   24  C1  UNL     1      38.925  19.990  13.150  1.00  0.00     0.091 C 
HETATM   25  N2  UNL     1      38.438  18.112  14.781  1.00  0.00    -0.323 N 
ATOM     26  H2  UNL     1      39.358  18.092  15.222  1.00  0.00     0.169 HD
ENDBRANCH   1  19
TORSDOF 3
ENDMDL
MODEL 4
REMARK VINA RESULT: -8.412973089      3.494      6.971
REMARK  3 active torsions:
REMARK  status: ('A' for Active; 'I' for Inactive)
REMARK    1  A    between atoms: C3_6  and  C4_7 
REMARK    2  A    between atoms: C11_15  and  C12_16 
REMARK    3  A    between atoms: C12_16  and  O2_17 
ROOT
HETATM    1  C4  UNL     1      38.747  13.080  17.997  1.00  0.00     0.059 A 
HETATM    2  C5  UNL     1      38.648  14.280  17.341  1.00  0.00     0.032 A 
HETATM    3  C6  UNL     1      37.445  14.905  17.362  1.00  0.00    -0.036 A 
HETATM    4  C7  UNL     1      36.446  14.252  18.048  1.00  0.00    -0.010 A 
HETATM    5  S1  UNL     1      37.186  12.834  18.629  1.00  0.00    -0.090 SA
HETATM    6  C8  UNL     1      35.068  14.877  18.107  1.00  0.00     0.046 C 
HETATM    7  C9  UNL     1      35.275  16.253  18.641  1.00  0.00     0.006 C 
HETATM    8  C10 UNL     1      36.413  16.990  17.973  1.00  0.00     0.013 C 
HETATM    9  C11 UNL     1      36.911  16.194  16.787  1.00  0.00     0.061 C 
ENDROOT
BRANCH   9  10
HETATM   10  C12 UNL     1      37.770  16.932  15.857  1.00  0.00     0.125 C 
HETATM   11  C13 UNL     1      36.825  17.746  14.956  1.00  0.00     0.047 C 
HETATM   12  C14 UNL     1      36.833  19.200  15.143  1.00  0.00     0.004 C 
HETATM   13  C15 UNL     1      38.190  19.804  15.435  1.00  0.00     0.008 C 
HETATM   14  C16 UNL     1      38.609  19.144  16.762  1.00  0.00     0.081 C 
HETATM   15  C17 UNL     1      38.888  17.720  16.317  1.00  0.00     0.161 C 
HETATM   16  O3  UNL     1      40.054  17.419  16.407  1.00  0.00    -0.295 OA
BRANCH  10  17
HETATM   17  O2  UNL     1      38.259  15.947  14.948  1.00  0.00    -0.381 OA
ATOM     18  H2  UNL     1      37.540  15.336  14.839  1.00  0.00     0.211 HD
ENDBRANCH  10  17
ENDBRANCH   9  10
BRANCH   1  19
HETATM   19  C3  UNL     1      39.928  12.212  18.124  1.00  0.00     0.189 A 
HETATM   20  O1  UNL     1      40.058  11.007  17.682  1.00  0.00    -0.217 OA
HETATM   21  N1  UNL     1      41.256  10.538  17.978  1.00  0.00    -0.247 N 
HETATM   22  C2  UNL     1      41.940  11.487  18.649  1.00  0.00     0.100 A 
ATOM     23  H1  UNL     1      41.606   9.610  17.740  1.00  0.00     0.196 HD
HETATM   24  C1  UNL     1      43.318  11.465  19.203  1.00  0.00     0.091 C 
HETATM   25  N2  UNL     1      41.072  12.538  18.725  1.00  0.00    -0.323 N 
ATOM     26  H2  UNL     1      41.267  13.433  19.174  1.00  0.00     0.169 HD
ENDBRANCH   1  19
TORSDOF 3
ENDMDL
MODEL 5
REMARK VINA RESULT: -8.230988742      2.740      7.001
REMARK  3 active torsions:
REMARK  status: ('A' for Active; 'I' for Inactive)
REMARK    1  A    between atoms: C3_6  and  C4_7 
REMARK    2  A    between atoms: C11_15  and  C12_16 
REMARK    3  A    between atoms: C12_16  and  O2_17 
ROOT
HETATM    1  C4  UNL     1      39.365  14.127  16.783  1.00  0.00     0.059 A 
HETATM    2  C5  UNL     1      38.149  14.627  17.176  1.00  0.00     0.032 A 
HETATM    3  C6  UNL     1      37.808  15.860  16.727  1.00  0.00    -0.036 A 
HETATM    4  C7  UNL     1      38.735  16.478  15.918  1.00  0.00    -0.010 A 
HETATM    5  S1  UNL     1      40.014  15.360  15.807  1.00  0.00    -0.090 SA
HETATM    6  C8  UNL     1      38.435  17.863  15.386  1.00  0.00     0.046 C 
HETATM    7  C9  UNL     1      37.115  17.753  14.702  1.00  0.00     0.006 C 
HETATM    8  C10 UNL     1      36.079  17.014  15.517  1.00  0.00     0.013 C 
HETATM    9  C11 UNL     1      36.610  16.760  16.910  1.00  0.00     0.061 C 
ENDROOT
BRANCH   9  10
HETATM   10  C12 UNL     1      35.604  16.360  17.898  1.00  0.00     0.125 C 
HETATM   11  C13 UNL     1      34.838  17.642  18.271  1.00  0.00     0.047 C 
HETATM   12  C14 UNL     1      33.450  17.733  17.810  1.00  0.00     0.004 C 
HETATM   13  C15 UNL     1      32.672  16.436  17.850  1.00  0.00     0.008 C 
HETATM   14  C16 UNL     1      33.442  15.514  16.884  1.00  0.00     0.081 C 
HETATM   15  C17 UNL     1      34.713  15.248  17.669  1.00  0.00     0.161 C 
HETATM   16  O3  UNL     1      34.819  14.096  18.016  1.00  0.00    -0.295 OA
BRANCH  10  17
HETATM   17  O2  UNL     1      36.341  16.107  19.092  1.00  0.00    -0.381 OA
ATOM     18  H2  UNL     1      36.579  16.966  19.420  1.00  0.00     0.211 HD
ENDBRANCH  10  17
ENDBRANCH   9  10
BRANCH   1  19
HETATM   19  C3  UNL     1      39.963  12.828  17.128  1.00  0.00     0.189 A 
HETATM   20  O1  UNL     1      39.341  11.757  17.488  1.00  0.00    -0.217 OA
HETATM   21  N1  UNL     1      40.201  10.783  17.718  1.00  0.00    -0.247 N 
HETATM   22  C2  UNL     1      41.449  11.245  17.496  1.00  0.00     0.100 A 
ATOM     23  H1  UNL     1      39.962   9.837  18.015  1.00  0.00     0.196 HD
HETATM   24  C1  UNL     1      42.760  10.557  17.611  1.00  0.00     0.091 C 
HETATM   25  N2  UNL     1      41.265  12.546  17.123  1.00  0.00    -0.323 N 
ATOM     26  H2  UNL     1      42.009  13.200  16.878  1.00  0.00     0.169 HD
ENDBRANCH   1  19
TORSDOF 3
ENDMDL
