MODEL 1
REMARK VINA RESULT: -7.551862321      0.000      0.000
REMARK  4 active torsions:
REMARK  status: ('A' for Active; 'I' for Inactive)
REMARK    1  A    between atoms: O1_2  and  C2_3 
REMARK    2  A    between atoms: C2_3  and  C3_5 
REMARK    3  A    between atoms: C3_5  and  C4_6 
REMARK    4  A    between atoms: C7_11  and  O5_12 
ROOT
HETATM    1  C4  UNL     1      40.030  13.864  17.642  1.00  0.00     0.180 C 
HETATM    2  O3  UNL     1      41.371  14.198  17.780  1.00  0.00    -0.234 OA
HETATM    3  O4  UNL     1      41.669  14.972  16.729  1.00  0.00    -0.234 OA
HETATM    4  C5  UNL     1      40.585  15.784  16.636  1.00  0.00     0.174 C 
HETATM    5  C6  UNL     1      40.402  16.630  15.451  1.00  0.00     0.079 C 
HETATM    6  C7  UNL     1      39.169  17.495  15.761  1.00  0.00     0.091 C 
HETATM    7  C8  UNL     1      38.591  17.868  14.460  1.00  0.00    -0.043 C 
HETATM    8  C9  UNL     1      39.422  18.438  13.355  1.00  0.00     0.047 C 
HETATM    9  C10 UNL     1      37.266  17.632  14.428  1.00  0.00    -0.050 C 
HETATM   10  C11 UNL     1      36.480  17.937  13.207  1.00  0.00     0.049 C 
HETATM   11  C12 UNL     1      36.833  17.091  15.692  1.00  0.00    -0.043 C 
HETATM   12  C13 UNL     1      35.600  16.864  16.083  1.00  0.00    -0.080 C 
HETATM   13  C14 UNL     1      34.377  17.125  15.290  1.00  0.00     0.043 C 
HETATM   14  C15 UNL     1      35.355  16.288  17.469  1.00  0.00     0.043 C 
HETATM   15  C16 UNL     1      38.094  16.829  16.494  1.00  0.00     0.059 C 
HETATM   16  C17 UNL     1      38.221  15.439  16.931  1.00  0.00     0.027 C 
HETATM   17  C18 UNL     1      39.486  14.698  16.554  1.00  0.00     0.015 C 
HETATM   18  C19 UNL     1      39.424  14.115  15.189  1.00  0.00     0.020 C 
ENDROOT
BRANCH   1  19
HETATM   19  C3  UNL     1      39.709  12.434  17.730  1.00  0.00     0.146 C 
BRANCH  19  20
HETATM   20  C2  UNL     1      40.771  11.478  17.360  1.00  0.00     0.261 C 
HETATM   21  O2  UNL     1      40.808  11.106  16.147  1.00  0.00    -0.265 OA
BRANCH  20  22
HETATM   22  O1  UNL     1      41.721  10.943  18.182  1.00  0.00    -0.326 OA
HETATM   23  C1  UNL     1      43.045  10.727  17.727  1.00  0.00     0.213 C 
ENDBRANCH  20  22
ENDBRANCH  19  20
ENDBRANCH   1  19
BRANCH   6  24
HETATM   24  O5  UNL     1      39.659  18.611  16.452  1.00  0.00    -0.384 OA
ATOM     25  H5  UNL     1      39.225  19.361  16.063  1.00  0.00     0.211 HD
ENDBRANCH   6  24
TORSDOF 4
ENDMDL
MODEL 2
REMARK VINA RESULT: -7.425037412      2.822      5.541
REMARK  4 active torsions:
REMARK  status: ('A' for Active; 'I' for Inactive)
REMARK    1  A    between atoms: O1_2  and  C2_3 
REMARK    2  A    between atoms: C2_3  and  C3_5 
REMARK    3  A    between atoms: C3_5  and  C4_6 
REMARK    4  A    between atoms: C7_11  and  O5_12 
ROOT
HETATM    1  C4  UNL     1      41.049  19.212  15.904  1.00  0.00     0.180 C 
HETATM    2  O3  UNL     1      41.906  19.196  14.811  1.00  0.00    -0.234 OA
HETATM    3  O4  UNL     1      42.287  17.921  14.659  1.00  0.00    -0.234 OA
HETATM    4  C5  UNL     1      41.132  17.237  14.856  1.00  0.00     0.174 C 
HETATM    5  C6  UNL     1      41.161  15.778  15.017  1.00  0.00     0.079 C 
HETATM    6  C7  UNL     1      39.687  15.350  15.076  1.00  0.00     0.091 C 
HETATM    7  C8  UNL     1      39.655  14.086  15.830  1.00  0.00    -0.043 C 
HETATM    8  C9  UNL     1      40.566  12.945  15.506  1.00  0.00     0.047 C 
HETATM    9  C10 UNL     1      38.722  14.117  16.799  1.00  0.00    -0.050 C 
HETATM   10  C11 UNL     1      38.520  12.943  17.683  1.00  0.00     0.049 C 
HETATM   11  C12 UNL     1      38.042  15.389  16.785  1.00  0.00    -0.043 C 
HETATM   12  C13 UNL     1      36.989  15.739  17.486  1.00  0.00    -0.080 C 
HETATM   13  C14 UNL     1      36.268  14.881  18.455  1.00  0.00     0.043 C 
HETATM   14  C15 UNL     1      36.417  17.138  17.319  1.00  0.00     0.043 C 
HETATM   15  C16 UNL     1      38.789  16.256  15.789  1.00  0.00     0.059 C 
HETATM   16  C17 UNL     1      39.278  17.507  16.368  1.00  0.00     0.027 C 
HETATM   17  C18 UNL     1      40.756  17.807  16.245  1.00  0.00     0.015 C 
HETATM   18  C19 UNL     1      41.563  17.163  17.313  1.00  0.00     0.020 C 
ENDROOT
BRANCH   1  19
HETATM   19  C3  UNL     1      41.357  20.194  16.951  1.00  0.00     0.146 C 
BRANCH  19  20
HETATM   20  C2  UNL     1      42.760  20.637  17.073  1.00  0.00     0.261 C 
HETATM   21  O2  UNL     1      43.037  21.789  16.619  1.00  0.00    -0.265 OA
BRANCH  20  22
HETATM   22  O1  UNL     1      43.800  19.940  17.620  1.00  0.00    -0.326 OA
HETATM   23  C1  UNL     1      44.787  19.337  16.804  1.00  0.00     0.213 C 
ENDBRANCH  20  22
ENDBRANCH  19  20
ENDBRANCH   1  19
BRANCH   6  24
HETATM   24  O5  UNL     1      39.296  15.170  13.742  1.00  0.00    -0.384 OA
ATOM     25  H5  UNL     1      38.584  15.783  13.601  1.00  0.00     0.211 HD
ENDBRANCH   6  24
TORSDOF 4
ENDMDL
MODEL 3
REMARK VINA RESULT: -7.355546683      2.647      5.690
REMARK  4 active torsions:
REMARK  status: ('A' for Active; 'I' for Inactive)
REMARK    1  A    between atoms: O1_2  and  C2_3 
REMARK    2  A    between atoms: C2_3  and  C3_5 
REMARK    3  A    between atoms: C3_5  and  C4_6 
REMARK    4  A    between atoms: C7_11  and  O5_12 
ROOT
HETATM    1  C4  UNL     1      41.515  18.503  16.097  1.00  0.00     0.180 C 
HETATM    2  O3  UNL     1      42.447  18.371  15.075  1.00  0.00    -0.234 OA
HETATM    3  O4  UNL     1      42.757  17.069  15.024  1.00  0.00    -0.234 OA
HETATM    4  C5  UNL     1      41.550  16.466  15.171  1.00  0.00     0.174 C 
HETATM    5  C6  UNL     1      41.476  15.021  15.415  1.00  0.00     0.079 C 
HETATM    6  C7  UNL     1      39.977  14.684  15.385  1.00  0.00     0.091 C 
HETATM    7  C8  UNL     1      39.812  13.471  16.204  1.00  0.00    -0.043 C 
HETATM    8  C9  UNL     1      40.671  12.262  16.015  1.00  0.00     0.047 C 
HETATM    9  C10 UNL     1      38.815  13.616  17.097  1.00  0.00    -0.050 C 
HETATM   10  C11 UNL     1      38.476  12.511  18.027  1.00  0.00     0.049 C 
HETATM   11  C12 UNL     1      38.219  14.922  16.959  1.00  0.00    -0.043 C 
HETATM   12  C13 UNL     1      37.142  15.374  17.558  1.00  0.00    -0.080 C 
HETATM   13  C14 UNL     1      36.300  14.620  18.516  1.00  0.00     0.043 C 
HETATM   14  C15 UNL     1      36.673  16.792  17.270  1.00  0.00     0.043 C 
HETATM   15  C16 UNL     1      39.089  15.683  15.976  1.00  0.00     0.059 C 
HETATM   16  C17 UNL     1      39.612  16.936  16.520  1.00  0.00     0.027 C 
HETATM   17  C18 UNL     1      41.111  17.141  16.493  1.00  0.00     0.015 C 
HETATM   18  C19 UNL     1      41.797  16.517  17.654  1.00  0.00     0.020 C 
ENDROOT
BRANCH   1  19
HETATM   19  C3  UNL     1      41.807  19.527  17.108  1.00  0.00     0.146 C 
BRANCH  19  20
HETATM   20  C2  UNL     1      40.716  20.453  17.468  1.00  0.00     0.261 C 
HETATM   21  O2  UNL     1      40.927  21.688  17.272  1.00  0.00    -0.265 OA
BRANCH  20  22
HETATM   22  O1  UNL     1      39.498  20.127  17.996  1.00  0.00    -0.326 OA
HETATM   23  C1  UNL     1      38.301  20.372  17.280  1.00  0.00     0.213 C 
ENDBRANCH  20  22
ENDBRANCH  19  20
ENDBRANCH   1  19
BRANCH   6  24
HETATM   24  O5  UNL     1      39.673  14.446  14.038  1.00  0.00    -0.384 OA
ATOM     25  H5  UNL     1      39.186  15.209  13.749  1.00  0.00     0.211 HD
ENDBRANCH   6  24
TORSDOF 4
ENDMDL
MODEL 4
REMARK VINA RESULT: -7.236606623      1.126      1.842
REMARK  4 active torsions:
REMARK  status: ('A' for Active; 'I' for Inactive)
REMARK    1  A    between atoms: O1_2  and  C2_3 
REMARK    2  A    between atoms: C2_3  and  C3_5 
REMARK    3  A    between atoms: C3_5  and  C4_6 
REMARK    4  A    between atoms: C7_11  and  O5_12 
ROOT
HETATM    1  C4  UNL     1      40.294  13.737  17.594  1.00  0.00     0.180 C 
HETATM    2  O3  UNL     1      41.480  13.772  18.315  1.00  0.00    -0.234 OA
HETATM    3  O4  UNL     1      42.330  14.511  17.591  1.00  0.00    -0.234 OA
HETATM    4  C5  UNL     1      41.551  15.537  17.166  1.00  0.00     0.174 C 
HETATM    5  C6  UNL     1      42.045  16.455  16.132  1.00  0.00     0.079 C 
HETATM    6  C7  UNL     1      40.969  17.546  16.016  1.00  0.00     0.091 C 
HETATM    7  C8  UNL     1      41.081  18.091  14.653  1.00  0.00    -0.043 C 
HETATM    8  C9  UNL     1      42.392  18.520  14.074  1.00  0.00     0.047 C 
HETATM    9  C10 UNL     1      39.881  18.143  14.046  1.00  0.00    -0.050 C 
HETATM   10  C11 UNL     1      39.763  18.661  12.661  1.00  0.00     0.049 C 
HETATM   11  C12 UNL     1      38.859  17.650  14.937  1.00  0.00    -0.043 C 
HETATM   12  C13 UNL     1      37.559  17.674  14.751  1.00  0.00    -0.080 C 
HETATM   13  C14 UNL     1      36.862  18.223  13.565  1.00  0.00     0.043 C 
HETATM   14  C15 UNL     1      36.646  17.102  15.824  1.00  0.00     0.043 C 
HETATM   15  C16 UNL     1      39.586  17.093  16.146  1.00  0.00     0.059 C 
HETATM   16  C17 UNL     1      39.270  15.689  16.411  1.00  0.00     0.027 C 
HETATM   17  C18 UNL     1      40.424  14.714  16.497  1.00  0.00     0.015 C 
HETATM   18  C19 UNL     1      40.856  14.218  15.165  1.00  0.00     0.020 C 
ENDROOT
BRANCH   1  19
HETATM   19  C3  UNL     1      39.724  12.405  17.354  1.00  0.00     0.146 C 
BRANCH  19  20
HETATM   20  C2  UNL     1      40.665  11.312  17.041  1.00  0.00     0.261 C 
HETATM   21  O2  UNL     1      40.809  11.016  15.816  1.00  0.00    -0.265 OA
BRANCH  20  22
HETATM   22  O1  UNL     1      41.401  10.578  17.928  1.00  0.00    -0.326 OA
HETATM   23  C1  UNL     1      42.812  10.510  17.829  1.00  0.00     0.213 C 
ENDBRANCH  20  22
ENDBRANCH  19  20
ENDBRANCH   1  19
BRANCH   6  24
HETATM   24  O5  UNL     1      41.299  18.502  16.986  1.00  0.00    -0.384 OA
ATOM     25  H5  UNL     1      40.470  18.804  17.337  1.00  0.00     0.211 HD
ENDBRANCH   6  24
TORSDOF 4
ENDMDL
MODEL 5
REMARK VINA RESULT: -7.236337702      1.192      1.718
REMARK  4 active torsions:
REMARK  status: ('A' for Active; 'I' for Inactive)
REMARK    1  A    between atoms: O1_2  and  C2_3 
REMARK    2  A    between atoms: C2_3  and  C3_5 
REMARK    3  A    between atoms: C3_5  and  C4_6 
REMARK    4  A    between atoms: C7_11  and  O5_12 
ROOT
HETATM    1  C4  UNL     1      40.604  14.056  16.841  1.00  0.00     0.180 C 
HETATM    2  O3  UNL     1      41.930  14.461  16.914  1.00  0.00    -0.234 OA
HETATM    3  O4  UNL     1      42.093  15.368  15.941  1.00  0.00    -0.234 OA
HETATM    4  C5  UNL     1      40.961  16.110  16.030  1.00  0.00     0.174 C 
HETATM    5  C6  UNL     1      40.629  17.071  14.971  1.00  0.00     0.079 C 
HETATM    6  C7  UNL     1      39.379  17.810  15.475  1.00  0.00     0.091 C 
HETATM    7  C8  UNL     1      38.672  18.288  14.276  1.00  0.00    -0.043 C 
HETATM    8  C9  UNL     1      39.373  19.035  13.186  1.00  0.00     0.047 C 
HETATM    9  C10 UNL     1      37.366  17.969  14.319  1.00  0.00    -0.050 C 
HETATM   10  C11 UNL     1      36.463  18.357  13.207  1.00  0.00     0.049 C 
HETATM   11  C12 UNL     1      37.073  17.260  15.540  1.00  0.00    -0.043 C 
HETATM   12  C13 UNL     1      35.892  16.908  15.995  1.00  0.00    -0.080 C 
HETATM   13  C14 UNL     1      34.594  17.175  15.335  1.00  0.00     0.043 C 
HETATM   14  C15 UNL     1      35.799  16.164  17.317  1.00  0.00     0.043 C 
HETATM   15  C16 UNL     1      38.410  16.995  16.205  1.00  0.00     0.059 C 
HETATM   16  C17 UNL     1      38.654  15.576  16.463  1.00  0.00     0.027 C 
HETATM   17  C18 UNL     1      39.922  14.969  15.905  1.00  0.00     0.015 C 
HETATM   18  C19 UNL     1      39.780  14.541  14.489  1.00  0.00     0.020 C 
ENDROOT
BRANCH   1  19
HETATM   19  C3  UNL     1      40.375  12.607  16.783  1.00  0.00     0.146 C 
BRANCH  19  20
HETATM   20  C2  UNL     1      39.222  12.073  17.535  1.00  0.00     0.261 C 
HETATM   21  O2  UNL     1      39.010  10.825  17.446  1.00  0.00    -0.265 OA
BRANCH  20  22
HETATM   22  O1  UNL     1      38.351  12.776  18.318  1.00  0.00    -0.326 OA
HETATM   23  C1  UNL     1      37.071  12.260  18.635  1.00  0.00     0.213 C 
ENDBRANCH  20  22
ENDBRANCH  19  20
ENDBRANCH   1  19
BRANCH   6  24
HETATM   24  O5  UNL     1      39.861  18.871  16.254  1.00  0.00    -0.384 OA
ATOM     25  H5  UNL     1      40.677  19.135  15.846  1.00  0.00     0.211 HD
ENDBRANCH   6  24
TORSDOF 4
ENDMDL
