MODEL 1
REMARK VINA RESULT: -8.156855182      0.000      0.000
REMARK  3 active torsions:
REMARK  status: ('A' for Active; 'I' for Inactive)
REMARK    1  A    between atoms: C2_2  and  C3_3 
REMARK    2  A    between atoms: C2_2  and  C11_17 
REMARK    3  A    between atoms: C7_8  and  O2_9 
ROOT
HETATM    1  C3  UNL     1      40.118  16.974  15.725  1.00  0.00     0.077 A 
HETATM    2  C4  UNL     1      39.115  17.652  16.341  1.00  0.00     0.110 A 
HETATM    3  O1  UNL     1      37.924  17.158  16.460  1.00  0.00    -0.320 OA
HETATM    4  C5  UNL     1      36.936  17.749  17.010  1.00  0.00     0.145 A 
HETATM    5  C6  UNL     1      37.012  19.034  17.570  1.00  0.00     0.062 A 
HETATM    6  C7  UNL     1      38.243  19.662  17.502  1.00  0.00     0.086 A 
HETATM    7  C8  UNL     1      39.285  19.007  16.904  1.00  0.00     0.107 A 
HETATM    8  C9  UNL     1      40.523  19.592  16.781  1.00  0.00     0.306 A 
HETATM    9  O3  UNL     1      40.653  20.756  17.272  1.00  0.00    -0.259 OA
HETATM   10  O4  UNL     1      41.460  18.923  16.181  1.00  0.00    -0.237 OA
HETATM   11  C10 UNL     1      41.334  17.725  15.681  1.00  0.00     0.304 A 
HETATM   12  O5  UNL     1      42.335  17.219  15.139  1.00  0.00    -0.259 OA
ENDROOT
BRANCH   1  13
HETATM   13  C2  UNL     1      40.122  15.568  15.309  1.00  0.00    -0.056 C 
HETATM   14  C1  UNL     1      39.358  15.379  14.010  1.00  0.00     0.045 C 
BRANCH  13  15
HETATM   15  C11 UNL     1      40.276  14.422  16.208  1.00  0.00    -0.015 C 
HETATM   16  C12 UNL     1      41.514  14.421  17.047  1.00  0.00     0.019 C 
HETATM   17  C13 UNL     1      41.535  13.196  17.939  1.00  0.00    -0.013 C 
HETATM   18  C14 UNL     1      40.283  12.996  18.723  1.00  0.00     0.009 C 
HETATM   19  C18 UNL     1      41.761  11.940  17.089  1.00  0.00     0.009 C 
HETATM   20  C15 UNL     1      39.163  12.780  17.755  1.00  0.00    -0.013 C 
HETATM   21  C16 UNL     1      39.385  11.616  16.833  1.00  0.00     0.009 C 
HETATM   22  C20 UNL     1      39.009  14.065  16.936  1.00  0.00     0.019 C 
HETATM   23  C17 UNL     1      40.662  11.917  16.070  1.00  0.00    -0.013 C 
HETATM   24  C19 UNL     1      40.499  13.158  15.285  1.00  0.00     0.019 C 
ENDBRANCH  13  15
ENDBRANCH   1  13
BRANCH   6  25
HETATM   25  O2  UNL     1      38.472  20.937  18.021  1.00  0.00    -0.359 OA
ATOM     26  H2  UNL     1      37.772  21.554  18.201  1.00  0.00     0.217 HD
ENDBRANCH   6  25
TORSDOF 3
ENDMDL
MODEL 2
REMARK VINA RESULT: -8.124838291      2.405      5.649
REMARK  3 active torsions:
REMARK  status: ('A' for Active; 'I' for Inactive)
REMARK    1  A    between atoms: C2_2  and  C3_3 
REMARK    2  A    between atoms: C2_2  and  C11_17 
REMARK    3  A    between atoms: C7_8  and  O2_9 
ROOT
HETATM    1  C3  UNL     1      38.294  15.607  16.293  1.00  0.00     0.077 A 
HETATM    2  C4  UNL     1      38.445  14.367  16.828  1.00  0.00     0.110 A 
HETATM    3  O1  UNL     1      39.402  13.574  16.465  1.00  0.00    -0.320 OA
HETATM    4  C5  UNL     1      39.587  12.395  16.914  1.00  0.00     0.145 A 
HETATM    5  C6  UNL     1      38.766  11.792  17.880  1.00  0.00     0.062 A 
HETATM    6  C7  UNL     1      37.706  12.550  18.344  1.00  0.00     0.086 A 
HETATM    7  C8  UNL     1      37.528  13.811  17.844  1.00  0.00     0.107 A 
HETATM    8  C9  UNL     1      36.477  14.600  18.247  1.00  0.00     0.306 A 
HETATM    9  O3  UNL     1      35.699  14.107  19.122  1.00  0.00    -0.259 OA
HETATM   10  O4  UNL     1      36.354  15.777  17.713  1.00  0.00    -0.237 OA
HETATM   11  C10 UNL     1      37.153  16.289  16.818  1.00  0.00     0.304 A 
HETATM   12  O5  UNL     1      36.898  17.438  16.409  1.00  0.00    -0.259 OA
ENDROOT
BRANCH   1  13
HETATM   13  C2  UNL     1      39.238  16.331  15.437  1.00  0.00    -0.056 C 
HETATM   14  C1  UNL     1      39.237  15.772  14.025  1.00  0.00     0.045 C 
BRANCH  13  15
HETATM   15  C11 UNL     1      40.424  17.051  15.908  1.00  0.00    -0.015 C 
HETATM   16  C12 UNL     1      40.163  18.380  16.541  1.00  0.00     0.019 C 
HETATM   17  C13 UNL     1      41.467  19.003  16.997  1.00  0.00    -0.013 C 
HETATM   18  C14 UNL     1      42.310  18.100  17.833  1.00  0.00     0.009 C 
HETATM   19  C18 UNL     1      42.296  19.421  15.778  1.00  0.00     0.009 C 
HETATM   20  C15 UNL     1      42.688  16.919  16.996  1.00  0.00    -0.013 C 
HETATM   21  C16 UNL     1      43.419  17.287  15.738  1.00  0.00     0.009 C 
HETATM   22  C20 UNL     1      41.399  16.173  16.644  1.00  0.00     0.019 C 
HETATM   23  C17 UNL     1      42.483  18.186  14.950  1.00  0.00    -0.013 C 
HETATM   24  C19 UNL     1      41.243  17.452  14.618  1.00  0.00     0.019 C 
ENDBRANCH  13  15
ENDBRANCH   1  13
BRANCH   6  25
HETATM   25  O2  UNL     1      36.810  12.087  19.309  1.00  0.00    -0.359 OA
ATOM     26  H2  UNL     1      36.989  11.334  19.860  1.00  0.00     0.217 HD
ENDBRANCH   6  25
TORSDOF 3
ENDMDL
MODEL 3
REMARK VINA RESULT: -7.994183510      2.713      5.766
REMARK  3 active torsions:
REMARK  status: ('A' for Active; 'I' for Inactive)
REMARK    1  A    between atoms: C2_2  and  C3_3 
REMARK    2  A    between atoms: C2_2  and  C11_17 
REMARK    3  A    between atoms: C7_8  and  O2_9 
ROOT
HETATM    1  C3  UNL     1      39.374  14.564  16.299  1.00  0.00     0.077 A 
HETATM    2  C4  UNL     1      38.333  14.319  17.138  1.00  0.00     0.110 A 
HETATM    3  O1  UNL     1      37.530  15.257  17.527  1.00  0.00    -0.320 OA
HETATM    4  C5  UNL     1      36.548  15.096  18.325  1.00  0.00     0.145 A 
HETATM    5  C6  UNL     1      36.200  13.860  18.892  1.00  0.00     0.062 A 
HETATM    6  C7  UNL     1      36.992  12.781  18.545  1.00  0.00     0.086 A 
HETATM    7  C8  UNL     1      38.041  12.980  17.689  1.00  0.00     0.107 A 
HETATM    8  C9  UNL     1      38.879  11.952  17.330  1.00  0.00     0.306 A 
HETATM    9  O3  UNL     1      38.613  10.807  17.812  1.00  0.00    -0.259 OA
HETATM   10  O4  UNL     1      39.869  12.218  16.534  1.00  0.00    -0.237 OA
HETATM   11  C10 UNL     1      40.143  13.389  16.031  1.00  0.00     0.304 A 
HETATM   12  O5  UNL     1      41.131  13.476  15.277  1.00  0.00    -0.259 OA
ENDROOT
BRANCH   1  13
HETATM   13  C2  UNL     1      39.642  15.791  15.543  1.00  0.00    -0.056 C 
HETATM   14  C1  UNL     1      39.203  15.648  14.095  1.00  0.00     0.045 C 
BRANCH  13  15
HETATM   15  C11 UNL     1      40.674  16.778  15.871  1.00  0.00    -0.015 C 
HETATM   16  C12 UNL     1      41.511  16.461  17.069  1.00  0.00     0.019 C 
HETATM   17  C13 UNL     1      42.545  17.549  17.281  1.00  0.00    -0.013 C 
HETATM   18  C14 UNL     1      43.343  17.872  16.064  1.00  0.00     0.009 C 
HETATM   19  C18 UNL     1      41.854  18.837  17.743  1.00  0.00     0.009 C 
HETATM   20  C15 UNL     1      42.404  18.394  15.023  1.00  0.00    -0.013 C 
HETATM   21  C16 UNL     1      41.631  19.602  15.467  1.00  0.00     0.009 C 
HETATM   22  C20 UNL     1      41.435  17.263  14.668  1.00  0.00     0.019 C 
HETATM   23  C17 UNL     1      40.841  19.174  16.691  1.00  0.00    -0.013 C 
HETATM   24  C19 UNL     1      39.911  18.082  16.334  1.00  0.00     0.019 C 
ENDBRANCH  13  15
ENDBRANCH   1  13
BRANCH   6  25
HETATM   25  O2  UNL     1      36.765  11.490  19.024  1.00  0.00    -0.359 OA
ATOM     26  H2  UNL     1      36.127  10.900  18.637  1.00  0.00     0.217 HD
ENDBRANCH   6  25
TORSDOF 3
ENDMDL
MODEL 4
REMARK VINA RESULT: -7.988897259      0.175      1.477
REMARK  3 active torsions:
REMARK  status: ('A' for Active; 'I' for Inactive)
REMARK    1  A    between atoms: C2_2  and  C3_3 
REMARK    2  A    between atoms: C2_2  and  C11_17 
REMARK    3  A    between atoms: C7_8  and  O2_9 
ROOT
HETATM    1  C3  UNL     1      40.127  16.976  15.615  1.00  0.00     0.077 A 
HETATM    2  C4  UNL     1      39.145  17.666  16.250  1.00  0.00     0.110 A 
HETATM    3  O1  UNL     1      37.930  17.224  16.320  1.00  0.00    -0.320 OA
HETATM    4  C5  UNL     1      36.960  17.831  16.884  1.00  0.00     0.145 A 
HETATM    5  C6  UNL     1      37.085  19.076  17.519  1.00  0.00     0.062 A 
HETATM    6  C7  UNL     1      38.345  19.647  17.509  1.00  0.00     0.086 A 
HETATM    7  C8  UNL     1      39.367  18.977  16.893  1.00  0.00     0.107 A 
HETATM    8  C9  UNL     1      40.634  19.508  16.827  1.00  0.00     0.306 A 
HETATM    9  O3  UNL     1      40.808  20.634  17.386  1.00  0.00    -0.259 OA
HETATM   10  O4  UNL     1      41.550  18.829  16.206  1.00  0.00    -0.237 OA
HETATM   11  C10 UNL     1      41.378  17.669  15.636  1.00  0.00     0.304 A 
HETATM   12  O5  UNL     1      42.365  17.146  15.085  1.00  0.00    -0.259 OA
ENDROOT
BRANCH   1  13
HETATM   13  C2  UNL     1      40.074  15.597  15.119  1.00  0.00    -0.056 C 
HETATM   14  C1  UNL     1      39.389  15.529  13.765  1.00  0.00     0.045 C 
BRANCH  13  15
HETATM   15  C11 UNL     1      40.097  14.397  15.958  1.00  0.00    -0.015 C 
HETATM   16  C12 UNL     1      38.941  14.242  16.894  1.00  0.00     0.019 C 
HETATM   17  C13 UNL     1      39.081  12.955  17.682  1.00  0.00    -0.013 C 
HETATM   18  C14 UNL     1      39.330  11.752  16.838  1.00  0.00     0.009 C 
HETATM   19  C18 UNL     1      40.243  13.079  18.675  1.00  0.00     0.009 C 
HETATM   20  C15 UNL     1      40.635  11.946  16.133  1.00  0.00    -0.013 C 
HETATM   21  C16 UNL     1      41.790  12.169  17.065  1.00  0.00     0.009 C 
HETATM   22  C20 UNL     1      40.481  13.153  15.204  1.00  0.00     0.019 C 
HETATM   23  C17 UNL     1      41.457  13.416  17.864  1.00  0.00    -0.013 C 
HETATM   24  C19 UNL     1      41.311  14.572  16.954  1.00  0.00     0.019 C 
ENDBRANCH  13  15
ENDBRANCH   1  13
BRANCH   6  25
HETATM   25  O2  UNL     1      38.623  20.878  18.104  1.00  0.00    -0.359 OA
ATOM     26  H2  UNL     1      38.089  21.652  17.964  1.00  0.00     0.217 HD
ENDBRANCH   6  25
TORSDOF 3
ENDMDL
MODEL 5
REMARK VINA RESULT: -7.921218333      2.641      5.265
REMARK  3 active torsions:
REMARK  status: ('A' for Active; 'I' for Inactive)
REMARK    1  A    between atoms: C2_2  and  C3_3 
REMARK    2  A    between atoms: C2_2  and  C11_17 
REMARK    3  A    between atoms: C7_8  and  O2_9 
ROOT
HETATM    1  C3  UNL     1      39.182  14.606  16.720  1.00  0.00     0.077 A 
HETATM    2  C4  UNL     1      37.967  15.072  17.112  1.00  0.00     0.110 A 
HETATM    3  O1  UNL     1      37.540  16.245  16.771  1.00  0.00    -0.320 OA
HETATM    4  C5  UNL     1      36.420  16.747  17.120  1.00  0.00     0.145 A 
HETATM    5  C6  UNL     1      35.487  16.080  17.929  1.00  0.00     0.062 A 
HETATM    6  C7  UNL     1      35.838  14.812  18.355  1.00  0.00     0.086 A 
HETATM    7  C8  UNL     1      37.046  14.298  17.969  1.00  0.00     0.107 A 
HETATM    8  C9  UNL     1      37.461  13.055  18.383  1.00  0.00     0.306 A 
HETATM    9  O3  UNL     1      36.657  12.403  19.118  1.00  0.00    -0.259 OA
HETATM   10  O4  UNL     1      38.630  12.640  17.999  1.00  0.00    -0.237 OA
HETATM   11  C10 UNL     1      39.457  13.303  17.240  1.00  0.00     0.304 A 
HETATM   12  O5  UNL     1      40.542  12.759  16.958  1.00  0.00    -0.259 OA
ENDROOT
BRANCH   1  13
HETATM   13  C2  UNL     1      40.085  15.191  15.724  1.00  0.00    -0.056 C 
HETATM   14  C1  UNL     1      40.240  14.276  14.522  1.00  0.00     0.045 C 
BRANCH  13  15
HETATM   15  C11 UNL     1      41.143  16.163  16.011  1.00  0.00    -0.015 C 
HETATM   16  C12 UNL     1      41.618  16.199  17.428  1.00  0.00     0.019 C 
HETATM   17  C13 UNL     1      42.721  17.228  17.578  1.00  0.00    -0.013 C 
HETATM   18  C14 UNL     1      43.822  17.086  16.583  1.00  0.00     0.009 C 
HETATM   19  C18 UNL     1      42.137  18.638  17.433  1.00  0.00     0.009 C 
HETATM   20  C15 UNL     1      43.241  17.301  15.221  1.00  0.00    -0.013 C 
HETATM   21  C16 UNL     1      42.571  18.635  15.061  1.00  0.00     0.009 C 
HETATM   22  C20 UNL     1      42.229  16.181  14.970  1.00  0.00     0.019 C 
HETATM   23  C17 UNL     1      41.462  18.679  16.095  1.00  0.00    -0.013 C 
HETATM   24  C19 UNL     1      40.492  17.593  15.841  1.00  0.00     0.019 C 
ENDBRANCH  13  15
ENDBRANCH   1  13
BRANCH   6  25
HETATM   25  O2  UNL     1      35.010  14.027  19.158  1.00  0.00    -0.359 OA
ATOM     26  H2  UNL     1      35.323  13.570  19.931  1.00  0.00     0.217 HD
ENDBRANCH   6  25
TORSDOF 3
ENDMDL
