MODEL 1
REMARK VINA RESULT: -7.035944937      0.000      0.000
REMARK  5 active torsions:
REMARK  status: ('A' for Active; 'I' for Inactive)
REMARK    1  A    between atoms: C2_2  and  C3_3 
REMARK    2  A    between atoms: C2_2  and  C6_12 
REMARK    3  A    between atoms: C5_9  and  O2_10 
REMARK    4  A    between atoms: C6_12  and  N2_15 
REMARK    5  A    between atoms: N2_15  and  C9_17 
ROOT
HETATM    1  C1  UNL     1     -26.422 -27.518   5.522  1.00  0.00     0.018 C 
HETATM    2  C2  UNL     1     -27.710 -28.241   5.810  1.00  0.00     0.053 C 
ENDROOT
BRANCH   2   3
HETATM    3  C3  UNL     1     -28.868 -27.379   5.562  1.00  0.00     0.045 A 
HETATM    4  S1  UNL     1     -29.218 -25.749   5.947  1.00  0.00    -0.029 SA
HETATM    5  C4  UNL     1     -30.843 -25.675   5.486  1.00  0.00     0.290 A 
HETATM    6  O1  UNL     1     -31.647 -24.690   5.549  1.00  0.00    -0.260 OA
HETATM    7  N1  UNL     1     -31.087 -26.934   5.030  1.00  0.00    -0.297 N 
HETATM    8  C5  UNL     1     -30.117 -27.782   5.058  1.00  0.00     0.157 A 
ATOM      9  H1  UNL     1     -32.008 -27.198   4.680  1.00  0.00     0.171 HD
BRANCH   8  10
HETATM   10  O2  UNL     1     -30.282 -29.115   4.572  1.00  0.00    -0.345 OA
ATOM     11  H2  UNL     1     -30.878 -29.705   5.019  1.00  0.00     0.219 HD
ENDBRANCH   8  10
ENDBRANCH   2   3
BRANCH   2  12
HETATM   12  C6  UNL     1     -27.634 -28.714   7.305  1.00  0.00     0.026 C 
HETATM   13  C7  UNL     1     -29.028 -29.025   7.762  1.00  0.00     0.038 C 
HETATM   14  C8  UNL     1     -27.122 -27.574   8.081  1.00  0.00     0.038 C 
BRANCH  12  15
HETATM   15  N2  UNL     1     -26.782 -29.823   7.303  1.00  0.00    -0.408 N 
ATOM     16  H2  UNL     1     -25.983 -29.749   6.671  1.00  0.00     0.154 HD
BRANCH  15  17
HETATM   17  C9  UNL     1     -26.848 -30.991   8.012  1.00  0.00     0.077 C 
HETATM   18  C10 UNL     1     -27.452 -32.153   7.267  1.00  0.00     0.024 C 
HETATM   19  C11 UNL     1     -27.365 -33.316   8.272  1.00  0.00     0.002 C 
HETATM   20  C12 UNL     1     -26.207 -32.968   9.129  1.00  0.00     0.002 C 
HETATM   21  C13 UNL     1     -25.601 -31.681   8.501  1.00  0.00     0.024 C 
ENDBRANCH  15  17
ENDBRANCH  12  15
ENDBRANCH   2  12
TORSDOF 5
ENDMDL
MODEL 2
REMARK VINA RESULT: -7.034837974      2.537      3.287
REMARK  5 active torsions:
REMARK  status: ('A' for Active; 'I' for Inactive)
REMARK    1  A    between atoms: C2_2  and  C3_3 
REMARK    2  A    between atoms: C2_2  and  C6_12 
REMARK    3  A    between atoms: C5_9  and  O2_10 
REMARK    4  A    between atoms: C6_12  and  N2_15 
REMARK    5  A    between atoms: N2_15  and  C9_17 
ROOT
HETATM    1  C1  UNL     1     -29.839 -28.162   5.486  1.00  0.00     0.018 C 
HETATM    2  C2  UNL     1     -29.319 -26.920   6.159  1.00  0.00     0.053 C 
ENDROOT
BRANCH   2   3
HETATM    3  C3  UNL     1     -28.396 -26.191   5.286  1.00  0.00     0.045 A 
HETATM    4  S1  UNL     1     -26.948 -26.629   4.488  1.00  0.00    -0.029 SA
HETATM    5  C4  UNL     1     -26.457 -25.119   3.909  1.00  0.00     0.290 A 
HETATM    6  O1  UNL     1     -25.421 -24.820   3.232  1.00  0.00    -0.260 OA
HETATM    7  N1  UNL     1     -27.442 -24.289   4.348  1.00  0.00    -0.297 N 
HETATM    8  C5  UNL     1     -28.408 -24.810   5.025  1.00  0.00     0.157 A 
ATOM      9  H1  UNL     1     -27.417 -23.289   4.150  1.00  0.00     0.171 HD
BRANCH   8  10
HETATM   10  O2  UNL     1     -29.497 -24.015   5.498  1.00  0.00    -0.345 OA
ATOM     11  H2  UNL     1     -29.792 -23.273   4.982  1.00  0.00     0.219 HD
ENDBRANCH   8  10
ENDBRANCH   2   3
BRANCH   2  12
HETATM   12  C6  UNL     1     -28.630 -27.387   7.491  1.00  0.00     0.026 C 
HETATM   13  C7  UNL     1     -29.709 -27.787   8.453  1.00  0.00     0.038 C 
HETATM   14  C8  UNL     1     -27.921 -26.217   8.030  1.00  0.00     0.038 C 
BRANCH  12  15
HETATM   15  N2  UNL     1     -27.785 -28.439   7.125  1.00  0.00    -0.408 N 
ATOM     16  H2  UNL     1     -27.810 -28.686   6.135  1.00  0.00     0.154 HD
BRANCH  15  17
HETATM   17  C9  UNL     1     -26.929 -29.191   7.883  1.00  0.00     0.077 C 
HETATM   18  C10 UNL     1     -26.824 -30.638   7.476  1.00  0.00     0.024 C 
HETATM   19  C11 UNL     1     -25.788 -31.219   8.454  1.00  0.00     0.002 C 
HETATM   20  C12 UNL     1     -24.944 -30.057   8.819  1.00  0.00     0.002 C 
HETATM   21  C13 UNL     1     -25.455 -28.882   7.938  1.00  0.00     0.024 C 
ENDBRANCH  15  17
ENDBRANCH  12  15
ENDBRANCH   2  12
TORSDOF 5
ENDMDL
MODEL 3
REMARK VINA RESULT: -7.032976828      3.220      4.830
REMARK  5 active torsions:
REMARK  status: ('A' for Active; 'I' for Inactive)
REMARK    1  A    between atoms: C2_2  and  C3_3 
REMARK    2  A    between atoms: C2_2  and  C6_12 
REMARK    3  A    between atoms: C5_9  and  O2_10 
REMARK    4  A    between atoms: C6_12  and  N2_15 
REMARK    5  A    between atoms: N2_15  and  C9_17 
ROOT
HETATM    1  C1  UNL     1     -29.428 -27.824   4.360  1.00  0.00     0.018 C 
HETATM    2  C2  UNL     1     -28.900 -26.417   4.309  1.00  0.00     0.053 C 
ENDROOT
BRANCH   2   3
HETATM    3  C3  UNL     1     -27.527 -26.384   3.800  1.00  0.00     0.045 A 
HETATM    4  S1  UNL     1     -26.087 -27.183   4.263  1.00  0.00    -0.029 SA
HETATM    5  C4  UNL     1     -24.969 -26.375   3.286  1.00  0.00     0.290 A 
HETATM    6  O1  UNL     1     -23.709 -26.545   3.204  1.00  0.00    -0.260 OA
HETATM    7  N1  UNL     1     -25.745 -25.489   2.604  1.00  0.00    -0.297 N 
HETATM    8  C5  UNL     1     -27.011 -25.489   2.846  1.00  0.00     0.157 A 
ATOM      9  H1  UNL     1     -25.338 -24.846   1.924  1.00  0.00     0.171 HD
BRANCH   8  10
HETATM   10  O2  UNL     1     -27.900 -24.611   2.153  1.00  0.00    -0.345 OA
ATOM     11  H2  UNL     1     -28.800 -24.531   2.446  1.00  0.00     0.219 HD
ENDBRANCH   8  10
ENDBRANCH   2   3
BRANCH   2  12
HETATM   12  C6  UNL     1     -29.004 -25.847   5.769  1.00  0.00     0.026 C 
HETATM   13  C7  UNL     1     -30.396 -25.323   5.962  1.00  0.00     0.038 C 
HETATM   14  C8  UNL     1     -28.057 -24.724   5.850  1.00  0.00     0.038 C 
BRANCH  12  15
HETATM   15  N2  UNL     1     -28.683 -26.916   6.611  1.00  0.00    -0.408 N 
ATOM     16  H2  UNL     1     -29.404 -27.634   6.687  1.00  0.00     0.154 HD
BRANCH  15  17
HETATM   17  C9  UNL     1     -27.555 -27.153   7.349  1.00  0.00     0.077 C 
HETATM   18  C10 UNL     1     -27.619 -26.676   8.777  1.00  0.00     0.024 C 
HETATM   19  C11 UNL     1     -26.262 -27.101   9.365  1.00  0.00     0.002 C 
HETATM   20  C12 UNL     1     -25.869 -28.279   8.556  1.00  0.00     0.002 C 
HETATM   21  C13 UNL     1     -27.078 -28.557   7.619  1.00  0.00     0.024 C 
ENDBRANCH  15  17
ENDBRANCH  12  15
ENDBRANCH   2  12
TORSDOF 5
ENDMDL
MODEL 4
REMARK VINA RESULT: -6.921378746      1.986      2.621
REMARK  5 active torsions:
REMARK  status: ('A' for Active; 'I' for Inactive)
REMARK    1  A    between atoms: C2_2  and  C3_3 
REMARK    2  A    between atoms: C2_2  and  C6_12 
REMARK    3  A    between atoms: C5_9  and  O2_10 
REMARK    4  A    between atoms: C6_12  and  N2_15 
REMARK    5  A    between atoms: N2_15  and  C9_17 
ROOT
HETATM    1  C1  UNL     1     -29.242 -28.048   7.986  1.00  0.00     0.018 C 
HETATM    2  C2  UNL     1     -28.081 -27.239   7.475  1.00  0.00     0.053 C 
ENDROOT
BRANCH   2   3
HETATM    3  C3  UNL     1     -28.376 -26.660   6.162  1.00  0.00     0.045 A 
HETATM    4  S1  UNL     1     -28.756 -27.343   4.640  1.00  0.00    -0.029 SA
HETATM    5  C4  UNL     1     -28.707 -25.959   3.671  1.00  0.00     0.290 A 
HETATM    6  O1  UNL     1     -28.907 -25.853   2.417  1.00  0.00    -0.260 OA
HETATM    7  N1  UNL     1     -28.396 -24.976   4.559  1.00  0.00    -0.297 N 
HETATM    8  C5  UNL     1     -28.236 -25.310   5.793  1.00  0.00     0.157 A 
ATOM      9  H1  UNL     1     -28.291 -24.007   4.257  1.00  0.00     0.171 HD
BRANCH   8  10
HETATM   10  O2  UNL     1     -27.936 -24.336   6.794  1.00  0.00    -0.345 OA
ATOM     11  H2  UNL     1     -27.333 -23.630   6.593  1.00  0.00     0.219 HD
ENDBRANCH   8  10
ENDBRANCH   2   3
BRANCH   2  12
HETATM   12  C6  UNL     1     -26.845 -28.206   7.431  1.00  0.00     0.026 C 
HETATM   13  C7  UNL     1     -26.046 -27.991   8.682  1.00  0.00     0.038 C 
HETATM   14  C8  UNL     1     -26.034 -27.800   6.273  1.00  0.00     0.038 C 
BRANCH  12  15
HETATM   15  N2  UNL     1     -27.381 -29.492   7.320  1.00  0.00    -0.408 N 
ATOM     16  H2  UNL     1     -28.104 -29.596   6.608  1.00  0.00     0.154 HD
BRANCH  15  17
HETATM   17  C9  UNL     1     -27.090 -30.635   8.016  1.00  0.00     0.077 C 
HETATM   18  C10 UNL     1     -27.954 -31.822   7.676  1.00  0.00     0.024 C 
HETATM   19  C11 UNL     1     -27.390 -32.948   8.560  1.00  0.00     0.002 C 
HETATM   20  C12 UNL     1     -25.972 -32.572   8.766  1.00  0.00     0.002 C 
HETATM   21  C13 UNL     1     -25.749 -31.309   7.888  1.00  0.00     0.024 C 
ENDBRANCH  15  17
ENDBRANCH  12  15
ENDBRANCH   2  12
TORSDOF 5
ENDMDL
MODEL 5
REMARK VINA RESULT: -6.891140901      2.700      5.530
REMARK  5 active torsions:
REMARK  status: ('A' for Active; 'I' for Inactive)
REMARK    1  A    between atoms: C2_2  and  C3_3 
REMARK    2  A    between atoms: C2_2  and  C6_12 
REMARK    3  A    between atoms: C5_9  and  O2_10 
REMARK    4  A    between atoms: C6_12  and  N2_15 
REMARK    5  A    between atoms: N2_15  and  C9_17 
ROOT
HETATM    1  C1  UNL     1     -29.801 -26.077   7.989  1.00  0.00     0.018 C 
HETATM    2  C2  UNL     1     -29.363 -27.064   6.941  1.00  0.00     0.053 C 
ENDROOT
BRANCH   2   3
HETATM    3  C3  UNL     1     -28.314 -27.948   7.451  1.00  0.00     0.045 A 
HETATM    4  S1  UNL     1     -26.778 -27.662   8.149  1.00  0.00    -0.029 SA
HETATM    5  C4  UNL     1     -26.181 -29.242   8.216  1.00  0.00     0.290 A 
HETATM    6  O1  UNL     1     -25.055 -29.653   8.646  1.00  0.00    -0.260 OA
HETATM    7  N1  UNL     1     -27.199 -29.975   7.690  1.00  0.00    -0.297 N 
HETATM    8  C5  UNL     1     -28.260 -29.347   7.315  1.00  0.00     0.157 A 
ATOM      9  H1  UNL     1     -27.126 -30.989   7.596  1.00  0.00     0.171 HD
BRANCH   8  10
HETATM   10  O2  UNL     1     -29.387 -30.044   6.780  1.00  0.00    -0.345 OA
ATOM     11  H2  UNL     1     -29.480 -30.128   5.838  1.00  0.00     0.219 HD
ENDBRANCH   8  10
ENDBRANCH   2   3
BRANCH   2  12
HETATM   12  C6  UNL     1     -28.879 -26.221   5.707  1.00  0.00     0.026 C 
HETATM   13  C7  UNL     1     -28.279 -24.947   6.225  1.00  0.00     0.038 C 
HETATM   14  C8  UNL     1     -30.080 -25.896   4.923  1.00  0.00     0.038 C 
BRANCH  12  15
HETATM   15  N2  UNL     1     -27.968 -27.038   5.031  1.00  0.00    -0.408 N 
ATOM     16  H2  UNL     1     -28.221 -28.026   4.997  1.00  0.00     0.154 HD
BRANCH  15  17
HETATM   17  C9  UNL     1     -26.791 -26.723   4.408  1.00  0.00     0.077 C 
HETATM   18  C10 UNL     1     -25.700 -27.753   4.552  1.00  0.00     0.024 C 
HETATM   19  C11 UNL     1     -24.534 -27.166   3.738  1.00  0.00     0.002 C 
HETATM   20  C12 UNL     1     -25.195 -26.318   2.718  1.00  0.00     0.002 C 
HETATM   21  C13 UNL     1     -26.719 -26.552   2.912  1.00  0.00     0.024 C 
ENDBRANCH  15  17
ENDBRANCH  12  15
ENDBRANCH   2  12
TORSDOF 5
ENDMDL
