MODEL 1
REMARK VINA RESULT: -6.542355220      0.000      0.000
REMARK  6 active torsions:
REMARK  status: ('A' for Active; 'I' for Inactive)
REMARK    1  A    between atoms: C2_2  and  C4_4 
REMARK    2  A    between atoms: C5_5  and  C6_6 
REMARK    3  A    between atoms: C12_12  and  O1_13 
REMARK    4  A    between atoms: C12_12  and  O2_15 
REMARK    5  A    between atoms: C13_17  and  C14_18 
REMARK    6  A    between atoms: C14_18  and  C15_19 
ROOT
HETATM    1  C4  UNL     1     -27.264 -26.423   4.054  1.00  0.00     0.027 C 
HETATM    2  C5  UNL     1     -27.400 -27.669   4.912  1.00  0.00    -0.005 C 
HETATM    3  C8  UNL     1     -28.767 -27.743   5.474  1.00  0.00     0.019 C 
HETATM    4  C9  UNL     1     -29.875 -27.311   4.621  1.00  0.00     0.009 C 
HETATM    5  C10 UNL     1     -30.671 -28.498   4.072  1.00  0.00     0.020 C 
HETATM    6  C11 UNL     1     -30.882 -26.538   5.486  1.00  0.00     0.020 C 
HETATM    7  C12 UNL     1     -29.538 -26.429   3.462  1.00  0.00     0.171 C 
HETATM    8  C13 UNL     1     -28.184 -26.738   2.849  1.00  0.00     0.062 C 
ENDROOT
BRANCH   8   9
HETATM    9  C14 UNL     1     -27.852 -25.892   1.693  1.00  0.00     0.062 C 
BRANCH   9  10
HETATM   10  C15 UNL     1     -27.550 -26.595   0.435  1.00  0.00    -0.024 C 
HETATM   11  C16 UNL     1     -26.215 -26.422  -0.256  1.00  0.00     0.062 C 
HETATM   12  N1  UNL     1     -28.333 -27.414  -0.132  1.00  0.00    -0.406 N 
ATOM     13  H12 UNL     1     -29.233 -27.530   0.334  1.00  0.00     0.155 HD
ATOM     14  H11 UNL     1     -28.125 -27.901  -1.004  1.00  0.00     0.155 HD
ENDBRANCH   9  10
ENDBRANCH   8   9
BRANCH   1  15
HETATM   15  C2  UNL     1     -25.866 -26.179   3.654  1.00  0.00    -0.088 C 
HETATM   16  C1  UNL     1     -25.411 -24.954   3.477  1.00  0.00     0.014 C 
HETATM   17  C3  UNL     1     -24.877 -27.298   3.440  1.00  0.00     0.043 C 
ENDBRANCH   1  15
BRANCH   7  18
HETATM   18  O1  UNL     1     -30.607 -26.390   2.629  1.00  0.00    -0.364 OA
ATOM     19  H1  UNL     1     -30.911 -25.491   2.573  1.00  0.00     0.213 HD
ENDBRANCH   7  18
BRANCH   7  20
HETATM   20  O2  UNL     1     -29.418 -25.115   3.989  1.00  0.00    -0.364 OA
ATOM     21  H2  UNL     1     -30.301 -24.830   4.192  1.00  0.00     0.213 HD
ENDBRANCH   7  20
BRANCH   2  22
HETATM   22  C6  UNL     1     -26.370 -27.694   6.017  1.00  0.00     0.001 C 
HETATM   23  C7  UNL     1     -27.080 -27.315   7.307  1.00  0.00     0.005 C 
ENDBRANCH   2  22
TORSDOF 6
ENDMDL
MODEL 2
REMARK VINA RESULT: -6.506871745      2.066      3.820
REMARK  6 active torsions:
REMARK  status: ('A' for Active; 'I' for Inactive)
REMARK    1  A    between atoms: C2_2  and  C4_4 
REMARK    2  A    between atoms: C5_5  and  C6_6 
REMARK    3  A    between atoms: C12_12  and  O1_13 
REMARK    4  A    between atoms: C12_12  and  O2_15 
REMARK    5  A    between atoms: C13_17  and  C14_18 
REMARK    6  A    between atoms: C14_18  and  C15_19 
ROOT
HETATM    1  C4  UNL     1     -28.233 -26.373   4.155  1.00  0.00     0.027 C 
HETATM    2  C5  UNL     1     -29.066 -27.515   3.601  1.00  0.00    -0.005 C 
HETATM    3  C8  UNL     1     -29.615 -27.139   2.279  1.00  0.00     0.019 C 
HETATM    4  C9  UNL     1     -28.760 -26.351   1.389  1.00  0.00     0.009 C 
HETATM    5  C10 UNL     1     -28.183 -27.198   0.253  1.00  0.00     0.020 C 
HETATM    6  C11 UNL     1     -29.630 -25.299   0.684  1.00  0.00     0.020 C 
HETATM    7  C12 UNL     1     -27.621 -25.614   2.017  1.00  0.00     0.171 C 
HETATM    8  C13 UNL     1     -27.014 -26.347   3.200  1.00  0.00     0.062 C 
ENDROOT
BRANCH   8   9
HETATM    9  C14 UNL     1     -25.876 -25.643   3.811  1.00  0.00     0.062 C 
BRANCH   9  10
HETATM   10  C15 UNL     1     -24.560 -26.288   3.674  1.00  0.00    -0.024 C 
HETATM   11  C16 UNL     1     -24.403 -27.785   3.823  1.00  0.00     0.062 C 
HETATM   12  N1  UNL     1     -23.491 -25.674   3.381  1.00  0.00    -0.406 N 
ATOM     13  H12 UNL     1     -23.597 -24.665   3.281  1.00  0.00     0.155 HD
ATOM     14  H11 UNL     1     -22.578 -26.120   3.286  1.00  0.00     0.155 HD
ENDBRANCH   9  10
ENDBRANCH   8   9
BRANCH   1  15
HETATM   15  C2  UNL     1     -27.849 -26.602   5.561  1.00  0.00    -0.088 C 
HETATM   16  C1  UNL     1     -28.102 -25.702   6.491  1.00  0.00     0.014 C 
HETATM   17  C3  UNL     1     -27.169 -27.868   6.019  1.00  0.00     0.043 C 
ENDBRANCH   1  15
BRANCH   7  18
HETATM   18  O1  UNL     1     -26.779 -25.210   1.034  1.00  0.00    -0.364 OA
ATOM     19  H1  UNL     1     -25.955 -24.952   1.432  1.00  0.00     0.213 HD
ENDBRANCH   7  18
BRANCH   7  20
HETATM   20  O2  UNL     1     -28.173 -24.423   2.559  1.00  0.00    -0.364 OA
ATOM     21  H2  UNL     1     -27.563 -24.130   3.227  1.00  0.00     0.213 HD
ENDBRANCH   7  20
BRANCH   2  22
HETATM   22  C6  UNL     1     -30.180 -27.896   4.548  1.00  0.00     0.001 C 
HETATM   23  C7  UNL     1     -31.281 -26.859   4.394  1.00  0.00     0.005 C 
ENDBRANCH   2  22
TORSDOF 6
ENDMDL
MODEL 3
REMARK VINA RESULT: -6.403805122      2.648      4.354
REMARK  6 active torsions:
REMARK  status: ('A' for Active; 'I' for Inactive)
REMARK    1  A    between atoms: C2_2  and  C4_4 
REMARK    2  A    between atoms: C5_5  and  C6_6 
REMARK    3  A    between atoms: C12_12  and  O1_13 
REMARK    4  A    between atoms: C12_12  and  O2_15 
REMARK    5  A    between atoms: C13_17  and  C14_18 
REMARK    6  A    between atoms: C14_18  and  C15_19 
ROOT
HETATM    1  C4  UNL     1     -27.286 -26.318   5.456  1.00  0.00     0.027 C 
HETATM    2  C5  UNL     1     -26.246 -27.374   5.126  1.00  0.00    -0.005 C 
HETATM    3  C8  UNL     1     -25.777 -28.022   6.372  1.00  0.00     0.019 C 
HETATM    4  C9  UNL     1     -26.767 -28.263   7.423  1.00  0.00     0.009 C 
HETATM    5  C10 UNL     1     -27.168 -29.738   7.504  1.00  0.00     0.020 C 
HETATM    6  C11 UNL     1     -26.115 -27.965   8.782  1.00  0.00     0.020 C 
HETATM    7  C12 UNL     1     -28.029 -27.463   7.368  1.00  0.00     0.171 C 
HETATM    8  C13 UNL     1     -28.485 -27.163   5.952  1.00  0.00     0.062 C 
ENDROOT
BRANCH   8   9
HETATM    9  C14 UNL     1     -29.738 -26.397   5.883  1.00  0.00     0.062 C 
BRANCH   9  10
HETATM   10  C15 UNL     1     -30.796 -26.951   5.023  1.00  0.00    -0.024 C 
HETATM   11  C16 UNL     1     -30.622 -28.284   4.329  1.00  0.00     0.062 C 
HETATM   12  N1  UNL     1     -31.924 -26.405   4.836  1.00  0.00    -0.406 N 
ATOM     13  H12 UNL     1     -32.042 -25.507   5.304  1.00  0.00     0.155 HD
ATOM     14  H11 UNL     1     -32.658 -26.789   4.240  1.00  0.00     0.155 HD
ENDBRANCH   9  10
ENDBRANCH   8   9
BRANCH   1  15
HETATM   15  C2  UNL     1     -27.620 -25.489   4.282  1.00  0.00    -0.088 C 
HETATM   16  C1  UNL     1     -27.574 -24.173   4.342  1.00  0.00     0.014 C 
HETATM   17  C3  UNL     1     -28.016 -26.087   2.954  1.00  0.00     0.043 C 
ENDBRANCH   1  15
BRANCH   7  18
HETATM   18  O1  UNL     1     -28.931 -28.027   8.208  1.00  0.00    -0.364 OA
ATOM     19  H1  UNL     1     -29.622 -28.420   7.687  1.00  0.00     0.213 HD
ENDBRANCH   7  18
BRANCH   7  20
HETATM   20  O2  UNL     1     -27.719 -26.198   7.936  1.00  0.00    -0.364 OA
ATOM     21  H2  UNL     1     -28.402 -25.605   7.646  1.00  0.00     0.213 HD
ENDBRANCH   7  20
BRANCH   2  22
HETATM   22  C6  UNL     1     -25.081 -26.785   4.365  1.00  0.00     0.001 C 
HETATM   23  C7  UNL     1     -24.209 -27.941   3.904  1.00  0.00     0.005 C 
ENDBRANCH   2  22
TORSDOF 6
ENDMDL
MODEL 4
REMARK VINA RESULT: -6.355475755      2.358      4.438
REMARK  6 active torsions:
REMARK  status: ('A' for Active; 'I' for Inactive)
REMARK    1  A    between atoms: C2_2  and  C4_4 
REMARK    2  A    between atoms: C5_5  and  C6_6 
REMARK    3  A    between atoms: C12_12  and  O1_13 
REMARK    4  A    between atoms: C12_12  and  O2_15 
REMARK    5  A    between atoms: C13_17  and  C14_18 
REMARK    6  A    between atoms: C14_18  and  C15_19 
ROOT
HETATM    1  C4  UNL     1     -27.650 -26.744   3.660  1.00  0.00     0.027 C 
HETATM    2  C5  UNL     1     -28.399 -25.962   2.596  1.00  0.00    -0.005 C 
HETATM    3  C8  UNL     1     -29.781 -26.479   2.474  1.00  0.00     0.019 C 
HETATM    4  C9  UNL     1     -30.461 -26.890   3.704  1.00  0.00     0.009 C 
HETATM    5  C10 UNL     1     -31.511 -25.868   4.146  1.00  0.00     0.020 C 
HETATM    6  C11 UNL     1     -31.264 -28.167   3.411  1.00  0.00     0.020 C 
HETATM    7  C12 UNL     1     -29.602 -27.186   4.891  1.00  0.00     0.171 C 
HETATM    8  C13 UNL     1     -28.363 -26.312   4.966  1.00  0.00     0.062 C 
ENDROOT
BRANCH   8   9
HETATM    9  C14 UNL     1     -27.522 -26.577   6.142  1.00  0.00     0.062 C 
BRANCH   9  10
HETATM   10  C15 UNL     1     -27.969 -25.982   7.412  1.00  0.00    -0.024 C 
HETATM   11  C16 UNL     1     -27.597 -26.604   8.740  1.00  0.00     0.062 C 
HETATM   12  N1  UNL     1     -28.637 -24.909   7.503  1.00  0.00    -0.406 N 
ATOM     13  H12 UNL     1     -28.888 -24.491   6.607  1.00  0.00     0.155 HD
ATOM     14  H11 UNL     1     -28.947 -24.497   8.383  1.00  0.00     0.155 HD
ENDBRANCH   9  10
ENDBRANCH   8   9
BRANCH   1  15
HETATM   15  C2  UNL     1     -26.210 -26.424   3.666  1.00  0.00    -0.088 C 
HETATM   16  C1  UNL     1     -25.300 -27.379   3.703  1.00  0.00     0.014 C 
HETATM   17  C3  UNL     1     -25.693 -25.008   3.617  1.00  0.00     0.043 C 
ENDBRANCH   1  15
BRANCH   7  18
HETATM   18  O1  UNL     1     -30.394 -27.241   5.990  1.00  0.00    -0.364 OA
ATOM     19  H1  UNL     1     -30.351 -28.121   6.347  1.00  0.00     0.213 HD
ENDBRANCH   7  18
BRANCH   7  20
HETATM   20  O2  UNL     1     -29.115 -28.508   4.705  1.00  0.00    -0.364 OA
ATOM     21  H2  UNL     1     -28.881 -28.826   5.569  1.00  0.00     0.213 HD
ENDBRANCH   7  20
BRANCH   2  22
HETATM   22  C6  UNL     1     -27.691 -26.024   1.262  1.00  0.00     0.001 C 
HETATM   23  C7  UNL     1     -28.379 -27.096   0.433  1.00  0.00     0.005 C 
ENDBRANCH   2  22
TORSDOF 6
ENDMDL
MODEL 5
REMARK VINA RESULT: -6.212434295      2.267      4.050
REMARK  6 active torsions:
REMARK  status: ('A' for Active; 'I' for Inactive)
REMARK    1  A    between atoms: C2_2  and  C4_4 
REMARK    2  A    between atoms: C5_5  and  C6_6 
REMARK    3  A    between atoms: C12_12  and  O1_13 
REMARK    4  A    between atoms: C12_12  and  O2_15 
REMARK    5  A    between atoms: C13_17  and  C14_18 
REMARK    6  A    between atoms: C14_18  and  C15_19 
ROOT
HETATM    1  C4  UNL     1     -29.095 -26.681   3.774  1.00  0.00     0.027 C 
HETATM    2  C5  UNL     1     -30.043 -25.714   4.462  1.00  0.00    -0.005 C 
HETATM    3  C8  UNL     1     -30.189 -26.085   5.887  1.00  0.00     0.019 C 
HETATM    4  C9  UNL     1     -28.998 -26.573   6.586  1.00  0.00     0.009 C 
HETATM    5  C10 UNL     1     -28.416 -25.517   7.529  1.00  0.00     0.020 C 
HETATM    6  C11 UNL     1     -29.416 -27.728   7.509  1.00  0.00     0.020 C 
HETATM    7  C12 UNL     1     -27.875 -27.083   5.742  1.00  0.00     0.171 C 
HETATM    8  C13 UNL     1     -27.731 -26.340   4.426  1.00  0.00     0.062 C 
ENDROOT
BRANCH   8   9
HETATM    9  C14 UNL     1     -26.614 -26.817   3.597  1.00  0.00     0.062 C 
BRANCH   9  10
HETATM   10  C15 UNL     1     -25.466 -25.906   3.462  1.00  0.00    -0.024 C 
HETATM   11  C16 UNL     1     -24.051 -26.437   3.380  1.00  0.00     0.062 C 
HETATM   12  N1  UNL     1     -25.561 -24.647   3.354  1.00  0.00    -0.406 N 
ATOM     13  H12 UNL     1     -26.514 -24.289   3.410  1.00  0.00     0.155 HD
ATOM     14  H11 UNL     1     -24.766 -24.015   3.261  1.00  0.00     0.155 HD
ENDBRANCH   9  10
ENDBRANCH   8   9
BRANCH   1  15
HETATM   15  C2  UNL     1     -29.087 -26.497   2.311  1.00  0.00    -0.088 C 
HETATM   16  C1  UNL     1     -29.450 -27.472   1.500  1.00  0.00     0.014 C 
HETATM   17  C3  UNL     1     -28.685 -25.198   1.658  1.00  0.00     0.043 C 
ENDBRANCH   1  15
BRANCH   7  18
HETATM   18  O1  UNL     1     -26.770 -27.193   6.520  1.00  0.00    -0.364 OA
ATOM     19  H1  UNL     1     -26.853 -27.978   7.049  1.00  0.00     0.213 HD
ENDBRANCH   7  18
BRANCH   7  20
HETATM   20  O2  UNL     1     -28.223 -28.413   5.384  1.00  0.00    -0.364 OA
ATOM     21  H2  UNL     1     -27.406 -28.898   5.345  1.00  0.00     0.213 HD
ENDBRANCH   7  20
BRANCH   2  22
HETATM   22  C6  UNL     1     -31.392 -25.685   3.781  1.00  0.00     0.001 C 
HETATM   23  C7  UNL     1     -32.446 -25.905   4.854  1.00  0.00     0.005 C 
ENDBRANCH   2  22
TORSDOF 6
ENDMDL
