MODEL 1
REMARK VINA RESULT: -7.033033594      0.000      0.000
REMARK  5 active torsions:
REMARK  status: ('A' for Active; 'I' for Inactive)
REMARK    1  A    between atoms: N1_1  and  C1_4 
REMARK    2  A    between atoms: C3_8  and  C4_9 
REMARK    3  A    between atoms: C4_9  and  C5_10 
REMARK    4  A    between atoms: C5_10  and  C6_11 
REMARK    5  A    between atoms: C6_11  and  N3_12 
ROOT
HETATM    1  C1  UNL     1     -27.507 -31.804   7.732  1.00  0.00     0.676 A 
HETATM    2  N2  UNL     1     -27.787 -30.493   7.647  1.00  0.00    -0.189 N 
ATOM      3  H2  UNL     1     -28.709 -30.185   7.341  1.00  0.00     0.184 HD
HETATM    4  C2  UNL     1     -26.840 -29.584   7.968  1.00  0.00     0.085 A 
HETATM    5  C3  UNL     1     -26.882 -28.184   7.966  1.00  0.00    -0.013 A 
HETATM    6  C12 UNL     1     -25.638 -27.761   8.386  1.00  0.00     0.098 A 
HETATM    7  N4  UNL     1     -24.850 -28.836   8.641  1.00  0.00    -0.362 N 
ATOM      8  H4  UNL     1     -23.883 -28.814   8.965  1.00  0.00     0.165 HD
HETATM    9  C13 UNL     1     -25.580 -29.934   8.387  1.00  0.00     0.076 A 
HETATM   10  C14 UNL     1     -25.303 -31.301   8.471  1.00  0.00     0.138 A 
HETATM   11  N5  UNL     1     -26.275 -32.155   8.142  1.00  0.00    -0.200 N 
ATOM     12  H5  UNL     1     -26.066 -33.151   8.206  1.00  0.00     0.183 HD
ENDROOT
BRANCH   5  13
HETATM   13  C4  UNL     1     -28.081 -27.396   7.573  1.00  0.00     0.044 C 
BRANCH  13  14
HETATM   14  C5  UNL     1     -28.279 -27.349   6.078  1.00  0.00     0.024 C 
BRANCH  14  15
HETATM   15  C6  UNL     1     -27.439 -26.313   5.393  1.00  0.00     0.122 C 
BRANCH  15  16
HETATM   16  N3  UNL     1     -26.862 -26.897   4.215  1.00  0.00    -0.393 N 
HETATM   17  C7  UNL     1     -25.819 -27.821   4.463  1.00  0.00     0.122 C 
HETATM   18  C8  UNL     1     -24.437 -27.363   4.124  1.00  0.00     0.020 C 
HETATM   19  C9  UNL     1     -24.367 -26.199   3.188  1.00  0.00     0.007 C 
HETATM   20  C10 UNL     1     -25.551 -26.329   2.235  1.00  0.00     0.044 C 
HETATM   21  C11 UNL     1     -26.782 -26.090   3.070  1.00  0.00     0.058 C 
ENDBRANCH  15  16
ENDBRANCH  14  15
ENDBRANCH  13  14
ENDBRANCH   5  13
BRANCH   1  22
HETATM   22  N1  UNL     1     -28.399 -32.716   7.428  1.00  0.00    -0.234 N 
ATOM     23  H12 UNL     1     -29.327 -32.449   7.100  1.00  0.00     0.174 HD
ATOM     24  H11 UNL     1     -28.192 -33.712   7.509  1.00  0.00     0.174 HD
ENDBRANCH   1  22
TORSDOF 5
ENDMDL
MODEL 2
REMARK VINA RESULT: -7.027682671      2.882      5.516
REMARK  5 active torsions:
REMARK  status: ('A' for Active; 'I' for Inactive)
REMARK    1  A    between atoms: N1_1  and  C1_4 
REMARK    2  A    between atoms: C3_8  and  C4_9 
REMARK    3  A    between atoms: C4_9  and  C5_10 
REMARK    4  A    between atoms: C5_10  and  C6_11 
REMARK    5  A    between atoms: C6_11  and  N3_12 
ROOT
HETATM    1  C1  UNL     1     -27.140 -36.774   9.466  1.00  0.00     0.676 A 
HETATM    2  N2  UNL     1     -26.751 -35.499   9.304  1.00  0.00    -0.189 N 
ATOM      3  H2  UNL     1     -25.899 -35.163   9.752  1.00  0.00     0.184 HD
HETATM    4  C2  UNL     1     -27.493 -34.664   8.544  1.00  0.00     0.085 A 
HETATM    5  C3  UNL     1     -27.304 -33.314   8.222  1.00  0.00    -0.013 A 
HETATM    6  C12 UNL     1     -28.361 -32.961   7.409  1.00  0.00     0.098 A 
HETATM    7  N4  UNL     1     -29.177 -34.030   7.226  1.00  0.00    -0.362 N 
ATOM      8  H4  UNL     1     -30.032 -34.050   6.671  1.00  0.00     0.165 HD
HETATM    9  C13 UNL     1     -28.648 -35.055   7.914  1.00  0.00     0.076 A 
HETATM   10  C14 UNL     1     -29.041 -36.385   8.091  1.00  0.00     0.138 A 
HETATM   11  N5  UNL     1     -28.272 -37.166   8.852  1.00  0.00    -0.200 N 
ATOM     12  H5  UNL     1     -28.564 -38.134   8.978  1.00  0.00     0.183 HD
ENDROOT
BRANCH   5  13
HETATM   13  C4  UNL     1     -26.155 -32.504   8.706  1.00  0.00     0.044 C 
BRANCH  13  14
HETATM   14  C5  UNL     1     -25.987 -31.217   7.936  1.00  0.00     0.024 C 
BRANCH  14  15
HETATM   15  C6  UNL     1     -25.222 -30.165   8.683  1.00  0.00     0.122 C 
BRANCH  15  16
HETATM   16  N3  UNL     1     -25.412 -28.905   8.022  1.00  0.00    -0.393 N 
HETATM   17  C7  UNL     1     -25.215 -27.770   8.845  1.00  0.00     0.122 C 
HETATM   18  C8  UNL     1     -26.446 -27.015   9.233  1.00  0.00     0.020 C 
HETATM   19  C9  UNL     1     -27.646 -27.277   8.380  1.00  0.00     0.007 C 
HETATM   20  C10 UNL     1     -27.133 -27.532   6.966  1.00  0.00     0.044 C 
HETATM   21  C11 UNL     1     -26.396 -28.844   7.025  1.00  0.00     0.058 C 
ENDBRANCH  15  16
ENDBRANCH  14  15
ENDBRANCH  13  14
ENDBRANCH   5  13
BRANCH   1  22
HETATM   22  N1  UNL     1     -26.448 -37.614  10.198  1.00  0.00    -0.234 N 
ATOM     23  H12 UNL     1     -26.188 -37.380  11.156  1.00  0.00     0.174 HD
ATOM     24  H11 UNL     1     -26.151 -38.519   9.834  1.00  0.00     0.174 HD
ENDBRANCH   1  22
TORSDOF 5
ENDMDL
MODEL 3
REMARK VINA RESULT: -7.023119231      2.350      4.572
REMARK  5 active torsions:
REMARK  status: ('A' for Active; 'I' for Inactive)
REMARK    1  A    between atoms: N1_1  and  C1_4 
REMARK    2  A    between atoms: C3_8  and  C4_9 
REMARK    3  A    between atoms: C4_9  and  C5_10 
REMARK    4  A    between atoms: C5_10  and  C6_11 
REMARK    5  A    between atoms: C6_11  and  N3_12 
ROOT
HETATM    1  C1  UNL     1     -26.893 -35.351   9.466  1.00  0.00     0.676 A 
HETATM    2  N2  UNL     1     -26.355 -34.128   9.326  1.00  0.00    -0.189 N 
ATOM      3  H2  UNL     1     -25.485 -33.894   9.802  1.00  0.00     0.184 HD
HETATM    4  C2  UNL     1     -26.973 -33.210   8.551  1.00  0.00     0.085 A 
HETATM    5  C3  UNL     1     -26.621 -31.889   8.245  1.00  0.00    -0.013 A 
HETATM    6  C12 UNL     1     -27.605 -31.414   7.404  1.00  0.00     0.098 A 
HETATM    7  N4  UNL     1     -28.532 -32.381   7.189  1.00  0.00    -0.362 N 
ATOM      8  H4  UNL     1     -29.367 -32.301   6.608  1.00  0.00     0.165 HD
HETATM    9  C13 UNL     1     -28.146 -33.463   7.883  1.00  0.00     0.076 A 
HETATM   10  C14 UNL     1     -28.694 -34.740   8.038  1.00  0.00     0.138 A 
HETATM   11  N5  UNL     1     -28.042 -35.607   8.816  1.00  0.00    -0.200 N 
ATOM     12  H5  UNL     1     -28.448 -36.537   8.925  1.00  0.00     0.183 HD
ENDROOT
BRANCH   5  13
HETATM   13  C4  UNL     1     -25.402 -31.219   8.770  1.00  0.00     0.044 C 
BRANCH  13  14
HETATM   14  C5  UNL     1     -25.161 -29.872   8.132  1.00  0.00     0.024 C 
BRANCH  14  15
HETATM   15  C6  UNL     1     -25.689 -28.723   8.938  1.00  0.00     0.122 C 
BRANCH  15  16
HETATM   16  N3  UNL     1     -26.256 -27.757   8.040  1.00  0.00    -0.393 N 
HETATM   17  C7  UNL     1     -27.315 -26.993   8.585  1.00  0.00     0.122 C 
HETATM   18  C8  UNL     1     -28.686 -27.307   8.077  1.00  0.00     0.020 C 
HETATM   19  C9  UNL     1     -28.725 -28.055   6.783  1.00  0.00     0.007 C 
HETATM   20  C10 UNL     1     -27.529 -27.581   5.964  1.00  0.00     0.044 C 
HETATM   21  C11 UNL     1     -26.308 -28.096   6.680  1.00  0.00     0.058 C 
ENDBRANCH  15  16
ENDBRANCH  14  15
ENDBRANCH  13  14
ENDBRANCH   5  13
BRANCH   1  22
HETATM   22  N1  UNL     1     -26.324 -36.268  10.211  1.00  0.00    -0.234 N 
ATOM     23  H12 UNL     1     -25.864 -36.017  11.087  1.00  0.00     0.174 HD
ATOM     24  H11 UNL     1     -26.325 -37.252   9.940  1.00  0.00     0.174 HD
ENDBRANCH   1  22
TORSDOF 5
ENDMDL
MODEL 4
REMARK VINA RESULT: -7.008693164      1.680      2.252
REMARK  5 active torsions:
REMARK  status: ('A' for Active; 'I' for Inactive)
REMARK    1  A    between atoms: N1_1  and  C1_4 
REMARK    2  A    between atoms: C3_8  and  C4_9 
REMARK    3  A    between atoms: C4_9  and  C5_10 
REMARK    4  A    between atoms: C5_10  and  C6_11 
REMARK    5  A    between atoms: C6_11  and  N3_12 
ROOT
HETATM    1  C1  UNL     1     -26.747 -31.800   8.010  1.00  0.00     0.676 A 
HETATM    2  N2  UNL     1     -27.562 -30.792   7.660  1.00  0.00    -0.189 N 
ATOM      3  H2  UNL     1     -28.492 -30.990   7.291  1.00  0.00     0.184 HD
HETATM    4  C2  UNL     1     -27.146 -29.515   7.799  1.00  0.00     0.085 A 
HETATM    5  C3  UNL     1     -27.797 -28.307   7.514  1.00  0.00    -0.013 A 
HETATM    6  C12 UNL     1     -26.912 -27.304   7.850  1.00  0.00     0.098 A 
HETATM    7  N4  UNL     1     -25.761 -27.847   8.323  1.00  0.00    -0.362 N 
ATOM      8  H4  UNL     1     -24.939 -27.336   8.643  1.00  0.00     0.165 HD
HETATM    9  C13 UNL     1     -25.908 -29.181   8.290  1.00  0.00     0.076 A 
HETATM   10  C14 UNL     1     -25.070 -30.240   8.650  1.00  0.00     0.138 A 
HETATM   11  N5  UNL     1     -25.532 -31.482   8.492  1.00  0.00    -0.200 N 
ATOM     12  H5  UNL     1     -24.915 -32.250   8.757  1.00  0.00     0.183 HD
ENDROOT
BRANCH   5  13
HETATM   13  C4  UNL     1     -29.175 -28.224   6.961  1.00  0.00     0.044 C 
BRANCH  13  14
HETATM   14  C5  UNL     1     -29.700 -26.810   6.923  1.00  0.00     0.024 C 
BRANCH  14  15
HETATM   15  C6  UNL     1     -30.487 -26.494   5.685  1.00  0.00     0.122 C 
BRANCH  15  16
HETATM   16  N3  UNL     1     -29.684 -25.663   4.832  1.00  0.00    -0.393 N 
HETATM   17  C7  UNL     1     -29.383 -26.228   3.570  1.00  0.00     0.122 C 
HETATM   18  C8  UNL     1     -27.971 -26.679   3.369  1.00  0.00     0.020 C 
HETATM   19  C9  UNL     1     -26.979 -26.100   4.326  1.00  0.00     0.007 C 
HETATM   20  C10 UNL     1     -27.453 -24.688   4.650  1.00  0.00     0.044 C 
HETATM   21  C11 UNL     1     -28.721 -24.851   5.448  1.00  0.00     0.058 C 
ENDBRANCH  15  16
ENDBRANCH  14  15
ENDBRANCH  13  14
ENDBRANCH   5  13
BRANCH   1  22
HETATM   22  N1  UNL     1     -27.114 -33.053   7.889  1.00  0.00    -0.234 N 
ATOM     23  H12 UNL     1     -26.963 -33.558   7.015  1.00  0.00     0.174 HD
ATOM     24  H11 UNL     1     -27.559 -33.556   8.657  1.00  0.00     0.174 HD
ENDBRANCH   1  22
TORSDOF 5
ENDMDL
MODEL 5
REMARK VINA RESULT: -6.992120775      2.262      6.528
REMARK  5 active torsions:
REMARK  status: ('A' for Active; 'I' for Inactive)
REMARK    1  A    between atoms: N1_1  and  C1_4 
REMARK    2  A    between atoms: C3_8  and  C4_9 
REMARK    3  A    between atoms: C4_9  and  C5_10 
REMARK    4  A    between atoms: C5_10  and  C6_11 
REMARK    5  A    between atoms: C6_11  and  N3_12 
ROOT
HETATM    1  C1  UNL     1     -27.755 -25.808   3.373  1.00  0.00     0.676 A 
HETATM    2  N2  UNL     1     -28.238 -26.688   4.265  1.00  0.00    -0.189 N 
ATOM      3  H2  UNL     1     -28.428 -27.650   3.985  1.00  0.00     0.184 HD
HETATM    4  C2  UNL     1     -28.470 -26.295   5.536  1.00  0.00     0.085 A 
HETATM    5  C3  UNL     1     -28.959 -27.008   6.638  1.00  0.00    -0.013 A 
HETATM    6  C12 UNL     1     -28.992 -26.117   7.690  1.00  0.00     0.098 A 
HETATM    7  N4  UNL     1     -28.547 -24.903   7.278  1.00  0.00    -0.362 N 
ATOM      8  H4  UNL     1     -28.468 -24.063   7.849  1.00  0.00     0.165 HD
HETATM    9  C13 UNL     1     -28.234 -25.016   5.977  1.00  0.00     0.076 A 
HETATM   10  C14 UNL     1     -27.732 -24.110   5.038  1.00  0.00     0.138 A 
HETATM   11  N5  UNL     1     -27.521 -24.553   3.797  1.00  0.00    -0.200 N 
ATOM     12  H5  UNL     1     -27.155 -23.887   3.116  1.00  0.00     0.183 HD
ENDROOT
BRANCH   5  13
HETATM   13  C4  UNL     1     -29.339 -28.445   6.586  1.00  0.00     0.044 C 
BRANCH  13  14
HETATM   14  C5  UNL     1     -28.639 -29.268   7.639  1.00  0.00     0.024 C 
BRANCH  14  15
HETATM   15  C6  UNL     1     -29.088 -30.699   7.680  1.00  0.00     0.122 C 
BRANCH  15  16
HETATM   16  N3  UNL     1     -27.956 -31.542   7.418  1.00  0.00    -0.393 N 
HETATM   17  C7  UNL     1     -28.262 -32.916   7.275  1.00  0.00     0.122 C 
HETATM   18  C8  UNL     1     -27.843 -33.807   8.400  1.00  0.00     0.020 C 
HETATM   19  C9  UNL     1     -26.800 -33.234   9.306  1.00  0.00     0.007 C 
HETATM   20  C10 UNL     1     -25.896 -32.362   8.441  1.00  0.00     0.044 C 
HETATM   21  C11 UNL     1     -26.738 -31.187   8.017  1.00  0.00     0.058 C 
ENDBRANCH  15  16
ENDBRANCH  14  15
ENDBRANCH  13  14
ENDBRANCH   5  13
BRANCH   1  22
HETATM   22  N1  UNL     1     -27.519 -26.152   2.130  1.00  0.00    -0.234 N 
ATOM     23  H12 UNL     1     -28.090 -26.860   1.667  1.00  0.00     0.174 HD
ATOM     24  H11 UNL     1     -26.763 -25.726   1.593  1.00  0.00     0.174 HD
ENDBRANCH   1  22
TORSDOF 5
ENDMDL
