MODEL 1
REMARK VINA RESULT: -6.510194344      0.000      0.000
REMARK  3 active torsions:
REMARK  status: ('A' for Active; 'I' for Inactive)
REMARK    1  A    between atoms: N3_6  and  O1_8 
REMARK    2  A    between atoms: O1_8  and  C4_9 
REMARK       I    between atoms: C4_9  and  N4_11 
REMARK    3  A    between atoms: C7_15  and  O4_16 
ROOT
HETATM    1  N1  UNL     1     -16.072   3.586 -19.337  1.00  0.00    -0.189 NA
HETATM    2  C1  UNL     1     -15.510   2.890 -20.078  1.00  0.00     0.131 C 
HETATM    3  C2  UNL     1     -14.807   2.037 -20.994  1.00  0.00     0.215 C 
HETATM    4  C3  UNL     1     -13.855   2.517 -21.954  1.00  0.00     0.131 C 
HETATM    5  N2  UNL     1     -13.098   2.921 -22.728  1.00  0.00    -0.189 NA
HETATM    6  N3  UNL     1     -15.035   0.778 -20.957  1.00  0.00    -0.236 N 
ATOM      7  H3  UNL     1     -15.711   0.433 -20.274  1.00  0.00     0.196 HD
ENDROOT
BRANCH   6   8
HETATM    8  O1  UNL     1     -14.427  -0.136 -21.777  1.00  0.00    -0.179 OA
BRANCH   8   9
HETATM    9  C4  UNL     1     -13.404  -0.953 -21.370  1.00  0.00     0.388 C 
HETATM   10  O2  UNL     1     -13.621  -1.699 -20.378  1.00  0.00    -0.236 OA
HETATM   11  N4  UNL     1     -12.130  -1.006 -21.993  1.00  0.00    -0.275 N 
HETATM   12  C5  UNL     1     -11.004  -1.841 -21.619  1.00  0.00     0.159 C 
HETATM   13  C7  UNL     1     -11.639  -0.256 -23.134  1.00  0.00     0.374 C 
HETATM   14  C6  UNL     1     -10.206  -1.873 -22.903  1.00  0.00     0.193 C 
HETATM   15  O3  UNL     1     -11.036  -1.268 -23.873  1.00  0.00    -0.342 OA
BRANCH  13  16
HETATM   16  O4  UNL     1     -10.649   0.601 -22.661  1.00  0.00    -0.354 OA
ATOM     17  H4  UNL     1     -11.083   1.257 -22.129  1.00  0.00     0.214 HD
ENDBRANCH  13  16
ENDBRANCH   8   9
ENDBRANCH   6   8
TORSDOF 3
ENDMDL
MODEL 2
REMARK VINA RESULT: -6.492100678      2.272      3.147
REMARK  3 active torsions:
REMARK  status: ('A' for Active; 'I' for Inactive)
REMARK    1  A    between atoms: N3_6  and  O1_8 
REMARK    2  A    between atoms: O1_8  and  C4_9 
REMARK       I    between atoms: C4_9  and  N4_11 
REMARK    3  A    between atoms: C7_15  and  O4_16 
ROOT
HETATM    1  N1  UNL     1     -13.197   3.202 -22.553  1.00  0.00    -0.189 NA
HETATM    2  C1  UNL     1     -12.819   2.112 -22.695  1.00  0.00     0.131 C 
HETATM    3  C2  UNL     1     -12.342   0.770 -22.873  1.00  0.00     0.215 C 
HETATM    4  C3  UNL     1     -11.269   0.420 -23.759  1.00  0.00     0.131 C 
HETATM    5  N2  UNL     1     -10.410   0.153 -24.485  1.00  0.00    -0.189 NA
HETATM    6  N3  UNL     1     -12.897  -0.171 -22.206  1.00  0.00    -0.236 N 
ATOM      7  H3  UNL     1     -13.660   0.075 -21.574  1.00  0.00     0.196 HD
ENDROOT
BRANCH   6   8
HETATM    8  O1  UNL     1     -12.530  -1.489 -22.289  1.00  0.00    -0.179 OA
BRANCH   8   9
HETATM    9  C4  UNL     1     -11.970  -2.183 -21.249  1.00  0.00     0.388 C 
HETATM   10  O2  UNL     1     -12.708  -2.442 -20.262  1.00  0.00    -0.236 OA
HETATM   11  N4  UNL     1     -10.620  -2.621 -21.219  1.00  0.00    -0.275 N 
HETATM   12  C5  UNL     1      -9.959  -3.357 -20.157  1.00  0.00     0.159 C 
HETATM   13  C7  UNL     1      -9.580  -2.449 -22.217  1.00  0.00     0.374 C 
HETATM   14  C6  UNL     1      -8.799  -3.987 -20.896  1.00  0.00     0.193 C 
HETATM   15  O3  UNL     1      -9.047  -3.732 -22.263  1.00  0.00    -0.342 OA
BRANCH  13  16
HETATM   16  O4  UNL     1      -8.632  -1.590 -21.671  1.00  0.00    -0.354 OA
ATOM     17  H4  UNL     1      -9.100  -0.829 -21.350  1.00  0.00     0.214 HD
ENDBRANCH  13  16
ENDBRANCH   8   9
ENDBRANCH   6   8
TORSDOF 3
ENDMDL
MODEL 3
REMARK VINA RESULT: -6.472803378      4.004      5.505
REMARK  3 active torsions:
REMARK  status: ('A' for Active; 'I' for Inactive)
REMARK    1  A    between atoms: N3_6  and  O1_8 
REMARK    2  A    between atoms: O1_8  and  C4_9 
REMARK       I    between atoms: C4_9  and  N4_11 
REMARK    3  A    between atoms: C7_15  and  O4_16 
ROOT
HETATM    1  N1  UNL     1     -12.009  -5.835 -18.557  1.00  0.00    -0.189 NA
HETATM    2  C1  UNL     1     -11.824  -4.890 -19.207  1.00  0.00     0.131 C 
HETATM    3  C2  UNL     1     -11.601  -3.717 -20.004  1.00  0.00     0.215 C 
HETATM    4  C3  UNL     1     -12.625  -2.757 -20.305  1.00  0.00     0.131 C 
HETATM    5  N2  UNL     1     -13.462  -1.998 -20.547  1.00  0.00    -0.189 NA
HETATM    6  N3  UNL     1     -10.429  -3.508 -20.473  1.00  0.00    -0.236 N 
ATOM      7  H3  UNL     1      -9.699  -4.188 -20.260  1.00  0.00     0.196 HD
ENDROOT
BRANCH   6   8
HETATM    8  O1  UNL     1     -10.094  -2.426 -21.245  1.00  0.00    -0.179 OA
BRANCH   8   9
HETATM    9  C4  UNL     1      -9.235  -2.496 -22.310  1.00  0.00     0.388 C 
HETATM   10  O2  UNL     1      -8.638  -3.588 -22.501  1.00  0.00    -0.236 OA
HETATM   11  N4  UNL     1      -8.980  -1.419 -23.200  1.00  0.00    -0.275 N 
HETATM   12  C5  UNL     1      -8.087  -1.419 -24.344  1.00  0.00     0.159 C 
HETATM   13  C7  UNL     1      -9.533  -0.077 -23.194  1.00  0.00     0.374 C 
HETATM   14  C6  UNL     1      -8.642  -0.277 -25.166  1.00  0.00     0.193 C 
HETATM   15  O3  UNL     1      -9.856   0.079 -24.537  1.00  0.00    -0.342 OA
BRANCH  13  16
HETATM   16  O4  UNL     1      -8.490   0.789 -22.883  1.00  0.00    -0.354 OA
ATOM     17  H4  UNL     1      -8.879   1.635 -22.698  1.00  0.00     0.214 HD
ENDBRANCH  13  16
ENDBRANCH   8   9
ENDBRANCH   6   8
TORSDOF 3
ENDMDL
MODEL 4
REMARK VINA RESULT: -6.306024547      3.307      4.638
REMARK  3 active torsions:
REMARK  status: ('A' for Active; 'I' for Inactive)
REMARK    1  A    between atoms: N3_6  and  O1_8 
REMARK    2  A    between atoms: O1_8  and  C4_9 
REMARK       I    between atoms: C4_9  and  N4_11 
REMARK    3  A    between atoms: C7_15  and  O4_16 
ROOT
HETATM    1  N1  UNL     1     -14.709  -1.103 -20.350  1.00  0.00    -0.189 NA
HETATM    2  C1  UNL     1     -13.707  -1.665 -20.521  1.00  0.00     0.131 C 
HETATM    3  C2  UNL     1     -12.473  -2.369 -20.730  1.00  0.00     0.215 C 
HETATM    4  C3  UNL     1     -12.096  -3.543 -19.996  1.00  0.00     0.131 C 
HETATM    5  N2  UNL     1     -11.802  -4.482 -19.389  1.00  0.00    -0.189 NA
HETATM    6  N3  UNL     1     -11.662  -1.933 -21.619  1.00  0.00    -0.236 N 
ATOM      7  H3  UNL     1     -11.928  -1.099 -22.143  1.00  0.00     0.196 HD
ENDROOT
BRANCH   6   8
HETATM    8  O1  UNL     1     -10.457  -2.519 -21.909  1.00  0.00    -0.179 OA
BRANCH   8   9
HETATM    9  C4  UNL     1      -9.304  -1.808 -22.118  1.00  0.00     0.388 C 
HETATM   10  O2  UNL     1      -8.335  -2.038 -21.347  1.00  0.00    -0.236 OA
HETATM   11  N4  UNL     1      -9.140  -0.838 -23.142  1.00  0.00    -0.275 N 
HETATM   12  C5  UNL     1      -7.955  -0.050 -23.423  1.00  0.00     0.159 C 
HETATM   13  C7  UNL     1     -10.093  -0.398 -24.145  1.00  0.00     0.374 C 
HETATM   14  C6  UNL     1      -8.181   0.340 -24.867  1.00  0.00     0.193 C 
HETATM   15  O3  UNL     1      -9.299  -0.415 -25.286  1.00  0.00    -0.342 OA
BRANCH  13  16
HETATM   16  O4  UNL     1     -10.414   0.923 -23.845  1.00  0.00    -0.354 OA
ATOM     17  H4  UNL     1      -9.643   1.444 -24.033  1.00  0.00     0.214 HD
ENDBRANCH  13  16
ENDBRANCH   8   9
ENDBRANCH   6   8
TORSDOF 3
ENDMDL
MODEL 5
REMARK VINA RESULT: -6.284974460      2.584      4.324
REMARK  3 active torsions:
REMARK  status: ('A' for Active; 'I' for Inactive)
REMARK    1  A    between atoms: N3_6  and  O1_8 
REMARK    2  A    between atoms: O1_8  and  C4_9 
REMARK       I    between atoms: C4_9  and  N4_11 
REMARK    3  A    between atoms: C7_15  and  O4_16 
ROOT
HETATM    1  N1  UNL     1     -15.451  -0.170 -20.555  1.00  0.00    -0.189 NA
HETATM    2  C1  UNL     1     -14.434  -0.671 -20.805  1.00  0.00     0.131 C 
HETATM    3  C2  UNL     1     -13.181  -1.300 -21.112  1.00  0.00     0.215 C 
HETATM    4  C3  UNL     1     -12.758  -2.547 -20.541  1.00  0.00     0.131 C 
HETATM    5  N2  UNL     1     -12.428  -3.547 -20.064  1.00  0.00    -0.189 NA
HETATM    6  N3  UNL     1     -12.393  -0.726 -21.942  1.00  0.00    -0.236 N 
ATOM      7  H3  UNL     1     -12.692   0.160 -22.350  1.00  0.00     0.196 HD
ENDROOT
BRANCH   6   8
HETATM    8  O1  UNL     1     -11.174  -1.228 -22.314  1.00  0.00    -0.179 OA
BRANCH   8   9
HETATM    9  C4  UNL     1     -10.391  -0.664 -23.289  1.00  0.00     0.388 C 
HETATM   10  O2  UNL     1     -10.970   0.030 -24.165  1.00  0.00    -0.236 OA
HETATM   11  N4  UNL     1      -8.982  -0.817 -23.366  1.00  0.00    -0.275 N 
HETATM   12  C5  UNL     1      -8.092  -0.253 -24.364  1.00  0.00     0.159 C 
HETATM   13  C7  UNL     1      -8.093  -1.558 -22.490  1.00  0.00     0.374 C 
HETATM   14  C6  UNL     1      -6.764  -0.280 -23.640  1.00  0.00     0.193 C 
HETATM   15  O3  UNL     1      -7.073  -0.630 -22.306  1.00  0.00    -0.342 OA
BRANCH  13  16
HETATM   16  O4  UNL     1      -7.596  -2.628 -23.227  1.00  0.00    -0.354 OA
ATOM     17  H4  UNL     1      -6.669  -2.468 -23.354  1.00  0.00     0.214 HD
ENDBRANCH  13  16
ENDBRANCH   8   9
ENDBRANCH   6   8
TORSDOF 3
ENDMDL
