MODEL 1
REMARK VINA RESULT: -5.756281310      0.000      0.000
REMARK  2 active torsions:
REMARK  status: ('A' for Active; 'I' for Inactive)
REMARK    1  A    between atoms: C2_5  and  N2_6 
REMARK       I    between atoms: N2_6  and  C3_8 
REMARK       I    between atoms: C3_8  and  N4_12 
REMARK    2  A    between atoms: N4_12  and  N5_14 
ROOT
HETATM    1  N2  UNL     1     -11.911  -0.859 -23.171  1.00  0.00    -0.168 N 
ATOM      2  H2  UNL     1     -12.202  -1.078 -24.124  1.00  0.00     0.186 HD
HETATM    3  C3  UNL     1     -10.547  -0.699 -22.938  1.00  0.00     0.697 C 
HETATM    4  N3  UNL     1     -10.021   0.458 -22.793  1.00  0.00    -0.233 N 
ATOM      5  H31 UNL     1      -9.022   0.575 -22.622  1.00  0.00     0.174 HD
ATOM      6  H32 UNL     1     -10.632   1.274 -22.851  1.00  0.00     0.174 HD
HETATM    7  N4  UNL     1      -9.699  -1.831 -22.856  1.00  0.00    -0.072 N 
ATOM      8  H4  UNL     1      -9.870  -2.629 -23.468  1.00  0.00     0.212 HD
ENDROOT
BRANCH   1   9
HETATM    9  C2  UNL     1     -12.852  -0.749 -22.263  1.00  0.00     0.180 A 
HETATM   10  N1  UNL     1     -13.251  -1.421 -21.169  1.00  0.00    -0.295 N 
HETATM   11  C1  UNL     1     -12.660  -2.641 -20.599  1.00  0.00     0.167 C 
HETATM   12  S1  UNL     1     -14.570  -0.543 -20.617  1.00  0.00     0.032 SA
HETATM   13  S2  UNL     1     -14.012   0.493 -22.244  1.00  0.00     0.003 SA
ENDBRANCH   1   9
BRANCH   7  14
HETATM   14  N5  UNL     1      -8.635  -1.877 -21.957  1.00  0.00    -0.024 N 
HETATM   15  O1  UNL     1      -8.712  -2.584 -20.929  1.00  0.00    -0.516 OA
HETATM   16  O2  UNL     1      -7.513  -1.119 -22.248  1.00  0.00    -0.516 OA
ENDBRANCH   7  14
TORSDOF 2
ENDMDL
MODEL 2
REMARK VINA RESULT: -5.525854242      2.808      3.200
REMARK  2 active torsions:
REMARK  status: ('A' for Active; 'I' for Inactive)
REMARK    1  A    between atoms: C2_5  and  N2_6 
REMARK       I    between atoms: N2_6  and  C3_8 
REMARK       I    between atoms: C3_8  and  N4_12 
REMARK    2  A    between atoms: N4_12  and  N5_14 
ROOT
HETATM    1  N2  UNL     1     -10.269  -1.839 -22.907  1.00  0.00    -0.168 N 
ATOM      2  H2  UNL     1     -10.791  -2.187 -23.711  1.00  0.00     0.186 HD
HETATM    3  C3  UNL     1      -9.449  -0.731 -23.108  1.00  0.00     0.697 C 
HETATM    4  N3  UNL     1      -9.790   0.438 -22.715  1.00  0.00    -0.233 N 
ATOM      5  H31 UNL     1      -9.190   1.249 -22.862  1.00  0.00     0.174 HD
ATOM      6  H32 UNL     1     -10.689   0.542 -22.244  1.00  0.00     0.174 HD
HETATM    7  N4  UNL     1      -8.200  -0.876 -23.762  1.00  0.00    -0.072 N 
ATOM      8  H4  UNL     1      -8.115  -1.533 -24.537  1.00  0.00     0.212 HD
ENDROOT
BRANCH   1   9
HETATM    9  C2  UNL     1     -10.424  -2.470 -21.768  1.00  0.00     0.180 A 
HETATM   10  N1  UNL     1     -11.401  -2.642 -20.859  1.00  0.00    -0.295 N 
HETATM   11  C1  UNL     1     -12.765  -2.095 -20.894  1.00  0.00     0.167 C 
HETATM   12  S1  UNL     1     -10.696  -3.620 -19.692  1.00  0.00     0.032 SA
HETATM   13  S2  UNL     1      -9.207  -3.392 -21.020  1.00  0.00     0.003 SA
ENDBRANCH   1   9
BRANCH   7  14
HETATM   14  N5  UNL     1      -7.086  -0.138 -23.369  1.00  0.00    -0.024 N 
HETATM   15  O1  UNL     1      -6.295   0.310 -24.227  1.00  0.00    -0.516 OA
HETATM   16  O2  UNL     1      -6.897   0.071 -22.012  1.00  0.00    -0.516 OA
ENDBRANCH   7  14
TORSDOF 2
ENDMDL
MODEL 3
REMARK VINA RESULT: -5.485727215      1.065      1.653
REMARK  2 active torsions:
REMARK  status: ('A' for Active; 'I' for Inactive)
REMARK    1  A    between atoms: C2_5  and  N2_6 
REMARK       I    between atoms: N2_6  and  C3_8 
REMARK       I    between atoms: C3_8  and  N4_12 
REMARK    2  A    between atoms: N4_12  and  N5_14 
ROOT
HETATM    1  N2  UNL     1     -11.809  -1.009 -23.162  1.00  0.00    -0.168 N 
ATOM      2  H2  UNL     1     -12.120  -1.218 -24.111  1.00  0.00     0.186 HD
HETATM    3  C3  UNL     1     -10.440  -0.859 -22.956  1.00  0.00     0.697 C 
HETATM    4  N3  UNL     1      -9.905   0.294 -22.810  1.00  0.00    -0.233 N 
ATOM      5  H31 UNL     1      -8.902   0.404 -22.659  1.00  0.00     0.174 HD
ATOM      6  H32 UNL     1     -10.513   1.113 -22.847  1.00  0.00     0.174 HD
HETATM    7  N4  UNL     1      -9.596  -1.996 -22.903  1.00  0.00    -0.072 N 
ATOM      8  H4  UNL     1      -9.784  -2.787 -23.519  1.00  0.00     0.212 HD
ENDROOT
BRANCH   1   9
HETATM    9  C2  UNL     1     -12.731  -0.905 -22.234  1.00  0.00     0.180 A 
HETATM   10  N1  UNL     1     -13.614   0.021 -21.819  1.00  0.00    -0.295 N 
HETATM   11  C1  UNL     1     -13.825   1.369 -22.368  1.00  0.00     0.167 C 
HETATM   12  S1  UNL     1     -14.406  -0.723 -20.541  1.00  0.00     0.032 SA
HETATM   13  S2  UNL     1     -13.104  -2.137 -21.124  1.00  0.00     0.003 SA
ENDBRANCH   1   9
BRANCH   7  14
HETATM   14  N5  UNL     1      -8.515  -2.057 -22.027  1.00  0.00    -0.024 N 
HETATM   15  O1  UNL     1      -8.654  -2.559 -20.891  1.00  0.00    -0.516 OA
HETATM   16  O2  UNL     1      -7.303  -1.545 -22.463  1.00  0.00    -0.516 OA
ENDBRANCH   7  14
TORSDOF 2
ENDMDL
MODEL 4
REMARK VINA RESULT: -5.374005233      2.336      2.670
REMARK  2 active torsions:
REMARK  status: ('A' for Active; 'I' for Inactive)
REMARK    1  A    between atoms: C2_5  and  N2_6 
REMARK       I    between atoms: N2_6  and  C3_8 
REMARK       I    between atoms: C3_8  and  N4_12 
REMARK    2  A    between atoms: N4_12  and  N5_14 
ROOT
HETATM    1  N2  UNL     1     -10.683  -1.628 -22.977  1.00  0.00    -0.168 N 
ATOM      2  H2  UNL     1     -11.143  -1.953 -23.827  1.00  0.00     0.186 HD
HETATM    3  C3  UNL     1      -9.762  -0.591 -23.103  1.00  0.00     0.697 C 
HETATM    4  N3  UNL     1     -10.051   0.609 -22.764  1.00  0.00    -0.233 N 
ATOM      5  H31 UNL     1      -9.377   1.369 -22.856  1.00  0.00     0.174 HD
ATOM      6  H32 UNL     1     -10.983   0.791 -22.392  1.00  0.00     0.174 HD
HETATM    7  N4  UNL     1      -8.467  -0.844 -23.619  1.00  0.00    -0.072 N 
ATOM      8  H4  UNL     1      -8.353  -1.522 -24.372  1.00  0.00     0.212 HD
ENDROOT
BRANCH   1   9
HETATM    9  C2  UNL     1     -11.006  -2.221 -21.852  1.00  0.00     0.180 A 
HETATM   10  N1  UNL     1     -10.424  -3.059 -20.975  1.00  0.00    -0.295 N 
HETATM   11  C1  UNL     1      -9.068  -3.624 -21.038  1.00  0.00     0.167 C 
HETATM   12  S1  UNL     1     -11.603  -3.299 -19.806  1.00  0.00     0.032 SA
HETATM   13  S2  UNL     1     -12.514  -2.049 -21.087  1.00  0.00     0.003 SA
ENDBRANCH   1   9
BRANCH   7  14
HETATM   14  N5  UNL     1      -7.346  -0.185 -23.119  1.00  0.00    -0.024 N 
HETATM   15  O1  UNL     1      -7.243   0.037 -21.894  1.00  0.00    -0.516 OA
HETATM   16  O2  UNL     1      -6.372   0.205 -24.023  1.00  0.00    -0.516 OA
ENDBRANCH   7  14
TORSDOF 2
ENDMDL
MODEL 5
REMARK VINA RESULT: -5.240475865      1.805      2.039
REMARK  2 active torsions:
REMARK  status: ('A' for Active; 'I' for Inactive)
REMARK    1  A    between atoms: C2_5  and  N2_6 
REMARK       I    between atoms: N2_6  and  C3_8 
REMARK       I    between atoms: C3_8  and  N4_12 
REMARK    2  A    between atoms: N4_12  and  N5_14 
ROOT
HETATM    1  N2  UNL     1     -11.018  -1.888 -22.059  1.00  0.00    -0.168 N 
ATOM      2  H2  UNL     1     -11.252  -2.658 -21.433  1.00  0.00     0.186 HD
HETATM    3  C3  UNL     1      -9.798  -1.955 -22.727  1.00  0.00     0.697 C 
HETATM    4  N3  UNL     1      -9.725  -2.275 -23.964  1.00  0.00    -0.233 N 
ATOM      5  H31 UNL     1      -8.832  -2.324 -24.454  1.00  0.00     0.174 HD
ATOM      6  H32 UNL     1     -10.594  -2.481 -24.458  1.00  0.00     0.174 HD
HETATM    7  N4  UNL     1      -8.591  -1.668 -22.042  1.00  0.00    -0.072 N 
ATOM      8  H4  UNL     1      -8.487  -1.958 -21.070  1.00  0.00     0.212 HD
ENDROOT
BRANCH   1   9
HETATM    9  C2  UNL     1     -11.889  -0.914 -22.170  1.00  0.00     0.180 A 
HETATM   10  N1  UNL     1     -13.085  -0.594 -21.644  1.00  0.00    -0.295 N 
HETATM   11  C1  UNL     1     -13.863  -1.355 -20.655  1.00  0.00     0.167 C 
HETATM   12  S1  UNL     1     -13.471   0.864 -22.380  1.00  0.00     0.032 SA
HETATM   13  S2  UNL     1     -11.687   0.429 -23.192  1.00  0.00     0.003 SA
ENDBRANCH   1   9
BRANCH   7  14
HETATM   14  N5  UNL     1      -7.543  -0.997 -22.669  1.00  0.00    -0.024 N 
HETATM   15  O1  UNL     1      -7.026  -1.468 -23.704  1.00  0.00    -0.516 OA
HETATM   16  O2  UNL     1      -7.108   0.190 -22.102  1.00  0.00    -0.516 OA
ENDBRANCH   7  14
TORSDOF 2
ENDMDL
