MODEL 1
REMARK VINA RESULT: -6.020119419      0.000      0.000
REMARK  3 active torsions:
REMARK  status: ('A' for Active; 'I' for Inactive)
REMARK    1  A    between atoms: N1_1  and  C1_4 
REMARK    2  A    between atoms: C2_6  and  C3_7 
REMARK    3  A    between atoms: N3_12  and  O2_13 
ROOT
HETATM    1  C1  UNL     1     -13.526   0.446 -22.140  1.00  0.00     0.130 A 
HETATM    2  S1  UNL     1     -12.504  -0.911 -21.935  1.00  0.00    -0.047 SA
HETATM    3  C2  UNL     1     -11.193  -0.711 -22.987  1.00  0.00     0.098 A 
HETATM    4  N3  UNL     1     -11.241   0.413 -23.715  1.00  0.00    -0.187 N 
HETATM    5  S2  UNL     1     -12.631   1.270 -23.324  1.00  0.00     0.042 SA
ENDROOT
BRANCH   3   6
HETATM    6  C3  UNL     1     -10.102  -1.706 -23.074  1.00  0.00     0.089 C 
HETATM    7  C4  UNL     1     -10.074  -2.441 -21.730  1.00  0.00     0.156 C 
HETATM    8  N2  UNL     1      -8.662  -2.541 -21.489  1.00  0.00    -0.100 NA
HETATM    9  O1  UNL     1      -8.221  -1.301 -21.811  1.00  0.00    -0.286 OA
HETATM   10  C5  UNL     1      -8.731  -1.070 -23.077  1.00  0.00     0.208 C 
ENDBRANCH   3   6
BRANCH   4  11
HETATM   11  O2  UNL     1     -10.319   0.850 -24.656  1.00  0.00    -0.276 OA
ATOM     12  H2  UNL     1      -9.372   0.793 -24.606  1.00  0.00     0.246 HD
ENDBRANCH   4  11
BRANCH   1  13
HETATM   13  N1  UNL     1     -14.634   0.720 -21.552  1.00  0.00    -0.387 N 
ATOM     14  H12 UNL     1     -15.024   0.426 -20.657  1.00  0.00     0.157 HD
ATOM     15  H11 UNL     1     -15.397   1.319 -21.867  1.00  0.00     0.157 HD
ENDBRANCH   1  13
TORSDOF 3
ENDMDL
MODEL 2
REMARK VINA RESULT: -5.907833290      1.747      1.934
REMARK  3 active torsions:
REMARK  status: ('A' for Active; 'I' for Inactive)
REMARK    1  A    between atoms: N1_1  and  C1_4 
REMARK    2  A    between atoms: C2_6  and  C3_7 
REMARK    3  A    between atoms: N3_12  and  O2_13 
ROOT
HETATM    1  C1  UNL     1     -12.368  -1.571 -21.521  1.00  0.00     0.130 A 
HETATM    2  S1  UNL     1     -10.729  -1.927 -21.857  1.00  0.00    -0.047 SA
HETATM    3  C2  UNL     1     -10.228  -0.865 -23.077  1.00  0.00     0.098 A 
HETATM    4  N3  UNL     1     -11.181  -0.019 -23.492  1.00  0.00    -0.187 N 
HETATM    5  S2  UNL     1     -12.594  -0.308 -22.634  1.00  0.00     0.042 SA
ENDROOT
BRANCH   3   6
HETATM    6  C3  UNL     1      -8.852  -0.891 -23.620  1.00  0.00     0.089 C 
HETATM    7  C4  UNL     1      -8.102  -1.986 -22.853  1.00  0.00     0.156 C 
HETATM    8  N2  UNL     1      -6.828  -1.360 -22.636  1.00  0.00    -0.100 NA
HETATM    9  O1  UNL     1      -7.178  -0.110 -22.245  1.00  0.00    -0.286 OA
HETATM   10  C5  UNL     1      -8.049   0.328 -23.229  1.00  0.00     0.208 C 
ENDBRANCH   3   6
BRANCH   4  11
HETATM   11  O2  UNL     1     -11.073   0.959 -24.471  1.00  0.00    -0.276 OA
ATOM     12  H2  UNL     1     -11.171   0.850 -25.410  1.00  0.00     0.246 HD
ENDBRANCH   4  11
BRANCH   1  13
HETATM   13  N1  UNL     1     -13.158  -2.121 -20.671  1.00  0.00    -0.387 N 
ATOM     14  H12 UNL     1     -13.347  -1.926 -19.688  1.00  0.00     0.157 HD
ATOM     15  H11 UNL     1     -13.795  -2.906 -20.801  1.00  0.00     0.157 HD
ENDBRANCH   1  13
TORSDOF 3
ENDMDL
MODEL 3
REMARK VINA RESULT: -5.775785972      2.091      2.322
REMARK  3 active torsions:
REMARK  status: ('A' for Active; 'I' for Inactive)
REMARK    1  A    between atoms: N1_1  and  C1_4 
REMARK    2  A    between atoms: C2_6  and  C3_7 
REMARK    3  A    between atoms: N3_12  and  O2_13 
ROOT
HETATM    1  C1  UNL     1     -12.440   1.223 -22.977  1.00  0.00     0.130 A 
HETATM    2  S1  UNL     1     -11.047   0.241 -23.134  1.00  0.00    -0.047 SA
HETATM    3  C2  UNL     1     -11.388  -1.232 -22.371  1.00  0.00     0.098 A 
HETATM    4  N3  UNL     1     -12.615  -1.301 -21.836  1.00  0.00    -0.187 N 
HETATM    5  S2  UNL     1     -13.425   0.143 -22.114  1.00  0.00     0.042 SA
ENDROOT
BRANCH   3   6
HETATM    6  C3  UNL     1     -10.398  -2.330 -22.314  1.00  0.00     0.089 C 
HETATM    7  C4  UNL     1     -10.202  -2.662 -20.831  1.00  0.00     0.156 C 
HETATM    8  N2  UNL     1      -8.780  -2.852 -20.766  1.00  0.00    -0.100 NA
HETATM    9  O1  UNL     1      -8.312  -1.807 -21.492  1.00  0.00    -0.286 OA
HETATM   10  C5  UNL     1      -9.005  -1.878 -22.688  1.00  0.00     0.208 C 
ENDBRANCH   3   6
BRANCH   4  11
HETATM   11  O2  UNL     1     -13.179  -2.369 -21.152  1.00  0.00    -0.276 OA
ATOM     12  H2  UNL     1     -13.224  -3.275 -21.432  1.00  0.00     0.246 HD
ENDBRANCH   4  11
BRANCH   1  13
HETATM   13  N1  UNL     1     -12.638   2.418 -23.401  1.00  0.00    -0.387 N 
ATOM     14  H12 UNL     1     -12.280   2.925 -24.211  1.00  0.00     0.157 HD
ATOM     15  H11 UNL     1     -13.223   3.152 -23.003  1.00  0.00     0.157 HD
ENDBRANCH   1  13
TORSDOF 3
ENDMDL
MODEL 4
REMARK VINA RESULT: -5.721300854      1.638      1.709
REMARK  3 active torsions:
REMARK  status: ('A' for Active; 'I' for Inactive)
REMARK    1  A    between atoms: N1_1  and  C1_4 
REMARK    2  A    between atoms: C2_6  and  C3_7 
REMARK    3  A    between atoms: N3_12  and  O2_13 
ROOT
HETATM    1  C1  UNL     1     -14.063  -0.326 -21.190  1.00  0.00     0.130 A 
HETATM    2  S1  UNL     1     -12.660  -1.058 -21.842  1.00  0.00    -0.047 SA
HETATM    3  C2  UNL     1     -11.993   0.039 -22.945  1.00  0.00     0.098 A 
HETATM    4  N3  UNL     1     -12.678   1.185 -23.060  1.00  0.00    -0.187 N 
HETATM    5  S2  UNL     1     -14.009   1.143 -22.038  1.00  0.00     0.042 SA
ENDROOT
BRANCH   3   6
HETATM    6  C3  UNL     1     -10.760  -0.267 -23.703  1.00  0.00     0.089 C 
HETATM    7  C4  UNL     1     -10.503  -1.767 -23.528  1.00  0.00     0.156 C 
HETATM    8  N2  UNL     1      -9.079  -1.792 -23.339  1.00  0.00    -0.100 NA
HETATM    9  O1  UNL     1      -8.881  -0.770 -22.471  1.00  0.00    -0.286 OA
HETATM   10  C5  UNL     1      -9.521   0.309 -23.056  1.00  0.00     0.208 C 
ENDBRANCH   3   6
BRANCH   4  11
HETATM   11  O2  UNL     1     -12.382   2.267 -23.878  1.00  0.00    -0.276 OA
ATOM     12  H2  UNL     1     -12.844   2.544 -24.660  1.00  0.00     0.246 HD
ENDBRANCH   4  11
BRANCH   1  13
HETATM   13  N1  UNL     1     -14.886  -0.788 -20.319  1.00  0.00    -0.387 N 
ATOM     14  H12 UNL     1     -15.220  -1.732 -20.127  1.00  0.00     0.157 HD
ATOM     15  H11 UNL     1     -15.406  -0.288 -19.599  1.00  0.00     0.157 HD
ENDBRANCH   1  13
TORSDOF 3
ENDMDL
MODEL 5
REMARK VINA RESULT: -5.639157967      1.645      1.790
REMARK  3 active torsions:
REMARK  status: ('A' for Active; 'I' for Inactive)
REMARK    1  A    between atoms: N1_1  and  C1_4 
REMARK    2  A    between atoms: C2_6  and  C3_7 
REMARK    3  A    between atoms: N3_12  and  O2_13 
ROOT
HETATM    1  C1  UNL     1     -12.980  -1.013 -21.437  1.00  0.00     0.130 A 
HETATM    2  S1  UNL     1     -11.452  -1.749 -21.665  1.00  0.00    -0.047 SA
HETATM    3  C2  UNL     1     -10.671  -0.901 -22.905  1.00  0.00     0.098 A 
HETATM    4  N3  UNL     1     -11.388   0.112 -23.412  1.00  0.00    -0.187 N 
HETATM    5  S2  UNL     1     -12.865   0.200 -22.619  1.00  0.00     0.042 SA
ENDROOT
BRANCH   3   6
HETATM    6  C3  UNL     1      -9.316  -1.268 -23.370  1.00  0.00     0.089 C 
HETATM    7  C4  UNL     1      -9.505  -2.222 -24.553  1.00  0.00     0.156 C 
HETATM    8  N2  UNL     1      -8.487  -3.202 -24.295  1.00  0.00    -0.100 NA
HETATM    9  O1  UNL     1      -8.628  -3.427 -22.966  1.00  0.00    -0.286 OA
HETATM   10  C5  UNL     1      -8.590  -2.166 -22.396  1.00  0.00     0.208 C 
ENDBRANCH   3   6
BRANCH   4  11
HETATM   11  O2  UNL     1     -11.019   0.982 -24.429  1.00  0.00    -0.276 OA
ATOM     12  H2  UNL     1     -11.231   1.905 -24.505  1.00  0.00     0.246 HD
ENDBRANCH   4  11
BRANCH   1  13
HETATM   13  N1  UNL     1     -13.909  -1.320 -20.606  1.00  0.00    -0.387 N 
ATOM     14  H12 UNL     1     -14.921  -1.399 -20.710  1.00  0.00     0.157 HD
ATOM     15  H11 UNL     1     -13.834  -1.562 -19.618  1.00  0.00     0.157 HD
ENDBRANCH   1  13
TORSDOF 3
ENDMDL
