MODEL 1
REMARK VINA RESULT: -6.199484526      0.000      0.000
REMARK  3 active torsions:
REMARK  status: ('A' for Active; 'I' for Inactive)
REMARK    1  A    between atoms: O1_1  and  C1_3 
REMARK    2  A    between atoms: C1_3  and  C2_4 
REMARK    3  A    between atoms: C3_7  and  N1_8 
ROOT
HETATM    1  C2  UNL     1      -8.217  -1.591 -23.155  1.00  0.00     0.325 C 
HETATM    2  O2  UNL     1      -7.979  -2.217 -21.929  1.00  0.00    -0.201 OA
HETATM    3  O3  UNL     1      -9.050  -1.996 -21.194  1.00  0.00    -0.182 OA
HETATM    4  C3  UNL     1     -10.055  -2.150 -22.178  1.00  0.00     0.416 C 
HETATM    5  O4  UNL     1      -9.599  -1.296 -23.158  1.00  0.00    -0.306 OA
ENDROOT
BRANCH   4   6
HETATM    6  N1  UNL     1     -11.351  -1.857 -21.674  1.00  0.00    -0.265 N 
HETATM    7  C4  UNL     1     -12.117  -0.847 -22.096  1.00  0.00     0.207 A 
HETATM    8  N2  UNL     1     -13.267  -0.892 -21.388  1.00  0.00    -0.294 N 
HETATM    9  N3  UNL     1     -13.195  -1.910 -20.554  1.00  0.00    -0.275 N 
ATOM     10  H2  UNL     1     -14.054  -0.250 -21.483  1.00  0.00     0.187 HD
HETATM   11  C5  UNL     1     -12.008  -2.515 -20.725  1.00  0.00     0.197 A 
ATOM     12  H3  UNL     1     -13.917  -2.191 -19.890  1.00  0.00     0.189 HD
HETATM   13  S1  UNL     1     -11.548  -3.827 -19.865  1.00  0.00    -0.039 SA
ENDBRANCH   4   6
BRANCH   1  14
HETATM   14  C1  UNL     1      -7.395  -0.311 -23.236  1.00  0.00     0.228 C 
BRANCH  14  15
HETATM   15  O1  UNL     1      -7.116   0.080 -21.937  1.00  0.00    -0.396 OA
ATOM     16  H1  UNL     1      -6.389   0.692 -21.978  1.00  0.00     0.209 HD
ENDBRANCH  14  15
ENDBRANCH   1  14
TORSDOF 3
ENDMDL
MODEL 2
REMARK VINA RESULT: -5.951740357      1.940      2.320
REMARK  3 active torsions:
REMARK  status: ('A' for Active; 'I' for Inactive)
REMARK    1  A    between atoms: O1_1  and  C1_3 
REMARK    2  A    between atoms: C1_3  and  C2_4 
REMARK    3  A    between atoms: C3_7  and  N1_8 
ROOT
HETATM    1  C2  UNL     1      -8.872   0.115 -23.791  1.00  0.00     0.325 C 
HETATM    2  O2  UNL     1      -9.372  -0.859 -24.658  1.00  0.00    -0.201 OA
HETATM    3  O3  UNL     1     -10.121  -1.652 -23.919  1.00  0.00    -0.182 OA
HETATM    4  C3  UNL     1     -10.740  -0.692 -23.083  1.00  0.00     0.416 C 
HETATM    5  O4  UNL     1      -9.644  -0.005 -22.613  1.00  0.00    -0.306 OA
ENDROOT
BRANCH   4   6
HETATM    6  N1  UNL     1     -11.552  -1.293 -22.083  1.00  0.00    -0.265 N 
HETATM    7  C4  UNL     1     -11.206  -2.368 -21.371  1.00  0.00     0.207 A 
HETATM    8  N2  UNL     1     -12.227  -2.638 -20.528  1.00  0.00    -0.294 N 
HETATM    9  N3  UNL     1     -13.172  -1.742 -20.730  1.00  0.00    -0.275 N 
ATOM     10  H2  UNL     1     -12.260  -3.402 -19.854  1.00  0.00     0.187 HD
HETATM   11  C5  UNL     1     -12.762  -0.902 -21.695  1.00  0.00     0.197 A 
ATOM     12  H3  UNL     1     -14.065  -1.694 -20.238  1.00  0.00     0.189 HD
HETATM   13  S1  UNL     1     -13.667   0.351 -22.225  1.00  0.00    -0.039 SA
ENDBRANCH   4   6
BRANCH   1  14
HETATM   14  C1  UNL     1      -7.404  -0.172 -23.502  1.00  0.00     0.228 C 
BRANCH  14  15
HETATM   15  O1  UNL     1      -7.205   0.038 -22.147  1.00  0.00    -0.396 OA
ATOM     16  H1  UNL     1      -6.459   0.621 -22.059  1.00  0.00     0.209 HD
ENDBRANCH  14  15
ENDBRANCH   1  14
TORSDOF 3
ENDMDL
MODEL 3
REMARK VINA RESULT: -5.867176757      2.076      2.320
REMARK  3 active torsions:
REMARK  status: ('A' for Active; 'I' for Inactive)
REMARK    1  A    between atoms: O1_1  and  C1_3 
REMARK    2  A    between atoms: C1_3  and  C2_4 
REMARK    3  A    between atoms: C3_7  and  N1_8 
ROOT
HETATM    1  C2  UNL     1      -9.540  -0.535 -24.105  1.00  0.00     0.325 C 
HETATM    2  O2  UNL     1      -9.554  -1.358 -22.977  1.00  0.00    -0.201 OA
HETATM    3  O3  UNL     1     -10.500  -0.886 -22.193  1.00  0.00    -0.182 OA
HETATM    4  C3  UNL     1     -11.478  -0.560 -23.163  1.00  0.00     0.416 C 
HETATM    5  O4  UNL     1     -10.740   0.209 -24.035  1.00  0.00    -0.306 OA
ENDROOT
BRANCH   4   6
HETATM    6  N1  UNL     1     -12.608   0.087 -22.593  1.00  0.00    -0.265 N 
HETATM    7  C4  UNL     1     -13.028   1.311 -22.924  1.00  0.00     0.207 A 
HETATM    8  N2  UNL     1     -14.120   1.578 -22.175  1.00  0.00    -0.294 N 
HETATM    9  N3  UNL     1     -14.354   0.533 -21.406  1.00  0.00    -0.275 N 
ATOM     10  H2  UNL     1     -14.668   2.437 -22.201  1.00  0.00     0.187 HD
HETATM   11  C5  UNL     1     -13.420  -0.398 -21.658  1.00  0.00     0.197 A 
ATOM     12  H3  UNL     1     -15.116   0.446 -20.732  1.00  0.00     0.189 HD
HETATM   13  S1  UNL     1     -13.377  -1.843 -20.896  1.00  0.00    -0.039 SA
ENDBRANCH   4   6
BRANCH   1  14
HETATM   14  C1  UNL     1      -8.332   0.391 -24.042  1.00  0.00     0.228 C 
BRANCH  14  15
HETATM   15  O1  UNL     1      -8.155   0.742 -22.714  1.00  0.00    -0.396 OA
ATOM     16  H1  UNL     1      -7.219   0.746 -22.546  1.00  0.00     0.209 HD
ENDBRANCH  14  15
ENDBRANCH   1  14
TORSDOF 3
ENDMDL
MODEL 4
REMARK VINA RESULT: -5.756717709      2.925      3.655
REMARK  3 active torsions:
REMARK  status: ('A' for Active; 'I' for Inactive)
REMARK    1  A    between atoms: O1_1  and  C1_3 
REMARK    2  A    between atoms: C1_3  and  C2_4 
REMARK    3  A    between atoms: C3_7  and  N1_8 
ROOT
HETATM    1  C2  UNL     1     -10.791  -3.403 -20.589  1.00  0.00     0.325 C 
HETATM    2  O2  UNL     1     -11.854  -3.885 -19.822  1.00  0.00    -0.201 OA
HETATM    3  O3  UNL     1     -12.712  -2.891 -19.724  1.00  0.00    -0.182 OA
HETATM    4  C3  UNL     1     -12.627  -2.368 -21.037  1.00  0.00     0.416 C 
HETATM    5  O4  UNL     1     -11.267  -2.205 -21.169  1.00  0.00    -0.306 OA
ENDROOT
BRANCH   4   6
HETATM    6  N1  UNL     1     -13.398  -1.184 -21.195  1.00  0.00    -0.265 N 
HETATM    7  C4  UNL     1     -14.524  -0.918 -20.528  1.00  0.00     0.207 A 
HETATM    8  N2  UNL     1     -14.962   0.291 -20.945  1.00  0.00    -0.294 N 
HETATM    9  N3  UNL     1     -14.115   0.744 -21.848  1.00  0.00    -0.275 N 
ATOM     10  H2  UNL     1     -15.802   0.768 -20.618  1.00  0.00     0.187 HD
HETATM   11  C5  UNL     1     -13.140  -0.165 -22.010  1.00  0.00     0.197 A 
ATOM     12  H3  UNL     1     -14.188   1.634 -22.341  1.00  0.00     0.189 HD
HETATM   13  S1  UNL     1     -11.898   0.041 -23.052  1.00  0.00    -0.039 SA
ENDBRANCH   4   6
BRANCH   1  14
HETATM   14  C1  UNL     1      -9.599  -3.123 -19.684  1.00  0.00     0.228 C 
BRANCH  14  15
HETATM   15  O1  UNL     1      -8.458  -3.463 -20.391  1.00  0.00    -0.396 OA
ATOM     16  H1  UNL     1      -8.736  -3.969 -21.146  1.00  0.00     0.209 HD
ENDBRANCH  14  15
ENDBRANCH   1  14
TORSDOF 3
ENDMDL
MODEL 5
REMARK VINA RESULT: -5.678569905      1.503      1.809
REMARK  3 active torsions:
REMARK  status: ('A' for Active; 'I' for Inactive)
REMARK    1  A    between atoms: O1_1  and  C1_3 
REMARK    2  A    between atoms: C1_3  and  C2_4 
REMARK    3  A    between atoms: C3_7  and  N1_8 
ROOT
HETATM    1  C2  UNL     1      -8.897   0.079 -23.784  1.00  0.00     0.325 C 
HETATM    2  O2  UNL     1      -9.377  -0.896 -24.661  1.00  0.00    -0.201 OA
HETATM    3  O3  UNL     1     -10.010  -1.777 -23.914  1.00  0.00    -0.182 OA
HETATM    4  C3  UNL     1     -10.645  -0.905 -22.998  1.00  0.00     0.416 C 
HETATM    5  O4  UNL     1      -9.577  -0.151 -22.567  1.00  0.00    -0.306 OA
ENDROOT
BRANCH   4   6
HETATM    6  N1  UNL     1     -11.340  -1.610 -21.977  1.00  0.00    -0.265 N 
HETATM    7  C4  UNL     1     -12.622  -1.413 -21.660  1.00  0.00     0.207 A 
HETATM    8  N2  UNL     1     -12.921  -2.262 -20.652  1.00  0.00    -0.294 N 
HETATM    9  N3  UNL     1     -11.838  -2.957 -20.366  1.00  0.00    -0.275 N 
ATOM     10  H2  UNL     1     -13.828  -2.349 -20.192  1.00  0.00     0.187 HD
HETATM   11  C5  UNL     1     -10.850  -2.558 -21.185  1.00  0.00     0.197 A 
ATOM     12  H3  UNL     1     -11.762  -3.675 -19.646  1.00  0.00     0.189 HD
HETATM   13  S1  UNL     1      -9.345  -3.193 -21.135  1.00  0.00    -0.039 SA
ENDBRANCH   4   6
BRANCH   1  14
HETATM   14  C1  UNL     1      -7.395  -0.100 -23.601  1.00  0.00     0.228 C 
BRANCH  14  15
HETATM   15  O1  UNL     1      -7.137  -0.035 -22.242  1.00  0.00    -0.396 OA
ATOM     16  H1  UNL     1      -7.976   0.023 -21.799  1.00  0.00     0.209 HD
ENDBRANCH  14  15
ENDBRANCH   1  14
TORSDOF 3
ENDMDL
