MODEL 1
REMARK VINA RESULT: -5.540895189      0.000      0.000
REMARK  3 active torsions:
REMARK  status: ('A' for Active; 'I' for Inactive)
REMARK    1  A    between atoms: O1_1  and  C1_3 
REMARK    2  A    between atoms: C3_6  and  N1_7 
REMARK    3  A    between atoms: N1_7  and  N2_9 
ROOT
HETATM    1  N1  UNL     1     -12.667  -1.800 -21.620  1.00  0.00    -0.304 N 
ATOM      2  H1  UNL     1     -12.924  -2.782 -21.716  1.00  0.00     0.183 HD
ENDROOT
BRANCH   1   3
HETATM    3  C3  UNL     1     -11.291  -1.382 -21.725  1.00  0.00     0.225 C 
HETATM    4  S1  UNL     1     -10.763  -1.190 -23.431  1.00  0.00    -0.129 SA
HETATM    5  C2  UNL     1      -9.462  -2.430 -23.630  1.00  0.00     0.119 C 
HETATM    6  C1  UNL     1      -8.831  -2.632 -22.291  1.00  0.00     0.191 C 
HETATM    7  S2  UNL     1     -10.264  -2.796 -21.169  1.00  0.00    -0.100 SA
BRANCH   6   8
HETATM    8  O1  UNL     1      -8.134  -1.496 -21.895  1.00  0.00    -0.384 OA
ATOM      9  H1  UNL     1      -8.273  -1.317 -20.973  1.00  0.00     0.211 HD
ENDBRANCH   6   8
ENDBRANCH   1   3
BRANCH   1  10
HETATM   10  N2  UNL     1     -13.640  -0.827 -21.382  1.00  0.00    -0.247 N 
HETATM   11  C4  UNL     1     -13.771   0.362 -21.971  1.00  0.00     0.223 A 
HETATM   12  N3  UNL     1     -14.837   0.995 -21.458  1.00  0.00    -0.293 N 
HETATM   13  N4  UNL     1     -15.384   0.218 -20.550  1.00  0.00    -0.293 N 
ATOM     14  H3  UNL     1     -15.167   1.922 -21.728  1.00  0.00     0.187 HD
HETATM   15  C5  UNL     1     -14.665  -0.909 -20.486  1.00  0.00     0.223 A 
ATOM     16  H4  UNL     1     -16.211   0.436 -19.992  1.00  0.00     0.187 HD
ENDBRANCH   1  10
TORSDOF 3
ENDMDL
MODEL 2
REMARK VINA RESULT: -5.527840909      0.024      1.029
REMARK  3 active torsions:
REMARK  status: ('A' for Active; 'I' for Inactive)
REMARK    1  A    between atoms: O1_1  and  C1_3 
REMARK    2  A    between atoms: C3_6  and  N1_7 
REMARK    3  A    between atoms: N1_7  and  N2_9 
ROOT
HETATM    1  N1  UNL     1     -12.687  -1.814 -21.614  1.00  0.00    -0.304 N 
ATOM      2  H1  UNL     1     -12.937  -2.796 -21.724  1.00  0.00     0.183 HD
ENDROOT
BRANCH   1   3
HETATM    3  C3  UNL     1     -11.314  -1.384 -21.720  1.00  0.00     0.225 C 
HETATM    4  S1  UNL     1     -10.789  -1.186 -23.427  1.00  0.00    -0.129 SA
HETATM    5  C2  UNL     1      -9.479  -2.415 -23.629  1.00  0.00     0.119 C 
HETATM    6  C1  UNL     1      -8.845  -2.613 -22.291  1.00  0.00     0.191 C 
HETATM    7  S2  UNL     1     -10.275  -2.790 -21.167  1.00  0.00    -0.100 SA
BRANCH   6   8
HETATM    8  O1  UNL     1      -8.156  -1.472 -21.894  1.00  0.00    -0.384 OA
ATOM      9  H1  UNL     1      -8.429  -1.196 -21.027  1.00  0.00     0.211 HD
ENDBRANCH   6   8
ENDBRANCH   1   3
BRANCH   1  10
HETATM   10  N2  UNL     1     -13.665  -0.852 -21.355  1.00  0.00    -0.247 N 
HETATM   11  C4  UNL     1     -14.665  -0.916 -20.476  1.00  0.00     0.223 A 
HETATM   12  N3  UNL     1     -15.382   0.216 -20.536  1.00  0.00    -0.293 N 
HETATM   13  N4  UNL     1     -14.845   1.000 -21.446  1.00  0.00    -0.293 N 
ATOM     14  H3  UNL     1     -16.203   0.433 -19.973  1.00  0.00     0.187 HD
HETATM   15  C5  UNL     1     -13.787   0.363 -21.963  1.00  0.00     0.223 A 
ATOM     16  H4  UNL     1     -15.176   1.928 -21.711  1.00  0.00     0.187 HD
ENDBRANCH   1  10
TORSDOF 3
ENDMDL
MODEL 3
REMARK VINA RESULT: -5.323153397      1.045      1.045
REMARK  3 active torsions:
REMARK  status: ('A' for Active; 'I' for Inactive)
REMARK    1  A    between atoms: O1_1  and  C1_3 
REMARK    2  A    between atoms: C3_6  and  N1_7 
REMARK    3  A    between atoms: N1_7  and  N2_9 
ROOT
HETATM    1  N1  UNL     1     -12.317  -1.293 -22.608  1.00  0.00    -0.304 N 
ATOM      2  H1  UNL     1     -12.489  -2.024 -23.298  1.00  0.00     0.183 HD
ENDROOT
BRANCH   1   3
HETATM    3  C3  UNL     1     -10.987  -0.782 -22.388  1.00  0.00     0.225 C 
HETATM    4  S1  UNL     1     -10.297  -0.012 -23.857  1.00  0.00    -0.129 SA
HETATM    5  C2  UNL     1      -8.865  -1.039 -24.260  1.00  0.00     0.119 C 
HETATM    6  C1  UNL     1      -8.367  -1.629 -22.982  1.00  0.00     0.191 C 
HETATM    7  S2  UNL     1      -9.889  -2.236 -22.174  1.00  0.00    -0.100 SA
BRANCH   6   8
HETATM    8  O1  UNL     1      -7.834  -0.645 -22.155  1.00  0.00    -0.384 OA
ATOM      9  H1  UNL     1      -8.521  -0.098 -21.794  1.00  0.00     0.211 HD
ENDBRANCH   6   8
ENDBRANCH   1   3
BRANCH   1  10
HETATM   10  N2  UNL     1     -13.365  -0.762 -21.854  1.00  0.00    -0.247 N 
HETATM   11  C4  UNL     1     -14.013   0.387 -22.045  1.00  0.00     0.223 A 
HETATM   12  N3  UNL     1     -14.955   0.528 -21.100  1.00  0.00    -0.293 N 
HETATM   13  N4  UNL     1     -14.910  -0.522 -20.310  1.00  0.00    -0.293 N 
ATOM     14  H3  UNL     1     -15.596   1.315 -21.009  1.00  0.00     0.187 HD
HETATM   15  C5  UNL     1     -13.940  -1.330 -20.755  1.00  0.00     0.223 A 
ATOM     16  H4  UNL     1     -15.509  -0.692 -19.501  1.00  0.00     0.187 HD
ENDBRANCH   1  10
TORSDOF 3
ENDMDL
MODEL 4
REMARK VINA RESULT: -5.316613990      1.049      1.420
REMARK  3 active torsions:
REMARK  status: ('A' for Active; 'I' for Inactive)
REMARK    1  A    between atoms: O1_1  and  C1_3 
REMARK    2  A    between atoms: C3_6  and  N1_7 
REMARK    3  A    between atoms: N1_7  and  N2_9 
ROOT
HETATM    1  N1  UNL     1     -12.300  -1.310 -22.615  1.00  0.00    -0.304 N 
ATOM      2  H1  UNL     1     -12.473  -2.024 -23.321  1.00  0.00     0.183 HD
ENDROOT
BRANCH   1   3
HETATM    3  C3  UNL     1     -10.971  -0.800 -22.388  1.00  0.00     0.225 C 
HETATM    4  S1  UNL     1     -10.278  -0.020 -23.850  1.00  0.00    -0.129 SA
HETATM    5  C2  UNL     1      -8.845  -1.043 -24.258  1.00  0.00     0.119 C 
HETATM    6  C1  UNL     1      -8.349  -1.643 -22.982  1.00  0.00     0.191 C 
HETATM    7  S2  UNL     1      -9.873  -2.255 -22.183  1.00  0.00    -0.100 SA
BRANCH   6   8
HETATM    8  O1  UNL     1      -7.818  -0.665 -22.147  1.00  0.00    -0.384 OA
ATOM      9  H1  UNL     1      -7.498  -1.047 -21.339  1.00  0.00     0.211 HD
ENDBRANCH   6   8
ENDBRANCH   1   3
BRANCH   1  10
HETATM   10  N2  UNL     1     -13.347  -0.801 -21.843  1.00  0.00    -0.247 N 
HETATM   11  C4  UNL     1     -13.898  -1.339 -20.755  1.00  0.00     0.223 A 
HETATM   12  N3  UNL     1     -14.876  -0.534 -20.310  1.00  0.00    -0.293 N 
HETATM   13  N4  UNL     1     -14.949   0.510 -21.106  1.00  0.00    -0.293 N 
ATOM     14  H3  UNL     1     -15.463  -0.704 -19.493  1.00  0.00     0.187 HD
HETATM   15  C5  UNL     1     -14.017   0.367 -22.056  1.00  0.00     0.223 A 
ATOM     16  H4  UNL     1     -15.601   1.290 -21.016  1.00  0.00     0.187 HD
ENDBRANCH   1  10
TORSDOF 3
ENDMDL
MODEL 5
REMARK VINA RESULT: -5.297440474      1.280      1.376
REMARK  3 active torsions:
REMARK  status: ('A' for Active; 'I' for Inactive)
REMARK    1  A    between atoms: O1_1  and  C1_3 
REMARK    2  A    between atoms: C3_6  and  N1_7 
REMARK    3  A    between atoms: N1_7  and  N2_9 
ROOT
HETATM    1  N1  UNL     1     -12.243  -0.520 -23.068  1.00  0.00    -0.304 N 
ATOM      2  H1  UNL     1     -12.528  -1.210 -23.763  1.00  0.00     0.183 HD
ENDROOT
BRANCH   1   3
HETATM    3  C3  UNL     1     -10.859  -0.385 -22.685  1.00  0.00     0.225 C 
HETATM    4  S1  UNL     1      -9.787  -0.074 -24.093  1.00  0.00    -0.129 SA
HETATM    5  C2  UNL     1      -8.699  -1.516 -24.143  1.00  0.00     0.119 C 
HETATM    6  C1  UNL     1      -8.571  -2.027 -22.745  1.00  0.00     0.191 C 
HETATM    7  S2  UNL     1     -10.295  -2.044 -22.142  1.00  0.00    -0.100 SA
BRANCH   6   8
HETATM    8  O1  UNL     1      -7.872  -1.125 -21.950  1.00  0.00    -0.384 OA
ATOM      9  H1  UNL     1      -7.748  -1.472 -21.074  1.00  0.00     0.211 HD
ENDBRANCH   6   8
ENDBRANCH   1   3
BRANCH   1  10
HETATM   10  N2  UNL     1     -13.183   0.316 -22.463  1.00  0.00    -0.247 N 
HETATM   11  C4  UNL     1     -13.322   1.634 -22.610  1.00  0.00     0.223 A 
HETATM   12  N3  UNL     1     -14.347   2.059 -21.856  1.00  0.00    -0.293 N 
HETATM   13  N4  UNL     1     -14.861   1.021 -21.231  1.00  0.00    -0.293 N 
ATOM     14  H3  UNL     1     -14.673   3.022 -21.779  1.00  0.00     0.187 HD
HETATM   15  C5  UNL     1     -14.161  -0.061 -21.591  1.00  0.00     0.223 A 
ATOM     16  H4  UNL     1     -15.652   1.039 -20.588  1.00  0.00     0.187 HD
ENDBRANCH   1  10
TORSDOF 3
ENDMDL
