MODEL 1
REMARK VINA RESULT: -7.278165758      0.000      0.000
REMARK  2 active torsions:
REMARK  status: ('A' for Active; 'I' for Inactive)
REMARK    1  A    between atoms: N1_2  and  N2_4 
REMARK    2  A    between atoms: C1_6  and  C2_7 
ROOT
HETATM    1  C2  UNL     1     -11.185  -0.995 -22.445  1.00  0.00    -0.016 A 
HETATM    2  C3  UNL     1     -11.274  -2.084 -21.603  1.00  0.00     0.016 A 
HETATM    3  C4  UNL     1     -12.385  -2.289 -20.793  1.00  0.00     0.040 A 
HETATM    4  C5  UNL     1     -13.442  -1.401 -20.803  1.00  0.00     0.105 A 
HETATM    5  C6  UNL     1     -13.367  -0.307 -21.639  1.00  0.00     0.105 A 
HETATM    6  C7  UNL     1     -12.255  -0.121 -22.438  1.00  0.00     0.052 A 
HETATM    7  O3  UNL     1     -14.550   0.396 -21.443  1.00  0.00    -0.323 OA
HETATM    8  C8  UNL     1     -15.525  -0.491 -20.870  1.00  0.00     0.352 C 
HETATM    9  O4  UNL     1     -14.669  -1.343 -20.112  1.00  0.00    -0.323 OA
ENDROOT
BRANCH   1  10
HETATM   10  C1  UNL     1     -10.031  -0.760 -23.303  1.00  0.00     0.124 C 
HETATM   11  N2  UNL     1      -9.095   0.034 -22.949  1.00  0.00    -0.252 N 
ATOM     12  H2  UNL     1      -9.203   0.487 -22.041  1.00  0.00     0.192 HD
BRANCH  11  13
HETATM   13  N1  UNL     1      -7.969   0.339 -23.652  1.00  0.00    -0.039 N 
HETATM   14  O1  UNL     1      -6.748   0.048 -23.169  1.00  0.00    -0.516 OA
HETATM   15  O2  UNL     1      -8.055   0.944 -24.850  1.00  0.00    -0.516 OA
ENDBRANCH  11  13
ENDBRANCH   1  10
TORSDOF 2
ENDMDL
MODEL 2
REMARK VINA RESULT: -7.135420590      1.725      1.725
REMARK  2 active torsions:
REMARK  status: ('A' for Active; 'I' for Inactive)
REMARK    1  A    between atoms: N1_2  and  N2_4 
REMARK    2  A    between atoms: C1_6  and  C2_7 
ROOT
HETATM    1  C2  UNL     1     -11.189  -1.318 -22.530  1.00  0.00    -0.016 A 
HETATM    2  C3  UNL     1     -11.280  -2.306 -21.572  1.00  0.00     0.016 A 
HETATM    3  C4  UNL     1     -12.351  -2.366 -20.688  1.00  0.00     0.040 A 
HETATM    4  C5  UNL     1     -13.365  -1.431 -20.739  1.00  0.00     0.105 A 
HETATM    5  C6  UNL     1     -13.287  -0.436 -21.691  1.00  0.00     0.105 A 
HETATM    6  C7  UNL     1     -12.214  -0.394 -22.562  1.00  0.00     0.052 A 
HETATM    7  O3  UNL     1     -14.422   0.345 -21.511  1.00  0.00    -0.323 OA
HETATM    8  C8  UNL     1     -15.403  -0.425 -20.796  1.00  0.00     0.352 C 
HETATM    9  O4  UNL     1     -14.546  -1.236 -19.996  1.00  0.00    -0.323 OA
ENDROOT
BRANCH   1  10
HETATM   10  C1  UNL     1     -10.076  -1.236 -23.467  1.00  0.00     0.124 C 
HETATM   11  N2  UNL     1      -9.831  -2.187 -24.285  1.00  0.00    -0.252 N 
ATOM     12  H2  UNL     1     -10.452  -2.995 -24.244  1.00  0.00     0.192 HD
BRANCH  11  13
HETATM   13  N1  UNL     1      -8.828  -2.237 -25.207  1.00  0.00    -0.039 N 
HETATM   14  O1  UNL     1      -8.046  -3.324 -25.322  1.00  0.00    -0.516 OA
HETATM   15  O2  UNL     1      -8.599  -1.194 -26.024  1.00  0.00    -0.516 OA
ENDBRANCH  11  13
ENDBRANCH   1  10
TORSDOF 2
ENDMDL
MODEL 3
REMARK VINA RESULT: -7.084783278      3.923      6.409
REMARK  2 active torsions:
REMARK  status: ('A' for Active; 'I' for Inactive)
REMARK    1  A    between atoms: N1_2  and  N2_4 
REMARK    2  A    between atoms: C1_6  and  C2_7 
ROOT
HETATM    1  C2  UNL     1     -14.653  -0.072 -20.977  1.00  0.00    -0.016 A 
HETATM    2  C3  UNL     1     -14.113  -1.257 -20.524  1.00  0.00     0.016 A 
HETATM    3  C4  UNL     1     -12.922  -1.757 -21.037  1.00  0.00     0.040 A 
HETATM    4  C5  UNL     1     -12.236  -1.078 -22.025  1.00  0.00     0.105 A 
HETATM    5  C6  UNL     1     -12.764   0.109 -22.487  1.00  0.00     0.105 A 
HETATM    6  C7  UNL     1     -13.950   0.590 -21.964  1.00  0.00     0.052 A 
HETATM    7  O3  UNL     1     -11.878   0.560 -23.457  1.00  0.00    -0.323 OA
HETATM    8  C8  UNL     1     -10.605  -0.076 -23.253  1.00  0.00     0.352 C 
HETATM    9  O4  UNL     1     -11.038  -1.328 -22.723  1.00  0.00    -0.323 OA
ENDROOT
BRANCH   1  10
HETATM   10  C1  UNL     1     -15.900   0.471 -20.453  1.00  0.00     0.124 C 
HETATM   11  N2  UNL     1     -15.937   1.620 -19.895  1.00  0.00    -0.252 N 
ATOM     12  H2  UNL     1     -15.054   2.127 -19.839  1.00  0.00     0.192 HD
BRANCH  11  13
HETATM   13  N1  UNL     1     -17.029   2.240 -19.366  1.00  0.00    -0.039 N 
HETATM   14  O1  UNL     1     -18.208   2.239 -20.013  1.00  0.00    -0.516 OA
HETATM   15  O2  UNL     1     -16.951   2.870 -18.182  1.00  0.00    -0.516 OA
ENDBRANCH  11  13
ENDBRANCH   1  10
TORSDOF 2
ENDMDL
MODEL 4
REMARK VINA RESULT: -7.079116871      2.066      3.030
REMARK  2 active torsions:
REMARK  status: ('A' for Active; 'I' for Inactive)
REMARK    1  A    between atoms: N1_2  and  N2_4 
REMARK    2  A    between atoms: C1_6  and  C2_7 
ROOT
HETATM    1  C2  UNL     1     -11.349  -0.971 -22.434  1.00  0.00    -0.016 A 
HETATM    2  C3  UNL     1     -12.616  -0.889 -21.895  1.00  0.00     0.016 A 
HETATM    3  C4  UNL     1     -13.050  -1.776 -20.917  1.00  0.00     0.040 A 
HETATM    4  C5  UNL     1     -12.220  -2.776 -20.450  1.00  0.00     0.105 A 
HETATM    5  C6  UNL     1     -10.950  -2.870 -20.979  1.00  0.00     0.105 A 
HETATM    6  C7  UNL     1     -10.537  -1.978 -21.951  1.00  0.00     0.052 A 
HETATM    7  O3  UNL     1     -10.353  -3.946 -20.333  1.00  0.00    -0.323 OA
HETATM    8  C8  UNL     1     -11.059  -4.197 -19.106  1.00  0.00     0.352 C 
HETATM    9  O4  UNL     1     -12.373  -3.797 -19.491  1.00  0.00    -0.323 OA
ENDROOT
BRANCH   1  10
HETATM   10  C1  UNL     1     -10.874  -0.052 -23.460  1.00  0.00     0.124 C 
HETATM   11  N2  UNL     1      -9.709  -0.177 -23.970  1.00  0.00    -0.252 N 
ATOM     12  H2  UNL     1      -9.141  -0.949 -23.622  1.00  0.00     0.192 HD
BRANCH  11  13
HETATM   13  N1  UNL     1      -9.146   0.609 -24.930  1.00  0.00    -0.039 N 
HETATM   14  O1  UNL     1      -7.831   0.889 -24.914  1.00  0.00    -0.516 OA
HETATM   15  O2  UNL     1      -9.897   1.125 -25.919  1.00  0.00    -0.516 OA
ENDBRANCH  11  13
ENDBRANCH   1  10
TORSDOF 2
ENDMDL
MODEL 5
REMARK VINA RESULT: -7.076498569      3.111      4.421
REMARK  2 active torsions:
REMARK  status: ('A' for Active; 'I' for Inactive)
REMARK    1  A    between atoms: N1_2  and  N2_4 
REMARK    2  A    between atoms: C1_6  and  C2_7 
ROOT
HETATM    1  C2  UNL     1     -12.016  -1.523 -21.774  1.00  0.00    -0.016 A 
HETATM    2  C3  UNL     1     -10.701  -1.865 -22.006  1.00  0.00     0.016 A 
HETATM    3  C4  UNL     1     -10.068  -2.865 -21.277  1.00  0.00     0.040 A 
HETATM    4  C5  UNL     1     -10.742  -3.554 -20.289  1.00  0.00     0.105 A 
HETATM    5  C6  UNL     1     -12.058  -3.224 -20.045  1.00  0.00     0.105 A 
HETATM    6  C7  UNL     1     -12.670  -2.226 -20.781  1.00  0.00     0.052 A 
HETATM    7  O3  UNL     1     -12.472  -4.064 -19.019  1.00  0.00    -0.323 OA
HETATM    8  C8  UNL     1     -11.591  -5.199 -18.968  1.00  0.00     0.352 C 
HETATM    9  O4  UNL     1     -10.378  -4.590 -19.406  1.00  0.00    -0.323 OA
ENDROOT
BRANCH   1  10
HETATM   10  C1  UNL     1     -12.699  -0.478 -22.526  1.00  0.00     0.124 C 
HETATM   11  N2  UNL     1     -12.493   0.758 -22.275  1.00  0.00    -0.252 N 
ATOM     12  H2  UNL     1     -11.831   0.966 -21.527  1.00  0.00     0.192 HD
BRANCH  11  13
HETATM   13  N1  UNL     1     -13.062   1.827 -22.899  1.00  0.00    -0.039 N 
HETATM   14  O1  UNL     1     -14.097   2.483 -22.346  1.00  0.00    -0.516 OA
HETATM   15  O2  UNL     1     -12.599   2.250 -24.088  1.00  0.00    -0.516 OA
ENDBRANCH  11  13
ENDBRANCH   1  10
TORSDOF 2
ENDMDL
