MODEL 1
REMARK VINA RESULT: -5.519090943      0.000      0.000
REMARK  5 active torsions:
REMARK  status: ('A' for Active; 'I' for Inactive)
REMARK    1  A    between atoms: C2_2  and  C3_3 
REMARK    2  A    between atoms: C3_3  and  C4_4 
REMARK    3  A    between atoms: C4_4  and  C5_5 
REMARK    4  A    between atoms: C7_7  and  C8_8 
REMARK    5  A    between atoms: C8_8  and  C10_10 
ROOT
HETATM    1  C5  UNL     1      23.255  37.945  17.783  1.00  0.00     0.142 C 
HETATM    2  C6  UNL     1      23.583  38.823  16.606  1.00  0.00     0.071 C 
HETATM    3  C7  UNL     1      24.089  40.143  17.209  1.00  0.00    -0.026 C 
HETATM    4  C12 UNL     1      23.283  40.656  18.101  1.00  0.00     0.182 C 
HETATM    5  F1  UNL     1      23.610  41.799  18.702  1.00  0.00    -0.196 F 
HETATM    6  S1  UNL     1      21.738  39.811  18.499  1.00  0.00     0.060 SA
HETATM    7  O1  UNL     1      21.902  38.164  18.065  1.00  0.00    -0.308 OA
ENDROOT
BRANCH   1   8
HETATM    8  C4  UNL     1      23.580  36.508  17.597  1.00  0.00     0.033 C 
BRANCH   8   9
HETATM    9  C3  UNL     1      23.591  35.774  18.907  1.00  0.00     0.002 C 
BRANCH   9  10
HETATM   10  C2  UNL     1      22.913  34.421  18.783  1.00  0.00    -0.004 C 
HETATM   11  C1  UNL     1      23.949  33.355  18.525  1.00  0.00     0.005 C 
ENDBRANCH   9  10
ENDBRANCH   8   9
ENDBRANCH   1   8
BRANCH   3  12
HETATM   12  C8  UNL     1      25.333  40.588  16.669  1.00  0.00     0.014 C 
HETATM   13  C9  UNL     1      25.013  41.910  15.922  1.00  0.00     0.015 C 
BRANCH  12  14
HETATM   14  C10 UNL     1      26.554  40.843  17.411  1.00  0.00     0.004 C 
HETATM   15  C11 UNL     1      26.925  42.256  17.722  1.00  0.00     0.006 C 
ENDBRANCH  12  14
ENDBRANCH   3  12
TORSDOF 5
ENDMDL
MODEL 2
REMARK VINA RESULT: -5.325709388      5.761      8.267
REMARK  5 active torsions:
REMARK  status: ('A' for Active; 'I' for Inactive)
REMARK    1  A    between atoms: C2_2  and  C3_3 
REMARK    2  A    between atoms: C3_3  and  C4_4 
REMARK    3  A    between atoms: C4_4  and  C5_5 
REMARK    4  A    between atoms: C7_7  and  C8_8 
REMARK    5  A    between atoms: C8_8  and  C10_10 
ROOT
HETATM    1  C5  UNL     1      22.611  30.239  19.539  1.00  0.00     0.142 C 
HETATM    2  C6  UNL     1      22.839  31.527  20.283  1.00  0.00     0.071 C 
HETATM    3  C7  UNL     1      23.141  32.576  19.200  1.00  0.00    -0.026 C 
HETATM    4  C12 UNL     1      24.084  32.216  18.369  1.00  0.00     0.182 C 
HETATM    5  F1  UNL     1      24.437  33.036  17.381  1.00  0.00    -0.196 F 
HETATM    6  S1  UNL     1      24.898  30.618  18.580  1.00  0.00     0.060 SA
HETATM    7  O1  UNL     1      23.855  29.602  19.477  1.00  0.00    -0.308 OA
ENDROOT
BRANCH   1   8
HETATM    8  C4  UNL     1      21.547  29.374  20.109  1.00  0.00     0.033 C 
BRANCH   8   9
HETATM    9  C3  UNL     1      22.062  27.994  20.406  1.00  0.00     0.002 C 
BRANCH   9  10
HETATM   10  C2  UNL     1      22.147  27.751  21.902  1.00  0.00    -0.004 C 
HETATM   11  C1  UNL     1      22.094  26.269  22.179  1.00  0.00     0.005 C 
ENDBRANCH   9  10
ENDBRANCH   8   9
ENDBRANCH   1   8
BRANCH   3  12
HETATM   12  C8  UNL     1      22.358  33.764  19.309  1.00  0.00     0.014 C 
HETATM   13  C9  UNL     1      22.224  34.035  20.831  1.00  0.00     0.015 C 
BRANCH  12  14
HETATM   14  C10 UNL     1      22.653  35.051  18.707  1.00  0.00     0.004 C 
HETATM   15  C11 UNL     1      23.879  35.785  19.141  1.00  0.00     0.006 C 
ENDBRANCH  12  14
ENDBRANCH   3  12
TORSDOF 5
ENDMDL
MODEL 3
REMARK VINA RESULT: -5.256772231      2.555      3.824
REMARK  5 active torsions:
REMARK  status: ('A' for Active; 'I' for Inactive)
REMARK    1  A    between atoms: C2_2  and  C3_3 
REMARK    2  A    between atoms: C3_3  and  C4_4 
REMARK    3  A    between atoms: C4_4  and  C5_5 
REMARK    4  A    between atoms: C7_7  and  C8_8 
REMARK    5  A    between atoms: C8_8  and  C10_10 
ROOT
HETATM    1  C5  UNL     1      23.302  38.586  17.113  1.00  0.00     0.142 C 
HETATM    2  C6  UNL     1      22.697  39.159  18.366  1.00  0.00     0.071 C 
HETATM    3  C7  UNL     1      21.708  40.234  17.887  1.00  0.00    -0.026 C 
HETATM    4  C12 UNL     1      22.232  41.096  17.055  1.00  0.00     0.182 C 
HETATM    5  F1  UNL     1      21.477  42.077  16.564  1.00  0.00    -0.196 F 
HETATM    6  S1  UNL     1      23.971  40.948  16.594  1.00  0.00     0.060 SA
HETATM    7  O1  UNL     1      24.461  39.331  16.866  1.00  0.00    -0.308 OA
ENDROOT
BRANCH   1   8
HETATM    8  C4  UNL     1      23.556  37.123  17.158  1.00  0.00     0.033 C 
BRANCH   8   9
HETATM    9  C3  UNL     1      23.201  36.546  18.498  1.00  0.00     0.002 C 
BRANCH   9  10
HETATM   10  C2  UNL     1      23.996  35.284  18.780  1.00  0.00    -0.004 C 
HETATM   11  C1  UNL     1      24.110  34.463  17.519  1.00  0.00     0.005 C 
ENDBRANCH   9  10
ENDBRANCH   8   9
ENDBRANCH   1   8
BRANCH   3  12
HETATM   12  C8  UNL     1      20.404  40.117  18.455  1.00  0.00     0.014 C 
HETATM   13  C9  UNL     1      19.989  38.637  18.237  1.00  0.00     0.015 C 
BRANCH  12  14
HETATM   14  C10 UNL     1      20.023  40.434  19.818  1.00  0.00     0.004 C 
HETATM   15  C11 UNL     1      20.027  41.863  20.252  1.00  0.00     0.006 C 
ENDBRANCH  12  14
ENDBRANCH   3  12
TORSDOF 5
ENDMDL
MODEL 4
REMARK VINA RESULT: -5.047025815      1.469      2.170
REMARK  5 active torsions:
REMARK  status: ('A' for Active; 'I' for Inactive)
REMARK    1  A    between atoms: C2_2  and  C3_3 
REMARK    2  A    between atoms: C3_3  and  C4_4 
REMARK    3  A    between atoms: C4_4  and  C5_5 
REMARK    4  A    between atoms: C7_7  and  C8_8 
REMARK    5  A    between atoms: C8_8  and  C10_10 
ROOT
HETATM    1  C5  UNL     1      23.202  39.849  17.139  1.00  0.00     0.142 C 
HETATM    2  C6  UNL     1      24.283  40.795  16.692  1.00  0.00     0.071 C 
HETATM    3  C7  UNL     1      24.802  41.460  17.977  1.00  0.00    -0.026 C 
HETATM    4  C12 UNL     1      23.857  41.975  18.720  1.00  0.00     0.182 C 
HETATM    5  F1  UNL     1      24.176  42.577  19.865  1.00  0.00    -0.196 F 
HETATM    6  S1  UNL     1      22.138  41.869  18.179  1.00  0.00     0.060 SA
HETATM    7  O1  UNL     1      22.004  40.570  17.075  1.00  0.00    -0.308 OA
ENDROOT
BRANCH   1   8
HETATM    8  C4  UNL     1      23.146  38.569  16.388  1.00  0.00     0.033 C 
BRANCH   8   9
HETATM    9  C3  UNL     1      23.880  37.476  17.111  1.00  0.00     0.002 C 
BRANCH   9  10
HETATM   10  C2  UNL     1      23.085  36.979  18.305  1.00  0.00    -0.004 C 
HETATM   11  C1  UNL     1      23.820  35.839  18.966  1.00  0.00     0.005 C 
ENDBRANCH   9  10
ENDBRANCH   8   9
ENDBRANCH   1   8
BRANCH   3  12
HETATM   12  C8  UNL     1      26.221  41.419  18.119  1.00  0.00     0.014 C 
HETATM   13  C9  UNL     1      26.766  41.010  16.724  1.00  0.00     0.015 C 
BRANCH  12  14
HETATM   14  C10 UNL     1      27.075  42.501  18.571  1.00  0.00     0.004 C 
HETATM   15  C11 UNL     1      27.529  42.513  19.994  1.00  0.00     0.006 C 
ENDBRANCH  12  14
ENDBRANCH   3  12
TORSDOF 5
ENDMDL
MODEL 5
REMARK VINA RESULT: -5.012647448      0.911      1.416
REMARK  5 active torsions:
REMARK  status: ('A' for Active; 'I' for Inactive)
REMARK    1  A    between atoms: C2_2  and  C3_3 
REMARK    2  A    between atoms: C3_3  and  C4_4 
REMARK    3  A    between atoms: C4_4  and  C5_5 
REMARK    4  A    between atoms: C7_7  and  C8_8 
REMARK    5  A    between atoms: C8_8  and  C10_10 
ROOT
HETATM    1  C5  UNL     1      23.087  38.339  17.786  1.00  0.00     0.142 C 
HETATM    2  C6  UNL     1      23.355  39.397  16.750  1.00  0.00     0.071 C 
HETATM    3  C7  UNL     1      23.651  40.680  17.542  1.00  0.00    -0.026 C 
HETATM    4  C12 UNL     1      22.739  40.968  18.435  1.00  0.00     0.182 C 
HETATM    5  F1  UNL     1      22.881  42.055  19.191  1.00  0.00    -0.196 F 
HETATM    6  S1  UNL     1      21.301  39.892  18.621  1.00  0.00     0.060 SA
HETATM    7  O1  UNL     1      21.704  38.349  18.001  1.00  0.00    -0.308 OA
ENDROOT
BRANCH   1   8
HETATM    8  C4  UNL     1      23.609  36.991  17.448  1.00  0.00     0.033 C 
BRANCH   8   9
HETATM    9  C3  UNL     1      23.600  36.083  18.644  1.00  0.00     0.002 C 
BRANCH   9  10
HETATM   10  C2  UNL     1      23.629  34.624  18.226  1.00  0.00    -0.004 C 
HETATM   11  C1  UNL     1      22.585  33.854  18.997  1.00  0.00     0.005 C 
ENDBRANCH   9  10
ENDBRANCH   8   9
ENDBRANCH   1   8
BRANCH   3  12
HETATM   12  C8  UNL     1      24.851  41.343  17.147  1.00  0.00     0.014 C 
HETATM   13  C9  UNL     1      25.940  40.238  17.105  1.00  0.00     0.015 C 
BRANCH  12  14
HETATM   14  C10 UNL     1      25.047  42.131  15.945  1.00  0.00     0.004 C 
HETATM   15  C11 UNL     1      24.377  43.463  15.840  1.00  0.00     0.006 C 
ENDBRANCH  12  14
ENDBRANCH   3  12
TORSDOF 5
ENDMDL
