MODEL 1
REMARK VINA RESULT: -6.190862055      0.000      0.000
REMARK  7 active torsions:
REMARK  status: ('A' for Active; 'I' for Inactive)
REMARK    1  A    between atoms: C2_2  and  C3_3 
REMARK    2  A    between atoms: C3_3  and  C4_4 
REMARK    3  A    between atoms: C4_4  and  C6_6 
REMARK    4  A    between atoms: C6_6  and  C7_7 
REMARK    5  A    between atoms: C7_7  and  O1_9 
REMARK    6  A    between atoms: O1_9  and  C8_10 
REMARK    7  A    between atoms: C8_10  and  C10_13 
ROOT
HETATM    1  C7  UNL     1      23.520  32.045  19.042  1.00  0.00     0.117 C 
HETATM    2  S1  UNL     1      25.039  31.527  18.910  1.00  0.00    -0.058 SA
ENDROOT
BRANCH   1   3
HETATM    3  C6  UNL     1      22.471  31.123  19.509  1.00  0.00     0.081 C 
BRANCH   3   4
HETATM    4  C4  UNL     1      23.015  29.852  20.113  1.00  0.00    -0.012 C 
HETATM    5  C5  UNL     1      23.341  28.898  18.983  1.00  0.00     0.010 C 
BRANCH   4   6
HETATM    6  C3  UNL     1      21.942  29.222  20.956  1.00  0.00     0.004 C 
BRANCH   6   7
HETATM    7  C2  UNL     1      21.895  27.729  20.787  1.00  0.00    -0.004 C 
HETATM    8  C1  UNL     1      22.338  27.101  22.101  1.00  0.00     0.005 C 
ENDBRANCH   6   7
ENDBRANCH   4   6
ENDBRANCH   3   4
ENDBRANCH   1   3
BRANCH   1   9
HETATM    9  O1  UNL     1      23.199  33.321  18.730  1.00  0.00    -0.299 OA
BRANCH   9  10
HETATM   10  C8  UNL     1      24.006  34.297  18.157  1.00  0.00     0.242 C 
HETATM   11  C9  UNL     1      23.961  34.257  16.638  1.00  0.00     0.088 C 
HETATM   12  F1  UNL     1      25.324  34.235  18.562  1.00  0.00    -0.208 F 
BRANCH  10  13
HETATM   13  C10 UNL     1      23.425  35.646  18.599  1.00  0.00     0.157 C 
HETATM   14  C11 UNL     1      23.675  36.727  17.608  1.00  0.00     0.057 C 
HETATM   15  C12 UNL     1      21.959  35.429  18.885  1.00  0.00     0.057 C 
HETATM   16  F2  UNL     1      24.038  35.992  19.794  1.00  0.00    -0.238 F 
ENDBRANCH  10  13
ENDBRANCH   9  10
ENDBRANCH   1   9
TORSDOF 7
ENDMDL
MODEL 2
REMARK VINA RESULT: -5.961158369      4.121      6.160
REMARK  7 active torsions:
REMARK  status: ('A' for Active; 'I' for Inactive)
REMARK    1  A    between atoms: C2_2  and  C3_3 
REMARK    2  A    between atoms: C3_3  and  C4_4 
REMARK    3  A    between atoms: C4_4  and  C6_6 
REMARK    4  A    between atoms: C6_6  and  C7_7 
REMARK    5  A    between atoms: C7_7  and  O1_9 
REMARK    6  A    between atoms: O1_9  and  C8_10 
REMARK    7  A    between atoms: C8_10  and  C10_13 
ROOT
HETATM    1  C7  UNL     1      23.302  38.084  17.599  1.00  0.00     0.117 C 
HETATM    2  S1  UNL     1      24.259  39.176  16.902  1.00  0.00    -0.058 SA
ENDROOT
BRANCH   1   3
HETATM    3  C6  UNL     1      23.524  36.651  17.347  1.00  0.00     0.081 C 
BRANCH   3   4
HETATM    4  C4  UNL     1      23.178  35.774  18.526  1.00  0.00    -0.012 C 
HETATM    5  C5  UNL     1      24.337  35.823  19.500  1.00  0.00     0.010 C 
BRANCH   4   6
HETATM    6  C3  UNL     1      23.035  34.357  18.047  1.00  0.00     0.004 C 
BRANCH   6   7
HETATM    7  C2  UNL     1      24.299  33.567  18.236  1.00  0.00    -0.004 C 
HETATM    8  C1  UNL     1      23.919  32.224  18.843  1.00  0.00     0.005 C 
ENDBRANCH   6   7
ENDBRANCH   4   6
ENDBRANCH   3   4
ENDBRANCH   1   3
BRANCH   1   9
HETATM    9  O1  UNL     1      22.296  38.473  18.415  1.00  0.00    -0.299 OA
BRANCH   9  10
HETATM   10  C8  UNL     1      21.228  39.314  18.126  1.00  0.00     0.242 C 
HETATM   11  C9  UNL     1      19.889  38.668  18.443  1.00  0.00     0.088 C 
HETATM   12  F1  UNL     1      21.207  39.754  16.819  1.00  0.00    -0.208 F 
BRANCH  10  13
HETATM   13  C10 UNL     1      21.380  40.531  19.047  1.00  0.00     0.157 C 
HETATM   14  C11 UNL     1      21.768  41.762  18.306  1.00  0.00     0.057 C 
HETATM   15  C12 UNL     1      20.086  40.679  19.810  1.00  0.00     0.057 C 
HETATM   16  F2  UNL     1      22.377  40.237  19.966  1.00  0.00    -0.238 F 
ENDBRANCH  10  13
ENDBRANCH   9  10
ENDBRANCH   1   9
TORSDOF 7
ENDMDL
MODEL 3
REMARK VINA RESULT: -5.825937680      1.359      1.650
REMARK  7 active torsions:
REMARK  status: ('A' for Active; 'I' for Inactive)
REMARK    1  A    between atoms: C2_2  and  C3_3 
REMARK    2  A    between atoms: C3_3  and  C4_4 
REMARK    3  A    between atoms: C4_4  and  C6_6 
REMARK    4  A    between atoms: C6_6  and  C7_7 
REMARK    5  A    between atoms: C7_7  and  O1_9 
REMARK    6  A    between atoms: O1_9  and  C8_10 
REMARK    7  A    between atoms: C8_10  and  C10_13 
ROOT
HETATM    1  C7  UNL     1      22.474  32.546  19.535  1.00  0.00     0.117 C 
HETATM    2  S1  UNL     1      22.449  33.012  21.076  1.00  0.00    -0.058 SA
ENDROOT
BRANCH   1   3
HETATM    3  C6  UNL     1      22.365  31.116  19.201  1.00  0.00     0.081 C 
BRANCH   3   4
HETATM    4  C4  UNL     1      23.591  30.318  19.574  1.00  0.00    -0.012 C 
HETATM    5  C5  UNL     1      24.635  30.535  18.499  1.00  0.00     0.010 C 
BRANCH   4   6
HETATM    6  C3  UNL     1      23.230  28.859  19.584  1.00  0.00     0.004 C 
BRANCH   6   7
HETATM    7  C2  UNL     1      21.949  28.599  20.326  1.00  0.00    -0.004 C 
HETATM    8  C1  UNL     1      22.229  27.527  21.370  1.00  0.00     0.005 C 
ENDBRANCH   6   7
ENDBRANCH   4   6
ENDBRANCH   3   4
ENDBRANCH   1   3
BRANCH   1   9
HETATM    9  O1  UNL     1      22.591  33.458  18.543  1.00  0.00    -0.299 OA
BRANCH   9  10
HETATM   10  C8  UNL     1      23.719  34.173  18.158  1.00  0.00     0.242 C 
HETATM   11  C9  UNL     1      23.933  34.137  16.654  1.00  0.00     0.088 C 
HETATM   12  F1  UNL     1      24.878  33.756  18.780  1.00  0.00    -0.208 F 
BRANCH  10  13
HETATM   13  C10 UNL     1      23.455  35.632  18.550  1.00  0.00     0.157 C 
HETATM   14  C11 UNL     1      24.259  36.062  19.726  1.00  0.00     0.057 C 
HETATM   15  C12 UNL     1      23.700  36.476  17.322  1.00  0.00     0.057 C 
HETATM   16  F2  UNL     1      22.110  35.741  18.871  1.00  0.00    -0.238 F 
ENDBRANCH  10  13
ENDBRANCH   9  10
ENDBRANCH   1   9
TORSDOF 7
ENDMDL
MODEL 4
REMARK VINA RESULT: -5.791590149      3.675      8.384
REMARK  7 active torsions:
REMARK  status: ('A' for Active; 'I' for Inactive)
REMARK    1  A    between atoms: C2_2  and  C3_3 
REMARK    2  A    between atoms: C3_3  and  C4_4 
REMARK    3  A    between atoms: C4_4  and  C6_6 
REMARK    4  A    between atoms: C6_6  and  C7_7 
REMARK    5  A    between atoms: C7_7  and  O1_9 
REMARK    6  A    between atoms: O1_9  and  C8_10 
REMARK    7  A    between atoms: C8_10  and  C10_13 
ROOT
HETATM    1  C7  UNL     1      23.330  37.633  17.475  1.00  0.00     0.117 C 
HETATM    2  S1  UNL     1      22.187  38.391  18.318  1.00  0.00    -0.058 SA
ENDROOT
BRANCH   1   3
HETATM    3  C6  UNL     1      24.328  38.415  16.728  1.00  0.00     0.081 C 
BRANCH   3   4
HETATM    4  C4  UNL     1      24.457  39.839  17.209  1.00  0.00    -0.012 C 
HETATM    5  C5  UNL     1      23.895  40.747  16.135  1.00  0.00     0.010 C 
BRANCH   4   6
HETATM    6  C3  UNL     1      25.916  40.162  17.373  1.00  0.00     0.004 C 
BRANCH   6   7
HETATM    7  C2  UNL     1      26.309  41.397  16.611  1.00  0.00    -0.004 C 
HETATM    8  C1  UNL     1      26.959  42.360  17.595  1.00  0.00     0.005 C 
ENDBRANCH   6   7
ENDBRANCH   4   6
ENDBRANCH   3   4
ENDBRANCH   1   3
BRANCH   1   9
HETATM    9  O1  UNL     1      23.382  36.281  17.450  1.00  0.00    -0.299 OA
BRANCH   9  10
HETATM   10  C8  UNL     1      23.676  35.410  18.491  1.00  0.00     0.242 C 
HETATM   11  C9  UNL     1      22.422  34.907  19.188  1.00  0.00     0.088 C 
HETATM   12  F1  UNL     1      24.523  35.946  19.439  1.00  0.00    -0.208 F 
BRANCH  10  13
HETATM   13  C10 UNL     1      24.365  34.197  17.853  1.00  0.00     0.157 C 
HETATM   14  C11 UNL     1      23.989  32.916  18.511  1.00  0.00     0.057 C 
HETATM   15  C12 UNL     1      24.043  34.225  16.378  1.00  0.00     0.057 C 
HETATM   16  F2  UNL     1      25.734  34.377  17.987  1.00  0.00    -0.238 F 
ENDBRANCH  10  13
ENDBRANCH   9  10
ENDBRANCH   1   9
TORSDOF 7
ENDMDL
MODEL 5
REMARK VINA RESULT: -5.791478584      7.444      9.376
REMARK  7 active torsions:
REMARK  status: ('A' for Active; 'I' for Inactive)
REMARK    1  A    between atoms: C2_2  and  C3_3 
REMARK    2  A    between atoms: C3_3  and  C4_4 
REMARK    3  A    between atoms: C4_4  and  C6_6 
REMARK    4  A    between atoms: C6_6  and  C7_7 
REMARK    5  A    between atoms: C7_7  and  O1_9 
REMARK    6  A    between atoms: O1_9  and  C8_10 
REMARK    7  A    between atoms: C8_10  and  C10_13 
ROOT
HETATM    1  C7  UNL     1      23.065  38.551  17.734  1.00  0.00     0.117 C 
HETATM    2  S1  UNL     1      23.201  36.954  17.886  1.00  0.00    -0.058 SA
ENDROOT
BRANCH   1   3
HETATM    3  C6  UNL     1      23.809  39.250  16.674  1.00  0.00     0.081 C 
BRANCH   3   4
HETATM    4  C4  UNL     1      24.534  40.481  17.162  1.00  0.00    -0.012 C 
HETATM    5  C5  UNL     1      24.189  41.626  16.233  1.00  0.00     0.010 C 
BRANCH   4   6
HETATM    6  C3  UNL     1      26.015  40.237  17.067  1.00  0.00     0.004 C 
BRANCH   6   7
HETATM    7  C2  UNL     1      26.806  41.507  17.207  1.00  0.00    -0.004 C 
HETATM    8  C1  UNL     1      27.025  41.753  18.693  1.00  0.00     0.005 C 
ENDBRANCH   6   7
ENDBRANCH   4   6
ENDBRANCH   3   4
ENDBRANCH   1   3
BRANCH   1   9
HETATM    9  O1  UNL     1      22.270  39.256  18.572  1.00  0.00    -0.299 OA
BRANCH   9  10
HETATM   10  C8  UNL     1      21.064  39.884  18.290  1.00  0.00     0.242 C 
HETATM   11  C9  UNL     1      19.873  38.972  18.537  1.00  0.00     0.088 C 
HETATM   12  F1  UNL     1      20.983  40.378  17.004  1.00  0.00    -0.208 F 
BRANCH  10  13
HETATM   13  C10 UNL     1      20.954  41.059  19.270  1.00  0.00     0.157 C 
HETATM   14  C11 UNL     1      22.238  41.344  19.965  1.00  0.00     0.057 C 
HETATM   15  C12 UNL     1      20.421  42.239  18.495  1.00  0.00     0.057 C 
HETATM   16  F2  UNL     1      20.003  40.720  20.222  1.00  0.00    -0.238 F 
ENDBRANCH  10  13
ENDBRANCH   9  10
ENDBRANCH   1   9
TORSDOF 7
ENDMDL
