MODEL 1
REMARK VINA RESULT: -6.376994103      0.000      0.000
REMARK  3 active torsions:
REMARK  status: ('A' for Active; 'I' for Inactive)
REMARK    1  A    between atoms: C2_2  and  C3_3 
REMARK    2  A    between atoms: C3_3  and  N1_4 
REMARK       I    between atoms: N1_4  and  C4_6 
REMARK       I    between atoms: C4_6  and  N2_8 
REMARK    3  A    between atoms: C5_10  and  C6_11 
ROOT
HETATM    1  N1  UNL     1      -4.015  -4.515  16.847  1.00  0.00    -0.339 N 
ATOM      2  H1  UNL     1      -4.941  -4.088  16.818  1.00  0.00     0.164 HD
HETATM    3  C4  UNL     1      -3.877  -5.825  17.394  1.00  0.00     0.320 C 
HETATM    4  O1  UNL     1      -2.734  -6.381  17.440  1.00  0.00    -0.247 OA
HETATM    5  N2  UNL     1      -4.965  -6.551  17.894  1.00  0.00    -0.322 N 
ATOM      6  H2  UNL     1      -5.034  -6.662  18.905  1.00  0.00     0.169 HD
HETATM    7  C5  UNL     1      -5.885  -7.088  17.169  1.00  0.00     0.070 C 
ENDROOT
BRANCH   1   8
HETATM    8  C3  UNL     1      -2.901  -3.779  16.338  1.00  0.00     0.150 C 
BRANCH   8   9
HETATM    9  C2  UNL     1      -3.293  -2.607  15.526  1.00  0.00    -0.018 C 
HETATM   10  C1  UNL     1      -3.849  -1.556  16.118  1.00  0.00     0.008 C 
ENDBRANCH   8   9
ENDBRANCH   1   8
BRANCH   7  11
HETATM   11  C6  UNL     1      -7.018  -7.845  17.703  1.00  0.00     0.024 A 
HETATM   12  C7  UNL     1      -7.901  -8.516  16.626  1.00  0.00     0.010 A 
HETATM   13  C8  UNL     1      -8.417  -7.427  17.490  1.00  0.00     0.010 A 
ENDBRANCH   7  11
TORSDOF 3
ENDMDL
MODEL 2
REMARK VINA RESULT: -6.092372692      1.206      1.351
REMARK  3 active torsions:
REMARK  status: ('A' for Active; 'I' for Inactive)
REMARK    1  A    between atoms: C2_2  and  C3_3 
REMARK    2  A    between atoms: C3_3  and  N1_4 
REMARK       I    between atoms: N1_4  and  C4_6 
REMARK       I    between atoms: C4_6  and  N2_8 
REMARK    3  A    between atoms: C5_10  and  C6_11 
ROOT
HETATM    1  N1  UNL     1      -3.644  -5.168  17.414  1.00  0.00    -0.339 N 
ATOM      2  H1  UNL     1      -4.357  -4.447  17.304  1.00  0.00     0.164 HD
HETATM    3  C4  UNL     1      -4.045  -6.476  17.820  1.00  0.00     0.320 C 
HETATM    4  O1  UNL     1      -3.177  -7.394  17.963  1.00  0.00    -0.247 OA
HETATM    5  N2  UNL     1      -5.381  -6.810  18.074  1.00  0.00    -0.322 N 
ATOM      6  H2  UNL     1      -5.656  -6.951  19.046  1.00  0.00     0.169 HD
HETATM    7  C5  UNL     1      -6.287  -6.951  17.169  1.00  0.00     0.070 C 
ENDROOT
BRANCH   1   8
HETATM    8  C3  UNL     1      -2.280  -4.834  17.156  1.00  0.00     0.150 C 
BRANCH   8   9
HETATM    9  C2  UNL     1      -2.049  -4.322  15.788  1.00  0.00    -0.018 C 
HETATM   10  C1  UNL     1      -3.085  -3.953  15.044  1.00  0.00     0.008 C 
ENDBRANCH   8   9
ENDBRANCH   1   8
BRANCH   7  11
HETATM   11  C6  UNL     1      -7.681  -7.301  17.447  1.00  0.00     0.024 A 
HETATM   12  C7  UNL     1      -8.066  -8.747  17.056  1.00  0.00     0.010 A 
HETATM   13  C8  UNL     1      -8.656  -7.570  16.373  1.00  0.00     0.010 A 
ENDBRANCH   7  11
TORSDOF 3
ENDMDL
MODEL 3
REMARK VINA RESULT: -5.692922473      1.090      1.278
REMARK  3 active torsions:
REMARK  status: ('A' for Active; 'I' for Inactive)
REMARK    1  A    between atoms: C2_2  and  C3_3 
REMARK    2  A    between atoms: C3_3  and  N1_4 
REMARK       I    between atoms: N1_4  and  C4_6 
REMARK       I    between atoms: C4_6  and  N2_8 
REMARK    3  A    between atoms: C5_10  and  C6_11 
ROOT
HETATM    1  N1  UNL     1      -4.898  -4.787  16.327  1.00  0.00    -0.339 N 
ATOM      2  H1  UNL     1      -5.743  -4.383  15.923  1.00  0.00     0.164 HD
HETATM    3  C4  UNL     1      -5.027  -5.799  17.324  1.00  0.00     0.320 C 
HETATM    4  O1  UNL     1      -3.988  -6.320  17.842  1.00  0.00    -0.247 OA
HETATM    5  N2  UNL     1      -6.269  -6.261  17.773  1.00  0.00    -0.322 N 
ATOM      6  H2  UNL     1      -6.568  -5.983  18.708  1.00  0.00     0.169 HD
HETATM    7  C5  UNL     1      -7.063  -7.011  17.090  1.00  0.00     0.070 C 
ENDROOT
BRANCH   1   8
HETATM    8  C3  UNL     1      -3.627  -4.319  15.873  1.00  0.00     0.150 C 
BRANCH   8   9
HETATM    9  C2  UNL     1      -3.239  -3.016  16.455  1.00  0.00    -0.018 C 
HETATM   10  C1  UNL     1      -3.920  -1.924  16.126  1.00  0.00     0.008 C 
ENDBRANCH   8   9
ENDBRANCH   1   8
BRANCH   7  11
HETATM   11  C6  UNL     1      -8.362  -7.489  17.570  1.00  0.00     0.024 A 
HETATM   12  C7  UNL     1      -9.540  -7.206  16.609  1.00  0.00     0.010 A 
HETATM   13  C8  UNL     1      -9.451  -6.568  17.946  1.00  0.00     0.010 A 
ENDBRANCH   7  11
TORSDOF 3
ENDMDL
MODEL 4
REMARK VINA RESULT: -5.624857404      2.150      5.729
REMARK  3 active torsions:
REMARK  status: ('A' for Active; 'I' for Inactive)
REMARK    1  A    between atoms: C2_2  and  C3_3 
REMARK    2  A    between atoms: C3_3  and  N1_4 
REMARK       I    between atoms: N1_4  and  C4_6 
REMARK       I    between atoms: C4_6  and  N2_8 
REMARK    3  A    between atoms: C5_10  and  C6_11 
ROOT
HETATM    1  N1  UNL     1      -7.063  -7.501  16.949  1.00  0.00    -0.339 N 
ATOM      2  H1  UNL     1      -6.302  -7.923  16.416  1.00  0.00     0.164 HD
HETATM    3  C4  UNL     1      -6.831  -6.261  17.616  1.00  0.00     0.320 C 
HETATM    4  O1  UNL     1      -7.764  -5.713  18.285  1.00  0.00    -0.247 OA
HETATM    5  N2  UNL     1      -5.599  -5.599  17.570  1.00  0.00    -0.322 N 
ATOM      6  H2  UNL     1      -5.028  -5.604  18.415  1.00  0.00     0.169 HD
HETATM    7  C5  UNL     1      -5.135  -4.984  16.537  1.00  0.00     0.070 C 
ENDROOT
BRANCH   1   8
HETATM    8  C3  UNL     1      -8.322  -8.172  17.000  1.00  0.00     0.150 C 
BRANCH   8   9
HETATM    9  C2  UNL     1      -9.223  -7.817  15.882  1.00  0.00    -0.018 C 
HETATM   10  C1  UNL     1     -10.276  -7.041  16.111  1.00  0.00     0.008 C 
ENDBRANCH   8   9
ENDBRANCH   1   8
BRANCH   7  11
HETATM   11  C6  UNL     1      -3.844  -4.294  16.501  1.00  0.00     0.024 A 
HETATM   12  C7  UNL     1      -3.928  -2.806  16.090  1.00  0.00     0.010 A 
HETATM   13  C8  UNL     1      -3.243  -3.812  15.243  1.00  0.00     0.010 A 
ENDBRANCH   7  11
TORSDOF 3
ENDMDL
MODEL 5
REMARK VINA RESULT: -5.559100426      1.984      2.201
REMARK  3 active torsions:
REMARK  status: ('A' for Active; 'I' for Inactive)
REMARK    1  A    between atoms: C2_2  and  C3_3 
REMARK    2  A    between atoms: C3_3  and  N1_4 
REMARK       I    between atoms: N1_4  and  C4_6 
REMARK       I    between atoms: C4_6  and  N2_8 
REMARK    3  A    between atoms: C5_10  and  C6_11 
ROOT
HETATM    1  N1  UNL     1      -3.123  -5.394  16.582  1.00  0.00    -0.339 N 
ATOM      2  H1  UNL     1      -3.116  -6.407  16.699  1.00  0.00     0.164 HD
HETATM    3  C4  UNL     1      -4.378  -4.722  16.482  1.00  0.00     0.320 C 
HETATM    4  O1  UNL     1      -4.415  -3.459  16.337  1.00  0.00    -0.247 OA
HETATM    5  N2  UNL     1      -5.602  -5.398  16.539  1.00  0.00    -0.322 N 
ATOM      6  H2  UNL     1      -6.132  -5.490  15.672  1.00  0.00     0.169 HD
HETATM    7  C5  UNL     1      -6.107  -5.914  17.606  1.00  0.00     0.070 C 
ENDROOT
BRANCH   1   8
HETATM    8  C3  UNL     1      -1.877  -4.698  16.523  1.00  0.00     0.150 C 
BRANCH   8   9
HETATM    9  C2  UNL     1      -1.426  -4.418  15.143  1.00  0.00    -0.018 C 
HETATM   10  C1  UNL     1      -0.301  -3.739  14.948  1.00  0.00     0.008 C 
ENDBRANCH   8   9
ENDBRANCH   1   8
BRANCH   7  11
HETATM   11  C6  UNL     1      -7.389  -6.619  17.654  1.00  0.00     0.024 A 
HETATM   12  C7  UNL     1      -7.288  -8.142  17.402  1.00  0.00     0.010 A 
HETATM   13  C8  UNL     1      -7.992  -7.239  16.459  1.00  0.00     0.010 A 
ENDBRANCH   7  11
TORSDOF 3
ENDMDL
