MODEL 1
REMARK VINA RESULT: -4.574314576      0.000      0.000
REMARK  3 active torsions:
REMARK  status: ('A' for Active; 'I' for Inactive)
REMARK    1  A    between atoms: C1_4  and  C2_6 
REMARK    2  A    between atoms: C4_10  and  S1_11 
REMARK    3  A    between atoms: S1_11  and  C5_12 
ROOT
HETATM    1  C2  UNL     1       6.320 -17.010 115.089  1.00  0.00     0.063 A 
HETATM    2  C3  UNL     1       6.984 -18.189 114.859  1.00  0.00     0.111 A 
HETATM    3  N3  UNL     1       7.629 -18.716 115.850  1.00  0.00    -0.353 N 
ATOM      4  H3  UNL     1       8.136 -19.591 115.714  1.00  0.00     0.166 HD
HETATM    5  C4  UNL     1       7.639 -18.137 117.025  1.00  0.00     0.113 A 
HETATM    6  S2  UNL     1       6.671 -16.734 116.740  1.00  0.00    -0.061 SA
ENDROOT
BRANCH   1   7
HETATM    7  C1  UNL     1       5.522 -16.205 114.156  1.00  0.00     0.128 C 
HETATM    8  N1  UNL     1       5.126 -16.757 113.072  1.00  0.00    -0.387 N 
ATOM      9  H12 UNL     1       4.571 -16.197 112.423  1.00  0.00     0.157 HD
ATOM     10  H11 UNL     1       5.372 -17.729 112.890  1.00  0.00     0.157 HD
HETATM   11  N2  UNL     1       5.183 -14.868 114.406  1.00  0.00    -0.082 NA
ENDBRANCH   1   7
BRANCH   5  12
HETATM   12  S1  UNL     1       8.449 -18.660 118.556  1.00  0.00    -0.100 SA
BRANCH  12  13
HETATM   13  C5  UNL     1       8.735 -20.423 118.592  1.00  0.00     0.054 A 
HETATM   14  C6  UNL     1       9.921 -21.042 117.960  1.00  0.00     0.017 A 
HETATM   15  C7  UNL     1       9.857 -21.000 119.438  1.00  0.00     0.017 A 
ENDBRANCH  12  13
ENDBRANCH   5  12
TORSDOF 3
ENDMDL
MODEL 2
REMARK VINA RESULT: -4.415081969      1.692      1.944
REMARK  3 active torsions:
REMARK  status: ('A' for Active; 'I' for Inactive)
REMARK    1  A    between atoms: C1_4  and  C2_6 
REMARK    2  A    between atoms: C4_10  and  S1_11 
REMARK    3  A    between atoms: S1_11  and  C5_12 
ROOT
HETATM    1  C2  UNL     1       6.326 -17.064 114.851  1.00  0.00     0.063 A 
HETATM    2  C3  UNL     1       7.083 -18.149 114.483  1.00  0.00     0.111 A 
HETATM    3  N3  UNL     1       7.743 -18.761 115.414  1.00  0.00    -0.353 N 
ATOM      4  H3  UNL     1       8.318 -19.569 115.176  1.00  0.00     0.166 HD
HETATM    5  C4  UNL     1       7.682 -18.352 116.656  1.00  0.00     0.113 A 
HETATM    6  S2  UNL     1       6.618 -16.996 116.534  1.00  0.00    -0.061 SA
ENDROOT
BRANCH   1   7
HETATM    7  C1  UNL     1       5.492 -16.196 114.011  1.00  0.00     0.128 C 
HETATM    8  N1  UNL     1       5.054 -16.669 112.905  1.00  0.00    -0.387 N 
ATOM      9  H12 UNL     1       4.474 -16.066 112.321  1.00  0.00     0.157 HD
ATOM     10  H11 UNL     1       5.295 -17.624 112.643  1.00  0.00     0.157 HD
HETATM   11  N2  UNL     1       5.161 -14.882 114.371  1.00  0.00    -0.082 NA
ENDBRANCH   1   7
BRANCH   5  12
HETATM   12  S1  UNL     1       8.494 -19.023 118.127  1.00  0.00    -0.100 SA
BRANCH  12  13
HETATM   13  C5  UNL     1       8.685 -17.789 119.406  1.00  0.00     0.054 A 
HETATM   14  C6  UNL     1       7.537 -17.283 120.190  1.00  0.00     0.017 A 
HETATM   15  C7  UNL     1       8.512 -18.167 120.867  1.00  0.00     0.017 A 
ENDBRANCH  12  13
ENDBRANCH   5  12
TORSDOF 3
ENDMDL
MODEL 3
REMARK VINA RESULT: -4.326052343      1.609      1.841
REMARK  3 active torsions:
REMARK  status: ('A' for Active; 'I' for Inactive)
REMARK    1  A    between atoms: C1_4  and  C2_6 
REMARK    2  A    between atoms: C4_10  and  S1_11 
REMARK    3  A    between atoms: S1_11  and  C5_12 
ROOT
HETATM    1  C2  UNL     1       6.782 -16.909 114.510  1.00  0.00     0.063 A 
HETATM    2  C3  UNL     1       6.865 -18.263 114.716  1.00  0.00     0.111 A 
HETATM    3  N3  UNL     1       7.959 -18.725 115.231  1.00  0.00    -0.353 N 
ATOM      4  H3  UNL     1       8.055 -19.727 115.396  1.00  0.00     0.166 HD
HETATM    5  C4  UNL     1       8.944 -17.919 115.541  1.00  0.00     0.113 A 
HETATM    6  S2  UNL     1       8.306 -16.381 115.079  1.00  0.00    -0.061 SA
ENDROOT
BRANCH   1   7
HETATM    7  C1  UNL     1       5.674 -16.128 113.946  1.00  0.00     0.128 C 
HETATM    8  N1  UNL     1       5.053 -16.608 112.935  1.00  0.00    -0.387 N 
ATOM      9  H12 UNL     1       4.282 -16.066 112.543  1.00  0.00     0.157 HD
ATOM     10  H11 UNL     1       5.343 -17.509 112.556  1.00  0.00     0.157 HD
HETATM   11  N2  UNL     1       5.275 -14.889 114.467  1.00  0.00    -0.082 NA
ENDBRANCH   1   7
BRANCH   5  12
HETATM   12  S1  UNL     1      10.556 -18.303 116.266  1.00  0.00    -0.100 SA
BRANCH  12  13
HETATM   13  C5  UNL     1      10.921 -20.051 116.196  1.00  0.00     0.054 A 
HETATM   14  C6  UNL     1      11.846 -20.702 117.150  1.00  0.00     0.017 A 
HETATM   15  C7  UNL     1      10.398 -20.987 117.273  1.00  0.00     0.017 A 
ENDBRANCH  12  13
ENDBRANCH   5  12
TORSDOF 3
ENDMDL
MODEL 4
REMARK VINA RESULT: -4.277090853      1.549      1.918
REMARK  3 active torsions:
REMARK  status: ('A' for Active; 'I' for Inactive)
REMARK    1  A    between atoms: C1_4  and  C2_6 
REMARK    2  A    between atoms: C4_10  and  S1_11 
REMARK    3  A    between atoms: S1_11  and  C5_12 
ROOT
HETATM    1  C2  UNL     1       7.201 -16.389 114.977  1.00  0.00     0.063 A 
HETATM    2  C3  UNL     1       6.856 -17.671 114.630  1.00  0.00     0.111 A 
HETATM    3  N3  UNL     1       7.650 -18.625 114.997  1.00  0.00    -0.353 N 
ATOM      4  H3  UNL     1       7.426 -19.590 114.754  1.00  0.00     0.166 HD
HETATM    5  C4  UNL     1       8.739 -18.364 115.676  1.00  0.00     0.113 A 
HETATM    6  S2  UNL     1       8.665 -16.643 115.822  1.00  0.00    -0.061 SA
ENDROOT
BRANCH   1   7
HETATM    7  C1  UNL     1       6.492 -15.135 114.691  1.00  0.00     0.128 C 
HETATM    8  N1  UNL     1       7.169 -14.049 114.681  1.00  0.00    -0.387 N 
ATOM      9  H12 UNL     1       6.677 -13.178 114.482  1.00  0.00     0.157 HD
ATOM     10  H11 UNL     1       8.171 -14.087 114.870  1.00  0.00     0.157 HD
HETATM   11  N2  UNL     1       5.115 -15.084 114.432  1.00  0.00    -0.082 NA
ENDBRANCH   1   7
BRANCH   5  12
HETATM   12  S1  UNL     1      10.000 -19.498 116.305  1.00  0.00    -0.100 SA
BRANCH  12  13
HETATM   13  C5  UNL     1       9.855 -19.745 118.070  1.00  0.00     0.054 A 
HETATM   14  C6  UNL     1       8.696 -19.248 118.842  1.00  0.00     0.017 A 
HETATM   15  C7  UNL     1       8.820 -20.707 118.626  1.00  0.00     0.017 A 
ENDBRANCH  12  13
ENDBRANCH   5  12
TORSDOF 3
ENDMDL
MODEL 5
REMARK VINA RESULT: -4.273466684      1.383      1.446
REMARK  3 active torsions:
REMARK  status: ('A' for Active; 'I' for Inactive)
REMARK    1  A    between atoms: C1_4  and  C2_6 
REMARK    2  A    between atoms: C4_10  and  S1_11 
REMARK    3  A    between atoms: S1_11  and  C5_12 
ROOT
HETATM    1  C2  UNL     1       6.806 -16.996 114.350  1.00  0.00     0.063 A 
HETATM    2  C3  UNL     1       8.013 -17.151 113.716  1.00  0.00     0.111 A 
HETATM    3  N3  UNL     1       8.931 -17.824 114.332  1.00  0.00    -0.353 N 
ATOM      4  H3  UNL     1       9.841 -17.957 113.891  1.00  0.00     0.166 HD
HETATM    5  C4  UNL     1       8.704 -18.335 115.516  1.00  0.00     0.113 A 
HETATM    6  S2  UNL     1       7.074 -17.842 115.812  1.00  0.00    -0.061 SA
ENDROOT
BRANCH   1   7
HETATM    7  C1  UNL     1       5.607 -16.287 113.888  1.00  0.00     0.128 C 
HETATM    8  N1  UNL     1       4.957 -16.780 112.902  1.00  0.00    -0.387 N 
ATOM      9  H12 UNL     1       4.124 -16.287 112.580  1.00  0.00     0.157 HD
ATOM     10  H11 UNL     1       5.288 -17.643 112.471  1.00  0.00     0.157 HD
HETATM   11  N2  UNL     1       5.151 -15.100 114.479  1.00  0.00    -0.082 NA
ENDBRANCH   1   7
BRANCH   5  12
HETATM   12  S1  UNL     1       9.801 -19.308 116.577  1.00  0.00    -0.100 SA
BRANCH  12  13
HETATM   13  C5  UNL     1       9.139 -19.496 118.226  1.00  0.00     0.054 A 
HETATM   14  C6  UNL     1       8.654 -20.797 118.736  1.00  0.00     0.017 A 
HETATM   15  C7  UNL     1       9.920 -20.260 119.282  1.00  0.00     0.017 A 
ENDBRANCH  12  13
ENDBRANCH   5  12
TORSDOF 3
ENDMDL
