MODEL 1
REMARK VINA RESULT: -4.588452406      0.000      0.000
REMARK  3 active torsions:
REMARK  status: ('A' for Active; 'I' for Inactive)
REMARK    1  A    between atoms: C2_2  and  C3_3 
REMARK    2  A    between atoms: C3_3  and  O1_4 
REMARK    3  A    between atoms: O1_4  and  C4_5 
ROOT
HETATM    1  C4  UNL     1       7.602 -15.847 115.719  1.00  0.00     0.169 C 
HETATM    2  C5  UNL     1       6.817 -16.300 116.948  1.00  0.00     0.036 C 
HETATM    3  C6  UNL     1       6.574 -17.763 116.774  1.00  0.00     0.007 C 
HETATM    4  C7  UNL     1       7.031 -18.126 115.379  1.00  0.00     0.055 C 
HETATM    5  C8  UNL     1       7.137 -16.806 114.680  1.00  0.00     0.163 C 
HETATM    6  O2  UNL     1       7.895 -16.826 113.520  1.00  0.00    -0.295 OA
HETATM    7  C9  UNL     1       7.232 -17.125 112.366  1.00  0.00     0.224 C 
HETATM    8  N1  UNL     1       7.783 -17.780 111.390  1.00  0.00    -0.365 N 
ATOM      9  H11 UNL     1       7.287 -18.004 110.527  1.00  0.00     0.159 HD
ATOM     10  H12 UNL     1       8.746 -18.113 111.419  1.00  0.00     0.159 HD
HETATM   11  N2  UNL     1       5.901 -16.666 112.327  1.00  0.00    -0.293 N 
ATOM     12  H2  UNL     1       5.300 -16.567 111.507  1.00  0.00     0.177 HD
HETATM   13  S1  UNL     1       5.498 -16.301 114.002  1.00  0.00    -0.010 SA
ENDROOT
BRANCH   1  14
HETATM   14  O1  UNL     1       7.314 -14.520 115.406  1.00  0.00    -0.378 OA
BRANCH  14  15
HETATM   15  C3  UNL     1       8.412 -13.708 115.706  1.00  0.00     0.195 C 
BRANCH  15  16
HETATM   16  C2  UNL     1       8.460 -12.603 114.718  1.00  0.00    -0.011 C 
HETATM   17  C1  UNL     1       8.115 -11.394 115.076  1.00  0.00     0.009 C 
ENDBRANCH  15  16
ENDBRANCH  14  15
ENDBRANCH   1  14
TORSDOF 3
ENDMDL
MODEL 2
REMARK VINA RESULT: -4.580321733      2.867      3.701
REMARK  3 active torsions:
REMARK  status: ('A' for Active; 'I' for Inactive)
REMARK    1  A    between atoms: C2_2  and  C3_3 
REMARK    2  A    between atoms: C3_3  and  O1_4 
REMARK    3  A    between atoms: O1_4  and  C4_5 
ROOT
HETATM    1  C4  UNL     1       6.752 -17.931 114.547  1.00  0.00     0.169 C 
HETATM    2  C5  UNL     1       6.393 -17.178 115.825  1.00  0.00     0.036 C 
HETATM    3  C6  UNL     1       5.405 -16.130 115.429  1.00  0.00     0.007 C 
HETATM    4  C7  UNL     1       5.334 -16.134 113.919  1.00  0.00     0.055 C 
HETATM    5  C8  UNL     1       6.559 -16.888 113.503  1.00  0.00     0.163 C 
HETATM    6  O2  UNL     1       6.533 -17.360 112.200  1.00  0.00    -0.295 OA
HETATM    7  C9  UNL     1       7.004 -16.515 111.239  1.00  0.00     0.224 C 
HETATM    8  N1  UNL     1       6.517 -16.479 110.036  1.00  0.00    -0.365 N 
ATOM      9  H11 UNL     1       6.869 -15.848 109.317  1.00  0.00     0.159 HD
ATOM     10  H12 UNL     1       5.752 -17.080 109.729  1.00  0.00     0.159 HD
HETATM   11  N2  UNL     1       8.060 -15.685 111.663  1.00  0.00    -0.293 N 
ATOM     12  H2  UNL     1       8.710 -15.157 111.080  1.00  0.00     0.177 HD
HETATM   13  S1  UNL     1       8.015 -15.759 113.422  1.00  0.00    -0.010 SA
ENDROOT
BRANCH   1  14
HETATM   14  O1  UNL     1       8.059 -18.413 114.604  1.00  0.00    -0.378 OA
BRANCH  14  15
HETATM   15  C3  UNL     1       8.461 -18.549 115.936  1.00  0.00     0.195 C 
BRANCH  15  16
HETATM   16  C2  UNL     1       9.876 -18.995 115.953  1.00  0.00    -0.011 C 
HETATM   17  C1  UNL     1      10.695 -18.598 115.014  1.00  0.00     0.009 C 
ENDBRANCH  15  16
ENDBRANCH  14  15
ENDBRANCH   1  14
TORSDOF 3
ENDMDL
MODEL 3
REMARK VINA RESULT: -4.387564787      2.617      4.125
REMARK  3 active torsions:
REMARK  status: ('A' for Active; 'I' for Inactive)
REMARK    1  A    between atoms: C2_2  and  C3_3 
REMARK    2  A    between atoms: C3_3  and  O1_4 
REMARK    3  A    between atoms: O1_4  and  C4_5 
ROOT
HETATM    1  C4  UNL     1       7.201 -15.898 113.714  1.00  0.00     0.169 C 
HETATM    2  C5  UNL     1       6.939 -14.486 114.231  1.00  0.00     0.036 C 
HETATM    3  C6  UNL     1       8.010 -14.201 115.232  1.00  0.00     0.007 C 
HETATM    4  C7  UNL     1       8.770 -15.490 115.448  1.00  0.00     0.055 C 
HETATM    5  C8  UNL     1       7.866 -16.541 114.881  1.00  0.00     0.163 C 
HETATM    6  O2  UNL     1       8.485 -17.750 114.610  1.00  0.00    -0.295 OA
HETATM    7  C9  UNL     1       8.521 -18.656 115.629  1.00  0.00     0.224 C 
HETATM    8  N1  UNL     1       9.508 -19.481 115.801  1.00  0.00    -0.365 N 
ATOM      9  H11 UNL     1       9.535 -20.158 116.563  1.00  0.00     0.159 HD
ATOM     10  H12 UNL     1      10.321 -19.509 115.186  1.00  0.00     0.159 HD
HETATM   11  N2  UNL     1       7.397 -18.617 116.478  1.00  0.00    -0.293 N 
ATOM     12  H2  UNL     1       7.097 -19.328 117.146  1.00  0.00     0.177 HD
HETATM   13  S1  UNL     1       6.625 -17.072 116.137  1.00  0.00    -0.010 SA
ENDROOT
BRANCH   1  14
HETATM   14  O1  UNL     1       6.010 -16.524 113.351  1.00  0.00    -0.378 OA
BRANCH  14  15
HETATM   15  C3  UNL     1       6.190 -17.249 112.169  1.00  0.00     0.195 C 
BRANCH  15  16
HETATM   16  C2  UNL     1       7.031 -16.443 111.251  1.00  0.00    -0.011 C 
HETATM   17  C1  UNL     1       6.919 -16.602 109.958  1.00  0.00     0.009 C 
ENDBRANCH  15  16
ENDBRANCH  14  15
ENDBRANCH   1  14
TORSDOF 3
ENDMDL
MODEL 4
REMARK VINA RESULT: -4.295547493      1.786      2.274
REMARK  3 active torsions:
REMARK  status: ('A' for Active; 'I' for Inactive)
REMARK    1  A    between atoms: C2_2  and  C3_3 
REMARK    2  A    between atoms: C3_3  and  O1_4 
REMARK    3  A    between atoms: O1_4  and  C4_5 
ROOT
HETATM    1  C4  UNL     1       8.171 -15.721 115.249  1.00  0.00     0.169 C 
HETATM    2  C5  UNL     1       7.767 -15.110 116.589  1.00  0.00     0.036 C 
HETATM    3  C6  UNL     1       6.904 -16.123 117.267  1.00  0.00     0.007 C 
HETATM    4  C7  UNL     1       6.640 -17.224 116.265  1.00  0.00     0.055 C 
HETATM    5  C8  UNL     1       7.019 -16.613 114.951  1.00  0.00     0.163 C 
HETATM    6  O2  UNL     1       7.232 -17.526 113.930  1.00  0.00    -0.295 OA
HETATM    7  C9  UNL     1       6.140 -17.879 113.193  1.00  0.00     0.224 C 
HETATM    8  N1  UNL     1       5.987 -19.066 112.691  1.00  0.00    -0.365 N 
ATOM      9  H11 UNL     1       5.171 -19.330 112.139  1.00  0.00     0.159 HD
ATOM     10  H12 UNL     1       6.671 -19.813 112.812  1.00  0.00     0.159 HD
HETATM   11  N2  UNL     1       5.195 -16.847 113.026  1.00  0.00    -0.293 N 
ATOM     12  H2  UNL     1       4.439 -16.801 112.343  1.00  0.00     0.177 HD
HETATM   13  S1  UNL     1       5.605 -15.655 114.255  1.00  0.00    -0.010 SA
ENDROOT
BRANCH   1  14
HETATM   14  O1  UNL     1       8.359 -14.730 114.288  1.00  0.00    -0.378 OA
BRANCH  14  15
HETATM   15  C3  UNL     1       9.530 -14.979 113.565  1.00  0.00     0.195 C 
BRANCH  15  16
HETATM   16  C2  UNL     1       9.265 -14.694 112.134  1.00  0.00    -0.011 C 
HETATM   17  C1  UNL     1       8.640 -15.578 111.400  1.00  0.00     0.009 C 
ENDBRANCH  15  16
ENDBRANCH  14  15
ENDBRANCH   1  14
TORSDOF 3
ENDMDL
MODEL 5
REMARK VINA RESULT: -4.275148702      1.766      3.624
REMARK  3 active torsions:
REMARK  status: ('A' for Active; 'I' for Inactive)
REMARK    1  A    between atoms: C2_2  and  C3_3 
REMARK    2  A    between atoms: C3_3  and  O1_4 
REMARK    3  A    between atoms: O1_4  and  C4_5 
ROOT
HETATM    1  C4  UNL     1       6.880 -15.178 114.740  1.00  0.00     0.169 C 
HETATM    2  C5  UNL     1       8.108 -14.747 115.539  1.00  0.00     0.036 C 
HETATM    3  C6  UNL     1       9.085 -14.208 114.547  1.00  0.00     0.007 C 
HETATM    4  C7  UNL     1       8.528 -14.500 113.172  1.00  0.00     0.055 C 
HETATM    5  C8  UNL     1       7.473 -15.533 113.422  1.00  0.00     0.163 C 
HETATM    6  O2  UNL     1       6.560 -15.688 112.391  1.00  0.00    -0.295 OA
HETATM    7  C9  UNL     1       6.888 -16.588 111.420  1.00  0.00     0.224 C 
HETATM    8  N1  UNL     1       6.555 -16.430 110.175  1.00  0.00    -0.365 N 
ATOM      9  H11 UNL     1       6.800 -17.103 109.449  1.00  0.00     0.159 HD
ATOM     10  H12 UNL     1       6.026 -15.625 109.840  1.00  0.00     0.159 HD
HETATM   11  N2  UNL     1       7.619 -17.700 111.883  1.00  0.00    -0.293 N 
ATOM     12  H2  UNL     1       7.770 -18.589 111.405  1.00  0.00     0.177 HD
HETATM   13  S1  UNL     1       8.219 -17.219 113.467  1.00  0.00    -0.010 SA
ENDROOT
BRANCH   1  14
HETATM   14  O1  UNL     1       6.236 -16.248 115.357  1.00  0.00    -0.378 OA
BRANCH  14  15
HETATM   15  C3  UNL     1       6.660 -16.362 116.685  1.00  0.00     0.195 C 
BRANCH  15  16
HETATM   16  C2  UNL     1       6.649 -17.797 117.057  1.00  0.00    -0.011 C 
HETATM   17  C1  UNL     1       7.765 -18.479 117.054  1.00  0.00     0.009 C 
ENDBRANCH  15  16
ENDBRANCH  14  15
ENDBRANCH   1  14
TORSDOF 3
ENDMDL
