MODEL 1
REMARK VINA RESULT: -4.224189361      0.000      0.000
REMARK  4 active torsions:
REMARK  status: ('A' for Active; 'I' for Inactive)
REMARK    1  A    between atoms: C2_2  and  C3_3 
REMARK    2  A    between atoms: C6_6  and  N1_7 
REMARK    3  A    between atoms: C7_8  and  C8_9 
REMARK    4  A    between atoms: C8_9  and  N2_10 
ROOT
HETATM    1  N1  UNL     1       7.955 -17.239 113.485  1.00  0.00    -0.304 N 
HETATM    2  C7  UNL     1       9.135 -17.659 114.016  1.00  0.00     0.126 A 
HETATM    3  N3  UNL     1      10.007 -17.764 112.994  1.00  0.00    -0.285 N 
ATOM      4  H3  UNL     1      10.980 -18.060 113.080  1.00  0.00     0.188 HD
HETATM    5  N4  UNL     1       9.413 -17.426 111.869  1.00  0.00    -0.275 N 
ATOM      6  H4  UNL     1       9.839 -17.413 110.943  1.00  0.00     0.189 HD
HETATM    7  C9  UNL     1       8.131 -17.096 112.167  1.00  0.00     0.194 A 
HETATM    8  S1  UNL     1       7.049 -16.624 111.028  1.00  0.00    -0.039 SA
ENDROOT
BRANCH   1   9
HETATM    9  C6  UNL     1       6.808 -17.025 114.277  1.00  0.00     0.101 C 
HETATM   10  C3  UNL     1       6.727 -15.697 115.040  1.00  0.00     0.031 C 
HETATM   11  C4  UNL     1       5.209 -15.945 115.001  1.00  0.00     0.012 C 
HETATM   12  C5  UNL     1       5.513 -16.632 113.649  1.00  0.00     0.027 C 
BRANCH  10  13
HETATM   13  C2  UNL     1       7.065 -14.493 114.284  1.00  0.00    -0.030 C 
HETATM   14  C1  UNL     1       8.147 -13.738 114.527  1.00  0.00     0.007 C 
ENDBRANCH  10  13
ENDBRANCH   1   9
BRANCH   2  15
HETATM   15  C8  UNL     1       9.486 -17.974 115.419  1.00  0.00     0.307 C 
BRANCH  15  16
HETATM   16  N2  UNL     1       9.278 -19.344 115.732  1.00  0.00    -0.073 N 
ATOM     17  H23 UNL     1       8.292 -19.535 115.911  1.00  0.00     0.274 HD
ATOM     18  H22 UNL     1       9.411 -19.934 114.910  1.00  0.00     0.274 HD
ATOM     19  H21 UNL     1       9.860 -19.656 116.508  1.00  0.00     0.274 HD
ENDBRANCH  15  16
ENDBRANCH   2  15
TORSDOF 4
ENDMDL
MODEL 2
REMARK VINA RESULT: -4.055899510      2.436      3.580
REMARK  4 active torsions:
REMARK  status: ('A' for Active; 'I' for Inactive)
REMARK    1  A    between atoms: C2_2  and  C3_3 
REMARK    2  A    between atoms: C6_6  and  N1_7 
REMARK    3  A    between atoms: C7_8  and  C8_9 
REMARK    4  A    between atoms: C8_9  and  N2_10 
ROOT
HETATM    1  N1  UNL     1       7.737 -15.492 112.625  1.00  0.00    -0.304 N 
HETATM    2  C7  UNL     1       8.128 -16.097 111.470  1.00  0.00     0.126 A 
HETATM    3  N3  UNL     1       9.368 -15.647 111.195  1.00  0.00    -0.285 N 
ATOM      4  H3  UNL     1       9.927 -15.921 110.387  1.00  0.00     0.188 HD
HETATM    5  N4  UNL     1       9.747 -14.799 112.128  1.00  0.00    -0.275 N 
ATOM      6  H4  UNL     1      10.641 -14.309 112.170  1.00  0.00     0.189 HD
HETATM    7  C9  UNL     1       8.735 -14.697 113.025  1.00  0.00     0.194 A 
HETATM    8  S1  UNL     1       8.812 -13.724 114.343  1.00  0.00    -0.039 SA
ENDROOT
BRANCH   1   9
HETATM    9  C6  UNL     1       6.476 -15.731 113.209  1.00  0.00     0.101 C 
HETATM   10  C3  UNL     1       6.326 -17.012 114.040  1.00  0.00     0.031 C 
HETATM   11  C4  UNL     1       5.188 -16.245 114.733  1.00  0.00     0.012 C 
HETATM   12  C5  UNL     1       6.057 -14.999 114.440  1.00  0.00     0.027 C 
BRANCH  10  13
HETATM   13  C2  UNL     1       7.399 -17.298 114.991  1.00  0.00    -0.030 C 
HETATM   14  C1  UNL     1       7.285 -18.171 116.003  1.00  0.00     0.007 C 
ENDBRANCH  10  13
ENDBRANCH   1   9
BRANCH   2  15
HETATM   15  C8  UNL     1       7.405 -17.061 110.611  1.00  0.00     0.307 C 
BRANCH  15  16
HETATM   16  N2  UNL     1       6.469 -16.423 109.755  1.00  0.00    -0.073 N 
ATOM     17  H23 UNL     1       6.291 -16.983 108.921  1.00  0.00     0.274 HD
ATOM     18  H22 UNL     1       5.533 -16.432 110.160  1.00  0.00     0.274 HD
ATOM     19  H21 UNL     1       6.755 -15.476 109.509  1.00  0.00     0.274 HD
ENDBRANCH  15  16
ENDBRANCH   2  15
TORSDOF 4
ENDMDL
MODEL 3
REMARK VINA RESULT: -4.005441186      2.032      3.308
REMARK  4 active torsions:
REMARK  status: ('A' for Active; 'I' for Inactive)
REMARK    1  A    between atoms: C2_2  and  C3_3 
REMARK    2  A    between atoms: C6_6  and  N1_7 
REMARK    3  A    between atoms: C7_8  and  C8_9 
REMARK    4  A    between atoms: C8_9  and  N2_10 
ROOT
HETATM    1  N1  UNL     1       8.404 -17.159 114.835  1.00  0.00    -0.304 N 
HETATM    2  C7  UNL     1       9.496 -17.623 114.169  1.00  0.00     0.126 A 
HETATM    3  N3  UNL     1       9.862 -18.771 114.773  1.00  0.00    -0.285 N 
ATOM      4  H3  UNL     1      10.652 -19.354 114.498  1.00  0.00     0.188 HD
HETATM    5  N4  UNL     1       9.043 -19.025 115.773  1.00  0.00    -0.275 N 
ATOM      6  H4  UNL     1       9.087 -19.829 116.399  1.00  0.00     0.189 HD
HETATM    7  C9  UNL     1       8.130 -18.023 115.818  1.00  0.00     0.194 A 
HETATM    8  S1  UNL     1       6.932 -17.964 116.937  1.00  0.00    -0.039 SA
ENDROOT
BRANCH   1   9
HETATM    9  C6  UNL     1       7.755 -15.961 114.470  1.00  0.00     0.101 C 
HETATM   10  C3  UNL     1       6.754 -16.038 113.310  1.00  0.00     0.031 C 
HETATM   11  C4  UNL     1       6.136 -14.790 113.964  1.00  0.00     0.012 C 
HETATM   12  C5  UNL     1       6.623 -15.432 115.285  1.00  0.00     0.027 C 
BRANCH  10  13
HETATM   13  C2  UNL     1       5.807 -17.151 113.343  1.00  0.00    -0.030 C 
HETATM   14  C1  UNL     1       6.021 -18.331 112.743  1.00  0.00     0.007 C 
ENDBRANCH  10  13
ENDBRANCH   1   9
BRANCH   2  15
HETATM   15  C8  UNL     1      10.217 -17.050 113.010  1.00  0.00     0.307 C 
BRANCH  15  16
HETATM   16  N2  UNL     1       9.868 -17.690 111.791  1.00  0.00    -0.073 N 
ATOM     17  H23 UNL     1       8.985 -18.193 111.877  1.00  0.00     0.274 HD
ATOM     18  H22 UNL     1       9.599 -17.008 111.081  1.00  0.00     0.274 HD
ATOM     19  H21 UNL     1      10.609 -18.302 111.450  1.00  0.00     0.274 HD
ENDBRANCH  15  16
ENDBRANCH   2  15
TORSDOF 4
ENDMDL
MODEL 4
REMARK VINA RESULT: -3.981910435      1.731      2.499
REMARK  4 active torsions:
REMARK  status: ('A' for Active; 'I' for Inactive)
REMARK    1  A    between atoms: C2_2  and  C3_3 
REMARK    2  A    between atoms: C6_6  and  N1_7 
REMARK    3  A    between atoms: C7_8  and  C8_9 
REMARK    4  A    between atoms: C8_9  and  N2_10 
ROOT
HETATM    1  N1  UNL     1       8.559 -16.919 114.569  1.00  0.00    -0.304 N 
HETATM    2  C7  UNL     1       8.444 -18.006 115.380  1.00  0.00     0.126 A 
HETATM    3  N3  UNL     1       9.510 -18.793 115.130  1.00  0.00    -0.285 N 
ATOM      4  H3  UNL     1       9.702 -19.685 115.586  1.00  0.00     0.188 HD
HETATM    5  N4  UNL     1      10.265 -18.234 114.207  1.00  0.00    -0.275 N 
ATOM      6  H4  UNL     1      11.134 -18.612 113.829  1.00  0.00     0.189 HD
HETATM    7  C9  UNL     1       9.678 -17.064 113.852  1.00  0.00     0.194 A 
HETATM    8  S1  UNL     1      10.309 -16.066 112.713  1.00  0.00    -0.039 SA
ENDROOT
BRANCH   1   9
HETATM    9  C6  UNL     1       7.604 -15.882 114.564  1.00  0.00     0.101 C 
HETATM   10  C3  UNL     1       6.972 -15.525 113.214  1.00  0.00     0.031 C 
HETATM   11  C4  UNL     1       5.812 -14.991 114.072  1.00  0.00     0.012 C 
HETATM   12  C5  UNL     1       6.212 -16.128 115.042  1.00  0.00     0.027 C 
BRANCH  10  13
HETATM   13  C2  UNL     1       6.522 -16.646 112.391  1.00  0.00    -0.030 C 
HETATM   14  C1  UNL     1       6.801 -16.772 111.085  1.00  0.00     0.007 C 
ENDBRANCH  10  13
ENDBRANCH   1   9
BRANCH   2  15
HETATM   15  C8  UNL     1       7.394 -18.350 116.364  1.00  0.00     0.307 C 
BRANCH  15  16
HETATM   16  N2  UNL     1       7.843 -19.299 117.320  1.00  0.00    -0.073 N 
ATOM     17  H23 UNL     1       8.761 -19.667 117.071  1.00  0.00     0.274 HD
ATOM     18  H22 UNL     1       8.082 -18.848 118.204  1.00  0.00     0.274 HD
ATOM     19  H21 UNL     1       7.170 -20.052 117.462  1.00  0.00     0.274 HD
ENDBRANCH  15  16
ENDBRANCH   2  15
TORSDOF 4
ENDMDL
MODEL 5
REMARK VINA RESULT: -3.974567926      1.427      1.747
REMARK  4 active torsions:
REMARK  status: ('A' for Active; 'I' for Inactive)
REMARK    1  A    between atoms: C2_2  and  C3_3 
REMARK    2  A    between atoms: C6_6  and  N1_7 
REMARK    3  A    between atoms: C7_8  and  C8_9 
REMARK    4  A    between atoms: C8_9  and  N2_10 
ROOT
HETATM    1  N1  UNL     1       8.073 -17.330 114.375  1.00  0.00    -0.304 N 
HETATM    2  C7  UNL     1       8.355 -18.132 115.438  1.00  0.00     0.126 A 
HETATM    3  N3  UNL     1       9.588 -18.634 115.230  1.00  0.00    -0.285 N 
ATOM      4  H3  UNL     1      10.076 -19.273 115.858  1.00  0.00     0.188 HD
HETATM    5  N4  UNL     1      10.068 -18.173 114.094  1.00  0.00    -0.275 N 
ATOM      6  H4  UNL     1      10.980 -18.390 113.693  1.00  0.00     0.189 HD
HETATM    7  C9  UNL     1       9.127 -17.358 113.554  1.00  0.00     0.194 A 
HETATM    8  S1  UNL     1       9.338 -16.589 112.121  1.00  0.00    -0.039 SA
ENDROOT
BRANCH   1   9
HETATM    9  C6  UNL     1       6.849 -16.639 114.260  1.00  0.00     0.101 C 
HETATM   10  C3  UNL     1       6.716 -15.326 115.041  1.00  0.00     0.031 C 
HETATM   11  C4  UNL     1       5.656 -14.982 113.981  1.00  0.00     0.012 C 
HETATM   12  C5  UNL     1       6.543 -15.833 113.042  1.00  0.00     0.027 C 
BRANCH  10  13
HETATM   13  C2  UNL     1       7.844 -14.399 114.951  1.00  0.00    -0.030 C 
HETATM   14  C1  UNL     1       8.643 -14.095 115.984  1.00  0.00     0.007 C 
ENDBRANCH  10  13
ENDBRANCH   1   9
BRANCH   2  15
HETATM   15  C8  UNL     1       7.534 -18.459 116.626  1.00  0.00     0.307 C 
BRANCH  15  16
HETATM   16  N2  UNL     1       8.076 -19.537 117.374  1.00  0.00    -0.073 N 
ATOM     17  H23 UNL     1       7.366 -19.969 117.965  1.00  0.00     0.274 HD
ATOM     18  H22 UNL     1       8.293 -20.332 116.772  1.00  0.00     0.274 HD
ATOM     19  H21 UNL     1       8.890 -19.257 117.921  1.00  0.00     0.274 HD
ENDBRANCH  15  16
ENDBRANCH   2  15
TORSDOF 4
ENDMDL
