MODEL 1
REMARK VINA RESULT: -4.530231375      0.000      0.000
REMARK  5 active torsions:
REMARK  status: ('A' for Active; 'I' for Inactive)
REMARK    1  A    between atoms: C2_2  and  O1_3 
REMARK    2  A    between atoms: C2_2  and  C3_5 
REMARK    3  A    between atoms: C3_5  and  C4_6 
REMARK    4  A    between atoms: C4_6  and  C5_7 
REMARK    5  A    between atoms: C5_7  and  O2_8 
ROOT
HETATM    1  C3  UNL     1       7.304 -16.961 112.466  1.00  0.00     0.129 C 
HETATM    2  O3  UNL     1       6.778 -15.669 112.338  1.00  0.00    -0.226 OA
HETATM    3  O4  UNL     1       6.637 -15.322 113.598  1.00  0.00    -0.229 OA
HETATM    4  C6  UNL     1       7.944 -15.392 114.049  1.00  0.00     0.095 C 
HETATM    5  C7  UNL     1       8.066 -15.411 115.536  1.00  0.00     0.049 C 
HETATM    6  C8  UNL     1       8.659 -14.166 113.535  1.00  0.00     0.049 C 
HETATM    7  C9  UNL     1       8.424 -16.672 113.392  1.00  0.00     0.059 C 
HETATM    8  C10 UNL     1       8.809 -17.718 114.356  1.00  0.00     0.016 C 
ENDROOT
BRANCH   1   9
HETATM    9  C2  UNL     1       6.189 -17.794 113.040  1.00  0.00     0.152 C 
HETATM   10  C1  UNL     1       4.825 -17.271 112.755  1.00  0.00     0.042 C 
BRANCH   9  11
HETATM   11  O1  UNL     1       6.268 -19.136 112.762  1.00  0.00    -0.393 OA
ATOM     12  H1  UNL     1       6.792 -19.291 111.986  1.00  0.00     0.210 HD
ENDBRANCH   9  11
ENDBRANCH   1   9
BRANCH   1  13
HETATM   13  C4  UNL     1       7.668 -17.479 111.132  1.00  0.00     0.070 C 
BRANCH  13  14
HETATM   14  C5  UNL     1       7.376 -16.617 109.961  1.00  0.00     0.167 C 
BRANCH  14  15
HETATM   15  O2  UNL     1       6.074 -16.735 109.475  1.00  0.00    -0.401 OA
ATOM     16  H2  UNL     1       5.966 -16.446 108.577  1.00  0.00     0.209 HD
ENDBRANCH  14  15
ENDBRANCH  13  14
ENDBRANCH   1  13
TORSDOF 5
ENDMDL
MODEL 2
REMARK VINA RESULT: -4.260773956      1.700      3.858
REMARK  5 active torsions:
REMARK  status: ('A' for Active; 'I' for Inactive)
REMARK    1  A    between atoms: C2_2  and  O1_3 
REMARK    2  A    between atoms: C2_2  and  C3_5 
REMARK    3  A    between atoms: C3_5  and  C4_6 
REMARK    4  A    between atoms: C4_6  and  C5_7 
REMARK    5  A    between atoms: C5_7  and  O2_8 
ROOT
HETATM    1  C3  UNL     1       6.647 -17.321 113.568  1.00  0.00     0.129 C 
HETATM    2  O3  UNL     1       6.221 -18.235 112.595  1.00  0.00    -0.226 OA
HETATM    3  O4  UNL     1       6.060 -17.448 111.555  1.00  0.00    -0.229 OA
HETATM    4  C6  UNL     1       7.341 -16.951 111.386  1.00  0.00     0.095 C 
HETATM    5  C7  UNL     1       7.407 -15.745 110.510  1.00  0.00     0.049 C 
HETATM    6  C8  UNL     1       8.161 -18.043 110.744  1.00  0.00     0.049 C 
HETATM    7  C9  UNL     1       7.750 -16.673 112.820  1.00  0.00     0.059 C 
HETATM    8  C10 UNL     1       8.023 -15.250 113.088  1.00  0.00     0.016 C 
ENDROOT
BRANCH   1   9
HETATM    9  C2  UNL     1       5.454 -16.446 113.846  1.00  0.00     0.152 C 
HETATM   10  C1  UNL     1       5.212 -16.182 115.291  1.00  0.00     0.042 C 
BRANCH   9  11
HETATM   11  O1  UNL     1       5.412 -15.281 113.121  1.00  0.00    -0.393 OA
ATOM     12  H1  UNL     1       4.617 -14.795 113.306  1.00  0.00     0.210 HD
ENDBRANCH   9  11
ENDBRANCH   1   9
BRANCH   1  13
HETATM   13  C4  UNL     1       7.021 -18.048 114.798  1.00  0.00     0.070 C 
BRANCH  13  14
HETATM   14  C5  UNL     1       8.455 -18.061 115.175  1.00  0.00     0.167 C 
BRANCH  14  15
HETATM   15  O2  UNL     1       8.939 -19.318 115.538  1.00  0.00    -0.401 OA
ATOM     16  H2  UNL     1       9.588 -19.671 114.941  1.00  0.00     0.209 HD
ENDBRANCH  14  15
ENDBRANCH  13  14
ENDBRANCH   1  13
TORSDOF 5
ENDMDL
MODEL 3
REMARK VINA RESULT: -4.205858740      1.782      3.623
REMARK  5 active torsions:
REMARK  status: ('A' for Active; 'I' for Inactive)
REMARK    1  A    between atoms: C2_2  and  O1_3 
REMARK    2  A    between atoms: C2_2  and  C3_5 
REMARK    3  A    between atoms: C3_5  and  C4_6 
REMARK    4  A    between atoms: C4_6  and  C5_7 
REMARK    5  A    between atoms: C5_7  and  O2_8 
ROOT
HETATM    1  C3  UNL     1       7.162 -16.294 112.649  1.00  0.00     0.129 C 
HETATM    2  O3  UNL     1       8.369 -16.469 113.340  1.00  0.00    -0.226 OA
HETATM    3  O4  UNL     1       8.965 -17.372 112.594  1.00  0.00    -0.229 OA
HETATM    4  C6  UNL     1       9.061 -16.708 111.384  1.00  0.00     0.095 C 
HETATM    5  C7  UNL     1       9.361 -17.604 110.228  1.00  0.00     0.049 C 
HETATM    6  C8  UNL     1      10.187 -15.711 111.510  1.00  0.00     0.049 C 
HETATM    7  C9  UNL     1       7.698 -16.047 111.290  1.00  0.00     0.059 C 
HETATM    8  C10 UNL     1       6.901 -16.507 110.140  1.00  0.00     0.016 C 
ENDROOT
BRANCH   1   9
HETATM    9  C2  UNL     1       6.410 -17.588 112.821  1.00  0.00     0.152 C 
HETATM   10  C1  UNL     1       6.502 -18.171 114.187  1.00  0.00     0.042 C 
BRANCH   9  11
HETATM   11  O1  UNL     1       5.109 -17.562 112.385  1.00  0.00    -0.393 OA
ATOM     12  H1  UNL     1       4.883 -16.706 112.042  1.00  0.00     0.210 HD
ENDBRANCH   9  11
ENDBRANCH   1   9
BRANCH   1  13
HETATM   13  C4  UNL     1       6.395 -15.194 113.267  1.00  0.00     0.070 C 
BRANCH  13  14
HETATM   14  C5  UNL     1       7.079 -14.380 114.301  1.00  0.00     0.167 C 
BRANCH  14  15
HETATM   15  O2  UNL     1       7.000 -14.910 115.588  1.00  0.00    -0.401 OA
ATOM     16  H2  UNL     1       6.881 -14.259 116.270  1.00  0.00     0.209 HD
ENDBRANCH  14  15
ENDBRANCH  13  14
ENDBRANCH   1  13
TORSDOF 5
ENDMDL
MODEL 4
REMARK VINA RESULT: -4.144990471      2.011      3.153
REMARK  5 active torsions:
REMARK  status: ('A' for Active; 'I' for Inactive)
REMARK    1  A    between atoms: C2_2  and  O1_3 
REMARK    2  A    between atoms: C2_2  and  C3_5 
REMARK    3  A    between atoms: C3_5  and  C4_6 
REMARK    4  A    between atoms: C4_6  and  C5_7 
REMARK    5  A    between atoms: C5_7  and  O2_8 
ROOT
HETATM    1  C3  UNL     1       7.140 -16.932 114.534  1.00  0.00     0.129 C 
HETATM    2  O3  UNL     1       8.431 -16.683 114.049  1.00  0.00    -0.226 OA
HETATM    3  O4  UNL     1       9.068 -16.376 115.157  1.00  0.00    -0.229 OA
HETATM    4  C6  UNL     1       8.920 -17.541 115.889  1.00  0.00     0.095 C 
HETATM    5  C7  UNL     1       9.219 -17.379 117.343  1.00  0.00     0.049 C 
HETATM    6  C8  UNL     1       9.888 -18.550 115.321  1.00  0.00     0.049 C 
HETATM    7  C9  UNL     1       7.472 -17.893 115.612  1.00  0.00     0.059 C 
HETATM    8  C10 UNL     1       6.626 -17.895 116.819  1.00  0.00     0.016 C 
ENDROOT
BRANCH   1   9
HETATM    9  C2  UNL     1       6.620 -15.596 114.997  1.00  0.00     0.152 C 
HETATM   10  C1  UNL     1       7.113 -14.439 114.202  1.00  0.00     0.042 C 
BRANCH   9  11
HETATM   11  O1  UNL     1       5.259 -15.533 115.165  1.00  0.00    -0.393 OA
ATOM     12  H1  UNL     1       4.808 -15.773 114.365  1.00  0.00     0.210 HD
ENDBRANCH   9  11
ENDBRANCH   1   9
BRANCH   1  13
HETATM   13  C4  UNL     1       6.290 -17.436 113.437  1.00  0.00     0.070 C 
BRANCH  13  14
HETATM   14  C5  UNL     1       6.879 -17.471 112.077  1.00  0.00     0.167 C 
BRANCH  14  15
HETATM   15  O2  UNL     1       6.047 -16.959 111.081  1.00  0.00    -0.401 OA
ATOM     16  H2  UNL     1       6.449 -16.918 110.222  1.00  0.00     0.209 HD
ENDBRANCH  14  15
ENDBRANCH  13  14
ENDBRANCH   1  13
TORSDOF 5
ENDMDL
MODEL 5
REMARK VINA RESULT: -4.081686625      2.259      3.986
REMARK  5 active torsions:
REMARK  status: ('A' for Active; 'I' for Inactive)
REMARK    1  A    between atoms: C2_2  and  O1_3 
REMARK    2  A    between atoms: C2_2  and  C3_5 
REMARK    3  A    between atoms: C3_5  and  C4_6 
REMARK    4  A    between atoms: C4_6  and  C5_7 
REMARK    5  A    between atoms: C5_7  and  O2_8 
ROOT
HETATM    1  C3  UNL     1       6.938 -16.518 114.881  1.00  0.00     0.129 C 
HETATM    2  O3  UNL     1       7.521 -17.586 114.186  1.00  0.00    -0.226 OA
HETATM    3  O4  UNL     1       8.207 -16.951 113.263  1.00  0.00    -0.229 OA
HETATM    4  C6  UNL     1       9.074 -16.198 114.036  1.00  0.00     0.095 C 
HETATM    5  C7  UNL     1       9.737 -15.090 113.288  1.00  0.00     0.049 C 
HETATM    6  C8  UNL     1      10.147 -17.132 114.539  1.00  0.00     0.049 C 
HETATM    7  C9  UNL     1       8.153 -15.710 115.138  1.00  0.00     0.059 C 
HETATM    8  C10 UNL     1       8.011 -14.244 115.178  1.00  0.00     0.016 C 
ENDROOT
BRANCH   1   9
HETATM    9  C2  UNL     1       5.948 -15.909 113.924  1.00  0.00     0.152 C 
HETATM   10  C1  UNL     1       5.209 -16.900 113.095  1.00  0.00     0.042 C 
BRANCH   9  11
HETATM   11  O1  UNL     1       5.087 -14.999 114.485  1.00  0.00    -0.393 OA
ATOM     12  H1  UNL     1       4.590 -15.393 115.192  1.00  0.00     0.210 HD
ENDBRANCH   9  11
ENDBRANCH   1   9
BRANCH   1  13
HETATM   13  C4  UNL     1       6.223 -17.032 116.066  1.00  0.00     0.070 C 
BRANCH  13  14
HETATM   14  C5  UNL     1       7.027 -17.730 117.099  1.00  0.00     0.167 C 
BRANCH  14  15
HETATM   15  O2  UNL     1       7.581 -18.937 116.672  1.00  0.00    -0.401 OA
ATOM     16  H2  UNL     1       7.661 -19.591 117.357  1.00  0.00     0.209 HD
ENDBRANCH  14  15
ENDBRANCH  13  14
ENDBRANCH   1  13
TORSDOF 5
ENDMDL
