MODEL 1
REMARK VINA RESULT: -4.612897618      0.000      0.000
REMARK  4 active torsions:
REMARK  status: ('A' for Active; 'I' for Inactive)
REMARK    1  A    between atoms: C2_2  and  C9_17 
REMARK    2  A    between atoms: C3_3  and  C4_4 
REMARK    3  A    between atoms: N1_6  and  N2_8 
REMARK    4  A    between atoms: N2_8  and  C6_10 
ROOT
HETATM    1  C4  UNL     1       7.380 -17.718 115.620  1.00  0.00     0.022 C 
HETATM    2  C5  UNL     1       6.248 -17.152 116.340  1.00  0.00     0.069 C 
HETATM    3  N1  UNL     1       7.997 -18.717 116.148  1.00  0.00    -0.303 N 
ATOM      4  H1  UNL     1       7.697 -19.095 117.047  1.00  0.00     0.186 HD
ENDROOT
BRANCH   3   5
HETATM    5  N2  UNL     1       9.080 -19.274 115.476  1.00  0.00    -0.271 N 
ATOM      6  H2  UNL     1       9.086 -19.270 114.456  1.00  0.00     0.190 HD
BRANCH   5   7
HETATM    7  C6  UNL     1      10.194 -19.855 116.181  1.00  0.00     0.190 C 
HETATM    8  N3  UNL     1      11.231 -19.201 116.586  1.00  0.00    -0.360 N 
HETATM    9  C7  UNL     1      12.169 -20.060 117.257  1.00  0.00     0.142 C 
ATOM     10  H3  UNL     1      11.368 -18.200 116.448  1.00  0.00     0.162 HD
HETATM   11  C8  UNL     1      11.331 -21.252 117.611  1.00  0.00     0.142 C 
HETATM   12  N4  UNL     1      10.329 -21.224 116.539  1.00  0.00    -0.360 N 
ATOM     13  H4  UNL     1       9.835 -22.019 116.135  1.00  0.00     0.162 HD
ENDBRANCH   5   7
ENDBRANCH   3   5
BRANCH   1  14
HETATM   14  C3  UNL     1       7.833 -17.215 114.351  1.00  0.00     0.029 C 
HETATM   15  C2  UNL     1       7.321 -17.274 113.173  1.00  0.00    -0.079 C 
HETATM   16  C1  UNL     1       6.047 -17.927 112.846  1.00  0.00     0.044 C 
BRANCH  15  17
HETATM   17  C9  UNL     1       8.032 -16.645 112.013  1.00  0.00     0.006 C 
HETATM   18  C10 UNL     1       8.578 -15.284 112.299  1.00  0.00     0.014 C 
HETATM   19  C11 UNL     1       7.127 -16.622 110.808  1.00  0.00     0.014 C 
ENDBRANCH  15  17
ENDBRANCH   1  14
TORSDOF 4
ENDMDL
MODEL 2
REMARK VINA RESULT: -4.582043323      5.674      7.942
REMARK  4 active torsions:
REMARK  status: ('A' for Active; 'I' for Inactive)
REMARK    1  A    between atoms: C2_2  and  C9_17 
REMARK    2  A    between atoms: C3_3  and  C4_4 
REMARK    3  A    between atoms: N1_6  and  N2_8 
REMARK    4  A    between atoms: N2_8  and  C6_10 
ROOT
HETATM    1  C4  UNL     1      11.152 -19.735 108.761  1.00  0.00     0.022 C 
HETATM    2  C5  UNL     1      12.491 -19.483 108.247  1.00  0.00     0.069 C 
HETATM    3  N1  UNL     1      10.692 -18.948 109.670  1.00  0.00    -0.303 N 
ATOM      4  H1  UNL     1      11.256 -18.171 110.016  1.00  0.00     0.186 HD
ENDROOT
BRANCH   3   5
HETATM    5  N2  UNL     1       9.415 -19.170 110.174  1.00  0.00    -0.271 N 
ATOM      6  H2  UNL     1       9.123 -20.125 110.382  1.00  0.00     0.190 HD
BRANCH   5   7
HETATM    7  C6  UNL     1       8.493 -18.089 110.410  1.00  0.00     0.190 C 
HETATM    8  N3  UNL     1       7.978 -17.345 109.488  1.00  0.00    -0.360 N 
HETATM    9  C7  UNL     1       7.096 -16.353 110.039  1.00  0.00     0.142 C 
ATOM     10  H3  UNL     1       8.174 -17.449 108.492  1.00  0.00     0.162 HD
HETATM   11  C8  UNL     1       6.787 -16.904 111.399  1.00  0.00     0.142 C 
HETATM   12  N4  UNL     1       8.008 -17.671 111.679  1.00  0.00    -0.360 N 
ATOM     13  H4  UNL     1       8.421 -17.863 112.591  1.00  0.00     0.162 HD
ENDBRANCH   5   7
ENDBRANCH   3   5
BRANCH   1  14
HETATM   14  C3  UNL     1      10.325 -20.818 108.298  1.00  0.00     0.029 C 
HETATM   15  C2  UNL     1       9.593 -20.949 107.249  1.00  0.00    -0.079 C 
HETATM   16  C1  UNL     1       9.434 -19.927 106.206  1.00  0.00     0.044 C 
BRANCH  15  17
HETATM   17  C9  UNL     1       8.827 -22.217 107.022  1.00  0.00     0.006 C 
HETATM   18  C10 UNL     1       9.646 -23.458 107.174  1.00  0.00     0.014 C 
HETATM   19  C11 UNL     1       8.152 -22.175 105.675  1.00  0.00     0.014 C 
ENDBRANCH  15  17
ENDBRANCH   1  14
TORSDOF 4
ENDMDL
MODEL 3
REMARK VINA RESULT: -4.506522254      2.605      6.455
REMARK  4 active torsions:
REMARK  status: ('A' for Active; 'I' for Inactive)
REMARK    1  A    between atoms: C2_2  and  C9_17 
REMARK    2  A    between atoms: C3_3  and  C4_4 
REMARK    3  A    between atoms: N1_6  and  N2_8 
REMARK    4  A    between atoms: N2_8  and  C6_10 
ROOT
HETATM    1  C4  UNL     1       9.797 -19.324 116.443  1.00  0.00     0.022 C 
HETATM    2  C5  UNL     1      11.047 -20.006 116.140  1.00  0.00     0.069 C 
HETATM    3  N1  UNL     1       8.906 -19.248 115.517  1.00  0.00    -0.303 N 
ATOM      4  H1  UNL     1       9.079 -19.656 114.598  1.00  0.00     0.186 HD
ENDROOT
BRANCH   3   5
HETATM    5  N2  UNL     1       7.704 -18.601 115.787  1.00  0.00    -0.271 N 
ATOM      6  H2  UNL     1       7.342 -18.605 116.740  1.00  0.00     0.190 HD
BRANCH   5   7
HETATM    7  C6  UNL     1       6.957 -17.927 114.757  1.00  0.00     0.190 C 
HETATM    8  N3  UNL     1       6.600 -18.462 113.636  1.00  0.00    -0.360 N 
HETATM    9  C7  UNL     1       5.866 -17.534 112.818  1.00  0.00     0.142 C 
ATOM     10  H3  UNL     1       6.812 -19.422 113.365  1.00  0.00     0.162 HD
HETATM   11  C8  UNL     1       5.426 -16.497 113.807  1.00  0.00     0.142 C 
HETATM   12  N4  UNL     1       6.499 -16.583 114.805  1.00  0.00    -0.360 N 
ATOM     13  H4  UNL     1       6.844 -15.834 115.407  1.00  0.00     0.162 HD
ENDBRANCH   5   7
ENDBRANCH   3   5
BRANCH   1  14
HETATM   14  C3  UNL     1       9.515 -18.736 117.726  1.00  0.00     0.029 C 
HETATM   15  C2  UNL     1       9.130 -19.253 118.839  1.00  0.00    -0.079 C 
HETATM   16  C1  UNL     1       8.875 -20.683 119.054  1.00  0.00     0.044 C 
BRANCH  15  17
HETATM   17  C9  UNL     1       8.914 -18.379 120.037  1.00  0.00     0.006 C 
HETATM   18  C10 UNL     1       8.818 -19.126 121.327  1.00  0.00     0.014 C 
HETATM   19  C11 UNL     1       7.702 -17.508 119.825  1.00  0.00     0.014 C 
ENDBRANCH  15  17
ENDBRANCH   1  14
TORSDOF 4
ENDMDL
MODEL 4
REMARK VINA RESULT: -4.476889978      2.565      6.298
REMARK  4 active torsions:
REMARK  status: ('A' for Active; 'I' for Inactive)
REMARK    1  A    between atoms: C2_2  and  C9_17 
REMARK    2  A    between atoms: C3_3  and  C4_4 
REMARK    3  A    between atoms: N1_6  and  N2_8 
REMARK    4  A    between atoms: N2_8  and  C6_10 
ROOT
HETATM    1  C4  UNL     1       9.729 -19.037 116.250  1.00  0.00     0.022 C 
HETATM    2  C5  UNL     1      11.107 -19.431 115.990  1.00  0.00     0.069 C 
HETATM    3  N1  UNL     1       8.889 -19.086 115.276  1.00  0.00    -0.303 N 
ATOM      4  H1  UNL     1       9.188 -19.391 114.349  1.00  0.00     0.186 HD
ENDROOT
BRANCH   3   5
HETATM    5  N2  UNL     1       7.567 -18.716 115.504  1.00  0.00    -0.271 N 
ATOM      6  H2  UNL     1       7.135 -18.946 116.399  1.00  0.00     0.190 HD
BRANCH   5   7
HETATM    7  C6  UNL     1       6.793 -18.016 114.512  1.00  0.00     0.190 C 
HETATM    8  N3  UNL     1       6.261 -16.850 114.679  1.00  0.00    -0.360 N 
HETATM    9  C7  UNL     1       5.550 -16.420 113.506  1.00  0.00     0.142 C 
ATOM     10  H3  UNL     1       6.336 -16.304 115.538  1.00  0.00     0.162 HD
HETATM   11  C8  UNL     1       6.122 -17.296 112.432  1.00  0.00     0.142 C 
HETATM   12  N4  UNL     1       6.492 -18.488 113.205  1.00  0.00    -0.360 N 
ATOM     13  H4  UNL     1       6.526 -19.452 112.874  1.00  0.00     0.162 HD
ENDBRANCH   5   7
ENDBRANCH   3   5
BRANCH   1  14
HETATM   14  C3  UNL     1       9.268 -18.603 117.542  1.00  0.00     0.029 C 
HETATM   15  C2  UNL     1       8.907 -19.258 118.589  1.00  0.00    -0.079 C 
HETATM   16  C1  UNL     1       8.891 -20.723 118.694  1.00  0.00     0.044 C 
BRANCH  15  17
HETATM   17  C9  UNL     1       8.467 -18.524 119.819  1.00  0.00     0.006 C 
HETATM   18  C10 UNL     1       7.669 -17.292 119.540  1.00  0.00     0.014 C 
HETATM   19  C11 UNL     1       9.660 -18.211 120.685  1.00  0.00     0.014 C 
ENDBRANCH  15  17
ENDBRANCH   1  14
TORSDOF 4
ENDMDL
MODEL 5
REMARK VINA RESULT: -4.461447220      4.049      5.567
REMARK  4 active torsions:
REMARK  status: ('A' for Active; 'I' for Inactive)
REMARK    1  A    between atoms: C2_2  and  C9_17 
REMARK    2  A    between atoms: C3_3  and  C4_4 
REMARK    3  A    between atoms: N1_6  and  N2_8 
REMARK    4  A    between atoms: N2_8  and  C6_10 
ROOT
HETATM    1  C4  UNL     1       6.054 -15.817 114.210  1.00  0.00     0.022 C 
HETATM    2  C5  UNL     1       5.512 -16.318 115.466  1.00  0.00     0.069 C 
HETATM    3  N1  UNL     1       5.713 -16.412 113.121  1.00  0.00    -0.303 N 
ATOM      4  H1  UNL     1       5.081 -17.213 113.144  1.00  0.00     0.186 HD
ENDROOT
BRANCH   3   5
HETATM    5  N2  UNL     1       6.219 -15.949 111.910  1.00  0.00    -0.271 N 
ATOM      6  H2  UNL     1       5.933 -15.030 111.573  1.00  0.00     0.190 HD
BRANCH   5   7
HETATM    7  C6  UNL     1       7.136 -16.730 111.122  1.00  0.00     0.190 C 
HETATM    8  N3  UNL     1       7.276 -16.630 109.841  1.00  0.00    -0.360 N 
HETATM    9  C7  UNL     1       8.269 -17.545 109.345  1.00  0.00     0.142 C 
ATOM     10  H3  UNL     1       6.748 -15.984 109.255  1.00  0.00     0.162 HD
HETATM   11  C8  UNL     1       9.048 -17.889 110.579  1.00  0.00     0.142 C 
HETATM   12  N4  UNL     1       8.022 -17.724 111.617  1.00  0.00    -0.360 N 
ATOM     13  H4  UNL     1       7.959 -18.219 112.507  1.00  0.00     0.162 HD
ENDBRANCH   5   7
ENDBRANCH   3   5
BRANCH   1  14
HETATM   14  C3  UNL     1       6.947 -14.691 114.135  1.00  0.00     0.029 C 
HETATM   15  C2  UNL     1       8.223 -14.598 114.265  1.00  0.00    -0.079 C 
HETATM   16  C1  UNL     1       9.120 -15.728 114.541  1.00  0.00     0.044 C 
BRANCH  15  17
HETATM   17  C9  UNL     1       8.896 -13.266 114.130  1.00  0.00     0.006 C 
HETATM   18  C10 UNL     1      10.360 -13.290 114.428  1.00  0.00     0.014 C 
HETATM   19  C11 UNL     1       8.187 -12.245 114.983  1.00  0.00     0.014 C 
ENDBRANCH  15  17
ENDBRANCH   1  14
TORSDOF 4
ENDMDL
