MODEL 1
REMARK VINA RESULT: -6.975065360      0.000      0.000
REMARK  4 active torsions:
REMARK  status: ('A' for Active; 'I' for Inactive)
REMARK       I    between atoms: C2_2  and  N1_4 
REMARK    1  A    between atoms: N1_4  and  C3_5 
REMARK    2  A    between atoms: C4_6  and  O2_7 
REMARK    3  A    between atoms: C6_11  and  O3_12 
REMARK    4  A    between atoms: N3_19  and  O4_20 
ROOT
HETATM    1  C3  UNL     1      13.627  18.223  34.121  1.00  0.00     0.164 A 
HETATM    2  C4  UNL     1      12.732  19.238  34.420  1.00  0.00     0.135 A 
HETATM    3  C5  UNL     1      12.222  19.279  35.688  1.00  0.00     0.117 A 
HETATM    4  N2  UNL     1      11.292  20.332  36.014  1.00  0.00    -0.096 NA
HETATM    5  C6  UNL     1      12.571  18.356  36.648  1.00  0.00     0.107 A 
HETATM    6  C7  UNL     1      13.474  17.312  36.383  1.00  0.00     0.056 A 
HETATM    7  C8  UNL     1      13.905  16.339  37.230  1.00  0.00     0.119 A 
HETATM    8  C9  UNL     1      14.795  15.429  36.738  1.00  0.00     0.133 A 
HETATM    9  S1  UNL     1      15.012  15.938  35.123  1.00  0.00    -0.063 SA
HETATM   10  C10 UNL     1      13.971  17.289  35.115  1.00  0.00     0.066 A 
HETATM   11  N3  UNL     1      15.335  14.350  37.532  1.00  0.00    -0.245 N 
HETATM   12  C11 UNL     1      15.016  14.229  38.939  1.00  0.00     0.136 C 
HETATM   13  C12 UNL     1      15.928  15.231  39.662  1.00  0.00     0.037 C 
HETATM   14  C13 UNL     1      13.574  14.741  39.056  1.00  0.00     0.203 C 
HETATM   15  O5  UNL     1      13.572  16.096  38.599  1.00  0.00    -0.345 OA
ENDROOT
BRANCH   1  16
HETATM   16  N1  UNL     1      14.246  18.059  32.910  1.00  0.00    -0.367 NA
HETATM   17  C2  UNL     1      14.847  17.899  31.735  1.00  0.00     0.288 C 
HETATM   18  C1  UNL     1      15.175  19.163  30.929  1.00  0.00     0.135 C 
HETATM   19  O1  UNL     1      15.211  16.844  31.141  1.00  0.00    -0.258 OA
ENDBRANCH   1  16
BRANCH   2  20
HETATM   20  O2  UNL     1      12.432  20.125  33.403  1.00  0.00    -0.356 OA
ATOM     21  H2  UNL     1      12.053  19.759  32.612  1.00  0.00     0.218 HD
ENDBRANCH   2  20
BRANCH   5  22
HETATM   22  O3  UNL     1      11.980  18.518  37.886  1.00  0.00    -0.358 OA
ATOM     23  H3  UNL     1      11.976  17.753  38.449  1.00  0.00     0.217 HD
ENDBRANCH   5  22
BRANCH  11  24
HETATM   24  O4  UNL     1      16.138  13.487  36.871  1.00  0.00    -0.286 OA
ATOM     25  H4  UNL     1      17.065  13.564  37.062  1.00  0.00     0.244 HD
ENDBRANCH  11  24
TORSDOF 4
ENDMDL
MODEL 2
REMARK VINA RESULT: -6.939505367      6.442      8.607
REMARK  4 active torsions:
REMARK  status: ('A' for Active; 'I' for Inactive)
REMARK       I    between atoms: C2_2  and  N1_4 
REMARK    1  A    between atoms: N1_4  and  C3_5 
REMARK    2  A    between atoms: C4_6  and  O2_7 
REMARK    3  A    between atoms: C6_11  and  O3_12 
REMARK    4  A    between atoms: N3_19  and  O4_20 
ROOT
HETATM    1  C3  UNL     1       7.377  14.490  41.069  1.00  0.00     0.164 A 
HETATM    2  C4  UNL     1       6.734  14.523  42.296  1.00  0.00     0.135 A 
HETATM    3  C5  UNL     1       7.446  14.983  43.370  1.00  0.00     0.117 A 
HETATM    4  N2  UNL     1       6.788  15.025  44.654  1.00  0.00    -0.096 NA
HETATM    5  C6  UNL     1       8.752  15.402  43.260  1.00  0.00     0.107 A 
HETATM    6  C7  UNL     1       9.438  15.382  42.032  1.00  0.00     0.056 A 
HETATM    7  C8  UNL     1      10.718  15.765  41.779  1.00  0.00     0.119 A 
HETATM    8  C9  UNL     1      11.162  15.655  40.493  1.00  0.00     0.133 A 
HETATM    9  S1  UNL     1       9.805  15.028  39.670  1.00  0.00    -0.063 SA
HETATM   10  C10 UNL     1       8.712  14.922  40.975  1.00  0.00     0.066 A 
HETATM   11  N3  UNL     1      12.497  16.031  40.089  1.00  0.00    -0.245 N 
HETATM   12  C11 UNL     1      13.419  16.631  41.030  1.00  0.00     0.136 C 
HETATM   13  C12 UNL     1      13.019  18.111  41.121  1.00  0.00     0.037 C 
HETATM   14  C13 UNL     1      13.084  15.973  42.375  1.00  0.00     0.203 C 
HETATM   15  O5  UNL     1      11.717  16.280  42.663  1.00  0.00    -0.345 OA
ENDROOT
BRANCH   1  16
HETATM   16  N1  UNL     1       6.798  14.084  39.896  1.00  0.00    -0.367 NA
HETATM   17  C2  UNL     1       6.236  13.689  38.758  1.00  0.00     0.288 C 
HETATM   18  C1  UNL     1       6.707  14.364  37.462  1.00  0.00     0.135 C 
HETATM   19  O1  UNL     1       5.344  12.818  38.546  1.00  0.00    -0.258 OA
ENDBRANCH   1  16
BRANCH   2  20
HETATM   20  O2  UNL     1       5.423  14.086  42.327  1.00  0.00    -0.356 OA
ATOM     21  H2  UNL     1       4.790  14.657  42.745  1.00  0.00     0.218 HD
ENDBRANCH   2  20
BRANCH   5  22
HETATM   22  O3  UNL     1       9.348  15.842  44.425  1.00  0.00    -0.358 OA
ATOM     23  H3  UNL     1       9.686  16.729  44.411  1.00  0.00     0.217 HD
ENDBRANCH   5  22
BRANCH  11  24
HETATM   24  O4  UNL     1      12.805  15.781  38.798  1.00  0.00    -0.286 OA
ATOM     25  H4  UNL     1      12.311  16.278  38.156  1.00  0.00     0.244 HD
ENDBRANCH  11  24
TORSDOF 4
ENDMDL
MODEL 3
REMARK VINA RESULT: -6.935057155      4.681      7.266
REMARK  4 active torsions:
REMARK  status: ('A' for Active; 'I' for Inactive)
REMARK       I    between atoms: C2_2  and  N1_4 
REMARK    1  A    between atoms: N1_4  and  C3_5 
REMARK    2  A    between atoms: C4_6  and  O2_7 
REMARK    3  A    between atoms: C6_11  and  O3_12 
REMARK    4  A    between atoms: N3_19  and  O4_20 
ROOT
HETATM    1  C3  UNL     1       9.754  16.211  41.469  1.00  0.00     0.164 A 
HETATM    2  C4  UNL     1       9.686  17.389  42.196  1.00  0.00     0.135 A 
HETATM    3  C5  UNL     1      10.810  18.165  42.250  1.00  0.00     0.117 A 
HETATM    4  N2  UNL     1      10.753  19.396  43.002  1.00  0.00    -0.096 NA
HETATM    5  C6  UNL     1      11.977  17.811  41.613  1.00  0.00     0.107 A 
HETATM    6  C7  UNL     1      12.086  16.624  40.865  1.00  0.00     0.056 A 
HETATM    7  C8  UNL     1      13.168  16.153  40.189  1.00  0.00     0.119 A 
HETATM    8  C9  UNL     1      13.026  14.967  39.529  1.00  0.00     0.133 A 
HETATM    9  S1  UNL     1      11.410  14.533  39.860  1.00  0.00    -0.063 SA
HETATM   10  C10 UNL     1      10.956  15.865  40.824  1.00  0.00     0.066 A 
HETATM   11  N3  UNL     1      14.094  14.359  38.770  1.00  0.00    -0.245 N 
HETATM   12  C11 UNL     1      15.365  15.033  38.600  1.00  0.00     0.136 C 
HETATM   13  C12 UNL     1      15.144  16.065  37.483  1.00  0.00     0.037 C 
HETATM   14  C13 UNL     1      15.575  15.802  39.911  1.00  0.00     0.203 C 
HETATM   15  O5  UNL     1      14.478  16.708  40.046  1.00  0.00    -0.345 OA
ENDROOT
BRANCH   1  16
HETATM   16  N1  UNL     1       8.712  15.339  41.295  1.00  0.00    -0.367 NA
HETATM   17  C2  UNL     1       7.701  14.493  41.127  1.00  0.00     0.288 C 
HETATM   18  C1  UNL     1       7.215  14.244  39.693  1.00  0.00     0.135 C 
HETATM   19  O1  UNL     1       7.042  13.829  41.978  1.00  0.00    -0.258 OA
ENDBRANCH   1  16
BRANCH   2  20
HETATM   20  O2  UNL     1       8.479  17.676  42.808  1.00  0.00    -0.356 OA
ATOM     21  H2  UNL     1       8.327  17.286  43.660  1.00  0.00     0.218 HD
ENDBRANCH   2  20
BRANCH   5  22
HETATM   22  O3  UNL     1      13.034  18.689  41.751  1.00  0.00    -0.358 OA
ATOM     23  H3  UNL     1      13.694  18.449  42.391  1.00  0.00     0.217 HD
ENDBRANCH   5  22
BRANCH  11  24
HETATM   24  O4  UNL     1      13.818  13.144  38.248  1.00  0.00    -0.286 OA
ATOM     25  H4  UNL     1      14.061  13.026  37.337  1.00  0.00     0.244 HD
ENDBRANCH  11  24
TORSDOF 4
ENDMDL
MODEL 4
REMARK VINA RESULT: -6.907546965      5.106      7.251
REMARK  4 active torsions:
REMARK  status: ('A' for Active; 'I' for Inactive)
REMARK       I    between atoms: C2_2  and  N1_4 
REMARK    1  A    between atoms: N1_4  and  C3_5 
REMARK    2  A    between atoms: C4_6  and  O2_7 
REMARK    3  A    between atoms: C6_11  and  O3_12 
REMARK    4  A    between atoms: N3_19  and  O4_20 
ROOT
HETATM    1  C3  UNL     1       8.875  17.720  41.110  1.00  0.00     0.164 A 
HETATM    2  C4  UNL     1       8.981  18.659  42.125  1.00  0.00     0.135 A 
HETATM    3  C5  UNL     1      10.226  18.897  42.638  1.00  0.00     0.117 A 
HETATM    4  N2  UNL     1      10.351  19.873  43.694  1.00  0.00    -0.096 NA
HETATM    5  C6  UNL     1      11.346  18.242  42.180  1.00  0.00     0.107 A 
HETATM    6  C7  UNL     1      11.279  17.284  41.152  1.00  0.00     0.056 A 
HETATM    7  C8  UNL     1      12.297  16.567  40.605  1.00  0.00     0.119 A 
HETATM    8  C9  UNL     1      11.980  15.691  39.607  1.00  0.00     0.133 A 
HETATM    9  S1  UNL     1      10.291  15.878  39.452  1.00  0.00    -0.063 SA
HETATM   10  C10 UNL     1      10.031  17.061  40.654  1.00  0.00     0.066 A 
HETATM   11  N3  UNL     1      12.965  14.873  38.939  1.00  0.00    -0.245 N 
HETATM   12  C11 UNL     1      14.375  15.006  39.243  1.00  0.00     0.136 C 
HETATM   13  C12 UNL     1      14.856  16.240  38.465  1.00  0.00     0.037 C 
HETATM   14  C13 UNL     1      14.418  15.351  40.738  1.00  0.00     0.203 C 
HETATM   15  O5  UNL     1      13.694  16.572  40.908  1.00  0.00    -0.345 OA
ENDROOT
BRANCH   1  16
HETATM   16  N1  UNL     1       7.709  17.388  40.473  1.00  0.00    -0.367 NA
HETATM   17  C2  UNL     1       6.578  17.064  39.854  1.00  0.00     0.288 C 
HETATM   18  C1  UNL     1       5.567  18.189  39.589  1.00  0.00     0.135 C 
HETATM   19  O1  UNL     1       6.171  15.945  39.428  1.00  0.00    -0.258 OA
ENDBRANCH   1  16
BRANCH   2  20
HETATM   20  O2  UNL     1       7.811  19.273  42.531  1.00  0.00    -0.356 OA
ATOM     21  H2  UNL     1       7.258  19.636  41.850  1.00  0.00     0.218 HD
ENDBRANCH   2  20
BRANCH   5  22
HETATM   22  O3  UNL     1      12.538  18.582  42.788  1.00  0.00    -0.358 OA
ATOM     23  H3  UNL     1      13.300  18.080  42.522  1.00  0.00     0.217 HD
ENDBRANCH   5  22
BRANCH  11  24
HETATM   24  O4  UNL     1      12.476  13.998  38.033  1.00  0.00    -0.286 OA
ATOM     25  H4  UNL     1      11.594  13.688  38.200  1.00  0.00     0.244 HD
ENDBRANCH  11  24
TORSDOF 4
ENDMDL
MODEL 5
REMARK VINA RESULT: -6.802812123      3.794      6.126
REMARK  4 active torsions:
REMARK  status: ('A' for Active; 'I' for Inactive)
REMARK       I    between atoms: C2_2  and  N1_4 
REMARK    1  A    between atoms: N1_4  and  C3_5 
REMARK    2  A    between atoms: C4_6  and  O2_7 
REMARK    3  A    between atoms: C6_11  and  O3_12 
REMARK    4  A    between atoms: N3_19  and  O4_20 
ROOT
HETATM    1  C3  UNL     1      13.741  16.481  38.316  1.00  0.00     0.164 A 
HETATM    2  C4  UNL     1      14.864  15.846  38.821  1.00  0.00     0.135 A 
HETATM    3  C5  UNL     1      14.812  15.400  40.113  1.00  0.00     0.117 A 
HETATM    4  N2  UNL     1      15.973  14.735  40.652  1.00  0.00    -0.096 NA
HETATM    5  C6  UNL     1      13.695  15.566  40.901  1.00  0.00     0.107 A 
HETATM    6  C7  UNL     1      12.537  16.205  40.424  1.00  0.00     0.056 A 
HETATM    7  C8  UNL     1      11.371  16.435  41.087  1.00  0.00     0.119 A 
HETATM    8  C9  UNL     1      10.379  17.078  40.404  1.00  0.00     0.133 A 
HETATM    9  S1  UNL     1      11.080  17.349  38.872  1.00  0.00    -0.063 SA
HETATM   10  C10 UNL     1      12.609  16.641  39.136  1.00  0.00     0.066 A 
HETATM   11  N3  UNL     1       9.093  17.378  40.988  1.00  0.00    -0.245 N 
HETATM   12  C11 UNL     1       8.757  16.930  42.323  1.00  0.00     0.136 C 
HETATM   13  C12 UNL     1       8.358  15.453  42.180  1.00  0.00     0.037 C 
HETATM   14  C13 UNL     1      10.082  16.983  43.095  1.00  0.00     0.203 C 
HETATM   15  O5  UNL     1      10.993  16.107  42.426  1.00  0.00    -0.345 OA
ENDROOT
BRANCH   1  16
HETATM   16  N1  UNL     1      13.623  16.959  37.038  1.00  0.00    -0.367 NA
HETATM   17  C2  UNL     1      13.508  17.423  35.797  1.00  0.00     0.288 C 
HETATM   18  C1  UNL     1      14.381  16.775  34.714  1.00  0.00     0.135 C 
HETATM   19  O1  UNL     1      12.775  18.343  35.335  1.00  0.00    -0.258 OA
ENDBRANCH   1  16
BRANCH   2  20
HETATM   20  O2  UNL     1      15.946  15.718  37.970  1.00  0.00    -0.356 OA
ATOM     21  H2  UNL     1      15.910  16.205  37.155  1.00  0.00     0.218 HD
ENDBRANCH   2  20
BRANCH   5  22
HETATM   22  O3  UNL     1      13.781  15.067  42.186  1.00  0.00    -0.358 OA
ATOM     23  H3  UNL     1      14.200  14.219  42.276  1.00  0.00     0.217 HD
ENDBRANCH   5  22
BRANCH  11  24
HETATM   24  O4  UNL     1       8.253  18.094  40.208  1.00  0.00    -0.286 OA
ATOM     25  H4  UNL     1       7.951  18.914  40.579  1.00  0.00     0.244 HD
ENDBRANCH  11  24
TORSDOF 4
ENDMDL
