MODEL 1
REMARK VINA RESULT: -7.740104087      0.000      0.000
REMARK  6 active torsions:
REMARK  status: ('A' for Active; 'I' for Inactive)
REMARK    1  A    between atoms: C6_6  and  O1_7 
REMARK    2  A    between atoms: C10_15  and  C11_16 
REMARK    3  A    between atoms: C12_18  and  O3_19 
REMARK    4  A    between atoms: C13_21  and  O4_22 
REMARK    5  A    between atoms: C14_24  and  O5_25 
REMARK    6  A    between atoms: C15_27  and  O6_28 
ROOT
HETATM    1  C1  UNL     1      10.686  14.260  39.107  1.00  0.00     0.017 C 
HETATM    2  C2  UNL     1      11.077  15.457  38.291  1.00  0.00     0.034 C 
HETATM    3  C3  UNL     1      11.857  15.148  37.074  1.00  0.00    -0.024 C 
HETATM    4  C4  UNL     1      13.044  14.655  36.916  1.00  0.00    -0.028 C 
HETATM    5  C5  UNL     1      14.072  14.214  37.881  1.00  0.00     0.058 C 
HETATM    6  C6  UNL     1      15.213  15.198  37.982  1.00  0.00     0.122 C 
HETATM    7  C7  UNL     1      15.699  15.516  39.327  1.00  0.00     0.037 C 
HETATM    8  C8  UNL     1      14.777  15.338  40.478  1.00  0.00     0.055 C 
HETATM    9  C9  UNL     1      13.712  16.358  40.470  1.00  0.00    -0.007 C 
HETATM   10  N1  UNL     1      14.063  17.587  40.487  1.00  0.00    -0.405 N 
ATOM     11  H11 UNL     1      13.327  18.293  40.481  1.00  0.00     0.155 HD
ATOM     12  H12 UNL     1      15.062  17.793  40.501  1.00  0.00     0.155 HD
HETATM   13  C10 UNL     1      12.255  16.058  40.449  1.00  0.00     0.120 C 
HETATM   14  C15 UNL     1      11.632  16.522  39.179  1.00  0.00     0.141 C 
ENDROOT
BRANCH  13  15
HETATM   15  C11 UNL     1      11.580  16.606  41.668  1.00  0.00     0.104 A 
HETATM   16  O2  UNL     1      11.223  15.849  42.673  1.00  0.00    -0.286 OA
HETATM   17  C12 UNL     1      10.654  16.559  43.614  1.00  0.00     0.220 A 
HETATM   18  C13 UNL     1      10.631  17.860  43.211  1.00  0.00     0.160 A 
HETATM   19  C14 UNL     1      11.232  17.883  41.949  1.00  0.00     0.135 A 
BRANCH  17  20
HETATM   20  O3  UNL     1      10.146  16.104  44.829  1.00  0.00    -0.339 OA
ATOM     21  H3  UNL     1       9.826  16.628  45.553  1.00  0.00     0.220 HD
ENDBRANCH  17  20
BRANCH  18  22
HETATM   22  O4  UNL     1      10.134  18.979  43.860  1.00  0.00    -0.354 OA
ATOM     23  H4  UNL     1       9.933  19.842  43.515  1.00  0.00     0.218 HD
ENDBRANCH  18  22
BRANCH  19  24
HETATM   24  O5  UNL     1      11.432  18.980  41.154  1.00  0.00    -0.356 OA
ATOM     25  H5  UNL     1      11.021  19.157  40.315  1.00  0.00     0.218 HD
ENDBRANCH  19  24
ENDBRANCH  13  15
BRANCH  14  26
HETATM   26  O6  UNL     1      12.424  17.443  38.477  1.00  0.00    -0.394 OA
ATOM     27  H6  UNL     1      12.294  17.391  37.538  1.00  0.00     0.210 HD
ENDBRANCH  14  26
BRANCH   6  28
HETATM   28  O1  UNL     1      16.304  14.846  37.166  1.00  0.00    -0.395 OA
ATOM     29  H1  UNL     1      16.760  15.605  36.819  1.00  0.00     0.210 HD
ENDBRANCH   6  28
TORSDOF 6
ENDMDL
MODEL 2
REMARK VINA RESULT: -7.504579252      1.353      1.431
REMARK  6 active torsions:
REMARK  status: ('A' for Active; 'I' for Inactive)
REMARK    1  A    between atoms: C6_6  and  O1_7 
REMARK    2  A    between atoms: C10_15  and  C11_16 
REMARK    3  A    between atoms: C12_18  and  O3_19 
REMARK    4  A    between atoms: C13_21  and  O4_22 
REMARK    5  A    between atoms: C14_24  and  O5_25 
REMARK    6  A    between atoms: C15_27  and  O6_28 
ROOT
HETATM    1  C1  UNL     1      10.293  15.135  39.446  1.00  0.00     0.017 C 
HETATM    2  C2  UNL     1      10.986  16.055  38.483  1.00  0.00     0.034 C 
HETATM    3  C3  UNL     1      11.765  15.372  37.429  1.00  0.00    -0.024 C 
HETATM    4  C4  UNL     1      12.828  14.635  37.486  1.00  0.00    -0.028 C 
HETATM    5  C5  UNL     1      13.668  14.192  38.618  1.00  0.00     0.058 C 
HETATM    6  C6  UNL     1      14.983  14.933  38.670  1.00  0.00     0.122 C 
HETATM    7  C7  UNL     1      15.431  15.400  39.986  1.00  0.00     0.037 C 
HETATM    8  C8  UNL     1      14.414  15.629  41.044  1.00  0.00     0.055 C 
HETATM    9  C9  UNL     1      13.594  16.818  40.746  1.00  0.00    -0.007 C 
HETATM   10  N1  UNL     1      14.197  17.935  40.589  1.00  0.00    -0.405 N 
ATOM     11  H11 UNL     1      13.630  18.757  40.383  1.00  0.00     0.155 HD
ATOM     12  H12 UNL     1      15.213  17.939  40.675  1.00  0.00     0.155 HD
HETATM   13  C10 UNL     1      12.111  16.812  40.620  1.00  0.00     0.120 C 
HETATM   14  C15 UNL     1      11.692  17.139  39.229  1.00  0.00     0.141 C 
ENDROOT
BRANCH  13  15
HETATM   15  C11 UNL     1      11.485  17.703  41.647  1.00  0.00     0.104 A 
HETATM   16  O2  UNL     1      12.128  18.114  42.708  1.00  0.00    -0.286 OA
HETATM   17  C12 UNL     1      11.369  18.879  43.450  1.00  0.00     0.220 A 
HETATM   18  C13 UNL     1      10.151  18.983  42.847  1.00  0.00     0.160 A 
HETATM   19  C14 UNL     1      10.233  18.218  41.679  1.00  0.00     0.135 A 
BRANCH  17  20
HETATM   20  O3  UNL     1      11.705  19.499  44.651  1.00  0.00    -0.339 OA
ATOM     21  H3  UNL     1      12.206  20.297  44.769  1.00  0.00     0.220 HD
ENDBRANCH  17  20
BRANCH  18  22
HETATM   22  O4  UNL     1       9.022  19.679  43.247  1.00  0.00    -0.354 OA
ATOM     23  H4  UNL     1       8.251  19.925  42.747  1.00  0.00     0.218 HD
ENDBRANCH  18  22
BRANCH  19  24
HETATM   24  O5  UNL     1       9.244  18.027  40.751  1.00  0.00    -0.356 OA
ATOM     25  H5  UNL     1       8.691  18.695  40.364  1.00  0.00     0.218 HD
ENDBRANCH  19  24
ENDBRANCH  13  15
BRANCH  14  26
HETATM   26  O6  UNL     1      12.709  17.736  38.470  1.00  0.00    -0.394 OA
ATOM     27  H6  UNL     1      12.710  17.436  37.568  1.00  0.00     0.210 HD
ENDBRANCH  14  26
BRANCH   6  28
HETATM   28  O1  UNL     1      16.029  14.226  38.049  1.00  0.00    -0.395 OA
ATOM     29  H1  UNL     1      16.645  14.798  37.608  1.00  0.00     0.210 HD
ENDBRANCH   6  28
TORSDOF 6
ENDMDL
MODEL 3
REMARK VINA RESULT: -7.482307455      2.189      3.274
REMARK  6 active torsions:
REMARK  status: ('A' for Active; 'I' for Inactive)
REMARK    1  A    between atoms: C6_6  and  O1_7 
REMARK    2  A    between atoms: C10_15  and  C11_16 
REMARK    3  A    between atoms: C12_18  and  O3_19 
REMARK    4  A    between atoms: C13_21  and  O4_22 
REMARK    5  A    between atoms: C14_24  and  O5_25 
REMARK    6  A    between atoms: C15_27  and  O6_28 
ROOT
HETATM    1  C1  UNL     1       8.323  15.139  41.545  1.00  0.00     0.017 C 
HETATM    2  C2  UNL     1       8.108  15.940  40.294  1.00  0.00     0.034 C 
HETATM    3  C3  UNL     1       8.035  15.141  39.052  1.00  0.00    -0.024 C 
HETATM    4  C4  UNL     1       8.921  14.424  38.438  1.00  0.00    -0.028 C 
HETATM    5  C5  UNL     1      10.337  14.127  38.736  1.00  0.00     0.058 C 
HETATM    6  C6  UNL     1      11.277  14.878  37.823  1.00  0.00     0.122 C 
HETATM    7  C7  UNL     1      12.448  15.503  38.444  1.00  0.00     0.037 C 
HETATM    8  C8  UNL     1      12.388  15.852  39.888  1.00  0.00     0.055 C 
HETATM    9  C9  UNL     1      11.481  16.990  40.124  1.00  0.00    -0.007 C 
HETATM   10  N1  UNL     1      11.723  18.084  39.507  1.00  0.00    -0.405 N 
ATOM     11  H11 UNL     1      11.096  18.871  39.670  1.00  0.00     0.155 HD
ATOM     12  H12 UNL     1      12.529  18.105  38.883  1.00  0.00     0.155 HD
HETATM   13  C10 UNL     1      10.305  16.958  41.034  1.00  0.00     0.120 C 
HETATM   14  C15 UNL     1       9.034  17.112  40.271  1.00  0.00     0.141 C 
ENDROOT
BRANCH  13  15
HETATM   15  C11 UNL     1      10.453  17.963  42.134  1.00  0.00     0.104 A 
HETATM   16  O2  UNL     1       9.606  18.943  42.310  1.00  0.00    -0.286 OA
HETATM   17  C12 UNL     1       9.952  19.682  43.333  1.00  0.00     0.220 A 
HETATM   18  C13 UNL     1      11.093  19.163  43.867  1.00  0.00     0.160 A 
HETATM   19  C14 UNL     1      11.413  18.050  43.085  1.00  0.00     0.135 A 
BRANCH  17  20
HETATM   20  O3  UNL     1       9.297  20.809  43.824  1.00  0.00    -0.339 OA
ATOM     21  H3  UNL     1       9.681  21.645  44.056  1.00  0.00     0.220 HD
ENDBRANCH  17  20
BRANCH  18  22
HETATM   22  O4  UNL     1      11.837  19.594  44.954  1.00  0.00    -0.354 OA
ATOM     23  H4  UNL     1      11.645  20.274  45.590  1.00  0.00     0.218 HD
ENDBRANCH  18  22
BRANCH  19  24
HETATM   24  O5  UNL     1      12.484  17.211  43.248  1.00  0.00    -0.356 OA
ATOM     25  H5  UNL     1      12.992  17.086  44.041  1.00  0.00     0.218 HD
ENDBRANCH  19  24
ENDBRANCH  13  15
BRANCH  14  26
HETATM   26  O6  UNL     1       9.223  17.620  38.978  1.00  0.00    -0.394 OA
ATOM     27  H6  UNL     1      10.001  18.161  38.911  1.00  0.00     0.210 HD
ENDBRANCH  14  26
BRANCH   6  28
HETATM   28  O1  UNL     1      11.693  14.108  36.721  1.00  0.00    -0.395 OA
ATOM     29  H1  UNL     1      11.019  13.512  36.418  1.00  0.00     0.210 HD
ENDBRANCH   6  28
TORSDOF 6
ENDMDL
MODEL 4
REMARK VINA RESULT: -7.416488728      1.897      5.896
REMARK  6 active torsions:
REMARK  status: ('A' for Active; 'I' for Inactive)
REMARK    1  A    between atoms: C6_6  and  O1_7 
REMARK    2  A    between atoms: C10_15  and  C11_16 
REMARK    3  A    between atoms: C12_18  and  O3_19 
REMARK    4  A    between atoms: C13_21  and  O4_22 
REMARK    5  A    between atoms: C14_24  and  O5_25 
REMARK    6  A    between atoms: C15_27  and  O6_28 
ROOT
HETATM    1  C1  UNL     1       9.789  16.643  39.153  1.00  0.00     0.017 C 
HETATM    2  C2  UNL     1       9.623  15.921  40.458  1.00  0.00     0.034 C 
HETATM    3  C3  UNL     1       8.674  16.555  41.399  1.00  0.00    -0.024 C 
HETATM    4  C4  UNL     1       8.717  17.684  42.032  1.00  0.00    -0.028 C 
HETATM    5  C5  UNL     1       9.719  18.769  42.059  1.00  0.00     0.058 C 
HETATM    6  C6  UNL     1      10.511  18.776  43.345  1.00  0.00     0.122 C 
HETATM    7  C7  UNL     1      11.959  18.969  43.232  1.00  0.00     0.037 C 
HETATM    8  C8  UNL     1      12.629  18.605  41.957  1.00  0.00     0.055 C 
HETATM    9  C9  UNL     1      12.669  17.142  41.775  1.00  0.00    -0.007 C 
HETATM   10  N1  UNL     1      13.236  16.443  42.683  1.00  0.00    -0.405 N 
ATOM     11  H11 UNL     1      13.264  15.432  42.557  1.00  0.00     0.155 HD
ATOM     12  H12 UNL     1      13.626  16.938  43.485  1.00  0.00     0.155 HD
HETATM   13  C10 UNL     1      12.100  16.421  40.605  1.00  0.00     0.120 C 
HETATM   14  C15 UNL     1      10.960  15.554  41.014  1.00  0.00     0.141 C 
ENDROOT
BRANCH  13  15
HETATM   15  C11 UNL     1      13.167  15.675  39.866  1.00  0.00     0.104 A 
HETATM   16  O2  UNL     1      14.411  16.075  39.837  1.00  0.00    -0.286 OA
HETATM   17  C12 UNL     1      15.149  15.258  39.128  1.00  0.00     0.220 A 
HETATM   18  C13 UNL     1      14.349  14.259  38.661  1.00  0.00     0.160 A 
HETATM   19  C14 UNL     1      13.066  14.536  39.143  1.00  0.00     0.135 A 
BRANCH  17  20
HETATM   20  O3  UNL     1      16.515  15.355  38.872  1.00  0.00    -0.339 OA
ATOM     21  H3  UNL     1      17.216  15.459  39.504  1.00  0.00     0.220 HD
ENDBRANCH  17  20
BRANCH  18  22
HETATM   22  O4  UNL     1      14.668  13.167  37.870  1.00  0.00    -0.354 OA
ATOM     23  H4  UNL     1      14.378  12.264  37.936  1.00  0.00     0.218 HD
ENDBRANCH  18  22
BRANCH  19  24
HETATM   24  O5  UNL     1      11.931  13.800  38.926  1.00  0.00    -0.356 OA
ATOM     25  H5  UNL     1      11.885  12.875  38.716  1.00  0.00     0.218 HD
ENDBRANCH  19  24
ENDBRANCH  13  15
BRANCH  14  26
HETATM   26  O6  UNL     1      10.916  15.312  42.395  1.00  0.00    -0.394 OA
ATOM     27  H6  UNL     1      10.557  16.045  42.880  1.00  0.00     0.210 HD
ENDBRANCH  14  26
BRANCH   6  28
HETATM   28  O1  UNL     1       9.996  19.678  44.293  1.00  0.00    -0.395 OA
ATOM     29  H1  UNL     1       9.168  20.059  44.023  1.00  0.00     0.210 HD
ENDBRANCH   6  28
TORSDOF 6
ENDMDL
MODEL 5
REMARK VINA RESULT: -7.404961293      2.128      2.820
REMARK  6 active torsions:
REMARK  status: ('A' for Active; 'I' for Inactive)
REMARK    1  A    between atoms: C6_6  and  O1_7 
REMARK    2  A    between atoms: C10_15  and  C11_16 
REMARK    3  A    between atoms: C12_18  and  O3_19 
REMARK    4  A    between atoms: C13_21  and  O4_22 
REMARK    5  A    between atoms: C14_24  and  O5_25 
REMARK    6  A    between atoms: C15_27  and  O6_28 
ROOT
HETATM    1  C1  UNL     1      13.868  15.653  41.115  1.00  0.00     0.017 C 
HETATM    2  C2  UNL     1      12.927  14.919  40.205  1.00  0.00     0.034 C 
HETATM    3  C3  UNL     1      13.571  14.271  39.043  1.00  0.00    -0.024 C 
HETATM    4  C4  UNL     1      14.180  14.764  38.011  1.00  0.00    -0.028 C 
HETATM    5  C5  UNL     1      14.467  16.153  37.599  1.00  0.00     0.058 C 
HETATM    6  C6  UNL     1      13.581  16.600  36.461  1.00  0.00     0.122 C 
HETATM    7  C7  UNL     1      13.000  17.942  36.558  1.00  0.00     0.037 C 
HETATM    8  C8  UNL     1      12.832  18.550  37.903  1.00  0.00     0.055 C 
HETATM    9  C9  UNL     1      11.760  17.879  38.661  1.00  0.00    -0.007 C 
HETATM   10  N1  UNL     1      10.592  17.846  38.141  1.00  0.00    -0.405 N 
ATOM     11  H11 UNL     1       9.851  17.382  38.664  1.00  0.00     0.155 HD
ATOM     12  H12 UNL     1      10.470  18.284  37.228  1.00  0.00     0.155 HD
HETATM   13  C10 UNL     1      11.939  17.240  39.992  1.00  0.00     0.120 C 
HETATM   14  C15 UNL     1      11.733  15.767  39.911  1.00  0.00     0.141 C 
ENDROOT
BRANCH  13  15
HETATM   15  C11 UNL     1      11.072  17.897  41.021  1.00  0.00     0.104 A 
HETATM   16  O2  UNL     1       9.773  17.750  41.043  1.00  0.00    -0.286 OA
HETATM   17  C12 UNL     1       9.243  18.421  42.033  1.00  0.00     0.220 A 
HETATM   18  C13 UNL     1      10.246  19.050  42.707  1.00  0.00     0.160 A 
HETATM   19  C14 UNL     1      11.429  18.706  42.045  1.00  0.00     0.135 A 
BRANCH  17  20
HETATM   20  O3  UNL     1       7.895  18.505  42.374  1.00  0.00    -0.339 OA
ATOM     21  H3  UNL     1       7.477  19.158  42.923  1.00  0.00     0.220 HD
ENDBRANCH  17  20
BRANCH  18  22
HETATM   22  O4  UNL     1      10.185  19.872  43.821  1.00  0.00    -0.354 OA
ATOM     23  H4  UNL     1      10.289  20.815  43.886  1.00  0.00     0.218 HD
ENDBRANCH  18  22
BRANCH  19  24
HETATM   24  O5  UNL     1      12.698  19.108  42.369  1.00  0.00    -0.356 OA
ATOM     25  H5  UNL     1      13.148  19.882  42.050  1.00  0.00     0.218 HD
ENDBRANCH  19  24
ENDBRANCH  13  15
BRANCH  14  26
HETATM   26  O6  UNL     1      11.066  15.365  38.745  1.00  0.00    -0.394 OA
ATOM     27  H6  UNL     1      10.427  14.681  38.911  1.00  0.00     0.210 HD
ENDBRANCH  14  26
BRANCH   6  28
HETATM   28  O1  UNL     1      14.198  16.451  35.205  1.00  0.00    -0.395 OA
ATOM     29  H1  UNL     1      14.128  17.233  34.669  1.00  0.00     0.210 HD
ENDBRANCH   6  28
TORSDOF 6
ENDMDL
