MODEL 1
REMARK VINA RESULT: -8.515658423      0.000      0.000
REMARK  7 active torsions:
REMARK  status: ('A' for Active; 'I' for Inactive)
REMARK       I    between atoms: C2_2  and  N1_4 
REMARK    1  A    between atoms: N1_4  and  C3_6 
REMARK    2  A    between atoms: C3_6  and  C4_7 
REMARK    3  A    between atoms: C4_7  and  C5_8 
REMARK    4  A    between atoms: C5_8  and  O3_10 
REMARK    5  A    between atoms: O3_10  and  C6_11 
REMARK    6  A    between atoms: C9_14  and  C10_15 
REMARK    7  A    between atoms: C10_15  and  O4_16 
ROOT
HETATM    1  C6  UNL     1      20.392  -6.183 -43.345  1.00  0.00     0.160 C 
HETATM    2  C7  UNL     1      19.441  -6.278 -42.175  1.00  0.00     0.043 C 
HETATM    3  C8  UNL     1      18.208  -5.424 -42.338  1.00  0.00     0.077 C 
HETATM    4  C9  UNL     1      17.067  -6.171 -43.012  1.00  0.00     0.219 C 
HETATM    5  O5  UNL     1      17.368  -7.424 -43.384  1.00  0.00    -0.197 OA
HETATM    6  O6  UNL     1      17.110  -7.878 -44.534  1.00  0.00    -0.218 OA
HETATM    7  C11 UNL     1      17.200  -6.954 -45.603  1.00  0.00     0.151 C 
HETATM    8  C12 UNL     1      16.571  -7.635 -46.766  1.00  0.00     0.020 C 
HETATM    9  C13 UNL     1      17.271  -7.897 -47.844  1.00  0.00    -0.084 C 
HETATM   10  C14 UNL     1      16.536  -8.592 -48.966  1.00  0.00     0.043 C 
HETATM   11  C15 UNL     1      18.694  -7.587 -48.088  1.00  0.00     0.034 C 
HETATM   12  C16 UNL     1      18.983  -6.332 -47.301  1.00  0.00     0.016 C 
HETATM   13  C17 UNL     1      18.579  -6.490 -45.857  1.00  0.00     0.053 C 
HETATM   14  C18 UNL     1      19.536  -7.488 -45.287  1.00  0.00    -0.014 C 
HETATM   15  C19 UNL     1      20.295  -7.365 -44.240  1.00  0.00    -0.058 C 
HETATM   16  C20 UNL     1      21.180  -8.549 -43.883  1.00  0.00     0.046 C 
HETATM   17  C21 UNL     1      16.256  -5.843 -45.171  1.00  0.00     0.096 C 
HETATM   18  C22 UNL     1      16.201  -4.731 -46.184  1.00  0.00     0.049 C 
HETATM   19  C23 UNL     1      14.881  -6.484 -45.113  1.00  0.00     0.049 C 
HETATM   20  O7  UNL     1      16.537  -5.330 -43.951  1.00  0.00    -0.337 OA
ENDROOT
BRANCH   1  21
HETATM   21  O3  UNL     1      21.705  -5.866 -42.990  1.00  0.00    -0.311 OA
BRANCH  21  22
HETATM   22  C5  UNL     1      22.124  -5.120 -41.935  1.00  0.00     0.261 C 
HETATM   23  O2  UNL     1      21.920  -3.885 -41.983  1.00  0.00    -0.265 OA
BRANCH  22  24
HETATM   24  C4  UNL     1      22.800  -5.723 -40.761  1.00  0.00     0.131 C 
BRANCH  24  25
HETATM   25  C3  UNL     1      23.070  -7.180 -40.917  1.00  0.00     0.132 C 
BRANCH  25  26
HETATM   26  N1  UNL     1      24.066  -7.472 -41.925  1.00  0.00    -0.361 N 
HETATM   27  C2  UNL     1      24.420  -8.761 -42.329  1.00  0.00     0.213 C 
HETATM   28  C1  UNL     1      25.458  -9.002 -43.379  1.00  0.00     0.117 C 
HETATM   29  O1  UNL     1      23.882  -9.781 -41.829  1.00  0.00    -0.274 OA
ATOM     30  H1  UNL     1      24.540  -6.686 -42.370  1.00  0.00     0.162 HD
ENDBRANCH  25  26
ENDBRANCH  24  25
ENDBRANCH  22  24
ENDBRANCH  21  22
ENDBRANCH   1  21
BRANCH   4  31
HETATM   31  C10 UNL     1      15.977  -6.292 -41.926  1.00  0.00     0.235 C 
BRANCH  31  32
HETATM   32  O4  UNL     1      15.697  -5.011 -41.443  1.00  0.00    -0.395 OA
ATOM     33  H4  UNL     1      14.831  -4.764 -41.744  1.00  0.00     0.209 HD
ENDBRANCH  31  32
ENDBRANCH   4  31
TORSDOF 7
ENDMDL
MODEL 2
REMARK VINA RESULT: -8.189280977      1.699      2.529
REMARK  7 active torsions:
REMARK  status: ('A' for Active; 'I' for Inactive)
REMARK       I    between atoms: C2_2  and  N1_4 
REMARK    1  A    between atoms: N1_4  and  C3_6 
REMARK    2  A    between atoms: C3_6  and  C4_7 
REMARK    3  A    between atoms: C4_7  and  C5_8 
REMARK    4  A    between atoms: C5_8  and  O3_10 
REMARK    5  A    between atoms: O3_10  and  C6_11 
REMARK    6  A    between atoms: C9_14  and  C10_15 
REMARK    7  A    between atoms: C10_15  and  O4_16 
ROOT
HETATM    1  C6  UNL     1      20.302  -5.906 -44.173  1.00  0.00     0.160 C 
HETATM    2  C7  UNL     1      19.510  -6.105 -42.901  1.00  0.00     0.043 C 
HETATM    3  C8  UNL     1      18.145  -5.464 -42.944  1.00  0.00     0.077 C 
HETATM    4  C9  UNL     1      17.074  -6.409 -43.469  1.00  0.00     0.219 C 
HETATM    5  O5  UNL     1      17.532  -7.611 -43.845  1.00  0.00    -0.197 OA
HETATM    6  O6  UNL     1      17.230  -8.146 -44.949  1.00  0.00    -0.218 OA
HETATM    7  C11 UNL     1      17.054  -7.262 -46.041  1.00  0.00     0.151 C 
HETATM    8  C12 UNL     1      16.423  -8.079 -47.111  1.00  0.00     0.020 C 
HETATM    9  C13 UNL     1      17.035  -8.270 -48.255  1.00  0.00    -0.084 C 
HETATM   10  C14 UNL     1      16.307  -9.115 -49.272  1.00  0.00     0.043 C 
HETATM   11  C15 UNL     1      18.355  -7.747 -48.664  1.00  0.00     0.034 C 
HETATM   12  C16 UNL     1      18.520  -6.432 -47.942  1.00  0.00     0.016 C 
HETATM   13  C17 UNL     1      18.304  -6.596 -46.458  1.00  0.00     0.053 C 
HETATM   14  C18 UNL     1      19.465  -7.406 -45.978  1.00  0.00    -0.014 C 
HETATM   15  C19 UNL     1      20.302  -7.124 -45.025  1.00  0.00    -0.058 C 
HETATM   16  C20 UNL     1      21.401  -8.137 -44.744  1.00  0.00     0.046 C 
HETATM   17  C21 UNL     1      15.994  -6.299 -45.530  1.00  0.00     0.096 C 
HETATM   18  C22 UNL     1      15.652  -5.250 -46.554  1.00  0.00     0.049 C 
HETATM   19  C23 UNL     1      14.755  -7.147 -45.304  1.00  0.00     0.049 C 
HETATM   20  O7  UNL     1      16.317  -5.700 -44.360  1.00  0.00    -0.337 OA
ENDROOT
BRANCH   1  21
HETATM   21  O3  UNL     1      21.577  -5.372 -43.974  1.00  0.00    -0.311 OA
BRANCH  21  22
HETATM   22  C5  UNL     1      22.122  -4.932 -42.810  1.00  0.00     0.261 C 
HETATM   23  O2  UNL     1      21.923  -3.735 -42.494  1.00  0.00    -0.265 OA
BRANCH  22  24
HETATM   24  C4  UNL     1      22.924  -5.816 -41.931  1.00  0.00     0.131 C 
BRANCH  24  25
HETATM   25  C3  UNL     1      22.341  -5.987 -40.571  1.00  0.00     0.132 C 
BRANCH  25  26
HETATM   26  N1  UNL     1      22.277  -4.753 -39.818  1.00  0.00    -0.361 N 
HETATM   27  C2  UNL     1      21.088  -4.120 -39.447  1.00  0.00     0.213 C 
HETATM   28  C1  UNL     1      21.083  -2.844 -38.667  1.00  0.00     0.117 C 
HETATM   29  O1  UNL     1      19.965  -4.595 -39.751  1.00  0.00    -0.274 OA
ATOM     30  H1  UNL     1      23.156  -4.317 -39.540  1.00  0.00     0.162 HD
ENDBRANCH  25  26
ENDBRANCH  24  25
ENDBRANCH  22  24
ENDBRANCH  21  22
ENDBRANCH   1  21
BRANCH   4  31
HETATM   31  C10 UNL     1      16.140  -6.658 -42.265  1.00  0.00     0.235 C 
BRANCH  31  32
HETATM   32  O4  UNL     1      15.353  -5.520 -42.079  1.00  0.00    -0.395 OA
ATOM     33  H4  UNL     1      15.929  -4.765 -42.037  1.00  0.00     0.209 HD
ENDBRANCH  31  32
ENDBRANCH   4  31
TORSDOF 7
ENDMDL
MODEL 3
REMARK VINA RESULT: -7.869051083      1.765      2.118
REMARK  7 active torsions:
REMARK  status: ('A' for Active; 'I' for Inactive)
REMARK       I    between atoms: C2_2  and  N1_4 
REMARK    1  A    between atoms: N1_4  and  C3_6 
REMARK    2  A    between atoms: C3_6  and  C4_7 
REMARK    3  A    between atoms: C4_7  and  C5_8 
REMARK    4  A    between atoms: C5_8  and  O3_10 
REMARK    5  A    between atoms: O3_10  and  C6_11 
REMARK    6  A    between atoms: C9_14  and  C10_15 
REMARK    7  A    between atoms: C10_15  and  O4_16 
ROOT
HETATM    1  C6  UNL     1      20.439  -4.912 -42.569  1.00  0.00     0.160 C 
HETATM    2  C7  UNL     1      19.540  -5.402 -41.459  1.00  0.00     0.043 C 
HETATM    3  C8  UNL     1      18.088  -5.049 -41.669  1.00  0.00     0.077 C 
HETATM    4  C9  UNL     1      17.331  -6.129 -42.426  1.00  0.00     0.219 C 
HETATM    5  O5  UNL     1      18.085  -7.167 -42.814  1.00  0.00    -0.197 OA
HETATM    6  O6  UNL     1      18.062  -7.630 -43.989  1.00  0.00    -0.218 OA
HETATM    7  C11 UNL     1      17.853  -6.688 -45.026  1.00  0.00     0.151 C 
HETATM    8  C12 UNL     1      17.568  -7.497 -46.241  1.00  0.00     0.020 C 
HETATM    9  C13 UNL     1      18.361  -7.437 -47.284  1.00  0.00    -0.084 C 
HETATM   10  C14 UNL     1      17.981  -8.298 -48.465  1.00  0.00     0.043 C 
HETATM   11  C15 UNL     1      19.580  -6.618 -47.438  1.00  0.00     0.034 C 
HETATM   12  C16 UNL     1      19.356  -5.381 -46.602  1.00  0.00     0.016 C 
HETATM   13  C17 UNL     1      18.976  -5.743 -45.188  1.00  0.00     0.053 C 
HETATM   14  C18 UNL     1      20.206  -6.348 -44.592  1.00  0.00    -0.014 C 
HETATM   15  C19 UNL     1      20.821  -6.006 -43.500  1.00  0.00    -0.058 C 
HETATM   16  C20 UNL     1      22.062  -6.801 -43.126  1.00  0.00     0.046 C 
HETATM   17  C21 UNL     1      16.550  -6.019 -44.618  1.00  0.00     0.096 C 
HETATM   18  C22 UNL     1      16.135  -4.958 -45.602  1.00  0.00     0.049 C 
HETATM   19  C23 UNL     1      15.504  -7.119 -44.656  1.00  0.00     0.049 C 
HETATM   20  O7  UNL     1      16.570  -5.496 -43.371  1.00  0.00    -0.337 OA
ENDROOT
BRANCH   1  21
HETATM   21  O3  UNL     1      21.529  -4.156 -42.132  1.00  0.00    -0.311 OA
BRANCH  21  22
HETATM   22  C5  UNL     1      21.511  -3.062 -41.327  1.00  0.00     0.261 C 
HETATM   23  O2  UNL     1      21.818  -1.961 -41.841  1.00  0.00    -0.265 OA
BRANCH  22  24
HETATM   24  C4  UNL     1      21.148  -3.144 -39.891  1.00  0.00     0.131 C 
BRANCH  24  25
HETATM   25  C3  UNL     1      22.075  -3.995 -39.093  1.00  0.00     0.132 C 
BRANCH  25  26
HETATM   26  N1  UNL     1      22.647  -5.084 -39.854  1.00  0.00    -0.361 N 
HETATM   27  C2  UNL     1      23.169  -6.249 -39.287  1.00  0.00     0.213 C 
HETATM   28  C1  UNL     1      23.749  -7.344 -40.125  1.00  0.00     0.117 C 
HETATM   29  O1  UNL     1      23.176  -6.432 -38.043  1.00  0.00    -0.274 OA
ATOM     30  H1  UNL     1      22.672  -4.996 -40.870  1.00  0.00     0.162 HD
ENDBRANCH  25  26
ENDBRANCH  24  25
ENDBRANCH  22  24
ENDBRANCH  21  22
ENDBRANCH   1  21
BRANCH   4  31
HETATM   31  C10 UNL     1      16.314  -6.688 -41.408  1.00  0.00     0.235 C 
BRANCH  31  32
HETATM   32  O4  UNL     1      15.655  -5.611 -40.812  1.00  0.00    -0.395 OA
ATOM     33  H4  UNL     1      15.001  -5.956 -40.215  1.00  0.00     0.209 HD
ENDBRANCH  31  32
ENDBRANCH   4  31
TORSDOF 7
ENDMDL
MODEL 4
REMARK VINA RESULT: -7.598019479      1.292      2.567
REMARK  7 active torsions:
REMARK  status: ('A' for Active; 'I' for Inactive)
REMARK       I    between atoms: C2_2  and  N1_4 
REMARK    1  A    between atoms: N1_4  and  C3_6 
REMARK    2  A    between atoms: C3_6  and  C4_7 
REMARK    3  A    between atoms: C4_7  and  C5_8 
REMARK    4  A    between atoms: C5_8  and  O3_10 
REMARK    5  A    between atoms: O3_10  and  C6_11 
REMARK    6  A    between atoms: C9_14  and  C10_15 
REMARK    7  A    between atoms: C10_15  and  O4_16 
ROOT
HETATM    1  C6  UNL     1      20.991  -6.512 -43.168  1.00  0.00     0.160 C 
HETATM    2  C7  UNL     1      20.103  -6.560 -41.947  1.00  0.00     0.043 C 
HETATM    3  C8  UNL     1      18.952  -5.587 -42.009  1.00  0.00     0.077 C 
HETATM    4  C9  UNL     1      17.707  -6.197 -42.637  1.00  0.00     0.219 C 
HETATM    5  O5  UNL     1      17.864  -7.458 -43.064  1.00  0.00    -0.197 OA
HETATM    6  O6  UNL     1      17.498  -7.843 -44.211  1.00  0.00    -0.218 OA
HETATM    7  C11 UNL     1      17.617  -6.893 -45.254  1.00  0.00     0.151 C 
HETATM    8  C12 UNL     1      16.861  -7.468 -46.397  1.00  0.00     0.020 C 
HETATM    9  C13 UNL     1      17.469  -7.756 -47.524  1.00  0.00    -0.084 C 
HETATM   10  C14 UNL     1      16.608  -8.335 -48.621  1.00  0.00     0.043 C 
HETATM   11  C15 UNL     1      18.900  -7.573 -47.842  1.00  0.00     0.034 C 
HETATM   12  C16 UNL     1      19.354  -6.381 -47.036  1.00  0.00     0.016 C 
HETATM   13  C17 UNL     1      19.018  -6.554 -45.576  1.00  0.00     0.053 C 
HETATM   14  C18 UNL     1      19.904  -7.658 -45.095  1.00  0.00    -0.014 C 
HETATM   15  C19 UNL     1      20.729  -7.647 -44.092  1.00  0.00    -0.058 C 
HETATM   16  C20 UNL     1      21.514  -8.922 -43.826  1.00  0.00     0.046 C 
HETATM   17  C21 UNL     1      16.812  -5.714 -44.732  1.00  0.00     0.096 C 
HETATM   18  C22 UNL     1      16.808  -4.565 -45.705  1.00  0.00     0.049 C 
HETATM   19  C23 UNL     1      15.386  -6.222 -44.611  1.00  0.00     0.049 C 
HETATM   20  O7  UNL     1      17.209  -5.275 -43.515  1.00  0.00    -0.337 OA
ENDROOT
BRANCH   1  21
HETATM   21  O3  UNL     1      22.347  -6.336 -42.883  1.00  0.00    -0.311 OA
BRANCH  21  22
HETATM   22  C5  UNL     1      23.123  -7.072 -42.046  1.00  0.00     0.261 C 
HETATM   23  O2  UNL     1      23.987  -7.818 -42.564  1.00  0.00    -0.265 OA
BRANCH  22  24
HETATM   24  C4  UNL     1      22.970  -7.013 -40.572  1.00  0.00     0.131 C 
BRANCH  24  25
HETATM   25  C3  UNL     1      23.596  -5.808 -39.960  1.00  0.00     0.132 C 
BRANCH  25  26
HETATM   26  N1  UNL     1      22.655  -4.980 -39.237  1.00  0.00    -0.361 N 
HETATM   27  C2  UNL     1      21.859  -3.997 -39.828  1.00  0.00     0.213 C 
HETATM   28  C1  UNL     1      20.901  -3.171 -39.028  1.00  0.00     0.117 C 
HETATM   29  O1  UNL     1      21.909  -3.760 -41.061  1.00  0.00    -0.274 OA
ATOM     30  H1  UNL     1      22.568  -5.124 -38.231  1.00  0.00     0.162 HD
ENDBRANCH  25  26
ENDBRANCH  24  25
ENDBRANCH  22  24
ENDBRANCH  21  22
ENDBRANCH   1  21
BRANCH   4  31
HETATM   31  C10 UNL     1      16.673  -6.253 -41.491  1.00  0.00     0.235 C 
BRANCH  31  32
HETATM   32  O4  UNL     1      16.296  -4.945 -41.179  1.00  0.00    -0.395 OA
ATOM     33  H4  UNL     1      15.626  -4.674 -41.796  1.00  0.00     0.209 HD
ENDBRANCH  31  32
ENDBRANCH   4  31
TORSDOF 7
ENDMDL
MODEL 5
REMARK VINA RESULT: -7.595232712      2.522      5.428
REMARK  7 active torsions:
REMARK  status: ('A' for Active; 'I' for Inactive)
REMARK       I    between atoms: C2_2  and  N1_4 
REMARK    1  A    between atoms: N1_4  and  C3_6 
REMARK    2  A    between atoms: C3_6  and  C4_7 
REMARK    3  A    between atoms: C4_7  and  C5_8 
REMARK    4  A    between atoms: C5_8  and  O3_10 
REMARK    5  A    between atoms: O3_10  and  C6_11 
REMARK    6  A    between atoms: C9_14  and  C10_15 
REMARK    7  A    between atoms: C10_15  and  O4_16 
ROOT
HETATM    1  C6  UNL     1      19.246  -6.945 -46.046  1.00  0.00     0.160 C 
HETATM    2  C7  UNL     1      19.630  -6.729 -47.491  1.00  0.00     0.043 C 
HETATM    3  C8  UNL     1      19.036  -7.755 -48.425  1.00  0.00     0.077 C 
HETATM    4  C9  UNL     1      17.683  -7.328 -48.975  1.00  0.00     0.219 C 
HETATM    5  O5  UNL     1      17.238  -6.155 -48.502  1.00  0.00    -0.197 OA
HETATM    6  O6  UNL     1      16.066  -5.995 -48.057  1.00  0.00    -0.218 OA
HETATM    7  C11 UNL     1      15.498  -7.106 -47.388  1.00  0.00     0.151 C 
HETATM    8  C12 UNL     1      14.055  -6.779 -47.240  1.00  0.00     0.020 C 
HETATM    9  C13 UNL     1      13.515  -6.662 -46.050  1.00  0.00    -0.084 C 
HETATM   10  C14 UNL     1      12.043  -6.328 -46.012  1.00  0.00     0.043 C 
HETATM   11  C15 UNL     1      14.183  -6.825 -44.743  1.00  0.00     0.034 C 
HETATM   12  C16 UNL     1      15.284  -7.834 -44.964  1.00  0.00     0.016 C 
HETATM   13  C17 UNL     1      16.171  -7.425 -46.113  1.00  0.00     0.053 C 
HETATM   14  C18 UNL     1      16.901  -6.211 -45.637  1.00  0.00    -0.014 C 
HETATM   15  C19 UNL     1      18.183  -6.005 -45.605  1.00  0.00    -0.058 C 
HETATM   16  C20 UNL     1      18.657  -4.665 -45.064  1.00  0.00     0.046 C 
HETATM   17  C21 UNL     1      15.601  -8.214 -48.424  1.00  0.00     0.096 C 
HETATM   18  C22 UNL     1      15.044  -9.515 -47.908  1.00  0.00     0.049 C 
HETATM   19  C23 UNL     1      14.729  -7.765 -49.582  1.00  0.00     0.049 C 
HETATM   20  O7  UNL     1      16.856  -8.413 -48.889  1.00  0.00    -0.337 OA
ENDROOT
BRANCH   1  21
HETATM   21  O3  UNL     1      20.331  -7.001 -45.169  1.00  0.00    -0.311 OA
BRANCH  21  22
HETATM   22  C5  UNL     1      20.340  -7.444 -43.885  1.00  0.00     0.261 C 
HETATM   23  O2  UNL     1      19.736  -8.514 -43.639  1.00  0.00    -0.265 OA
BRANCH  22  24
HETATM   24  C4  UNL     1      21.030  -6.706 -42.799  1.00  0.00     0.131 C 
BRANCH  24  25
HETATM   25  C3  UNL     1      20.100  -5.952 -41.912  1.00  0.00     0.132 C 
BRANCH  25  26
HETATM   26  N1  UNL     1      18.749  -6.470 -41.929  1.00  0.00    -0.361 N 
HETATM   27  C2  UNL     1      17.623  -5.737 -41.547  1.00  0.00     0.213 C 
HETATM   28  C1  UNL     1      16.249  -6.326 -41.586  1.00  0.00     0.117 C 
HETATM   29  O1  UNL     1      17.712  -4.548 -41.152  1.00  0.00    -0.274 OA
ATOM     30  H1  UNL     1      18.610  -7.431 -42.240  1.00  0.00     0.162 HD
ENDBRANCH  25  26
ENDBRANCH  24  25
ENDBRANCH  22  24
ENDBRANCH  21  22
ENDBRANCH   1  21
BRANCH   4  31
HETATM   31  C10 UNL     1      17.917  -7.124 -50.487  1.00  0.00     0.235 C 
BRANCH  31  32
HETATM   32  O4  UNL     1      17.661  -5.786 -50.793  1.00  0.00    -0.395 OA
ATOM     33  H4  UNL     1      18.486  -5.367 -51.008  1.00  0.00     0.209 HD
ENDBRANCH  31  32
ENDBRANCH   4  31
TORSDOF 7
ENDMDL
