MODEL 1
REMARK VINA RESULT: -7.598518782      0.000      0.000
REMARK  7 active torsions:
REMARK  status: ('A' for Active; 'I' for Inactive)
REMARK    1  A    between atoms: C2_2  and  C4_4 
REMARK    2  A    between atoms: C9_9  and  N1_10 
REMARK    3  A    between atoms: C13_14  and  C14_15 
REMARK    4  A    between atoms: C14_15  and  C15_16 
REMARK    5  A    between atoms: N3_27  and  C22_28 
REMARK    6  A    between atoms: C22_28  and  C23_29 
REMARK    7  A    between atoms: C23_29  and  O3_30 
ROOT
HETATM    1  C4  UNL     1      20.714  -4.851 -41.983  1.00  0.00     0.010 C 
HETATM    2  C5  UNL     1      21.360  -6.022 -41.279  1.00  0.00     0.032 C 
HETATM    3  C6  UNL     1      22.413  -6.545 -42.214  1.00  0.00     0.094 C 
HETATM    4  C7  UNL     1      21.757  -6.975 -43.468  1.00  0.00     0.053 C 
HETATM    5  C8  UNL     1      20.309  -7.378 -43.333  1.00  0.00     0.049 C 
HETATM    6  C9  UNL     1      19.367  -6.234 -43.604  1.00  0.00     0.242 C 
HETATM    7  C16 UNL     1      19.405  -5.146 -42.615  1.00  0.00     0.130 C 
HETATM    8  C17 UNL     1      18.415  -5.366 -41.530  1.00  0.00     0.066 C 
HETATM    9  N2  UNL     1      17.626  -5.533 -40.698  1.00  0.00    -0.197 NA
HETATM   10  C18 UNL     1      22.572  -8.184 -43.852  1.00  0.00     0.015 A 
HETATM   11  S1  UNL     1      22.900  -9.296 -45.097  1.00  0.00    -0.104 SA
HETATM   12  C19 UNL     1      24.075 -10.255 -44.314  1.00  0.00     0.052 A 
HETATM   13  C20 UNL     1      24.179  -9.671 -43.083  1.00  0.00     0.037 A 
HETATM   14  C21 UNL     1      23.391  -8.583 -42.838  1.00  0.00     0.044 A 
HETATM   15  N3  UNL     1      23.151  -7.660 -41.738  1.00  0.00    -0.372 N 
ENDROOT
BRANCH   1  16
HETATM   16  C2  UNL     1      20.473  -3.798 -40.892  1.00  0.00    -0.017 C 
HETATM   17  C1  UNL     1      21.303  -2.571 -41.125  1.00  0.00     0.010 C 
HETATM   18  C3  UNL     1      20.790  -4.326 -39.518  1.00  0.00     0.010 C 
ENDBRANCH   1  16
BRANCH   6  19
HETATM   19  N1  UNL     1      19.536  -5.857 -44.974  1.00  0.00     0.099 N 
HETATM   20  C10 UNL     1      19.681  -4.452 -45.206  1.00  0.00     0.273 C 
HETATM   21  C11 UNL     1      19.591  -4.338 -46.718  1.00  0.00     0.032 C 
HETATM   22  C12 UNL     1      18.804  -5.535 -47.148  1.00  0.00     0.038 C 
HETATM   23  C13 UNL     1      18.660  -6.419 -45.901  1.00  0.00     0.233 C 
BRANCH  23  24
HETATM   24  C14 UNL     1      17.216  -6.510 -45.612  1.00  0.00     0.148 C 
BRANCH  24  25
HETATM   25  C15 UNL     1      16.846  -7.960 -45.611  1.00  0.00     0.174 C 
HETATM   26  O1  UNL     1      17.062  -8.718 -44.612  1.00  0.00    -0.648 OA
HETATM   27  O2  UNL     1      16.244  -8.547 -46.705  1.00  0.00    -0.648 OA
ENDBRANCH  24  25
ENDBRANCH  23  24
ENDBRANCH   6  19
BRANCH  15  28
HETATM   28  C22 UNL     1      23.589  -7.831 -40.373  1.00  0.00     0.149 C 
BRANCH  28  29
HETATM   29  C23 UNL     1      23.852  -6.442 -39.792  1.00  0.00     0.183 C 
BRANCH  29  30
HETATM   30  O3  UNL     1      23.391  -6.331 -38.488  1.00  0.00    -0.399 OA
ATOM     31  H3  UNL     1      24.056  -5.984 -37.905  1.00  0.00     0.209 HD
ENDBRANCH  29  30
ENDBRANCH  28  29
ENDBRANCH  15  28
TORSDOF 7
ENDMDL
MODEL 2
REMARK VINA RESULT: -7.058069626      1.534      1.735
REMARK  7 active torsions:
REMARK  status: ('A' for Active; 'I' for Inactive)
REMARK    1  A    between atoms: C2_2  and  C4_4 
REMARK    2  A    between atoms: C9_9  and  N1_10 
REMARK    3  A    between atoms: C13_14  and  C14_15 
REMARK    4  A    between atoms: C14_15  and  C15_16 
REMARK    5  A    between atoms: N3_27  and  C22_28 
REMARK    6  A    between atoms: C22_28  and  C23_29 
REMARK    7  A    between atoms: C23_29  and  O3_30 
ROOT
HETATM    1  C4  UNL     1      21.248  -5.599 -42.378  1.00  0.00     0.010 C 
HETATM    2  C5  UNL     1      21.845  -6.918 -41.943  1.00  0.00     0.032 C 
HETATM    3  C6  UNL     1      22.620  -7.435 -43.122  1.00  0.00     0.094 C 
HETATM    4  C7  UNL     1      21.687  -7.622 -44.254  1.00  0.00     0.053 C 
HETATM    5  C8  UNL     1      20.248  -7.868 -43.870  1.00  0.00     0.049 C 
HETATM    6  C9  UNL     1      19.441  -6.597 -43.825  1.00  0.00     0.242 C 
HETATM    7  C16 UNL     1      19.816  -5.656 -42.758  1.00  0.00     0.130 C 
HETATM    8  C17 UNL     1      19.026  -5.896 -41.523  1.00  0.00     0.066 C 
HETATM    9  N2  UNL     1      18.392  -6.076 -40.570  1.00  0.00    -0.197 NA
HETATM   10  C18 UNL     1      22.239  -8.859 -44.917  1.00  0.00     0.015 A 
HETATM   11  S1  UNL     1      22.168  -9.832 -46.311  1.00  0.00    -0.104 SA
HETATM   12  C19 UNL     1      23.324 -11.014 -45.885  1.00  0.00     0.052 A 
HETATM   13  C20 UNL     1      23.738 -10.609 -44.647  1.00  0.00     0.037 A 
HETATM   14  C21 UNL     1      23.169  -9.477 -44.137  1.00  0.00     0.044 A 
HETATM   15  N3  UNL     1      23.271  -8.681 -42.922  1.00  0.00    -0.372 N 
ENDROOT
BRANCH   1  16
HETATM   16  C2  UNL     1      21.365  -4.674 -41.158  1.00  0.00    -0.017 C 
HETATM   17  C1  UNL     1      21.708  -3.273 -41.567  1.00  0.00     0.010 C 
HETATM   18  C3  UNL     1      22.412  -5.150 -40.187  1.00  0.00     0.010 C 
ENDBRANCH   1  16
BRANCH   6  19
HETATM   19  N1  UNL     1      19.400  -6.069 -45.155  1.00  0.00     0.099 N 
HETATM   20  C10 UNL     1      19.854  -4.718 -45.289  1.00  0.00     0.273 C 
HETATM   21  C11 UNL     1      19.470  -4.362 -46.714  1.00  0.00     0.032 C 
HETATM   22  C12 UNL     1      18.323  -5.264 -47.041  1.00  0.00     0.038 C 
HETATM   23  C13 UNL     1      18.227  -6.267 -45.881  1.00  0.00     0.233 C 
BRANCH  23  24
HETATM   24  C14 UNL     1      16.909  -6.060 -45.253  1.00  0.00     0.148 C 
BRANCH  24  25
HETATM   25  C15 UNL     1      16.176  -7.364 -45.301  1.00  0.00     0.174 C 
HETATM   26  O1  UNL     1      16.779  -8.484 -45.322  1.00  0.00    -0.648 OA
HETATM   27  O2  UNL     1      14.797  -7.412 -45.324  1.00  0.00    -0.648 OA
ENDBRANCH  24  25
ENDBRANCH  23  24
ENDBRANCH   6  19
BRANCH  15  28
HETATM   28  C22 UNL     1      23.930  -9.075 -41.700  1.00  0.00     0.149 C 
BRANCH  28  29
HETATM   29  C23 UNL     1      25.434  -9.103 -41.970  1.00  0.00     0.183 C 
BRANCH  29  30
HETATM   30  O3  UNL     1      25.957 -10.382 -41.853  1.00  0.00    -0.399 OA
ATOM     31  H3  UNL     1      26.599 -10.441 -41.154  1.00  0.00     0.209 HD
ENDBRANCH  29  30
ENDBRANCH  28  29
ENDBRANCH  15  28
TORSDOF 7
ENDMDL
MODEL 3
REMARK VINA RESULT: -6.690542767      3.700      6.675
REMARK  7 active torsions:
REMARK  status: ('A' for Active; 'I' for Inactive)
REMARK    1  A    between atoms: C2_2  and  C4_4 
REMARK    2  A    between atoms: C9_9  and  N1_10 
REMARK    3  A    between atoms: C13_14  and  C14_15 
REMARK    4  A    between atoms: C14_15  and  C15_16 
REMARK    5  A    between atoms: N3_27  and  C22_28 
REMARK    6  A    between atoms: C22_28  and  C23_29 
REMARK    7  A    between atoms: C23_29  and  O3_30 
ROOT
HETATM    1  C4  UNL     1      19.358  -7.334 -45.098  1.00  0.00     0.010 C 
HETATM    2  C5  UNL     1      18.317  -6.428 -44.481  1.00  0.00     0.032 C 
HETATM    3  C6  UNL     1      16.997  -7.121 -44.663  1.00  0.00     0.094 C 
HETATM    4  C7  UNL     1      16.754  -7.299 -46.111  1.00  0.00     0.053 C 
HETATM    5  C8  UNL     1      17.445  -6.301 -47.008  1.00  0.00     0.049 C 
HETATM    6  C9  UNL     1      18.783  -6.794 -47.493  1.00  0.00     0.242 C 
HETATM    7  C16 UNL     1      19.813  -6.932 -46.451  1.00  0.00     0.130 C 
HETATM    8  C17 UNL     1      20.612  -5.687 -46.313  1.00  0.00     0.066 C 
HETATM    9  N2  UNL     1      21.244  -4.721 -46.224  1.00  0.00    -0.197 NA
HETATM   10  C18 UNL     1      15.262  -7.100 -46.208  1.00  0.00     0.015 A 
HETATM   11  S1  UNL     1      13.906  -7.266 -47.221  1.00  0.00    -0.104 SA
HETATM   12  C19 UNL     1      12.696  -6.690 -46.163  1.00  0.00     0.052 A 
HETATM   13  C20 UNL     1      13.396  -6.379 -45.032  1.00  0.00     0.037 A 
HETATM   14  C21 UNL     1      14.745  -6.594 -45.054  1.00  0.00     0.044 A 
HETATM   15  N3  UNL     1      15.871  -6.430 -44.144  1.00  0.00    -0.372 N 
ENDROOT
BRANCH   1  16
HETATM   16  C2  UNL     1      20.573  -7.261 -44.163  1.00  0.00    -0.017 C 
HETATM   17  C1  UNL     1      21.198  -8.610 -43.974  1.00  0.00     0.010 C 
HETATM   18  C3  UNL     1      20.209  -6.718 -42.806  1.00  0.00     0.010 C 
ENDBRANCH   1  16
BRANCH   6  19
HETATM   19  N1  UNL     1      18.544  -7.945 -48.310  1.00  0.00     0.099 N 
HETATM   20  C10 UNL     1      19.701  -8.736 -48.602  1.00  0.00     0.273 C 
HETATM   21  C11 UNL     1      19.199  -9.709 -49.655  1.00  0.00     0.032 C 
HETATM   22  C12 UNL     1      18.045  -9.014 -50.303  1.00  0.00     0.038 C 
HETATM   23  C13 UNL     1      17.772  -7.762 -49.455  1.00  0.00     0.233 C 
BRANCH  23  24
HETATM   24  C14 UNL     1      17.995  -6.600 -50.335  1.00  0.00     0.148 C 
BRANCH  24  25
HETATM   25  C15 UNL     1      16.653  -6.080 -50.746  1.00  0.00     0.174 C 
HETATM   26  O1  UNL     1      15.573  -6.480 -50.206  1.00  0.00    -0.648 OA
HETATM   27  O2  UNL     1      16.525  -5.131 -51.739  1.00  0.00    -0.648 OA
ENDBRANCH  24  25
ENDBRANCH  23  24
ENDBRANCH   6  19
BRANCH  15  28
HETATM   28  C22 UNL     1      15.861  -5.692 -42.904  1.00  0.00     0.149 C 
BRANCH  28  29
HETATM   29  C23 UNL     1      16.145  -6.679 -41.772  1.00  0.00     0.183 C 
BRANCH  29  30
HETATM   30  O3  UNL     1      15.651  -6.229 -40.557  1.00  0.00    -0.399 OA
ATOM     31  H3  UNL     1      16.344  -6.083 -39.924  1.00  0.00     0.209 HD
ENDBRANCH  29  30
ENDBRANCH  28  29
ENDBRANCH  15  28
TORSDOF 7
ENDMDL
MODEL 4
REMARK VINA RESULT: -6.572571205      1.132      1.436
REMARK  7 active torsions:
REMARK  status: ('A' for Active; 'I' for Inactive)
REMARK    1  A    between atoms: C2_2  and  C4_4 
REMARK    2  A    between atoms: C9_9  and  N1_10 
REMARK    3  A    between atoms: C13_14  and  C14_15 
REMARK    4  A    between atoms: C14_15  and  C15_16 
REMARK    5  A    between atoms: N3_27  and  C22_28 
REMARK    6  A    between atoms: C22_28  and  C23_29 
REMARK    7  A    between atoms: C23_29  and  O3_30 
ROOT
HETATM    1  C4  UNL     1      19.849  -5.897 -42.212  1.00  0.00     0.010 C 
HETATM    2  C5  UNL     1      20.845  -6.827 -41.558  1.00  0.00     0.032 C 
HETATM    3  C6  UNL     1      22.027  -6.894 -42.484  1.00  0.00     0.094 C 
HETATM    4  C7  UNL     1      21.575  -7.431 -43.786  1.00  0.00     0.053 C 
HETATM    5  C8  UNL     1      20.350  -8.309 -43.731  1.00  0.00     0.049 C 
HETATM    6  C9  UNL     1      19.078  -7.537 -43.965  1.00  0.00     0.242 C 
HETATM    7  C16 UNL     1      18.729  -6.573 -42.910  1.00  0.00     0.130 C 
HETATM    8  C17 UNL     1      17.857  -7.192 -41.879  1.00  0.00     0.066 C 
HETATM    9  N2  UNL     1      17.161  -7.675 -41.089  1.00  0.00    -0.197 NA
HETATM   10  C18 UNL     1      22.759  -8.261 -44.213  1.00  0.00     0.015 A 
HETATM   11  S1  UNL     1      23.464  -9.105 -45.511  1.00  0.00    -0.104 SA
HETATM   12  C19 UNL     1      24.884  -9.661 -44.745  1.00  0.00     0.052 A 
HETATM   13  C20 UNL     1      24.766  -9.166 -43.477  1.00  0.00     0.037 A 
HETATM   14  C21 UNL     1      23.650  -8.430 -43.196  1.00  0.00     0.044 A 
HETATM   15  N3  UNL     1      23.094  -7.723 -42.050  1.00  0.00    -0.372 N 
ENDROOT
BRANCH   1  16
HETATM   16  C2  UNL     1      19.248  -5.069 -41.068  1.00  0.00    -0.017 C 
HETATM   17  C1  UNL     1      18.041  -4.305 -41.524  1.00  0.00     0.010 C 
HETATM   18  C3  UNL     1      20.238  -4.087 -40.501  1.00  0.00     0.010 C 
ENDBRANCH   1  16
BRANCH   6  19
HETATM   19  N1  UNL     1      19.127  -7.028 -45.303  1.00  0.00     0.099 N 
HETATM   20  C10 UNL     1      19.243  -5.606 -45.410  1.00  0.00     0.273 C 
HETATM   21  C11 UNL     1      19.025  -5.350 -46.890  1.00  0.00     0.032 C 
HETATM   22  C12 UNL     1      18.213  -6.511 -47.366  1.00  0.00     0.038 C 
HETATM   23  C13 UNL     1      18.180  -7.513 -46.202  1.00  0.00     0.233 C 
BRANCH  23  24
HETATM   24  C14 UNL     1      16.767  -7.651 -45.804  1.00  0.00     0.148 C 
BRANCH  24  25
HETATM   25  C15 UNL     1      16.063  -8.403 -46.890  1.00  0.00     0.174 C 
HETATM   26  O1  UNL     1      16.441  -9.555 -47.278  1.00  0.00    -0.648 OA
HETATM   27  O2  UNL     1      14.958  -7.876 -47.528  1.00  0.00    -0.648 OA
ENDBRANCH  24  25
ENDBRANCH  23  24
ENDBRANCH   6  19
BRANCH  15  28
HETATM   28  C22 UNL     1      23.544  -7.832 -40.683  1.00  0.00     0.149 C 
BRANCH  28  29
HETATM   29  C23 UNL     1      23.770  -6.416 -40.154  1.00  0.00     0.183 C 
BRANCH  29  30
HETATM   30  O3  UNL     1      23.437  -6.305 -38.812  1.00  0.00    -0.399 OA
ATOM     31  H3  UNL     1      24.136  -6.614 -38.246  1.00  0.00     0.209 HD
ENDBRANCH  29  30
ENDBRANCH  28  29
ENDBRANCH  15  28
TORSDOF 7
ENDMDL
MODEL 5
REMARK VINA RESULT: -6.466796335      2.342      6.584
REMARK  7 active torsions:
REMARK  status: ('A' for Active; 'I' for Inactive)
REMARK    1  A    between atoms: C2_2  and  C4_4 
REMARK    2  A    between atoms: C9_9  and  N1_10 
REMARK    3  A    between atoms: C13_14  and  C14_15 
REMARK    4  A    between atoms: C14_15  and  C15_16 
REMARK    5  A    between atoms: N3_27  and  C22_28 
REMARK    6  A    between atoms: C22_28  and  C23_29 
REMARK    7  A    between atoms: C23_29  and  O3_30 
ROOT
HETATM    1  C4  UNL     1      18.005  -7.140 -42.556  1.00  0.00     0.010 C 
HETATM    2  C5  UNL     1      17.036  -6.447 -43.487  1.00  0.00     0.032 C 
HETATM    3  C6  UNL     1      17.120  -7.176 -44.798  1.00  0.00     0.094 C 
HETATM    4  C7  UNL     1      18.506  -7.077 -45.304  1.00  0.00     0.053 C 
HETATM    5  C8  UNL     1      19.283  -5.876 -44.824  1.00  0.00     0.049 C 
HETATM    6  C9  UNL     1      20.092  -6.171 -43.587  1.00  0.00     0.242 C 
HETATM    7  C16 UNL     1      19.303  -6.446 -42.376  1.00  0.00     0.130 C 
HETATM    8  C17 UNL     1      19.053  -5.204 -41.601  1.00  0.00     0.066 C 
HETATM    9  N2  UNL     1      18.879  -4.235 -40.991  1.00  0.00    -0.197 NA
HETATM   10  C18 UNL     1      18.291  -6.962 -46.792  1.00  0.00     0.015 A 
HETATM   11  S1  UNL     1      19.056  -7.012 -48.311  1.00  0.00    -0.104 SA
HETATM   12  C19 UNL     1      17.703  -6.742 -49.315  1.00  0.00     0.052 A 
HETATM   13  C20 UNL     1      16.676  -6.617 -48.422  1.00  0.00     0.037 A 
HETATM   14  C21 UNL     1      16.983  -6.733 -47.096  1.00  0.00     0.044 A 
HETATM   15  N3  UNL     1      16.275  -6.680 -45.825  1.00  0.00    -0.372 N 
ENDROOT
BRANCH   1  16
HETATM   16  C2  UNL     1      17.307  -7.174 -41.189  1.00  0.00    -0.017 C 
HETATM   17  C1  UNL     1      17.111  -8.582 -40.712  1.00  0.00     0.010 C 
HETATM   18  C3  UNL     1      15.962  -6.499 -41.225  1.00  0.00     0.010 C 
ENDBRANCH   1  16
BRANCH   6  19
HETATM   19  N1  UNL     1      21.075  -7.149 -43.944  1.00  0.00     0.099 N 
HETATM   20  C10 UNL     1      20.611  -8.504 -43.955  1.00  0.00     0.273 C 
HETATM   21  C11 UNL     1      21.889  -9.307 -44.115  1.00  0.00     0.032 C 
HETATM   22  C12 UNL     1      22.968  -8.429 -43.567  1.00  0.00     0.038 C 
HETATM   23  C13 UNL     1      22.316  -7.060 -43.317  1.00  0.00     0.233 C 
BRANCH  23  24
HETATM   24  C14 UNL     1      22.410  -6.806 -41.867  1.00  0.00     0.148 C 
BRANCH  24  25
HETATM   25  C15 UNL     1      22.559  -5.329 -41.677  1.00  0.00     0.174 C 
HETATM   26  O1  UNL     1      22.882  -4.548 -42.628  1.00  0.00    -0.648 OA
HETATM   27  O2  UNL     1      22.348  -4.739 -40.447  1.00  0.00    -0.648 OA
ENDBRANCH  24  25
ENDBRANCH  23  24
ENDBRANCH   6  19
BRANCH  15  28
HETATM   28  C22 UNL     1      14.927  -6.207 -45.621  1.00  0.00     0.149 C 
BRANCH  28  29
HETATM   29  C23 UNL     1      13.975  -7.352 -45.963  1.00  0.00     0.183 C 
BRANCH  29  30
HETATM   30  O3  UNL     1      13.970  -8.332 -44.981  1.00  0.00    -0.399 OA
ATOM     31  H3  UNL     1      13.093  -8.510 -44.661  1.00  0.00     0.209 HD
ENDBRANCH  29  30
ENDBRANCH  28  29
ENDBRANCH  15  28
TORSDOF 7
ENDMDL
