MODEL 1
REMARK VINA RESULT: -7.914915718      0.000      0.000
REMARK  8 active torsions:
REMARK  status: ('A' for Active; 'I' for Inactive)
REMARK    1  A    between atoms: O1_2  and  C2_3 
REMARK    2  A    between atoms: C7_8  and  O2_9 
REMARK    3  A    between atoms: C11_13  and  C12_14 
REMARK    4  A    between atoms: C12_14  and  O3_17 
REMARK    5  A    between atoms: N1_27  and  C22_28 
REMARK    6  A    between atoms: C22_28  and  C23_29 
REMARK    7  A    between atoms: C23_29  and  C24_30 
REMARK    8  A    between atoms: C24_30  and  O4_31 
ROOT
HETATM    1  C2  UNL     1      23.358  -9.747 -44.043  1.00  0.00     0.102 A 
HETATM    2  C3  UNL     1      22.224  -9.438 -44.759  1.00  0.00     0.047 A 
HETATM    3  C4  UNL     1      21.390  -8.378 -44.407  1.00  0.00    -0.041 A 
HETATM    4  C5  UNL     1      21.757  -7.648 -43.303  1.00  0.00    -0.028 A 
HETATM    5  C6  UNL     1      22.902  -7.959 -42.576  1.00  0.00     0.049 A 
HETATM    6  C7  UNL     1      23.728  -9.019 -42.933  1.00  0.00     0.102 A 
HETATM    7  C9  UNL     1      20.743  -6.566 -43.145  1.00  0.00     0.068 C 
HETATM    8  C10 UNL     1      20.573  -6.063 -41.771  1.00  0.00     0.036 C 
HETATM    9  C11 UNL     1      21.524  -4.938 -41.521  1.00  0.00     0.030 C 
HETATM   10  C15 UNL     1      21.291  -3.923 -42.643  1.00  0.00     0.082 C 
HETATM   11  S1  UNL     1      21.359  -5.123 -44.040  1.00  0.00    -0.151 SA
HETATM   12  C16 UNL     1      19.537  -7.182 -43.764  1.00  0.00     0.254 C 
HETATM   13  C17 UNL     1      20.118  -7.868 -44.979  1.00  0.00     0.055 C 
HETATM   14  C18 UNL     1      20.249  -7.022 -46.186  1.00  0.00     0.017 C 
HETATM   15  C19 UNL     1      19.061  -6.098 -46.379  1.00  0.00     0.011 C 
HETATM   16  C20 UNL     1      18.430  -6.333 -47.774  1.00  0.00     0.011 C 
HETATM   17  C21 UNL     1      17.951  -6.368 -45.408  1.00  0.00     0.277 C 
HETATM   18  N1  UNL     1      18.419  -6.368 -44.035  1.00  0.00     0.096 N 
ENDROOT
BRANCH   9  19
HETATM   19  C12 UNL     1      21.276  -4.243 -40.209  1.00  0.00     0.055 C 
HETATM   20  C13 UNL     1      21.380  -2.756 -40.306  1.00  0.00     0.045 C 
HETATM   21  C14 UNL     1      22.187  -4.721 -39.104  1.00  0.00     0.045 C 
BRANCH  19  22
HETATM   22  O3  UNL     1      19.960  -4.520 -39.775  1.00  0.00    -0.390 OA
ATOM     23  H3  UNL     1      19.618  -3.766 -39.310  1.00  0.00     0.210 HD
ENDBRANCH  19  22
ENDBRANCH   9  19
BRANCH  18  24
HETATM   24  C22 UNL     1      17.333  -6.766 -43.151  1.00  0.00     0.275 C 
BRANCH  24  25
HETATM   25  C23 UNL     1      16.262  -5.755 -43.012  1.00  0.00     0.056 C 
BRANCH  25  26
HETATM   26  C24 UNL     1      16.115  -5.316 -41.556  1.00  0.00     0.165 C 
BRANCH  26  27
HETATM   27  O4  UNL     1      17.254  -4.640 -41.124  1.00  0.00    -0.401 OA
ATOM     28  H4  UNL     1      17.082  -4.167 -40.319  1.00  0.00     0.209 HD
ENDBRANCH  26  27
ENDBRANCH  25  26
ENDBRANCH  24  25
ENDBRANCH  18  24
BRANCH   6  29
HETATM   29  O2  UNL     1      24.875  -9.348 -42.224  1.00  0.00    -0.353 OA
HETATM   30  C8  UNL     1      26.118  -9.044 -42.831  1.00  0.00     0.210 C 
ENDBRANCH   6  29
BRANCH   1  31
HETATM   31  O1  UNL     1      24.178 -10.805 -44.404  1.00  0.00    -0.353 OA
HETATM   32  C1  UNL     1      23.732 -12.042 -44.861  1.00  0.00     0.210 C 
ENDBRANCH   1  31
TORSDOF 8
ENDMDL
MODEL 2
REMARK VINA RESULT: -6.771459644      2.716      5.976
REMARK  8 active torsions:
REMARK  status: ('A' for Active; 'I' for Inactive)
REMARK    1  A    between atoms: O1_2  and  C2_3 
REMARK    2  A    between atoms: C7_8  and  O2_9 
REMARK    3  A    between atoms: C11_13  and  C12_14 
REMARK    4  A    between atoms: C12_14  and  O3_17 
REMARK    5  A    between atoms: N1_27  and  C22_28 
REMARK    6  A    between atoms: C22_28  and  C23_29 
REMARK    7  A    between atoms: C23_29  and  C24_30 
REMARK    8  A    between atoms: C24_30  and  O4_31 
ROOT
HETATM    1  C2  UNL     1      18.360  -6.771 -48.507  1.00  0.00     0.102 A 
HETATM    2  C3  UNL     1      19.578  -6.924 -47.884  1.00  0.00     0.047 A 
HETATM    3  C4  UNL     1      19.724  -6.807 -46.502  1.00  0.00    -0.041 A 
HETATM    4  C5  UNL     1      18.586  -6.532 -45.785  1.00  0.00    -0.028 A 
HETATM    5  C6  UNL     1      17.353  -6.376 -46.412  1.00  0.00     0.049 A 
HETATM    6  C7  UNL     1      17.216  -6.493 -47.791  1.00  0.00     0.102 A 
HETATM    7  C9  UNL     1      18.982  -6.485 -44.348  1.00  0.00     0.068 C 
HETATM    8  C10 UNL     1      18.125  -5.649 -43.489  1.00  0.00     0.036 C 
HETATM    9  C11 UNL     1      16.998  -6.468 -42.947  1.00  0.00     0.030 C 
HETATM   10  C15 UNL     1      17.638  -7.687 -42.278  1.00  0.00     0.082 C 
HETATM   11  S1  UNL     1      18.749  -8.145 -43.676  1.00  0.00    -0.151 SA
HETATM   12  C16 UNL     1      20.410  -6.072 -44.437  1.00  0.00     0.254 C 
HETATM   13  C17 UNL     1      20.905  -6.889 -45.607  1.00  0.00     0.055 C 
HETATM   14  C18 UNL     1      21.369  -8.256 -45.278  1.00  0.00     0.017 C 
HETATM   15  C19 UNL     1      22.153  -8.306 -43.980  1.00  0.00     0.011 C 
HETATM   16  C20 UNL     1      23.553  -8.919 -44.231  1.00  0.00     0.011 C 
HETATM   17  C21 UNL     1      22.427  -6.945 -43.413  1.00  0.00     0.277 C 
HETATM   18  N1  UNL     1      21.216  -6.157 -43.284  1.00  0.00     0.096 N 
ENDROOT
BRANCH   9  19
HETATM   19  C12 UNL     1      16.192  -5.738 -41.906  1.00  0.00     0.055 C 
HETATM   20  C13 UNL     1      16.745  -4.390 -41.578  1.00  0.00     0.045 C 
HETATM   21  C14 UNL     1      16.033  -6.521 -40.625  1.00  0.00     0.045 C 
BRANCH  19  22
HETATM   22  O3  UNL     1      14.884  -5.522 -42.394  1.00  0.00    -0.390 OA
ATOM     23  H3  UNL     1      14.932  -5.215 -43.292  1.00  0.00     0.210 HD
ENDBRANCH  19  22
ENDBRANCH   9  19
BRANCH  18  24
HETATM   24  C22 UNL     1      21.558  -4.807 -42.859  1.00  0.00     0.275 C 
BRANCH  24  25
HETATM   25  C23 UNL     1      21.649  -4.637 -41.393  1.00  0.00     0.056 C 
BRANCH  25  26
HETATM   26  C24 UNL     1      20.266  -4.718 -40.749  1.00  0.00     0.165 C 
BRANCH  26  27
HETATM   27  O4  UNL     1      20.268  -4.119 -39.491  1.00  0.00    -0.401 OA
ATOM     28  H4  UNL     1      19.539  -4.429 -38.967  1.00  0.00     0.209 HD
ENDBRANCH  26  27
ENDBRANCH  25  26
ENDBRANCH  24  25
ENDBRANCH  18  24
BRANCH   6  29
HETATM   29  O2  UNL     1      15.998  -6.342 -48.439  1.00  0.00    -0.353 OA
HETATM   30  C8  UNL     1      14.831  -6.381 -47.637  1.00  0.00     0.210 C 
ENDBRANCH   6  29
BRANCH   1  31
HETATM   31  O1  UNL     1      18.228  -6.890 -49.882  1.00  0.00    -0.353 OA
HETATM   32  C1  UNL     1      18.831  -7.875 -50.659  1.00  0.00     0.210 C 
ENDBRANCH   1  31
TORSDOF 8
ENDMDL
MODEL 3
REMARK VINA RESULT: -6.632302783      4.938      8.322
REMARK  8 active torsions:
REMARK  status: ('A' for Active; 'I' for Inactive)
REMARK    1  A    between atoms: O1_2  and  C2_3 
REMARK    2  A    between atoms: C7_8  and  O2_9 
REMARK    3  A    between atoms: C11_13  and  C12_14 
REMARK    4  A    between atoms: C12_14  and  O3_17 
REMARK    5  A    between atoms: N1_27  and  C22_28 
REMARK    6  A    between atoms: C22_28  and  C23_29 
REMARK    7  A    between atoms: C23_29  and  C24_30 
REMARK    8  A    between atoms: C24_30  and  O4_31 
ROOT
HETATM    1  C2  UNL     1      15.397 -11.581 -46.541  1.00  0.00     0.102 A 
HETATM    2  C3  UNL     1      15.809 -10.618 -45.647  1.00  0.00     0.047 A 
HETATM    3  C4  UNL     1      16.220  -9.351 -46.059  1.00  0.00    -0.041 A 
HETATM    4  C5  UNL     1      16.194  -9.105 -47.410  1.00  0.00    -0.028 A 
HETATM    5  C6  UNL     1      15.779 -10.077 -48.315  1.00  0.00     0.049 A 
HETATM    6  C7  UNL     1      15.371 -11.338 -47.897  1.00  0.00     0.102 A 
HETATM    7  C9  UNL     1      16.642  -7.696 -47.601  1.00  0.00     0.068 C 
HETATM    8  C10 UNL     1      17.255  -7.405 -48.909  1.00  0.00     0.036 C 
HETATM    9  C11 UNL     1      16.199  -6.994 -49.883  1.00  0.00     0.030 C 
HETATM   10  C15 UNL     1      15.435  -5.841 -49.226  1.00  0.00     0.082 C 
HETATM   11  S1  UNL     1      15.162  -6.661 -47.598  1.00  0.00    -0.151 SA
HETATM   12  C16 UNL     1      17.517  -7.489 -46.414  1.00  0.00     0.254 C 
HETATM   13  C17 UNL     1      16.734  -8.172 -45.318  1.00  0.00     0.055 C 
HETATM   14  C18 UNL     1      15.710  -7.335 -44.650  1.00  0.00     0.017 C 
HETATM   15  C19 UNL     1      16.183  -5.913 -44.420  1.00  0.00     0.011 C 
HETATM   16  C20 UNL     1      16.081  -5.559 -42.916  1.00  0.00     0.011 C 
HETATM   17  C21 UNL     1      17.630  -5.719 -44.760  1.00  0.00     0.277 C 
HETATM   18  N1  UNL     1      17.939  -6.181 -46.100  1.00  0.00     0.096 N 
ENDROOT
BRANCH   9  19
HETATM   19  C12 UNL     1      16.767  -6.491 -51.184  1.00  0.00     0.055 C 
HETATM   20  C13 UNL     1      15.870  -6.745 -52.351  1.00  0.00     0.045 C 
HETATM   21  C14 UNL     1      18.133  -7.057 -51.491  1.00  0.00     0.045 C 
BRANCH  19  22
HETATM   22  O3  UNL     1      16.934  -5.090 -51.110  1.00  0.00    -0.390 OA
ATOM     23  H3  UNL     1      16.083  -4.677 -51.023  1.00  0.00     0.210 HD
ENDBRANCH  19  22
ENDBRANCH   9  19
BRANCH  18  24
HETATM   24  C22 UNL     1      19.375  -6.093 -46.325  1.00  0.00     0.275 C 
BRANCH  24  25
HETATM   25  C23 UNL     1      20.046  -5.024 -45.555  1.00  0.00     0.056 C 
BRANCH  25  26
HETATM   26  C24 UNL     1      21.438  -5.468 -45.108  1.00  0.00     0.165 C 
BRANCH  26  27
HETATM   27  O4  UNL     1      21.776  -6.693 -45.679  1.00  0.00    -0.401 OA
ATOM     28  H4  UNL     1      21.814  -6.626 -46.626  1.00  0.00     0.209 HD
ENDBRANCH  26  27
ENDBRANCH  25  26
ENDBRANCH  24  25
ENDBRANCH  18  24
BRANCH   6  29
HETATM   29  O2  UNL     1      14.953 -12.323 -48.781  1.00  0.00    -0.353 OA
HETATM   30  C8  UNL     1      15.330 -12.176 -50.137  1.00  0.00     0.210 C 
ENDBRANCH   6  29
BRANCH   1  31
HETATM   31  O1  UNL     1      14.990 -12.836 -46.117  1.00  0.00    -0.353 OA
HETATM   32  C1  UNL     1      15.763 -13.713 -45.361  1.00  0.00     0.210 C 
ENDBRANCH   1  31
TORSDOF 8
ENDMDL
MODEL 4
REMARK VINA RESULT: -6.385575510      5.228      7.133
REMARK  8 active torsions:
REMARK  status: ('A' for Active; 'I' for Inactive)
REMARK    1  A    between atoms: O1_2  and  C2_3 
REMARK    2  A    between atoms: C7_8  and  O2_9 
REMARK    3  A    between atoms: C11_13  and  C12_14 
REMARK    4  A    between atoms: C12_14  and  O3_17 
REMARK    5  A    between atoms: N1_27  and  C22_28 
REMARK    6  A    between atoms: C22_28  and  C23_29 
REMARK    7  A    between atoms: C23_29  and  C24_30 
REMARK    8  A    between atoms: C24_30  and  O4_31 
ROOT
HETATM    1  C2  UNL     1      14.923 -12.384 -47.573  1.00  0.00     0.102 A 
HETATM    2  C3  UNL     1      14.737 -11.235 -48.308  1.00  0.00     0.047 A 
HETATM    3  C4  UNL     1      15.076  -9.976 -47.815  1.00  0.00    -0.041 A 
HETATM    4  C5  UNL     1      15.609  -9.935 -46.550  1.00  0.00    -0.028 A 
HETATM    5  C6  UNL     1      15.797 -11.094 -45.804  1.00  0.00     0.049 A 
HETATM    6  C7  UNL     1      15.457 -12.346 -46.303  1.00  0.00     0.102 A 
HETATM    7  C9  UNL     1      15.915  -8.505 -46.257  1.00  0.00     0.068 C 
HETATM    8  C10 UNL     1      15.915  -8.144 -44.829  1.00  0.00     0.036 C 
HETATM    9  C11 UNL     1      17.280  -8.348 -44.255  1.00  0.00     0.030 C 
HETATM   10  C15 UNL     1      18.242  -7.561 -45.148  1.00  0.00     0.082 C 
HETATM   11  S1  UNL     1      17.624  -8.211 -46.759  1.00  0.00    -0.151 SA
HETATM   12  C16 UNL     1      14.914  -7.798 -47.104  1.00  0.00     0.254 C 
HETATM   13  C17 UNL     1      14.946  -8.609 -48.379  1.00  0.00     0.055 C 
HETATM   14  C18 UNL     1      15.984  -8.215 -49.358  1.00  0.00     0.017 C 
HETATM   15  C19 UNL     1      16.149  -6.711 -49.456  1.00  0.00     0.011 C 
HETATM   16  C20 UNL     1      15.945  -6.252 -50.921  1.00  0.00     0.011 C 
HETATM   17  C21 UNL     1      15.113  -5.960 -48.674  1.00  0.00     0.277 C 
HETATM   18  N1  UNL     1      15.045  -6.408 -47.296  1.00  0.00     0.096 N 
ENDROOT
BRANCH   9  19
HETATM   19  C12 UNL     1      17.410  -7.816 -42.853  1.00  0.00     0.055 C 
HETATM   20  C13 UNL     1      16.338  -6.838 -42.496  1.00  0.00     0.045 C 
HETATM   21  C14 UNL     1      18.754  -7.182 -42.582  1.00  0.00     0.045 C 
BRANCH  19  22
HETATM   22  O3  UNL     1      17.293  -8.884 -41.935  1.00  0.00    -0.390 OA
ATOM     23  H3  UNL     1      16.374  -9.039 -41.750  1.00  0.00     0.210 HD
ENDBRANCH  19  22
ENDBRANCH   9  19
BRANCH  18  24
HETATM   24  C22 UNL     1      13.938  -5.743 -46.623  1.00  0.00     0.275 C 
BRANCH  24  25
HETATM   25  C23 UNL     1      13.115  -6.637 -45.780  1.00  0.00     0.056 C 
BRANCH  25  26
HETATM   26  C24 UNL     1      11.654  -6.192 -45.780  1.00  0.00     0.165 C 
BRANCH  26  27
HETATM   27  O4  UNL     1      11.016  -6.582 -44.605  1.00  0.00    -0.401 OA
ATOM     28  H4  UNL     1      10.099  -6.773 -44.764  1.00  0.00     0.209 HD
ENDBRANCH  26  27
ENDBRANCH  25  26
ENDBRANCH  24  25
ENDBRANCH  18  24
BRANCH   6  29
HETATM   29  O2  UNL     1      15.635 -13.517 -45.578  1.00  0.00    -0.353 OA
HETATM   30  C8  UNL     1      15.972 -13.383 -44.210  1.00  0.00     0.210 C 
ENDBRANCH   6  29
BRANCH   1  31
HETATM   31  O1  UNL     1      14.583 -13.630 -48.076  1.00  0.00    -0.353 OA
HETATM   32  C1  UNL     1      13.909 -13.851 -49.274  1.00  0.00     0.210 C 
ENDBRANCH   1  31
TORSDOF 8
ENDMDL
MODEL 5
REMARK VINA RESULT: -5.863221428      3.982      8.503
REMARK  8 active torsions:
REMARK  status: ('A' for Active; 'I' for Inactive)
REMARK    1  A    between atoms: O1_2  and  C2_3 
REMARK    2  A    between atoms: C7_8  and  O2_9 
REMARK    3  A    between atoms: C11_13  and  C12_14 
REMARK    4  A    between atoms: C12_14  and  O3_17 
REMARK    5  A    between atoms: N1_27  and  C22_28 
REMARK    6  A    between atoms: C22_28  and  C23_29 
REMARK    7  A    between atoms: C23_29  and  C24_30 
REMARK    8  A    between atoms: C24_30  and  O4_31 
ROOT
HETATM    1  C2  UNL     1      22.527  -7.998 -43.658  1.00  0.00     0.102 A 
HETATM    2  C3  UNL     1      22.410  -8.689 -44.843  1.00  0.00     0.047 A 
HETATM    3  C4  UNL     1      23.416  -9.533 -45.311  1.00  0.00    -0.041 A 
HETATM    4  C5  UNL     1      24.539  -9.645 -44.529  1.00  0.00    -0.028 A 
HETATM    5  C6  UNL     1      24.660  -8.946 -43.331  1.00  0.00     0.049 A 
HETATM    6  C7  UNL     1      23.652  -8.106 -42.871  1.00  0.00     0.102 A 
HETATM    7  C9  UNL     1      25.447 -10.610 -45.211  1.00  0.00     0.068 C 
HETATM    8  C10 UNL     1      26.880 -10.439 -44.915  1.00  0.00     0.036 C 
HETATM    9  C11 UNL     1      27.249 -11.246 -43.712  1.00  0.00     0.030 C 
HETATM   10  C15 UNL     1      26.787 -12.677 -43.998  1.00  0.00     0.082 C 
HETATM   11  S1  UNL     1      25.079 -12.249 -44.547  1.00  0.00    -0.151 SA
HETATM   12  C16 UNL     1      25.055 -10.443 -46.639  1.00  0.00     0.254 C 
HETATM   13  C17 UNL     1      23.550 -10.346 -46.546  1.00  0.00     0.055 C 
HETATM   14  C18 UNL     1      22.828 -11.639 -46.547  1.00  0.00     0.017 C 
HETATM   15  C19 UNL     1      23.428 -12.638 -47.517  1.00  0.00     0.011 C 
HETATM   16  C20 UNL     1      22.347 -13.119 -48.516  1.00  0.00     0.011 C 
HETATM   17  C21 UNL     1      24.503 -12.042 -48.376  1.00  0.00     0.277 C 
HETATM   18  N1  UNL     1      25.521 -11.377 -47.586  1.00  0.00     0.096 N 
ENDROOT
BRANCH   9  19
HETATM   19  C12 UNL     1      28.733 -11.280 -43.464  1.00  0.00     0.055 C 
HETATM   20  C13 UNL     1      29.273 -12.667 -43.333  1.00  0.00     0.045 C 
HETATM   21  C14 UNL     1      29.149 -10.483 -42.251  1.00  0.00     0.045 C 
BRANCH  19  22
HETATM   22  O3  UNL     1      29.404 -10.696 -44.562  1.00  0.00    -0.390 OA
ATOM     23  H3  UNL     1      30.307 -10.523 -44.322  1.00  0.00     0.210 HD
ENDBRANCH  19  22
ENDBRANCH   9  19
BRANCH  18  24
HETATM   24  C22 UNL     1      26.462 -10.705 -48.472  1.00  0.00     0.275 C 
BRANCH  24  25
HETATM   25  C23 UNL     1      27.855 -11.185 -48.354  1.00  0.00     0.056 C 
BRANCH  25  26
HETATM   26  C24 UNL     1      28.839 -10.018 -48.407  1.00  0.00     0.165 C 
BRANCH  26  27
HETATM   27  O4  UNL     1      29.627  -9.980 -47.258  1.00  0.00    -0.401 OA
ATOM     28  H4  UNL     1      29.914 -10.852 -47.015  1.00  0.00     0.209 HD
ENDBRANCH  26  27
ENDBRANCH  25  26
ENDBRANCH  24  25
ENDBRANCH  18  24
BRANCH   6  29
HETATM   29  O2  UNL     1      23.750  -7.399 -41.681  1.00  0.00    -0.353 OA
HETATM   30  C8  UNL     1      23.555  -8.125 -40.481  1.00  0.00     0.210 C 
ENDBRANCH   6  29
BRANCH   1  31
HETATM   31  O1  UNL     1      21.518  -7.162 -43.204  1.00  0.00    -0.353 OA
HETATM   32  C1  UNL     1      21.155  -5.955 -43.794  1.00  0.00     0.210 C 
ENDBRANCH   1  31
TORSDOF 8
ENDMDL
