MODEL 1
REMARK VINA RESULT: -8.902951068      0.000      0.000
REMARK  8 active torsions:
REMARK  status: ('A' for Active; 'I' for Inactive)
REMARK    1  A    between atoms: C7_7  and  C8_8 
REMARK    2  A    between atoms: C8_8  and  O1_9 
REMARK    3  A    between atoms: N1_17  and  C15_18 
REMARK    4  A    between atoms: C15_18  and  C16_19 
REMARK    5  A    between atoms: N2_27  and  C23_28 
REMARK    6  A    between atoms: C23_28  and  C24_29 
REMARK    7  A    between atoms: C24_29  and  C25_30 
REMARK    8  A    between atoms: C25_30  and  N3_31 
ROOT
HETATM    1  C1  UNL     1      21.035  -3.964 -39.304  1.00  0.00     0.077 C 
HETATM    2  C2  UNL     1      20.365  -4.539 -40.501  1.00  0.00     0.052 A 
HETATM    3  C3  UNL     1      21.010  -5.005 -41.623  1.00  0.00     0.065 A 
HETATM    4  C4  UNL     1      20.041  -5.459 -42.509  1.00  0.00     0.073 A 
HETATM    5  C5  UNL     1      18.844  -5.242 -41.878  1.00  0.00     0.103 A 
HETATM    6  C6  UNL     1      17.677  -5.592 -42.524  1.00  0.00     0.055 A 
HETATM    7  C7  UNL     1      17.718  -6.149 -43.790  1.00  0.00     0.047 A 
HETATM    8  C22 UNL     1      18.953  -6.330 -44.347  1.00  0.00     0.257 A 
HETATM    9  O2  UNL     1      19.020  -6.843 -45.513  1.00  0.00    -0.267 OA
HETATM   10  N2  UNL     1      20.124  -5.994 -43.730  1.00  0.00    -0.311 N 
HETATM   11  O3  UNL     1      19.074  -4.702 -40.701  1.00  0.00    -0.313 OA
ENDROOT
BRANCH   7  12
HETATM   12  C8  UNL     1      16.458  -6.537 -44.521  1.00  0.00     0.094 C 
HETATM   13  C9  UNL     1      16.567  -7.960 -44.931  1.00  0.00     0.079 C 
HETATM   14  C10 UNL     1      15.561  -8.347 -46.040  1.00  0.00     0.226 C 
HETATM   15  C11 UNL     1      14.181  -8.035 -45.469  1.00  0.00     0.038 C 
HETATM   16  N1  UNL     1      15.737  -7.490 -47.138  1.00  0.00     0.098 N 
HETATM   17  C12 UNL     1      13.932  -6.625 -45.924  1.00  0.00     0.038 C 
HETATM   18  C13 UNL     1      15.187  -6.221 -46.619  1.00  0.00     0.226 C 
HETATM   19  C14 UNL     1      16.260  -5.649 -45.743  1.00  0.00     0.079 C 
BRANCH  12  20
HETATM   20  O1  UNL     1      15.432  -6.283 -43.603  1.00  0.00    -0.385 OA
ATOM     21  H1  UNL     1      15.580  -5.387 -43.326  1.00  0.00     0.211 HD
ENDBRANCH  12  20
BRANCH  16  22
HETATM   22  C15 UNL     1      15.122  -7.736 -48.372  1.00  0.00     0.278 C 
BRANCH  22  23
HETATM   23  C16 UNL     1      15.192  -6.711 -49.448  1.00  0.00     0.014 C 
HETATM   24  C17 UNL     1      14.600  -7.338 -50.735  1.00  0.00     0.006 C 
HETATM   25  C18 UNL     1      15.698  -8.087 -51.449  1.00  0.00     0.000 C 
HETATM   26  C19 UNL     1      16.720  -7.153 -52.070  1.00  0.00     0.000 C 
HETATM   27  C20 UNL     1      16.615  -5.828 -51.307  1.00  0.00     0.000 C 
HETATM   28  C21 UNL     1      16.536  -6.221 -49.833  1.00  0.00     0.006 C 
ENDBRANCH  22  23
ENDBRANCH  16  22
ENDBRANCH   7  12
BRANCH  10  29
HETATM   29  C23 UNL     1      21.347  -6.276 -44.404  1.00  0.00     0.134 C 
BRANCH  29  30
HETATM   30  C24 UNL     1      22.168  -7.418 -43.971  1.00  0.00     0.047 C 
BRANCH  30  31
HETATM   31  C25 UNL     1      21.891  -8.736 -44.570  1.00  0.00     0.231 C 
BRANCH  31  32
HETATM   32  N3  UNL     1      21.437  -8.723 -45.943  1.00  0.00    -0.079 N 
ATOM     33  H33 UNL     1      20.651  -8.081 -46.042  1.00  0.00     0.274 HD
ATOM     34  H32 UNL     1      22.129  -8.259 -46.532  1.00  0.00     0.274 HD
ATOM     35  H31 UNL     1      21.196  -9.631 -46.341  1.00  0.00     0.274 HD
ENDBRANCH  31  32
ENDBRANCH  30  31
ENDBRANCH  29  30
ENDBRANCH  10  29
TORSDOF 8
ENDMDL
MODEL 2
REMARK VINA RESULT: -8.775346610      2.139      8.213
REMARK  8 active torsions:
REMARK  status: ('A' for Active; 'I' for Inactive)
REMARK    1  A    between atoms: C7_7  and  C8_8 
REMARK    2  A    between atoms: C8_8  and  O1_9 
REMARK    3  A    between atoms: N1_17  and  C15_18 
REMARK    4  A    between atoms: C15_18  and  C16_19 
REMARK    5  A    between atoms: N2_27  and  C23_28 
REMARK    6  A    between atoms: C23_28  and  C24_29 
REMARK    7  A    between atoms: C24_29  and  C25_30 
REMARK    8  A    between atoms: C25_30  and  N3_31 
ROOT
HETATM    1  C1  UNL     1      15.438  -6.590 -52.191  1.00  0.00     0.077 C 
HETATM    2  C2  UNL     1      15.487  -6.978 -50.756  1.00  0.00     0.052 A 
HETATM    3  C3  UNL     1      15.000  -8.154 -50.236  1.00  0.00     0.065 A 
HETATM    4  C4  UNL     1      15.235  -8.140 -48.867  1.00  0.00     0.073 A 
HETATM    5  C5  UNL     1      15.856  -6.943 -48.619  1.00  0.00     0.103 A 
HETATM    6  C6  UNL     1      16.214  -6.634 -47.325  1.00  0.00     0.055 A 
HETATM    7  C7  UNL     1      15.947  -7.518 -46.294  1.00  0.00     0.047 A 
HETATM    8  C22 UNL     1      15.323  -8.688 -46.628  1.00  0.00     0.257 A 
HETATM    9  O2  UNL     1      15.066  -9.522 -45.698  1.00  0.00    -0.267 OA
HETATM   10  N2  UNL     1      14.959  -9.021 -47.901  1.00  0.00    -0.311 N 
HETATM   11  O3  UNL     1      15.988  -6.289 -49.752  1.00  0.00    -0.313 OA
ENDROOT
BRANCH   7  12
HETATM   12  C8  UNL     1      16.323  -7.204 -44.868  1.00  0.00     0.094 C 
HETATM   13  C9  UNL     1      16.893  -5.833 -44.820  1.00  0.00     0.079 C 
HETATM   14  C10 UNL     1      17.702  -5.561 -43.530  1.00  0.00     0.226 C 
HETATM   15  C11 UNL     1      16.729  -5.803 -42.378  1.00  0.00     0.038 C 
HETATM   16  N1  UNL     1      18.708  -6.532 -43.406  1.00  0.00     0.098 N 
HETATM   17  C12 UNL     1      16.945  -7.252 -42.046  1.00  0.00     0.038 C 
HETATM   18  C13 UNL     1      17.924  -7.734 -43.060  1.00  0.00     0.226 C 
HETATM   19  C14 UNL     1      17.338  -8.215 -44.353  1.00  0.00     0.079 C 
BRANCH  12  20
HETATM   20  O1  UNL     1      15.128  -7.352 -44.154  1.00  0.00    -0.385 OA
ATOM     21  H1  UNL     1      14.724  -8.125 -44.528  1.00  0.00     0.211 HD
ENDBRANCH  12  20
BRANCH  16  22
HETATM   22  C15 UNL     1      19.733  -6.416 -42.459  1.00  0.00     0.278 C 
BRANCH  22  23
HETATM   23  C16 UNL     1      20.175  -5.067 -42.011  1.00  0.00     0.014 C 
HETATM   24  C17 UNL     1      21.715  -5.004 -42.156  1.00  0.00     0.006 C 
HETATM   25  C18 UNL     1      22.335  -5.566 -40.902  1.00  0.00     0.000 C 
HETATM   26  C19 UNL     1      22.157  -4.644 -39.710  1.00  0.00     0.000 C 
HETATM   27  C20 UNL     1      20.954  -3.751 -40.032  1.00  0.00     0.000 C 
HETATM   28  C21 UNL     1      19.898  -4.693 -40.605  1.00  0.00     0.006 C 
ENDBRANCH  22  23
ENDBRANCH  16  22
ENDBRANCH   7  12
BRANCH  10  29
HETATM   29  C23 UNL     1      14.355 -10.292 -48.120  1.00  0.00     0.134 C 
BRANCH  29  30
HETATM   30  C24 UNL     1      15.198 -11.446 -48.472  1.00  0.00     0.047 C 
BRANCH  30  31
HETATM   31  C25 UNL     1      15.248 -12.578 -47.530  1.00  0.00     0.231 C 
BRANCH  31  32
HETATM   32  N3  UNL     1      15.884 -12.316 -46.259  1.00  0.00    -0.079 N 
ATOM     33  H33 UNL     1      16.541 -11.541 -46.354  1.00  0.00     0.274 HD
ATOM     34  H32 UNL     1      15.210 -11.906 -45.612  1.00  0.00     0.274 HD
ATOM     35  H31 UNL     1      16.347 -13.111 -45.819  1.00  0.00     0.274 HD
ENDBRANCH  31  32
ENDBRANCH  30  31
ENDBRANCH  29  30
ENDBRANCH  10  29
TORSDOF 8
ENDMDL
MODEL 3
REMARK VINA RESULT: -8.672302818      1.619      3.228
REMARK  8 active torsions:
REMARK  status: ('A' for Active; 'I' for Inactive)
REMARK    1  A    between atoms: C7_7  and  C8_8 
REMARK    2  A    between atoms: C8_8  and  O1_9 
REMARK    3  A    between atoms: N1_17  and  C15_18 
REMARK    4  A    between atoms: C15_18  and  C16_19 
REMARK    5  A    between atoms: N2_27  and  C23_28 
REMARK    6  A    between atoms: C23_28  and  C24_29 
REMARK    7  A    between atoms: C24_29  and  C25_30 
REMARK    8  A    between atoms: C25_30  and  N3_31 
ROOT
HETATM    1  C1  UNL     1      23.943  -7.997 -42.513  1.00  0.00     0.077 C 
HETATM    2  C2  UNL     1      22.518  -7.600 -42.671  1.00  0.00     0.052 A 
HETATM    3  C3  UNL     1      21.857  -6.691 -41.879  1.00  0.00     0.065 A 
HETATM    4  C4  UNL     1      20.551  -6.595 -42.346  1.00  0.00     0.073 A 
HETATM    5  C5  UNL     1      20.482  -7.461 -43.407  1.00  0.00     0.103 A 
HETATM    6  C6  UNL     1      19.289  -7.592 -44.084  1.00  0.00     0.055 A 
HETATM    7  C7  UNL     1      18.179  -6.863 -43.694  1.00  0.00     0.047 A 
HETATM    8  C22 UNL     1      18.334  -6.024 -42.626  1.00  0.00     0.257 A 
HETATM    9  O2  UNL     1      17.328  -5.339 -42.246  1.00  0.00    -0.267 OA
HETATM   10  N2  UNL     1      19.504  -5.873 -41.938  1.00  0.00    -0.311 N 
HETATM   11  O3  UNL     1      21.657  -8.031 -43.569  1.00  0.00    -0.313 OA
ENDROOT
BRANCH   7  12
HETATM   12  C8  UNL     1      16.861  -6.990 -44.413  1.00  0.00     0.094 C 
HETATM   13  C9  UNL     1      16.940  -8.138 -45.350  1.00  0.00     0.079 C 
HETATM   14  C10 UNL     1      15.840  -8.109 -46.437  1.00  0.00     0.226 C 
HETATM   15  C11 UNL     1      14.515  -8.098 -45.678  1.00  0.00     0.038 C 
HETATM   16  N1  UNL     1      15.909  -6.888 -47.126  1.00  0.00     0.098 N 
HETATM   17  C12 UNL     1      14.218  -6.633 -45.529  1.00  0.00     0.038 C 
HETATM   18  C13 UNL     1      15.401  -5.942 -46.112  1.00  0.00     0.226 C 
HETATM   19  C14 UNL     1      16.546  -5.708 -45.174  1.00  0.00     0.079 C 
BRANCH  12  20
HETATM   20  O1  UNL     1      15.921  -7.153 -43.388  1.00  0.00    -0.385 OA
ATOM     21  H1  UNL     1      15.267  -7.733 -43.758  1.00  0.00     0.211 HD
ENDBRANCH  12  20
BRANCH  16  22
HETATM   22  C15 UNL     1      15.185  -6.663 -48.304  1.00  0.00     0.278 C 
BRANCH  22  23
HETATM   23  C16 UNL     1      15.448  -7.505 -49.503  1.00  0.00     0.014 C 
HETATM   24  C17 UNL     1      16.780  -7.026 -50.131  1.00  0.00     0.006 C 
HETATM   25  C18 UNL     1      16.481  -5.881 -51.066  1.00  0.00     0.000 C 
HETATM   26  C19 UNL     1      15.760  -6.337 -52.320  1.00  0.00     0.000 C 
HETATM   27  C20 UNL     1      15.089  -7.670 -51.973  1.00  0.00     0.000 C 
HETATM   28  C21 UNL     1      14.455  -7.453 -50.601  1.00  0.00     0.006 C 
ENDBRANCH  22  23
ENDBRANCH  16  22
ENDBRANCH   7  12
BRANCH  10  29
HETATM   29  C23 UNL     1      19.543  -4.932 -40.870  1.00  0.00     0.134 C 
BRANCH  29  30
HETATM   30  C24 UNL     1      20.625  -3.935 -40.819  1.00  0.00     0.047 C 
BRANCH  30  31
HETATM   31  C25 UNL     1      21.112  -3.511 -39.495  1.00  0.00     0.231 C 
BRANCH  31  32
HETATM   32  N3  UNL     1      22.176  -4.309 -38.927  1.00  0.00    -0.079 N 
ATOM     33  H33 UNL     1      21.965  -4.524 -37.953  1.00  0.00     0.274 HD
ATOM     34  H32 UNL     1      22.158  -5.247 -39.330  1.00  0.00     0.274 HD
ATOM     35  H31 UNL     1      23.115  -3.918 -39.001  1.00  0.00     0.274 HD
ENDBRANCH  31  32
ENDBRANCH  30  31
ENDBRANCH  29  30
ENDBRANCH  10  29
TORSDOF 8
ENDMDL
MODEL 4
REMARK VINA RESULT: -8.547751463      1.313      1.431
REMARK  8 active torsions:
REMARK  status: ('A' for Active; 'I' for Inactive)
REMARK    1  A    between atoms: C7_7  and  C8_8 
REMARK    2  A    between atoms: C8_8  and  O1_9 
REMARK    3  A    between atoms: N1_17  and  C15_18 
REMARK    4  A    between atoms: C15_18  and  C16_19 
REMARK    5  A    between atoms: N2_27  and  C23_28 
REMARK    6  A    between atoms: C23_28  and  C24_29 
REMARK    7  A    between atoms: C24_29  and  C25_30 
REMARK    8  A    between atoms: C25_30  and  N3_31 
ROOT
HETATM    1  C1  UNL     1      21.443  -3.624 -38.890  1.00  0.00     0.077 C 
HETATM    2  C2  UNL     1      20.835  -4.306 -40.063  1.00  0.00     0.052 A 
HETATM    3  C3  UNL     1      21.527  -5.032 -41.004  1.00  0.00     0.065 A 
HETATM    4  C4  UNL     1      20.608  -5.506 -41.932  1.00  0.00     0.073 A 
HETATM    5  C5  UNL     1      19.391  -5.037 -41.508  1.00  0.00     0.103 A 
HETATM    6  C6  UNL     1      18.266  -5.343 -42.242  1.00  0.00     0.055 A 
HETATM    7  C7  UNL     1      18.366  -6.109 -43.390  1.00  0.00     0.047 A 
HETATM    8  C22 UNL     1      19.617  -6.534 -43.743  1.00  0.00     0.257 A 
HETATM    9  O2  UNL     1      19.738  -7.243 -44.797  1.00  0.00    -0.267 OA
HETATM   10  N2  UNL     1      20.748  -6.248 -43.034  1.00  0.00    -0.311 N 
HETATM   11  O3  UNL     1      19.565  -4.338 -40.407  1.00  0.00    -0.313 OA
ENDROOT
BRANCH   7  12
HETATM   12  C8  UNL     1      17.153  -6.454 -44.215  1.00  0.00     0.094 C 
HETATM   13  C9  UNL     1      17.185  -7.908 -44.517  1.00  0.00     0.079 C 
HETATM   14  C10 UNL     1      16.258  -8.301 -45.692  1.00  0.00     0.226 C 
HETATM   15  C11 UNL     1      14.861  -7.845 -45.282  1.00  0.00     0.038 C 
HETATM   16  N1  UNL     1      16.605  -7.542 -46.822  1.00  0.00     0.098 N 
HETATM   17  C12 UNL     1      14.771  -6.458 -45.853  1.00  0.00     0.038 C 
HETATM   18  C13 UNL     1      16.114  -6.202 -46.445  1.00  0.00     0.226 C 
HETATM   19  C14 UNL     1      17.143  -5.648 -45.507  1.00  0.00     0.079 C 
BRANCH  12  20
HETATM   20  O1  UNL     1      16.070  -6.058 -43.422  1.00  0.00    -0.385 OA
ATOM     21  H1  UNL     1      15.852  -5.189 -43.738  1.00  0.00     0.211 HD
ENDBRANCH  12  20
BRANCH  16  22
HETATM   22  C15 UNL     1      16.090  -7.832 -48.092  1.00  0.00     0.278 C 
BRANCH  22  23
HETATM   23  C16 UNL     1      15.817  -6.725 -49.047  1.00  0.00     0.014 C 
HETATM   24  C17 UNL     1      14.606  -7.142 -49.918  1.00  0.00     0.006 C 
HETATM   25  C18 UNL     1      15.114  -7.953 -51.084  1.00  0.00     0.000 C 
HETATM   26  C19 UNL     1      15.867  -7.103 -52.090  1.00  0.00     0.000 C 
HETATM   27  C20 UNL     1      16.339  -5.856 -51.335  1.00  0.00     0.000 C 
HETATM   28  C21 UNL     1      16.889  -6.377 -50.008  1.00  0.00     0.006 C 
ENDBRANCH  22  23
ENDBRANCH  16  22
ENDBRANCH   7  12
BRANCH  10  29
HETATM   29  C23 UNL     1      21.984  -6.791 -43.487  1.00  0.00     0.134 C 
BRANCH  29  30
HETATM   30  C24 UNL     1      22.523  -8.002 -42.848  1.00  0.00     0.047 C 
BRANCH  30  31
HETATM   31  C25 UNL     1      23.732  -7.867 -42.017  1.00  0.00     0.231 C 
BRANCH  31  32
HETATM   32  N3  UNL     1      23.659  -8.448 -40.696  1.00  0.00    -0.079 N 
ATOM     33  H33 UNL     1      22.747  -8.883 -40.559  1.00  0.00     0.274 HD
ATOM     34  H32 UNL     1      24.263  -9.268 -40.644  1.00  0.00     0.274 HD
ATOM     35  H31 UNL     1      23.863  -7.818 -39.920  1.00  0.00     0.274 HD
ENDBRANCH  31  32
ENDBRANCH  30  31
ENDBRANCH  29  30
ENDBRANCH  10  29
TORSDOF 8
ENDMDL
MODEL 5
REMARK VINA RESULT: -8.538865255      1.860      8.620
REMARK  8 active torsions:
REMARK  status: ('A' for Active; 'I' for Inactive)
REMARK    1  A    between atoms: C7_7  and  C8_8 
REMARK    2  A    between atoms: C8_8  and  O1_9 
REMARK    3  A    between atoms: N1_17  and  C15_18 
REMARK    4  A    between atoms: C15_18  and  C16_19 
REMARK    5  A    between atoms: N2_27  and  C23_28 
REMARK    6  A    between atoms: C23_28  and  C24_29 
REMARK    7  A    between atoms: C24_29  and  C25_30 
REMARK    8  A    between atoms: C25_30  and  N3_31 
ROOT
HETATM    1  C1  UNL     1      15.519  -6.861 -52.234  1.00  0.00     0.077 C 
HETATM    2  C2  UNL     1      16.091  -6.775 -50.864  1.00  0.00     0.052 A 
HETATM    3  C3  UNL     1      15.407  -6.367 -49.743  1.00  0.00     0.065 A 
HETATM    4  C4  UNL     1      16.284  -6.425 -48.667  1.00  0.00     0.073 A 
HETATM    5  C5  UNL     1      17.471  -6.867 -49.192  1.00  0.00     0.103 A 
HETATM    6  C6  UNL     1      18.554  -7.023 -48.354  1.00  0.00     0.055 A 
HETATM    7  C7  UNL     1      18.443  -6.733 -47.006  1.00  0.00     0.047 A 
HETATM    8  C22 UNL     1      17.225  -6.297 -46.565  1.00  0.00     0.257 A 
HETATM    9  O2  UNL     1      17.093  -6.024 -45.326  1.00  0.00    -0.267 OA
HETATM   10  N2  UNL     1      16.134  -6.135 -47.372  1.00  0.00    -0.311 N 
HETATM   11  O3  UNL     1      17.319  -7.063 -50.484  1.00  0.00    -0.313 OA
ENDROOT
BRANCH   7  12
HETATM   12  C8  UNL     1      19.611  -6.889 -46.067  1.00  0.00     0.094 C 
HETATM   13  C9  UNL     1      19.090  -7.128 -44.697  1.00  0.00     0.079 C 
HETATM   14  C10 UNL     1      20.147  -6.874 -43.597  1.00  0.00     0.226 C 
HETATM   15  C11 UNL     1      21.310  -7.807 -43.922  1.00  0.00     0.038 C 
HETATM   16  N1  UNL     1      20.641  -5.566 -43.729  1.00  0.00     0.098 N 
HETATM   17  C12 UNL     1      22.201  -6.957 -44.783  1.00  0.00     0.038 C 
HETATM   18  C13 UNL     1      21.458  -5.677 -44.954  1.00  0.00     0.226 C 
HETATM   19  C14 UNL     1      20.481  -5.639 -46.090  1.00  0.00     0.079 C 
BRANCH  12  20
HETATM   20  O1  UNL     1      20.341  -7.961 -46.596  1.00  0.00    -0.385 OA
ATOM     21  H1  UNL     1      21.236  -7.645 -46.626  1.00  0.00     0.211 HD
ENDBRANCH  12  20
BRANCH  16  22
HETATM   22  C15 UNL     1      21.446  -4.979 -42.745  1.00  0.00     0.278 C 
BRANCH  22  23
HETATM   23  C16 UNL     1      21.312  -5.412 -41.327  1.00  0.00     0.014 C 
HETATM   24  C17 UNL     1      20.230  -4.525 -40.664  1.00  0.00     0.006 C 
HETATM   25  C18 UNL     1      20.889  -3.264 -40.162  1.00  0.00     0.000 C 
HETATM   26  C19 UNL     1      21.777  -3.521 -38.959  1.00  0.00     0.000 C 
HETATM   27  C20 UNL     1      22.148  -5.007 -39.004  1.00  0.00     0.000 C 
HETATM   28  C21 UNL     1      22.508  -5.285 -40.462  1.00  0.00     0.006 C 
ENDBRANCH  22  23
ENDBRANCH  16  22
ENDBRANCH   7  12
BRANCH  10  29
HETATM   29  C23 UNL     1      14.910  -5.716 -46.777  1.00  0.00     0.134 C 
BRANCH  29  30
HETATM   30  C24 UNL     1      13.824  -6.690 -46.587  1.00  0.00     0.047 C 
BRANCH  30  31
HETATM   31  C25 UNL     1      14.148  -7.967 -45.927  1.00  0.00     0.231 C 
BRANCH  31  32
HETATM   32  N3  UNL     1      14.712  -7.867 -44.600  1.00  0.00    -0.079 N 
ATOM     33  H33 UNL     1      14.653  -6.904 -44.270  1.00  0.00     0.274 HD
ATOM     34  H32 UNL     1      14.099  -8.329 -43.927  1.00  0.00     0.274 HD
ATOM     35  H31 UNL     1      15.666  -8.212 -44.494  1.00  0.00     0.274 HD
ENDBRANCH  31  32
ENDBRANCH  30  31
ENDBRANCH  29  30
ENDBRANCH  10  29
TORSDOF 8
ENDMDL
