MODEL 1
REMARK VINA RESULT: -4.527759313      0.000      0.000
REMARK  4 active torsions:
REMARK  status: ('A' for Active; 'I' for Inactive)
REMARK    1  A    between atoms: C2_2  and  C3_3 
REMARK    2  A    between atoms: C3_3  and  N1_6 
REMARK    3  A    between atoms: N1_6  and  C5_8 
REMARK    4  A    between atoms: C6_11  and  N3_12 
ROOT
HETATM    1  C5  UNL     1      10.588  26.551 -39.035  1.00  0.00     0.154 A 
HETATM    2  N2  UNL     1       9.590  26.118 -39.791  1.00  0.00    -0.317 N 
ATOM      3  H2  UNL     1       9.785  25.855 -40.757  1.00  0.00     0.170 HD
HETATM    4  C6  UNL     1       8.362  26.015 -39.345  1.00  0.00     0.151 A 
HETATM    5  S1  UNL     1       8.140  26.480 -37.718  1.00  0.00    -0.013 SA
HETATM    6  S2  UNL     1      10.149  26.960 -37.446  1.00  0.00    -0.013 SA
ENDROOT
BRANCH   1   7
HETATM    7  N1  UNL     1      11.840  26.663 -39.468  1.00  0.00    -0.348 N 
ATOM      8  H1  UNL     1      12.562  26.022 -39.142  1.00  0.00     0.163 HD
BRANCH   7   9
HETATM    9  C3  UNL     1      12.155  27.704 -40.405  1.00  0.00     0.105 C 
HETATM   10  C4  UNL     1      11.186  28.820 -40.233  1.00  0.00     0.056 C 
HETATM   11 CL1  UNL     1      13.787  28.312 -39.963  1.00  0.00    -0.096 Cl
BRANCH   9  12
HETATM   12  C2  UNL     1      12.209  27.166 -41.814  1.00  0.00     0.043 C 
HETATM   13  C1  UNL     1      13.598  26.920 -42.296  1.00  0.00     0.009 C 
ENDBRANCH   9  12
ENDBRANCH   7   9
ENDBRANCH   1   7
BRANCH   4  14
HETATM   14  N3  UNL     1       7.321  25.582 -40.078  1.00  0.00    -0.379 N 
ATOM     15  H32 UNL     1       7.251  25.819 -41.067  1.00  0.00     0.158 HD
ATOM     16  H31 UNL     1       6.559  25.009 -39.715  1.00  0.00     0.158 HD
ENDBRANCH   4  14
TORSDOF 4
ENDMDL
MODEL 2
REMARK VINA RESULT: -4.438940135      2.241      2.443
REMARK  4 active torsions:
REMARK  status: ('A' for Active; 'I' for Inactive)
REMARK    1  A    between atoms: C2_2  and  C3_3 
REMARK    2  A    between atoms: C3_3  and  N1_6 
REMARK    3  A    between atoms: N1_6  and  C5_8 
REMARK    4  A    between atoms: C6_11  and  N3_12 
ROOT
HETATM    1  C5  UNL     1      12.210  26.783 -38.746  1.00  0.00     0.154 A 
HETATM    2  N2  UNL     1      11.737  25.664 -38.216  1.00  0.00    -0.317 N 
ATOM      3  H2  UNL     1      12.386  25.031 -37.748  1.00  0.00     0.170 HD
HETATM    4  C6  UNL     1      10.469  25.339 -38.269  1.00  0.00     0.151 A 
HETATM    5  S1  UNL     1       9.467  26.464 -39.072  1.00  0.00    -0.013 SA
HETATM    6  S2  UNL     1      11.041  27.760 -39.498  1.00  0.00    -0.013 SA
ENDROOT
BRANCH   1   7
HETATM    7  N1  UNL     1      13.493  27.130 -38.703  1.00  0.00    -0.348 N 
ATOM      8  H1  UNL     1      13.946  27.332 -37.813  1.00  0.00     0.163 HD
BRANCH   7   9
HETATM    9  C3  UNL     1      14.226  27.213 -39.934  1.00  0.00     0.105 C 
HETATM   10  C4  UNL     1      14.770  28.590 -40.080  1.00  0.00     0.056 C 
HETATM   11 CL1  UNL     1      15.613  26.082 -39.780  1.00  0.00    -0.096 Cl
BRANCH   9  12
HETATM   12  C2  UNL     1      13.376  26.775 -41.101  1.00  0.00     0.043 C 
HETATM   13  C1  UNL     1      14.167  26.513 -42.337  1.00  0.00     0.009 C 
ENDBRANCH   9  12
ENDBRANCH   7   9
ENDBRANCH   1   7
BRANCH   4  14
HETATM   14  N3  UNL     1       9.950  24.216 -37.746  1.00  0.00    -0.379 N 
ATOM     15  H32 UNL     1      10.559  23.500 -37.351  1.00  0.00     0.158 HD
ATOM     16  H31 UNL     1       8.953  24.006 -37.706  1.00  0.00     0.158 HD
ENDBRANCH   4  14
TORSDOF 4
ENDMDL
MODEL 3
REMARK VINA RESULT: -4.429702937      1.206      1.514
REMARK  4 active torsions:
REMARK  status: ('A' for Active; 'I' for Inactive)
REMARK    1  A    between atoms: C2_2  and  C3_3 
REMARK    2  A    between atoms: C3_3  and  N1_6 
REMARK    3  A    between atoms: N1_6  and  C5_8 
REMARK    4  A    between atoms: C6_11  and  N3_12 
ROOT
HETATM    1  C5  UNL     1      10.568  26.536 -39.109  1.00  0.00     0.154 A 
HETATM    2  N2  UNL     1       9.542  26.128 -39.841  1.00  0.00    -0.317 N 
ATOM      3  H2  UNL     1       9.712  25.833 -40.802  1.00  0.00     0.170 HD
HETATM    4  C6  UNL     1       8.316  26.090 -39.378  1.00  0.00     0.151 A 
HETATM    5  S1  UNL     1       8.138  26.605 -37.760  1.00  0.00    -0.013 SA
HETATM    6  S2  UNL     1      10.168  27.004 -37.526  1.00  0.00    -0.013 SA
ENDROOT
BRANCH   1   7
HETATM    7  N1  UNL     1      11.818  26.583 -39.561  1.00  0.00    -0.348 N 
ATOM      8  H1  UNL     1      12.489  25.859 -39.306  1.00  0.00     0.163 HD
BRANCH   7   9
HETATM    9  C3  UNL     1      12.203  27.671 -40.413  1.00  0.00     0.105 C 
HETATM   10  C4  UNL     1      12.187  27.208 -41.827  1.00  0.00     0.056 C 
HETATM   11 CL1  UNL     1      10.941  28.936 -40.229  1.00  0.00    -0.096 Cl
BRANCH   9  12
HETATM   12  C2  UNL     1      13.529  28.250 -39.985  1.00  0.00     0.043 C 
HETATM   13  C1  UNL     1      14.638  27.255 -40.004  1.00  0.00     0.009 C 
ENDBRANCH   9  12
ENDBRANCH   7   9
ENDBRANCH   1   7
BRANCH   4  14
HETATM   14  N3  UNL     1       7.249  25.685 -40.086  1.00  0.00    -0.379 N 
ATOM     15  H32 UNL     1       7.157  25.933 -41.071  1.00  0.00     0.158 HD
ATOM     16  H31 UNL     1       6.486  25.123 -39.708  1.00  0.00     0.158 HD
ENDBRANCH   4  14
TORSDOF 4
ENDMDL
MODEL 4
REMARK VINA RESULT: -4.396269347      3.608      4.853
REMARK  4 active torsions:
REMARK  status: ('A' for Active; 'I' for Inactive)
REMARK    1  A    between atoms: C2_2  and  C3_3 
REMARK    2  A    between atoms: C3_3  and  N1_6 
REMARK    3  A    between atoms: N1_6  and  C5_8 
REMARK    4  A    between atoms: C6_11  and  N3_12 
ROOT
HETATM    1  C5  UNL     1      12.655  27.391 -41.759  1.00  0.00     0.154 A 
HETATM    2  N2  UNL     1      12.351  26.744 -42.875  1.00  0.00    -0.317 N 
ATOM      3  H2  UNL     1      11.428  26.884 -43.286  1.00  0.00     0.170 HD
HETATM    4  C6  UNL     1      13.189  25.932 -43.470  1.00  0.00     0.151 A 
HETATM    5  S1  UNL     1      14.705  25.766 -42.703  1.00  0.00    -0.013 SA
HETATM    6  S2  UNL     1      14.216  27.082 -41.165  1.00  0.00    -0.013 SA
ENDROOT
BRANCH   1   7
HETATM    7  N1  UNL     1      11.819  28.218 -41.140  1.00  0.00    -0.348 N 
ATOM      8  H1  UNL     1      11.863  29.223 -41.309  1.00  0.00     0.163 HD
BRANCH   7   9
HETATM    9  C3  UNL     1      10.854  27.670 -40.230  1.00  0.00     0.105 C 
HETATM   10  C4  UNL     1      10.165  28.785 -39.527  1.00  0.00     0.056 C 
HETATM   11 CL1  UNL     1       9.637  26.810 -41.234  1.00  0.00    -0.096 Cl
BRANCH   9  12
HETATM   12  C2  UNL     1      11.495  26.674 -39.296  1.00  0.00     0.043 C 
HETATM   13  C1  UNL     1      10.505  25.875 -38.519  1.00  0.00     0.009 C 
ENDBRANCH   9  12
ENDBRANCH   7   9
ENDBRANCH   1   7
BRANCH   4  14
HETATM   14  N3  UNL     1      12.920  25.257 -44.601  1.00  0.00    -0.379 N 
ATOM     15  H32 UNL     1      12.332  24.424 -44.579  1.00  0.00     0.158 HD
ATOM     16  H31 UNL     1      13.268  25.516 -45.524  1.00  0.00     0.158 HD
ENDBRANCH   4  14
TORSDOF 4
ENDMDL
MODEL 5
REMARK VINA RESULT: -4.371707693      2.802      3.627
REMARK  4 active torsions:
REMARK  status: ('A' for Active; 'I' for Inactive)
REMARK    1  A    between atoms: C2_2  and  C3_3 
REMARK    2  A    between atoms: C3_3  and  N1_6 
REMARK    3  A    between atoms: N1_6  and  C5_8 
REMARK    4  A    between atoms: C6_11  and  N3_12 
ROOT
HETATM    1  C5  UNL     1       8.344  27.044 -37.378  1.00  0.00     0.154 A 
HETATM    2  N2  UNL     1       7.242  26.325 -37.226  1.00  0.00    -0.317 N 
ATOM      3  H2  UNL     1       7.329  25.348 -36.947  1.00  0.00     0.170 HD
HETATM    4  C6  UNL     1       6.044  26.820 -37.420  1.00  0.00     0.151 A 
HETATM    5  S1  UNL     1       6.007  28.462 -37.884  1.00  0.00    -0.013 SA
HETATM    6  S2  UNL     1       8.080  28.656 -37.843  1.00  0.00    -0.013 SA
ENDROOT
BRANCH   1   7
HETATM    7  N1  UNL     1       9.567  26.560 -37.186  1.00  0.00    -0.348 N 
ATOM      8  H1  UNL     1      10.059  26.724 -36.308  1.00  0.00     0.163 HD
BRANCH   7   9
HETATM    9  C3  UNL     1      10.182  25.801 -38.238  1.00  0.00     0.105 C 
HETATM   10  C4  UNL     1      10.147  24.358 -37.878  1.00  0.00     0.056 C 
HETATM   11 CL1  UNL     1       9.162  26.034 -39.699  1.00  0.00    -0.096 Cl
BRANCH   9  12
HETATM   12  C2  UNL     1      11.570  26.314 -38.535  1.00  0.00     0.043 C 
HETATM   13  C1  UNL     1      11.626  27.193 -39.737  1.00  0.00     0.009 C 
ENDBRANCH   9  12
ENDBRANCH   7   9
ENDBRANCH   1   7
BRANCH   4  14
HETATM   14  N3  UNL     1       4.902  26.126 -37.279  1.00  0.00    -0.379 N 
ATOM     15  H32 UNL     1       4.842  25.362 -36.606  1.00  0.00     0.158 HD
ATOM     16  H31 UNL     1       4.049  26.305 -37.808  1.00  0.00     0.158 HD
ENDBRANCH   4  14
TORSDOF 4
ENDMDL
