MODEL 1
REMARK VINA RESULT: -5.961381306      0.000      0.000
REMARK  3 active torsions:
REMARK  status: ('A' for Active; 'I' for Inactive)
REMARK    1  A    between atoms: N1_7  and  N2_9 
REMARK       I    between atoms: N2_9  and  C7_11 
REMARK    2  A    between atoms: C7_11  and  C8_13 
REMARK    3  A    between atoms: N3_16  and  O2_18 
ROOT
HETATM    1  C1  UNL     1      15.119  27.145 -39.876  1.00  0.00     0.016 C 
HETATM    2  C2  UNL     1      14.003  27.443 -40.813  1.00  0.00     0.035 C 
HETATM    3  C3  UNL     1      14.135  26.471 -41.981  1.00  0.00     0.011 C 
HETATM    4  C4  UNL     1      12.977  26.559 -42.933  1.00  0.00     0.007 C 
HETATM    5  C5  UNL     1      12.029  27.695 -42.579  1.00  0.00     0.061 C 
HETATM    6  C6  UNL     1      11.562  27.535 -41.151  1.00  0.00     0.050 C 
HETATM    7  N1  UNL     1      10.347  27.615 -40.858  1.00  0.00    -0.300 N 
ATOM      8  H1  UNL     1       9.731  27.797 -41.651  1.00  0.00     0.186 HD
HETATM    9  C9  UNL     1      12.681  27.305 -40.207  1.00  0.00     0.059 C 
HETATM   10  N3  UNL     1      12.360  27.027 -39.012  1.00  0.00    -0.271 N 
ATOM     11  H3  UNL     1      11.367  26.975 -38.782  1.00  0.00     0.194 HD
ENDROOT
BRANCH   7  12
HETATM   12  N2  UNL     1       9.706  27.499 -39.651  1.00  0.00    -0.269 N 
HETATM   13  C7  UNL     1       8.826  26.416 -39.421  1.00  0.00     0.249 C 
HETATM   14  O1  UNL     1       8.647  25.575 -40.324  1.00  0.00    -0.271 OA
ATOM     15  H2  UNL     1       9.864  28.193 -38.921  1.00  0.00     0.190 HD
BRANCH  13  16
HETATM   16  C8  UNL     1       8.089  26.208 -38.158  1.00  0.00     0.219 C 
HETATM   17 CL1  UNL     1       9.120  25.271 -37.045  1.00  0.00    -0.121 Cl
ENDBRANCH  13  16
ENDBRANCH   7  12
BRANCH  10  18
HETATM   18  O2  UNL     1      13.260  26.794 -38.017  1.00  0.00    -0.290 OA
ATOM     19  H2  UNL     1      13.334  27.326 -37.234  1.00  0.00     0.244 HD
ENDBRANCH  10  18
TORSDOF 3
ENDMDL
MODEL 2
REMARK VINA RESULT: -5.891603645      5.095      6.032
REMARK  3 active torsions:
REMARK  status: ('A' for Active; 'I' for Inactive)
REMARK    1  A    between atoms: N1_7  and  N2_9 
REMARK       I    between atoms: N2_9  and  C7_11 
REMARK    2  A    between atoms: C7_11  and  C8_13 
REMARK    3  A    between atoms: N3_16  and  O2_18 
ROOT
HETATM    1  C1  UNL     1      14.223  25.648 -43.652  1.00  0.00     0.016 C 
HETATM    2  C2  UNL     1      12.842  26.046 -43.269  1.00  0.00     0.035 C 
HETATM    3  C3  UNL     1      12.951  27.387 -42.550  1.00  0.00     0.011 C 
HETATM    4  C4  UNL     1      11.608  27.983 -42.242  1.00  0.00     0.007 C 
HETATM    5  C5  UNL     1      10.468  27.038 -42.591  1.00  0.00     0.061 C 
HETATM    6  C6  UNL     1      10.575  26.633 -44.043  1.00  0.00     0.050 C 
HETATM    7  N1  UNL     1       9.580  26.689 -44.802  1.00  0.00    -0.300 N 
ATOM      8  H1  UNL     1       8.724  27.017 -44.355  1.00  0.00     0.186 HD
HETATM    9  C9  UNL     1      11.936  26.172 -44.408  1.00  0.00     0.059 C 
HETATM   10  N3  UNL     1      12.140  25.944 -45.639  1.00  0.00    -0.271 N 
ATOM     11  H3  UNL     1      11.368  26.095 -46.289  1.00  0.00     0.194 HD
ENDROOT
BRANCH   7  12
HETATM   12  N2  UNL     1       9.449  26.382 -46.132  1.00  0.00    -0.269 N 
HETATM   13  C7  UNL     1       8.342  25.623 -46.576  1.00  0.00     0.249 C 
HETATM   14  O1  UNL     1       7.493  25.243 -45.745  1.00  0.00    -0.271 OA
ATOM     15  H2  UNL     1      10.151  26.701 -46.801  1.00  0.00     0.190 HD
BRANCH  13  16
HETATM   16  C8  UNL     1       8.117  25.241 -47.985  1.00  0.00     0.219 C 
HETATM   17 CL1  UNL     1       7.476  23.578 -48.026  1.00  0.00    -0.121 Cl
ENDBRANCH  13  16
ENDBRANCH   7  12
BRANCH  10  18
HETATM   18  O2  UNL     1      13.327  25.508 -46.144  1.00  0.00    -0.290 OA
ATOM     19  H2  UNL     1      13.616  24.604 -46.114  1.00  0.00     0.244 HD
ENDBRANCH  10  18
TORSDOF 3
ENDMDL
MODEL 3
REMARK VINA RESULT: -5.875149456      1.830      1.856
REMARK  3 active torsions:
REMARK  status: ('A' for Active; 'I' for Inactive)
REMARK    1  A    between atoms: N1_7  and  N2_9 
REMARK       I    between atoms: N2_9  and  C7_11 
REMARK    2  A    between atoms: C7_11  and  C8_13 
REMARK    3  A    between atoms: N3_16  and  O2_18 
ROOT
HETATM    1  C1  UNL     1      15.062  26.980 -39.864  1.00  0.00     0.016 C 
HETATM    2  C2  UNL     1      13.822  27.448 -40.537  1.00  0.00     0.035 C 
HETATM    3  C3  UNL     1      13.741  26.718 -41.874  1.00  0.00     0.011 C 
HETATM    4  C4  UNL     1      12.450  26.983 -42.594  1.00  0.00     0.007 C 
HETATM    5  C5  UNL     1      11.601  28.027 -41.884  1.00  0.00     0.061 C 
HETATM    6  C6  UNL     1      11.361  27.595 -40.456  1.00  0.00     0.050 C 
HETATM    7  N1  UNL     1      10.210  27.613 -39.964  1.00  0.00    -0.300 N 
ATOM      8  H1  UNL     1       9.482  27.942 -40.598  1.00  0.00     0.186 HD
HETATM    9  C9  UNL     1      12.608  27.192 -39.765  1.00  0.00     0.059 C 
HETATM   10  N3  UNL     1      12.471  26.690 -38.608  1.00  0.00    -0.271 N 
ATOM     11  H3  UNL     1      11.526  26.591 -38.236  1.00  0.00     0.194 HD
ENDROOT
BRANCH   7  12
HETATM   12  N2  UNL     1       9.764  27.266 -38.714  1.00  0.00    -0.269 N 
HETATM   13  C7  UNL     1       9.509  28.270 -37.751  1.00  0.00     0.249 C 
HETATM   14  O1  UNL     1       9.693  29.465 -38.056  1.00  0.00    -0.271 OA
ATOM     15  H2  UNL     1       9.616  26.284 -38.479  1.00  0.00     0.190 HD
BRANCH  13  16
HETATM   16  C8  UNL     1       9.032  27.995 -36.381  1.00  0.00     0.219 C 
HETATM   17 CL1  UNL     1      10.445  27.862 -35.302  1.00  0.00    -0.121 Cl
ENDBRANCH  13  16
ENDBRANCH   7  12
BRANCH  10  18
HETATM   18  O2  UNL     1      13.511  26.274 -37.832  1.00  0.00    -0.290 OA
ATOM     19  H2  UNL     1      13.550  26.392 -36.891  1.00  0.00     0.244 HD
ENDBRANCH  10  18
TORSDOF 3
ENDMDL
MODEL 4
REMARK VINA RESULT: -5.844975165      2.507      2.780
REMARK  3 active torsions:
REMARK  status: ('A' for Active; 'I' for Inactive)
REMARK    1  A    between atoms: N1_7  and  N2_9 
REMARK       I    between atoms: N2_9  and  C7_11 
REMARK    2  A    between atoms: C7_11  and  C8_13 
REMARK    3  A    between atoms: N3_16  and  O2_18 
ROOT
HETATM    1  C1  UNL     1      14.810  27.968 -39.675  1.00  0.00     0.016 C 
HETATM    2  C2  UNL     1      14.495  27.460 -41.037  1.00  0.00     0.035 C 
HETATM    3  C3  UNL     1      15.155  26.090 -41.162  1.00  0.00     0.011 C 
HETATM    4  C4  UNL     1      14.789  25.392 -42.439  1.00  0.00     0.007 C 
HETATM    5  C5  UNL     1      13.966  26.278 -43.361  1.00  0.00     0.061 C 
HETATM    6  C6  UNL     1      12.740  26.771 -42.627  1.00  0.00     0.050 C 
HETATM    7  N1  UNL     1      11.604  26.693 -43.147  1.00  0.00    -0.300 N 
ATOM      8  H1  UNL     1      11.592  26.285 -44.082  1.00  0.00     0.186 HD
HETATM    9  C9  UNL     1      13.063  27.339 -41.297  1.00  0.00     0.059 C 
HETATM   10  N3  UNL     1      12.075  27.650 -40.565  1.00  0.00    -0.271 N 
ATOM     11  H3  UNL     1      11.136  27.486 -40.931  1.00  0.00     0.194 HD
ENDROOT
BRANCH   7  12
HETATM   12  N2  UNL     1      10.373  27.065 -42.671  1.00  0.00    -0.269 N 
HETATM   13  C7  UNL     1       9.202  26.497 -43.223  1.00  0.00     0.249 C 
HETATM   14  O1  UNL     1       9.306  25.658 -44.140  1.00  0.00    -0.271 OA
ATOM     15  H2  UNL     1      10.303  27.752 -41.920  1.00  0.00     0.190 HD
BRANCH  13  16
HETATM   16  C8  UNL     1       7.834  26.837 -42.780  1.00  0.00     0.219 C 
HETATM   17 CL1  UNL     1       7.629  26.287 -41.097  1.00  0.00    -0.121 Cl
ENDBRANCH  13  16
ENDBRANCH   7  12
BRANCH  10  18
HETATM   18  O2  UNL     1      12.191  28.190 -39.320  1.00  0.00    -0.290 OA
ATOM     19  H2  UNL     1      12.738  27.826 -38.634  1.00  0.00     0.244 HD
ENDBRANCH  10  18
TORSDOF 3
ENDMDL
MODEL 5
REMARK VINA RESULT: -5.820540526      1.847      3.251
REMARK  3 active torsions:
REMARK  status: ('A' for Active; 'I' for Inactive)
REMARK    1  A    between atoms: N1_7  and  N2_9 
REMARK       I    between atoms: N2_9  and  C7_11 
REMARK    2  A    between atoms: C7_11  and  C8_13 
REMARK    3  A    between atoms: N3_16  and  O2_18 
ROOT
HETATM    1  C1  UNL     1      12.392  27.260 -42.586  1.00  0.00     0.016 C 
HETATM    2  C2  UNL     1      12.983  26.961 -41.255  1.00  0.00     0.035 C 
HETATM    3  C3  UNL     1      14.024  28.042 -40.980  1.00  0.00     0.011 C 
HETATM    4  C4  UNL     1      14.593  27.949 -39.594  1.00  0.00     0.007 C 
HETATM    5  C5  UNL     1      14.101  26.715 -38.853  1.00  0.00     0.061 C 
HETATM    6  C6  UNL     1      12.590  26.708 -38.833  1.00  0.00     0.050 C 
HETATM    7  N1  UNL     1      11.962  26.507 -37.769  1.00  0.00    -0.300 N 
ATOM      8  H1  UNL     1      12.551  26.349 -36.951  1.00  0.00     0.186 HD
HETATM    9  C9  UNL     1      12.001  26.939 -40.173  1.00  0.00     0.059 C 
HETATM   10  N3  UNL     1      10.741  27.082 -40.216  1.00  0.00    -0.271 N 
ATOM     11  H3  UNL     1      10.223  27.034 -39.338  1.00  0.00     0.194 HD
ENDROOT
BRANCH   7  12
HETATM   12  N2  UNL     1      10.614  26.463 -37.519  1.00  0.00    -0.269 N 
HETATM   13  C7  UNL     1      10.067  27.227 -36.462  1.00  0.00     0.249 C 
HETATM   14  O1  UNL     1      10.824  27.937 -35.770  1.00  0.00    -0.271 OA
ATOM     15  H2  UNL     1      10.007  25.879 -38.094  1.00  0.00     0.190 HD
BRANCH  13  16
HETATM   16  C8  UNL     1       8.632  27.243 -36.114  1.00  0.00     0.219 C 
HETATM   17 CL1  UNL     1       7.742  26.287 -37.327  1.00  0.00    -0.121 Cl
ENDBRANCH  13  16
ENDBRANCH   7  12
BRANCH  10  18
HETATM   18  O2  UNL     1      10.039  27.294 -41.363  1.00  0.00    -0.290 OA
ATOM     19  H2  UNL     1       9.545  26.620 -41.814  1.00  0.00     0.244 HD
ENDBRANCH  10  18
TORSDOF 3
ENDMDL
