MODEL 1
REMARK VINA RESULT: -5.342805392      0.000      0.000
REMARK  2 active torsions:
REMARK  status: ('A' for Active; 'I' for Inactive)
REMARK    1  A    between atoms: C4_8  and  C5_9 
REMARK    2  A    between atoms: C5_9  and  C6_11 
ROOT
HETATM    1  N1  UNL     1      13.249  28.496 -39.770  1.00  0.00    -0.093 NA
HETATM    2  C1  UNL     1      12.100  27.645 -39.670  1.00  0.00     0.104 A 
HETATM    3  S1  UNL     1      11.724  26.572 -38.399  1.00  0.00    -0.060 SA
HETATM    4  C2  UNL     1      10.268  25.951 -38.983  1.00  0.00     0.101 A 
HETATM    5 CL1  UNL     1       9.243  24.750 -38.201  1.00  0.00    -0.074 Cl
HETATM    6  C3  UNL     1      10.094  26.603 -40.182  1.00  0.00     0.091 A 
HETATM    7  N2  UNL     1       8.904  26.237 -40.943  1.00  0.00    -0.099 NA
HETATM    8  C4  UNL     1      11.038  27.487 -40.552  1.00  0.00     0.068 A 
ENDROOT
BRANCH   8   9
HETATM    9  C5  UNL     1      11.044  28.257 -41.812  1.00  0.00     0.168 C 
HETATM   10  O1  UNL     1      10.287  29.286 -41.872  1.00  0.00    -0.292 OA
BRANCH   9  11
HETATM   11  C6  UNL     1      11.838  27.946 -43.012  1.00  0.00     0.061 C 
HETATM   12  C7  UNL     1      12.584  26.659 -43.062  1.00  0.00     0.012 C 
HETATM   13  C8  UNL     1      11.549  26.092 -44.006  1.00  0.00     0.002 C 
HETATM   14  C9  UNL     1      10.966  27.465 -44.159  1.00  0.00     0.012 C 
ENDBRANCH   9  11
ENDBRANCH   8   9
TORSDOF 2
ENDMDL
MODEL 2
REMARK VINA RESULT: -5.338629182      2.788      4.727
REMARK  2 active torsions:
REMARK  status: ('A' for Active; 'I' for Inactive)
REMARK    1  A    between atoms: C4_8  and  C5_9 
REMARK    2  A    between atoms: C5_9  and  C6_11 
ROOT
HETATM    1  N1  UNL     1      10.392  27.081 -42.427  1.00  0.00    -0.093 NA
HETATM    2  C1  UNL     1      11.508  27.092 -41.529  1.00  0.00     0.104 A 
HETATM    3  S1  UNL     1      13.161  27.131 -41.944  1.00  0.00    -0.060 SA
HETATM    4  C2  UNL     1      13.836  27.128 -40.398  1.00  0.00     0.101 A 
HETATM    5 CL1  UNL     1      15.551  27.160 -39.993  1.00  0.00    -0.074 Cl
HETATM    6  C3  UNL     1      12.740  27.097 -39.566  1.00  0.00     0.091 A 
HETATM    7  N2  UNL     1      13.025  27.057 -38.136  1.00  0.00    -0.099 NA
HETATM    8  C4  UNL     1      11.524  27.079 -40.139  1.00  0.00     0.068 A 
ENDROOT
BRANCH   8   9
HETATM    9  C5  UNL     1      10.238  27.013 -39.418  1.00  0.00     0.168 C 
HETATM   10  O1  UNL     1       9.707  28.122 -39.066  1.00  0.00    -0.292 OA
BRANCH   9  11
HETATM   11  C6  UNL     1       9.509  25.786 -39.059  1.00  0.00     0.061 C 
HETATM   12  C7  UNL     1      10.153  24.818 -38.128  1.00  0.00     0.012 C 
HETATM   13  C8  UNL     1       9.250  25.284 -37.011  1.00  0.00     0.002 C 
HETATM   14  C9  UNL     1       8.438  26.048 -38.014  1.00  0.00     0.012 C 
ENDBRANCH   9  11
ENDBRANCH   8   9
TORSDOF 2
ENDMDL
MODEL 3
REMARK VINA RESULT: -5.333165167      2.812      4.478
REMARK  2 active torsions:
REMARK  status: ('A' for Active; 'I' for Inactive)
REMARK    1  A    between atoms: C4_8  and  C5_9 
REMARK    2  A    between atoms: C5_9  and  C6_11 
ROOT
HETATM    1  N1  UNL     1      10.731  28.212 -42.522  1.00  0.00    -0.093 NA
HETATM    2  C1  UNL     1      11.810  27.798 -41.675  1.00  0.00     0.104 A 
HETATM    3  S1  UNL     1      13.333  27.208 -42.163  1.00  0.00    -0.060 SA
HETATM    4  C2  UNL     1      14.028  26.947 -40.648  1.00  0.00     0.101 A 
HETATM    5 CL1  UNL     1      15.644  26.326 -40.320  1.00  0.00    -0.074 Cl
HETATM    6  C3  UNL     1      13.042  27.331 -39.768  1.00  0.00     0.091 A 
HETATM    7  N2  UNL     1      13.357  27.183 -38.351  1.00  0.00    -0.099 NA
HETATM    8  C4  UNL     1      11.884  27.776 -40.287  1.00  0.00     0.068 A 
ENDROOT
BRANCH   8   9
HETATM    9  C5  UNL     1      10.704  28.201 -39.509  1.00  0.00     0.168 C 
HETATM   10  O1  UNL     1      10.595  29.448 -39.244  1.00  0.00    -0.292 OA
BRANCH   9  11
HETATM   11  C6  UNL     1       9.641  27.320 -39.000  1.00  0.00     0.061 C 
HETATM   12  C7  UNL     1       9.712  25.864 -39.302  1.00  0.00     0.012 C 
HETATM   13  C8  UNL     1      10.160  25.587 -37.886  1.00  0.00     0.002 C 
HETATM   14  C9  UNL     1       9.824  27.004 -37.525  1.00  0.00     0.012 C 
ENDBRANCH   9  11
ENDBRANCH   8   9
TORSDOF 2
ENDMDL
MODEL 4
REMARK VINA RESULT: -5.304525443      2.877      4.689
REMARK  2 active torsions:
REMARK  status: ('A' for Active; 'I' for Inactive)
REMARK    1  A    between atoms: C4_8  and  C5_9 
REMARK    2  A    between atoms: C5_9  and  C6_11 
ROOT
HETATM    1  N1  UNL     1       9.363  27.952 -41.677  1.00  0.00    -0.093 NA
HETATM    2  C1  UNL     1      10.653  27.631 -41.142  1.00  0.00     0.104 A 
HETATM    3  S1  UNL     1      12.098  27.394 -42.015  1.00  0.00    -0.060 SA
HETATM    4  C2  UNL     1      13.145  27.066 -40.733  1.00  0.00     0.101 A 
HETATM    5 CL1  UNL     1      14.867  26.708 -40.841  1.00  0.00    -0.074 Cl
HETATM    6  C3  UNL     1      12.335  27.147 -39.623  1.00  0.00     0.091 A 
HETATM    7  N2  UNL     1      12.977  26.873 -38.342  1.00  0.00    -0.099 NA
HETATM    8  C4  UNL     1      11.038  27.441 -39.820  1.00  0.00     0.068 A 
ENDROOT
BRANCH   8   9
HETATM    9  C5  UNL     1      10.012  27.541 -38.763  1.00  0.00     0.168 C 
HETATM   10  O1  UNL     1       9.891  28.667 -38.170  1.00  0.00    -0.292 OA
BRANCH   9  11
HETATM   11  C6  UNL     1       9.118  26.459 -38.321  1.00  0.00     0.061 C 
HETATM   12  C7  UNL     1       9.204  25.137 -39.000  1.00  0.00     0.012 C 
HETATM   13  C8  UNL     1       9.936  24.567 -37.808  1.00  0.00     0.002 C 
HETATM   14  C9  UNL     1       9.605  25.809 -37.037  1.00  0.00     0.012 C 
ENDBRANCH   9  11
ENDBRANCH   8   9
TORSDOF 2
ENDMDL
MODEL 5
REMARK VINA RESULT: -5.296284343      2.634      4.382
REMARK  2 active torsions:
REMARK  status: ('A' for Active; 'I' for Inactive)
REMARK    1  A    between atoms: C4_8  and  C5_9 
REMARK    2  A    between atoms: C5_9  and  C6_11 
ROOT
HETATM    1  N1  UNL     1      12.972  26.996 -38.480  1.00  0.00    -0.093 NA
HETATM    2  C1  UNL     1      12.254  27.219 -39.700  1.00  0.00     0.104 A 
HETATM    3  S1  UNL     1      12.898  27.269 -41.278  1.00  0.00    -0.060 SA
HETATM    4  C2  UNL     1      11.481  27.563 -42.146  1.00  0.00     0.101 A 
HETATM    5 CL1  UNL     1      11.331  27.748 -43.892  1.00  0.00    -0.074 Cl
HETATM    6  C3  UNL     1      10.510  27.618 -41.173  1.00  0.00     0.091 A 
HETATM    7  N2  UNL     1       9.155  27.896 -41.637  1.00  0.00    -0.099 NA
HETATM    8  C4  UNL     1      10.896  27.440 -39.897  1.00  0.00     0.068 A 
ENDROOT
BRANCH   8   9
HETATM    9  C5  UNL     1      10.010  27.495 -38.718  1.00  0.00     0.168 C 
HETATM   10  O1  UNL     1      10.007  28.579 -38.038  1.00  0.00    -0.292 OA
BRANCH   9  11
HETATM   11  C6  UNL     1       9.131  26.414 -38.244  1.00  0.00     0.061 C 
HETATM   12  C7  UNL     1       9.152  25.110 -38.963  1.00  0.00     0.012 C 
HETATM   13  C8  UNL     1       9.955  24.498 -37.839  1.00  0.00     0.002 C 
HETATM   14  C9  UNL     1       9.695  25.723 -37.014  1.00  0.00     0.012 C 
ENDBRANCH   9  11
ENDBRANCH   8   9
TORSDOF 2
ENDMDL
