MODEL 1
REMARK VINA RESULT: -8.611719833      0.000      0.000
REMARK  7 active torsions:
REMARK  status: ('A' for Active; 'I' for Inactive)
REMARK    1  A    between atoms: C3_3  and  O1_4 
REMARK    2  A    between atoms: C6_9  and  C7_10 
REMARK    3  A    between atoms: C9_13  and  N2_14 
REMARK    4  A    between atoms: C10_17  and  C11_18 
REMARK    5  A    between atoms: C12_21  and  N4_22 
REMARK       I    between atoms: N4_22  and  C13_24 
REMARK    6  A    between atoms: C13_24  and  C14_26 
REMARK    7  A    between atoms: C14_26  and  O4_30 
ROOT
HETATM    1  C7  UNL     1      31.759   4.632   9.668  1.00  0.00     0.117 A 
HETATM    2  C8  UNL     1      31.061   5.137   8.600  1.00  0.00     0.151 A 
HETATM    3  N1  UNL     1      29.727   5.163   8.887  1.00  0.00    -0.137 N 
HETATM    4  C9  UNL     1      28.636   5.550   8.218  1.00  0.00     0.154 A 
HETATM    5  C10 UNL     1      27.402   5.446   8.799  1.00  0.00     0.139 A 
HETATM    6  N8  UNL     1      27.337   4.951  10.047  1.00  0.00    -0.280 N 
ATOM      7  H8  UNL     1      26.423   4.869  10.492  1.00  0.00     0.188 HD
HETATM    8  N9  UNL     1      28.404   4.566  10.720  1.00  0.00    -0.131 N 
ATOM      9  H9  UNL     1      28.311   4.194  11.665  1.00  0.00     0.205 HD
HETATM   10  C15 UNL     1      29.615   4.667  10.148  1.00  0.00     0.705 A 
HETATM   11  N10 UNL     1      30.847   4.352  10.604  1.00  0.00    -0.184 N 
ATOM     12  H10 UNL     1      31.050   3.959  11.523  1.00  0.00     0.184 HD
ENDROOT
BRANCH   5  13
HETATM   13  C11 UNL     1      26.175   5.865   8.088  1.00  0.00     0.168 A 
HETATM   14  N3  UNL     1      25.886   7.070   7.598  1.00  0.00    -0.171 N 
HETATM   15  C12 UNL     1      24.671   7.038   7.023  1.00  0.00     0.701 A 
ATOM     16  H3  UNL     1      26.492   7.889   7.650  1.00  0.00     0.186 HD
HETATM   17  N6  UNL     1      24.216   5.776   7.171  1.00  0.00    -0.130 N 
HETATM   18  N7  UNL     1      25.132   5.070   7.817  1.00  0.00    -0.269 N 
ATOM     19  H6  UNL     1      23.317   5.425   6.841  1.00  0.00     0.205 HD
ATOM     20  H7  UNL     1      25.055   4.084   8.067  1.00  0.00     0.189 HD
BRANCH  15  21
HETATM   21  N4  UNL     1      24.045   8.140   6.400  1.00  0.00    -0.151 N 
HETATM   22  C13 UNL     1      24.606   8.723   5.240  1.00  0.00     0.310 C 
HETATM   23  O3  UNL     1      25.686   8.266   4.733  1.00  0.00    -0.263 OA
ATOM     24  H4  UNL     1      23.181   8.519   6.790  1.00  0.00     0.188 HD
BRANCH  22  25
HETATM   25  C14 UNL     1      23.994   9.858   4.568  1.00  0.00     0.204 C 
HETATM   26  N5  UNL     1      22.876   9.739   3.948  1.00  0.00    -0.376 N 
ATOM     27  H52 UNL     1      22.418   8.828   3.932  1.00  0.00     0.158 HD
ATOM     28  H51 UNL     1      22.447  10.536   3.477  1.00  0.00     0.158 HD
BRANCH  25  29
HETATM   29  O4  UNL     1      24.616  11.094   4.589  1.00  0.00    -0.342 OA
ATOM     30  H4  UNL     1      24.136  11.864   4.871  1.00  0.00     0.219 HD
ENDBRANCH  25  29
ENDBRANCH  22  25
ENDBRANCH  15  21
ENDBRANCH   5  13
BRANCH   4  31
HETATM   31  N2  UNL     1      28.735   6.018   7.029  1.00  0.00    -0.383 N 
ATOM     32  H22 UNL     1      28.651   5.386   6.233  1.00  0.00     0.157 HD
ATOM     33  H21 UNL     1      28.897   7.014   6.876  1.00  0.00     0.157 HD
ENDBRANCH   4  31
BRANCH   1  34
HETATM   34  C6  UNL     1      33.211   4.452   9.729  1.00  0.00     0.177 A 
HETATM   35  O2  UNL     1      34.082   4.763   8.799  1.00  0.00    -0.289 OA
HETATM   36  C5  UNL     1      35.303   4.478   9.163  1.00  0.00     0.107 A 
HETATM   37  C4  UNL     1      36.515   4.633   8.506  1.00  0.00     0.076 A 
HETATM   38  C16 UNL     1      35.220   3.938  10.428  1.00  0.00     0.075 A 
HETATM   39  C3  UNL     1      37.654   4.225   9.174  1.00  0.00     0.074 A 
HETATM   40  C2  UNL     1      37.613   3.682  10.439  1.00  0.00    -0.021 A 
HETATM   41  C1  UNL     1      38.826   3.248  11.145  1.00  0.00     0.052 C 
HETATM   42  C17 UNL     1      36.393   3.544  11.054  1.00  0.00    -0.024 A 
HETATM   43  C18 UNL     1      36.302   2.971  12.399  1.00  0.00     0.051 C 
HETATM   44  N11 UNL     1      33.930   3.937  10.744  1.00  0.00    -0.332 N 
ATOM     45  H11 UNL     1      33.542   3.598  11.625  1.00  0.00     0.168 HD
BRANCH  39  46
HETATM   46  O1  UNL     1      38.862   4.384   8.514  1.00  0.00    -0.360 OA
ATOM     47  H1  UNL     1      39.418   3.634   8.336  1.00  0.00     0.217 HD
ENDBRANCH  39  46
ENDBRANCH   1  34
TORSDOF 7
ENDMDL
MODEL 2
REMARK VINA RESULT: -8.606690892      4.025      4.594
REMARK  7 active torsions:
REMARK  status: ('A' for Active; 'I' for Inactive)
REMARK    1  A    between atoms: C3_3  and  O1_4 
REMARK    2  A    between atoms: C6_9  and  C7_10 
REMARK    3  A    between atoms: C9_13  and  N2_14 
REMARK    4  A    between atoms: C10_17  and  C11_18 
REMARK    5  A    between atoms: C12_21  and  N4_22 
REMARK       I    between atoms: N4_22  and  C13_24 
REMARK    6  A    between atoms: C13_24  and  C14_26 
REMARK    7  A    between atoms: C14_26  and  O4_30 
ROOT
HETATM    1  C7  UNL     1      34.032   5.287   7.147  1.00  0.00     0.117 A 
HETATM    2  C8  UNL     1      33.601   6.553   6.840  1.00  0.00     0.151 A 
HETATM    3  N1  UNL     1      32.779   6.513   5.751  1.00  0.00    -0.137 N 
HETATM    4  C9  UNL     1      32.106   7.435   5.056  1.00  0.00     0.154 A 
HETATM    5  C10 UNL     1      31.346   7.064   3.981  1.00  0.00     0.139 A 
HETATM    6  N8  UNL     1      31.307   5.759   3.661  1.00  0.00    -0.280 N 
ATOM      7  H8  UNL     1      30.744   5.468   2.862  1.00  0.00     0.188 HD
HETATM    8  N9  UNL     1      31.966   4.837   4.338  1.00  0.00    -0.131 N 
ATOM      9  H9  UNL     1      31.909   3.857   4.061  1.00  0.00     0.205 HD
HETATM   10  C15 UNL     1      32.712   5.203   5.393  1.00  0.00     0.705 A 
HETATM   11  N10 UNL     1      33.472   4.478   6.242  1.00  0.00    -0.184 N 
ATOM     12  H10 UNL     1      33.599   3.467   6.201  1.00  0.00     0.184 HD
ENDROOT
BRANCH   5  13
HETATM   13  C11 UNL     1      30.588   8.057   3.190  1.00  0.00     0.168 A 
HETATM   14  N3  UNL     1      29.435   8.646   3.508  1.00  0.00    -0.171 N 
HETATM   15  C12 UNL     1      29.078   9.488   2.522  1.00  0.00     0.701 A 
ATOM     16  H3  UNL     1      28.906   8.484   4.365  1.00  0.00     0.186 HD
HETATM   17  N6  UNL     1      30.044   9.403   1.584  1.00  0.00    -0.130 N 
HETATM   18  N7  UNL     1      30.956   8.534   1.994  1.00  0.00    -0.269 N 
ATOM     19  H6  UNL     1      30.068   9.920   0.705  1.00  0.00     0.205 HD
ATOM     20  H7  UNL     1      31.800   8.273   1.484  1.00  0.00     0.189 HD
BRANCH  15  21
HETATM   21  N4  UNL     1      27.908  10.280   2.523  1.00  0.00    -0.151 N 
HETATM   22  C13 UNL     1      26.696   9.768   3.042  1.00  0.00     0.310 C 
HETATM   23  O3  UNL     1      26.633   8.583   3.518  1.00  0.00    -0.263 OA
ATOM     24  H4  UNL     1      27.939  11.228   2.148  1.00  0.00     0.188 HD
BRANCH  22  25
HETATM   25  C14 UNL     1      25.469  10.549   3.062  1.00  0.00     0.204 C 
HETATM   26  N5  UNL     1      24.554  10.372   2.180  1.00  0.00    -0.376 N 
ATOM     27  H52 UNL     1      24.700   9.668   1.456  1.00  0.00     0.158 HD
ATOM     28  H51 UNL     1      23.694  10.919   2.195  1.00  0.00     0.158 HD
BRANCH  25  29
HETATM   29  O4  UNL     1      25.272  11.504   4.044  1.00  0.00    -0.342 OA
ATOM     30  H4  UNL     1      25.488  12.413   3.874  1.00  0.00     0.219 HD
ENDBRANCH  25  29
ENDBRANCH  22  25
ENDBRANCH  15  21
ENDBRANCH   5  13
BRANCH   4  31
HETATM   31  N2  UNL     1      32.166   8.671   5.388  1.00  0.00    -0.383 N 
ATOM     32  H22 UNL     1      32.948   9.002   5.952  1.00  0.00     0.157 HD
ATOM     33  H21 UNL     1      31.438   9.322   5.093  1.00  0.00     0.157 HD
ENDBRANCH   4  31
BRANCH   1  34
HETATM   34  C6  UNL     1      34.929   4.935   8.251  1.00  0.00     0.177 A 
HETATM   35  O2  UNL     1      36.145   4.454   8.153  1.00  0.00    -0.289 OA
HETATM   36  C5  UNL     1      36.680   4.247   9.326  1.00  0.00     0.107 A 
HETATM   37  C4  UNL     1      37.924   3.754   9.691  1.00  0.00     0.076 A 
HETATM   38  C16 UNL     1      35.738   4.622  10.259  1.00  0.00     0.075 A 
HETATM   39  C3  UNL     1      38.193   3.652  11.043  1.00  0.00     0.074 A 
HETATM   40  C2  UNL     1      37.279   4.018  12.006  1.00  0.00    -0.021 A 
HETATM   41  C1  UNL     1      37.568   3.907  13.443  1.00  0.00     0.052 C 
HETATM   42  C17 UNL     1      36.058   4.500  11.603  1.00  0.00    -0.024 A 
HETATM   43  C18 UNL     1      35.055   4.899  12.593  1.00  0.00     0.051 C 
HETATM   44  N11 UNL     1      34.682   5.038   9.570  1.00  0.00    -0.332 N 
ATOM     45  H11 UNL     1      33.814   5.384   9.979  1.00  0.00     0.168 HD
BRANCH  39  46
HETATM   46  O1  UNL     1      39.437   3.161  11.402  1.00  0.00    -0.360 OA
ATOM     47  H1  UNL     1      40.087   2.957  10.739  1.00  0.00     0.217 HD
ENDBRANCH  39  46
ENDBRANCH   1  34
TORSDOF 7
ENDMDL
MODEL 3
REMARK VINA RESULT: -8.587510773      3.727      4.475
REMARK  7 active torsions:
REMARK  status: ('A' for Active; 'I' for Inactive)
REMARK    1  A    between atoms: C3_3  and  O1_4 
REMARK    2  A    between atoms: C6_9  and  C7_10 
REMARK    3  A    between atoms: C9_13  and  N2_14 
REMARK    4  A    between atoms: C10_17  and  C11_18 
REMARK    5  A    between atoms: C12_21  and  N4_22 
REMARK       I    between atoms: N4_22  and  C13_24 
REMARK    6  A    between atoms: C13_24  and  C14_26 
REMARK    7  A    between atoms: C14_26  and  O4_30 
ROOT
HETATM    1  C7  UNL     1      33.927   5.452   7.192  1.00  0.00     0.117 A 
HETATM    2  C8  UNL     1      32.725   6.099   7.335  1.00  0.00     0.151 A 
HETATM    3  N1  UNL     1      32.158   6.299   6.110  1.00  0.00    -0.137 N 
HETATM    4  C9  UNL     1      31.022   6.865   5.690  1.00  0.00     0.154 A 
HETATM    5  C10 UNL     1      30.732   6.911   4.354  1.00  0.00     0.139 A 
HETATM    6  N8  UNL     1      31.619   6.372   3.500  1.00  0.00    -0.280 N 
ATOM      7  H8  UNL     1      31.415   6.399   2.502  1.00  0.00     0.188 HD
HETATM    8  N9  UNL     1      32.744   5.810   3.900  1.00  0.00    -0.131 N 
ATOM      9  H9  UNL     1      33.392   5.413   3.219  1.00  0.00     0.205 HD
HETATM   10  C15 UNL     1      33.029   5.767   5.212  1.00  0.00     0.705 A 
HETATM   11  N10 UNL     1      34.088   5.261   5.879  1.00  0.00    -0.184 N 
ATOM     12  H10 UNL     1      34.891   4.803   5.447  1.00  0.00     0.184 HD
ENDROOT
BRANCH   5  13
HETATM   13  C11 UNL     1      29.484   7.529   3.854  1.00  0.00     0.168 A 
HETATM   14  N3  UNL     1      29.262   8.815   3.580  1.00  0.00    -0.171 N 
HETATM   15  C12 UNL     1      27.999   8.967   3.148  1.00  0.00     0.701 A 
ATOM     16  H3  UNL     1      29.945   9.566   3.683  1.00  0.00     0.186 HD
HETATM   17  N6  UNL     1      27.444   7.736   3.161  1.00  0.00    -0.130 N 
HETATM   18  N7  UNL     1      28.349   6.869   3.590  1.00  0.00    -0.269 N 
ATOM     19  H6  UNL     1      26.487   7.511   2.887  1.00  0.00     0.205 HD
ATOM     20  H7  UNL     1      28.205   5.866   3.701  1.00  0.00     0.189 HD
BRANCH  15  21
HETATM   21  N4  UNL     1      27.420  10.198   2.767  1.00  0.00    -0.151 N 
HETATM   22  C13 UNL     1      28.180  11.160   2.062  1.00  0.00     0.310 C 
HETATM   23  O3  UNL     1      29.400  10.936   1.755  1.00  0.00    -0.263 OA
ATOM     24  H4  UNL     1      26.447  10.394   3.002  1.00  0.00     0.188 HD
BRANCH  22  25
HETATM   25  C14 UNL     1      27.623  12.439   1.651  1.00  0.00     0.204 C 
HETATM   26  N5  UNL     1      26.978  12.559   0.548  1.00  0.00    -0.376 N 
ATOM     27  H52 UNL     1      26.859  11.736  -0.044  1.00  0.00     0.158 HD
ATOM     28  H51 UNL     1      26.588  13.456   0.260  1.00  0.00     0.158 HD
BRANCH  25  29
HETATM   29  O4  UNL     1      27.785  13.555   2.453  1.00  0.00    -0.342 OA
ATOM     30  H4  UNL     1      28.339  14.271   2.166  1.00  0.00     0.219 HD
ENDBRANCH  25  29
ENDBRANCH  22  25
ENDBRANCH  15  21
ENDBRANCH   5  13
BRANCH   4  31
HETATM   31  N2  UNL     1      30.197   7.370   6.531  1.00  0.00    -0.383 N 
ATOM     32  H22 UNL     1      30.405   8.272   6.958  1.00  0.00     0.157 HD
ATOM     33  H21 UNL     1      29.338   6.875   6.775  1.00  0.00     0.157 HD
ENDBRANCH   4  31
BRANCH   1  34
HETATM   34  C6  UNL     1      34.824   5.068   8.285  1.00  0.00     0.177 A 
HETATM   35  O2  UNL     1      36.021   4.543   8.172  1.00  0.00    -0.289 OA
HETATM   36  C5  UNL     1      36.562   4.316   9.337  1.00  0.00     0.107 A 
HETATM   37  C4  UNL     1      37.793   3.778   9.687  1.00  0.00     0.076 A 
HETATM   38  C16 UNL     1      35.647   4.724  10.282  1.00  0.00     0.075 A 
HETATM   39  C3  UNL     1      38.075   3.666  11.035  1.00  0.00     0.074 A 
HETATM   40  C2  UNL     1      37.188   4.064  12.009  1.00  0.00    -0.021 A 
HETATM   41  C1  UNL     1      37.491   3.943  13.443  1.00  0.00     0.052 C 
HETATM   42  C17 UNL     1      35.980   4.590  11.622  1.00  0.00    -0.024 A 
HETATM   43  C18 UNL     1      35.005   5.025  12.625  1.00  0.00     0.051 C 
HETATM   44  N11 UNL     1      34.598   5.179   9.607  1.00  0.00    -0.332 N 
ATOM     45  H11 UNL     1      33.748   5.556  10.027  1.00  0.00     0.168 HD
BRANCH  39  46
HETATM   46  O1  UNL     1      39.306   3.130  11.378  1.00  0.00    -0.360 OA
ATOM     47  H1  UNL     1      40.087   3.359  10.888  1.00  0.00     0.217 HD
ENDBRANCH  39  46
ENDBRANCH   1  34
TORSDOF 7
ENDMDL
MODEL 4
REMARK VINA RESULT: -8.576498742      4.773      5.254
REMARK  7 active torsions:
REMARK  status: ('A' for Active; 'I' for Inactive)
REMARK    1  A    between atoms: C3_3  and  O1_4 
REMARK    2  A    between atoms: C6_9  and  C7_10 
REMARK    3  A    between atoms: C9_13  and  N2_14 
REMARK    4  A    between atoms: C10_17  and  C11_18 
REMARK    5  A    between atoms: C12_21  and  N4_22 
REMARK       I    between atoms: N4_22  and  C13_24 
REMARK    6  A    between atoms: C13_24  and  C14_26 
REMARK    7  A    between atoms: C14_26  and  O4_30 
ROOT
HETATM    1  C7  UNL     1      33.987   5.236   7.008  1.00  0.00     0.117 A 
HETATM    2  C8  UNL     1      33.763   6.489   6.499  1.00  0.00     0.151 A 
HETATM    3  N1  UNL     1      32.890   6.416   5.452  1.00  0.00    -0.137 N 
HETATM    4  C9  UNL     1      32.348   7.316   4.625  1.00  0.00     0.154 A 
HETATM    5  C10 UNL     1      31.480   6.913   3.647  1.00  0.00     0.139 A 
HETATM    6  N8  UNL     1      31.202   5.602   3.557  1.00  0.00    -0.280 N 
ATOM      7  H8  UNL     1      30.556   5.288   2.833  1.00  0.00     0.188 HD
HETATM    8  N9  UNL     1      31.729   4.702   4.366  1.00  0.00    -0.131 N 
ATOM      9  H9  UNL     1      31.491   3.715   4.263  1.00  0.00     0.205 HD
HETATM   10  C15 UNL     1      32.581   5.098   5.326  1.00  0.00     0.705 A 
HETATM   11  N10 UNL     1      33.249   4.401   6.269  1.00  0.00    -0.184 N 
ATOM     12  H10 UNL     1      33.200   3.390   6.398  1.00  0.00     0.184 HD
ENDROOT
BRANCH   5  13
HETATM   13  C11 UNL     1      30.863   7.882   2.715  1.00  0.00     0.168 A 
HETATM   14  N3  UNL     1      29.767   8.617   2.909  1.00  0.00    -0.171 N 
HETATM   15  C12 UNL     1      29.539   9.372   1.820  1.00  0.00     0.701 A 
ATOM     16  H3  UNL     1      29.193   8.609   3.752  1.00  0.00     0.186 HD
HETATM   17  N6  UNL     1      30.525   9.082   0.946  1.00  0.00    -0.130 N 
HETATM   18  N7  UNL     1      31.324   8.178   1.493  1.00  0.00    -0.269 N 
ATOM     19  H6  UNL     1      30.637   9.491   0.017  1.00  0.00     0.205 HD
ATOM     20  H7  UNL     1      32.153   7.776   1.057  1.00  0.00     0.189 HD
BRANCH  15  21
HETATM   21  N4  UNL     1      28.461  10.273   1.677  1.00  0.00    -0.151 N 
HETATM   22  C13 UNL     1      28.700  11.662   1.553  1.00  0.00     0.310 C 
HETATM   23  O3  UNL     1      29.890  12.128   1.569  1.00  0.00    -0.263 OA
ATOM     24  H4  UNL     1      27.504   9.920   1.661  1.00  0.00     0.188 HD
BRANCH  22  25
HETATM   25  C14 UNL     1      27.620  12.625   1.404  1.00  0.00     0.204 C 
HETATM   26  N5  UNL     1      26.780  12.535   0.437  1.00  0.00    -0.376 N 
ATOM     27  H52 UNL     1      26.881  11.772  -0.232  1.00  0.00     0.158 HD
ATOM     28  H51 UNL     1      26.023  13.211   0.333  1.00  0.00     0.158 HD
BRANCH  25  29
HETATM   29  O4  UNL     1      27.484  13.660   2.311  1.00  0.00    -0.342 OA
ATOM     30  H4  UNL     1      27.789  14.532   2.087  1.00  0.00     0.219 HD
ENDBRANCH  25  29
ENDBRANCH  22  25
ENDBRANCH  15  21
ENDBRANCH   5  13
BRANCH   4  31
HETATM   31  N2  UNL     1      32.635   8.560   4.739  1.00  0.00    -0.383 N 
ATOM     32  H22 UNL     1      33.384   8.846   5.370  1.00  0.00     0.157 HD
ATOM     33  H21 UNL     1      32.121   9.261   4.205  1.00  0.00     0.157 HD
ENDBRANCH   4  31
BRANCH   1  34
HETATM   34  C6  UNL     1      34.867   4.917   8.135  1.00  0.00     0.177 A 
HETATM   35  O2  UNL     1      36.080   4.423   8.070  1.00  0.00    -0.289 OA
HETATM   36  C5  UNL     1      36.599   4.255   9.256  1.00  0.00     0.107 A 
HETATM   37  C4  UNL     1      37.835   3.766   9.655  1.00  0.00     0.076 A 
HETATM   38  C16 UNL     1      35.650   4.671  10.163  1.00  0.00     0.075 A 
HETATM   39  C3  UNL     1      38.086   3.711  11.012  1.00  0.00     0.074 A 
HETATM   40  C2  UNL     1      37.164   4.119  11.950  1.00  0.00    -0.021 A 
HETATM   41  C1  UNL     1      37.435   4.059  13.394  1.00  0.00     0.052 C 
HETATM   42  C17 UNL     1      35.952   4.596  11.514  1.00  0.00    -0.024 A 
HETATM   43  C18 UNL     1      34.941   5.039  12.477  1.00  0.00     0.051 C 
HETATM   44  N11 UNL     1      34.605   5.070   9.447  1.00  0.00    -0.332 N 
ATOM     45  H11 UNL     1      33.735   5.437   9.832  1.00  0.00     0.168 HD
BRANCH  39  46
HETATM   46  O1  UNL     1      39.323   3.224  11.404  1.00  0.00    -0.360 OA
ATOM     47  H1  UNL     1      39.815   2.640  10.838  1.00  0.00     0.217 HD
ENDBRANCH  39  46
ENDBRANCH   1  34
TORSDOF 7
ENDMDL
MODEL 5
REMARK VINA RESULT: -8.414656036      3.024      4.107
REMARK  7 active torsions:
REMARK  status: ('A' for Active; 'I' for Inactive)
REMARK    1  A    between atoms: C3_3  and  O1_4 
REMARK    2  A    between atoms: C6_9  and  C7_10 
REMARK    3  A    between atoms: C9_13  and  N2_14 
REMARK    4  A    between atoms: C10_17  and  C11_18 
REMARK    5  A    between atoms: C12_21  and  N4_22 
REMARK       I    between atoms: N4_22  and  C13_24 
REMARK    6  A    between atoms: C13_24  and  C14_26 
REMARK    7  A    between atoms: C14_26  and  O4_30 
ROOT
HETATM    1  C7  UNL     1      32.315   5.184   9.237  1.00  0.00     0.117 A 
HETATM    2  C8  UNL     1      31.091   4.838   9.751  1.00  0.00     0.151 A 
HETATM    3  N1  UNL     1      30.099   5.271   8.919  1.00  0.00    -0.137 N 
HETATM    4  C9  UNL     1      28.764   5.200   8.943  1.00  0.00     0.154 A 
HETATM    5  C10 UNL     1      28.030   5.749   7.928  1.00  0.00     0.139 A 
HETATM    6  N8  UNL     1      28.695   6.349   6.926  1.00  0.00    -0.280 N 
ATOM      7  H8  UNL     1      28.160   6.762   6.163  1.00  0.00     0.188 HD
HETATM    8  N9  UNL     1      30.012   6.427   6.889  1.00  0.00    -0.131 N 
ATOM      9  H9  UNL     1      30.478   6.892   6.110  1.00  0.00     0.205 HD
HETATM   10  C15 UNL     1      30.732   5.888   7.886  1.00  0.00     0.705 A 
HETATM   11  N10 UNL     1      32.065   5.828   8.093  1.00  0.00    -0.184 N 
ATOM     12  H10 UNL     1      32.774   6.214   7.470  1.00  0.00     0.184 HD
ENDROOT
BRANCH   5  13
HETATM   13  C11 UNL     1      26.552   5.689   7.922  1.00  0.00     0.168 A 
HETATM   14  N3  UNL     1      25.779   4.646   7.618  1.00  0.00    -0.171 N 
HETATM   15  C12 UNL     1      24.487   5.000   7.735  1.00  0.00     0.701 A 
ATOM     16  H3  UNL     1      26.114   3.724   7.339  1.00  0.00     0.186 HD
HETATM   17  N6  UNL     1      24.483   6.293   8.121  1.00  0.00    -0.130 N 
HETATM   18  N7  UNL     1      25.737   6.705   8.233  1.00  0.00    -0.269 N 
ATOM     19  H6  UNL     1      23.653   6.860   8.298  1.00  0.00     0.205 HD
ATOM     20  H7  UNL     1      26.033   7.641   8.510  1.00  0.00     0.189 HD
BRANCH  15  21
HETATM   21  N4  UNL     1      23.391   4.144   7.489  1.00  0.00    -0.151 N 
HETATM   22  C13 UNL     1      23.363   2.840   8.037  1.00  0.00     0.310 C 
HETATM   23  O3  UNL     1      24.323   2.412   8.764  1.00  0.00    -0.263 OA
ATOM     24  H4  UNL     1      22.615   4.468   6.912  1.00  0.00     0.188 HD
BRANCH  22  25
HETATM   25  C14 UNL     1      22.255   1.926   7.809  1.00  0.00     0.204 C 
HETATM   26  N5  UNL     1      21.614   1.402   8.790  1.00  0.00    -0.376 N 
ATOM     27  H52 UNL     1      21.895   1.638   9.742  1.00  0.00     0.158 HD
ATOM     28  H51 UNL     1      20.836   0.762   8.630  1.00  0.00     0.158 HD
BRANCH  25  29
HETATM   29  O4  UNL     1      21.874   1.607   6.518  1.00  0.00    -0.342 OA
ATOM     30  H4  UNL     1      22.353   1.962   5.778  1.00  0.00     0.219 HD
ENDBRANCH  25  29
ENDBRANCH  22  25
ENDBRANCH  15  21
ENDBRANCH   5  13
BRANCH   4  31
HETATM   31  N2  UNL     1      28.161   4.620   9.914  1.00  0.00    -0.383 N 
ATOM     32  H22 UNL     1      27.783   3.683   9.781  1.00  0.00     0.157 HD
ATOM     33  H21 UNL     1      28.057   5.090  10.814  1.00  0.00     0.157 HD
ENDBRANCH   4  31
BRANCH   1  34
HETATM   34  C6  UNL     1      33.612   4.889   9.851  1.00  0.00     0.177 A 
HETATM   35  O2  UNL     1      33.885   4.857  11.134  1.00  0.00    -0.289 OA
HETATM   36  C5  UNL     1      35.137   4.561  11.356  1.00  0.00     0.107 A 
HETATM   37  C4  UNL     1      35.850   4.422  12.538  1.00  0.00     0.076 A 
HETATM   38  C16 UNL     1      35.724   4.389  10.122  1.00  0.00     0.075 A 
HETATM   39  C3  UNL     1      37.189   4.098  12.434  1.00  0.00     0.074 A 
HETATM   40  C2  UNL     1      37.813   3.915  11.220  1.00  0.00    -0.021 A 
HETATM   41  C1  UNL     1      39.238   3.571  11.114  1.00  0.00     0.052 C 
HETATM   42  C17 UNL     1      37.071   4.063  10.074  1.00  0.00    -0.024 A 
HETATM   43  C18 UNL     1      37.694   3.880   8.760  1.00  0.00     0.051 C 
HETATM   44  N11 UNL     1      34.766   4.595   9.225  1.00  0.00    -0.332 N 
ATOM     45  H11 UNL     1      34.887   4.538   8.214  1.00  0.00     0.168 HD
BRANCH  39  46
HETATM   46  O1  UNL     1      37.897   3.959  13.618  1.00  0.00    -0.360 OA
ATOM     47  H1  UNL     1      37.676   4.484  14.378  1.00  0.00     0.217 HD
ENDBRANCH  39  46
ENDBRANCH   1  34
TORSDOF 7
ENDMDL
