MODEL 1
REMARK VINA RESULT: -8.567511652      0.000      0.000
REMARK  5 active torsions:
REMARK  status: ('A' for Active; 'I' for Inactive)
REMARK    1  A    between atoms: N1_1  and  C1_4 
REMARK    2  A    between atoms: C2_7  and  N3_8 
REMARK    3  A    between atoms: C4_10  and  C5_11 
REMARK    4  A    between atoms: C12_28  and  N8_29 
REMARK    5  A    between atoms: C16_41  and  N12_42 
ROOT
HETATM    1  C5  UNL     1      32.080   5.089   8.034  1.00  0.00     0.074 A 
HETATM    2  N4  UNL     1      32.289   5.175   6.683  1.00  0.00    -0.339 N 
ATOM      3  H4  UNL     1      33.196   5.480   6.328  1.00  0.00     0.167 HD
HETATM    4  C6  UNL     1      31.319   4.864   5.836  1.00  0.00     0.123 A 
HETATM    5  N5  UNL     1      31.538   4.954   4.490  1.00  0.00    -0.318 N 
ATOM      6  H5  UNL     1      32.452   5.260   4.155  1.00  0.00     0.170 HD
HETATM    7  C7  UNL     1      30.586   4.650   3.598  1.00  0.00     0.178 A 
HETATM    8  S1  UNL     1      30.950   4.790   2.015  1.00  0.00    -0.040 SA
HETATM    9  N6  UNL     1      29.371   4.241   4.005  1.00  0.00    -0.319 N 
ATOM     10  H6  UNL     1      28.658   4.014   3.313  1.00  0.00     0.170 HD
HETATM   11  C8  UNL     1      29.081   4.128   5.340  1.00  0.00     0.116 A 
HETATM   12  N7  UNL     1      27.907   3.736   5.598  1.00  0.00    -0.385 N 
ATOM     13  H71 UNL     1      27.692   3.651   6.591  1.00  0.00     0.157 HD
ATOM     14  H72 UNL     1      27.175   3.502   4.927  1.00  0.00     0.157 HD
HETATM   15  C9  UNL     1      30.059   4.440   6.236  1.00  0.00     0.063 A 
HETATM   16  C10 UNL     1      29.827   4.347   7.613  1.00  0.00    -0.004 A 
HETATM   17  C11 UNL     1      28.611   3.938   8.068  1.00  0.00     0.049 A 
HETATM   18  C12 UNL     1      28.375   3.841   9.440  1.00  0.00     0.103 A 
HETATM   19  C13 UNL     1      29.384   4.166  10.308  1.00  0.00     0.037 A 
HETATM   20  C14 UNL     1      30.612   4.579   9.862  1.00  0.00     0.017 A 
HETATM   21  C15 UNL     1      30.866   4.680   8.508  1.00  0.00     0.004 A 
ENDROOT
BRANCH   1  22
HETATM   22  C4  UNL     1      33.205   5.451   8.899  1.00  0.00     0.095 A 
HETATM   23  C3  UNL     1      34.223   4.548   9.287  1.00  0.00     0.170 A 
HETATM   24  N3  UNL     1      35.099   5.184  10.074  1.00  0.00    -0.080 N 
HETATM   25  N10 UNL     1      34.674   6.419  10.187  1.00  0.00    -0.221 N 
HETATM   26  N9  UNL     1      33.569   6.564   9.499  1.00  0.00    -0.282 N 
ATOM     27  H10 UNL     1      35.132   7.153  10.726  1.00  0.00     0.209 HD
ATOM     28  H9  UNL     1      33.051   7.440   9.435  1.00  0.00     0.188 HD
BRANCH  24  29
HETATM   29  C2  UNL     1      36.264   4.600  10.663  1.00  0.00     0.733 A 
HETATM   30  N2  UNL     1      37.149   3.958   9.886  1.00  0.00    -0.020 N 
HETATM   31  C1  UNL     1      38.252   3.404  10.432  1.00  0.00     0.705 A 
ATOM     32  H2  UNL     1      36.989   3.889   8.881  1.00  0.00     0.203 HD
HETATM   33  N13 UNL     1      38.421   3.523  11.774  1.00  0.00    -0.022 N 
HETATM   34  C16 UNL     1      37.531   4.163  12.526  1.00  0.00     0.705 A 
ATOM     35  H13 UNL     1      39.245   3.113  12.213  1.00  0.00     0.203 HD
HETATM   36  N11 UNL     1      36.415   4.728  11.992  1.00  0.00    -0.020 N 
ATOM     37  H11 UNL     1      35.731   5.220  12.567  1.00  0.00     0.203 HD
BRANCH  31  38
HETATM   38  N1  UNL     1      39.123   2.782   9.723  1.00  0.00    -0.234 N 
ATOM     39  H12 UNL     1      38.828   2.214   8.929  1.00  0.00     0.174 HD
ATOM     40  H11 UNL     1      40.121   2.833   9.926  1.00  0.00     0.174 HD
ENDBRANCH  31  38
BRANCH  34  41
HETATM   41  N12 UNL     1      37.719   4.260  13.790  1.00  0.00    -0.234 N 
ATOM     42 2H12 UNL     1      37.035   4.748  14.366  1.00  0.00     0.174 HD
ATOM     43 1H12 UNL     1      38.558   3.839  14.190  1.00  0.00     0.174 HD
ENDBRANCH  34  41
ENDBRANCH  24  29
ENDBRANCH   1  22
BRANCH  18  44
HETATM   44  N8  UNL     1      27.098   3.413   9.866  1.00  0.00    -0.116 N 
HETATM   45  O1  UNL     1      26.082   4.037   9.533  1.00  0.00    -0.532 OA
HETATM   46  O2  UNL     1      26.906   2.300  10.658  1.00  0.00    -0.532 OA
ENDBRANCH  18  44
TORSDOF 5
ENDMDL
MODEL 2
REMARK VINA RESULT: -8.504374083      4.346      8.063
REMARK  5 active torsions:
REMARK  status: ('A' for Active; 'I' for Inactive)
REMARK    1  A    between atoms: N1_1  and  C1_4 
REMARK    2  A    between atoms: C2_7  and  N3_8 
REMARK    3  A    between atoms: C4_10  and  C5_11 
REMARK    4  A    between atoms: C12_28  and  N8_29 
REMARK    5  A    between atoms: C16_41  and  N12_42 
ROOT
HETATM    1  C5  UNL     1      32.204   5.288   6.555  1.00  0.00     0.074 A 
HETATM    2  N4  UNL     1      30.863   5.296   6.835  1.00  0.00    -0.339 N 
ATOM      3  H4  UNL     1      30.190   5.485   6.092  1.00  0.00     0.167 HD
HETATM    4  C6  UNL     1      30.436   5.058   8.066  1.00  0.00     0.123 A 
HETATM    5  N5  UNL     1      29.096   5.069   8.335  1.00  0.00    -0.318 N 
ATOM      6  H5  UNL     1      28.439   5.260   7.578  1.00  0.00     0.170 HD
HETATM    7  C7  UNL     1      28.621   4.834   9.565  1.00  0.00     0.178 A 
HETATM    8  S1  UNL     1      27.005   4.869   9.778  1.00  0.00    -0.040 SA
HETATM    9  N6  UNL     1      29.458   4.577  10.586  1.00  0.00    -0.319 N 
ATOM     10  H6  UNL     1      29.080   4.401  11.516  1.00  0.00     0.170 HD
HETATM   11  C8  UNL     1      30.815   4.551  10.389  1.00  0.00     0.116 A 
HETATM   12  N7  UNL     1      31.497   4.299  11.424  1.00  0.00    -0.385 N 
ATOM     13  H71 UNL     1      32.506   4.279  11.277  1.00  0.00     0.157 HD
ATOM     14  H72 UNL     1      31.145   4.120  12.364  1.00  0.00     0.157 HD
HETATM   15  C9  UNL     1      31.284   4.791   9.133  1.00  0.00     0.063 A 
HETATM   16  C10 UNL     1      32.657   4.779   8.865  1.00  0.00    -0.004 A 
HETATM   17  C11 UNL     1      33.540   4.524   9.871  1.00  0.00     0.049 A 
HETATM   18  C12 UNL     1      34.911   4.509   9.609  1.00  0.00     0.103 A 
HETATM   19  C13 UNL     1      35.342   4.757   8.332  1.00  0.00     0.037 A 
HETATM   20  C14 UNL     1      34.464   5.015   7.313  1.00  0.00     0.017 A 
HETATM   21  C15 UNL     1      33.103   5.033   7.551  1.00  0.00     0.004 A 
ENDROOT
BRANCH   1  22
HETATM   22  C4  UNL     1      32.589   5.560   5.169  1.00  0.00     0.095 A 
HETATM   23  C3  UNL     1      32.637   6.857   4.605  1.00  0.00     0.170 A 
HETATM   24  N3  UNL     1      33.022   6.769   3.327  1.00  0.00    -0.080 N 
HETATM   25  N10 UNL     1      33.211   5.494   3.080  1.00  0.00    -0.221 N 
HETATM   26  N9  UNL     1      32.955   4.799   4.160  1.00  0.00    -0.282 N 
ATOM     27  H10 UNL     1      33.511   5.105   2.187  1.00  0.00     0.209 HD
ATOM     28  H9  UNL     1      33.031   3.783   4.213  1.00  0.00     0.188 HD
BRANCH  24  29
HETATM   29  C2  UNL     1      33.187   7.870   2.429  1.00  0.00     0.733 A 
HETATM   30  N2  UNL     1      34.419   8.225   2.035  1.00  0.00    -0.020 N 
HETATM   31  C1  UNL     1      34.585   9.263   1.188  1.00  0.00     0.705 A 
ATOM     32  H2  UNL     1      35.231   7.711   2.376  1.00  0.00     0.203 HD
HETATM   33  N13 UNL     1      33.473   9.915   0.762  1.00  0.00    -0.022 N 
HETATM   34  C16 UNL     1      32.261   9.546   1.165  1.00  0.00     0.705 A 
ATOM     35  H13 UNL     1      33.569  10.703   0.121  1.00  0.00     0.203 HD
HETATM   36  N11 UNL     1      32.076   8.502   2.018  1.00  0.00    -0.020 N 
ATOM     37  H11 UNL     1      31.147   8.217   2.327  1.00  0.00     0.203 HD
BRANCH  31  38
HETATM   38  N1  UNL     1      35.746   9.635   0.788  1.00  0.00    -0.234 N 
ATOM     39  H12 UNL     1      36.561   9.512   1.388  1.00  0.00     0.174 HD
ATOM     40  H11 UNL     1      35.892  10.059  -0.128  1.00  0.00     0.174 HD
ENDBRANCH  31  38
BRANCH  34  41
HETATM   41  N12 UNL     1      31.231  10.181   0.744  1.00  0.00    -0.234 N 
ATOM     42 2H12 UNL     1      31.043  11.123   1.086  1.00  0.00     0.174 HD
ATOM     43 1H12 UNL     1      30.619   9.721   0.069  1.00  0.00     0.174 HD
ENDBRANCH  34  41
ENDBRANCH  24  29
ENDBRANCH   1  22
BRANCH  18  44
HETATM   44  N8  UNL     1      35.789   4.240  10.683  1.00  0.00    -0.116 N 
HETATM   45  O1  UNL     1      36.820   3.581  10.502  1.00  0.00    -0.532 OA
HETATM   46  O2  UNL     1      35.557   4.684  11.968  1.00  0.00    -0.532 OA
ENDBRANCH  18  44
TORSDOF 5
ENDMDL
MODEL 3
REMARK VINA RESULT: -8.503575296      0.065      1.409
REMARK  5 active torsions:
REMARK  status: ('A' for Active; 'I' for Inactive)
REMARK    1  A    between atoms: N1_1  and  C1_4 
REMARK    2  A    between atoms: C2_7  and  N3_8 
REMARK    3  A    between atoms: C4_10  and  C5_11 
REMARK    4  A    between atoms: C12_28  and  N8_29 
REMARK    5  A    between atoms: C16_41  and  N12_42 
ROOT
HETATM    1  C5  UNL     1      32.036   5.089   8.005  1.00  0.00     0.074 A 
HETATM    2  N4  UNL     1      32.241   5.172   6.653  1.00  0.00    -0.339 N 
ATOM      3  H4  UNL     1      33.145   5.480   6.294  1.00  0.00     0.167 HD
HETATM    4  C6  UNL     1      31.271   4.853   5.810  1.00  0.00     0.123 A 
HETATM    5  N5  UNL     1      31.486   4.939   4.462  1.00  0.00    -0.318 N 
ATOM      6  H5  UNL     1      32.396   5.249   4.124  1.00  0.00     0.170 HD
HETATM    7  C7  UNL     1      30.533   4.626   3.575  1.00  0.00     0.178 A 
HETATM    8  S1  UNL     1      30.892   4.763   1.990  1.00  0.00    -0.040 SA
HETATM    9  N6  UNL     1      29.321   4.213   3.986  1.00  0.00    -0.319 N 
ATOM     10  H6  UNL     1      28.607   3.979   3.297  1.00  0.00     0.170 HD
HETATM   11  C8  UNL     1      29.035   4.103   5.322  1.00  0.00     0.116 A 
HETATM   12  N7  UNL     1      27.864   3.704   5.584  1.00  0.00    -0.385 N 
ATOM     13  H71 UNL     1      27.652   3.622   6.579  1.00  0.00     0.157 HD
ATOM     14  H72 UNL     1      27.132   3.465   4.916  1.00  0.00     0.157 HD
HETATM   15  C9  UNL     1      30.013   4.423   6.215  1.00  0.00     0.063 A 
HETATM   16  C10 UNL     1      29.786   4.334   7.592  1.00  0.00    -0.004 A 
HETATM   17  C11 UNL     1      28.573   3.919   8.052  1.00  0.00     0.049 A 
HETATM   18  C12 UNL     1      28.342   3.826   9.425  1.00  0.00     0.103 A 
HETATM   19  C13 UNL     1      29.351   4.159  10.289  1.00  0.00     0.037 A 
HETATM   20  C14 UNL     1      30.576   4.577   9.838  1.00  0.00     0.017 A 
HETATM   21  C15 UNL     1      30.825   4.675   8.483  1.00  0.00     0.004 A 
ENDROOT
BRANCH   1  22
HETATM   22  C4  UNL     1      33.161   5.461   8.865  1.00  0.00     0.095 A 
HETATM   23  C3  UNL     1      34.186   4.565   9.253  1.00  0.00     0.170 A 
HETATM   24  N3  UNL     1      35.060   5.208  10.035  1.00  0.00    -0.080 N 
HETATM   25  N10 UNL     1      34.628   6.441  10.147  1.00  0.00    -0.221 N 
HETATM   26  N9  UNL     1      33.520   6.577   9.462  1.00  0.00    -0.282 N 
ATOM     27  H10 UNL     1      35.083   7.179  10.683  1.00  0.00     0.209 HD
ATOM     28  H9  UNL     1      32.996   7.450   9.397  1.00  0.00     0.188 HD
BRANCH  24  29
HETATM   29  C2  UNL     1      36.231   4.633  10.622  1.00  0.00     0.733 A 
HETATM   30  N2  UNL     1      36.417   4.715  11.948  1.00  0.00    -0.020 N 
HETATM   31  C1  UNL     1      37.519   4.175  12.511  1.00  0.00     0.705 A 
ATOM     32  H2  UNL     1      35.725   5.185  12.531  1.00  0.00     0.203 HD
HETATM   33  N13 UNL     1      38.410   3.559  11.693  1.00  0.00    -0.022 N 
HETATM   34  C16 UNL     1      38.206   3.489  10.381  1.00  0.00     0.705 A 
ATOM     35  H13 UNL     1      39.251   3.143  12.091  1.00  0.00     0.203 HD
HETATM   36  N11 UNL     1      37.101   4.027   9.797  1.00  0.00    -0.020 N 
ATOM     37  H11 UNL     1      36.942   3.973   8.791  1.00  0.00     0.203 HD
BRANCH  31  38
HETATM   38  N1  UNL     1      37.734   4.232  13.775  1.00  0.00    -0.234 N 
ATOM     39  H12 UNL     1      37.022   3.913  14.433  1.00  0.00     0.174 HD
ATOM     40  H11 UNL     1      38.607   4.592  14.159  1.00  0.00     0.174 HD
ENDBRANCH  31  38
BRANCH  34  41
HETATM   41  N12 UNL     1      39.065   2.900   9.635  1.00  0.00    -0.234 N 
ATOM     42 2H12 UNL     1      39.908   3.396   9.346  1.00  0.00     0.174 HD
ATOM     43 1H12 UNL     1      38.881   1.938   9.347  1.00  0.00     0.174 HD
ENDBRANCH  34  41
ENDBRANCH  24  29
ENDBRANCH   1  22
BRANCH  18  44
HETATM   44  N8  UNL     1      27.068   3.392   9.855  1.00  0.00    -0.116 N 
HETATM   45  O1  UNL     1      26.047   4.006   9.519  1.00  0.00    -0.532 OA
HETATM   46  O2  UNL     1      26.885   2.284  10.657  1.00  0.00    -0.532 OA
ENDBRANCH  18  44
TORSDOF 5
ENDMDL
MODEL 4
REMARK VINA RESULT: -8.471156318      4.351      8.118
REMARK  5 active torsions:
REMARK  status: ('A' for Active; 'I' for Inactive)
REMARK    1  A    between atoms: N1_1  and  C1_4 
REMARK    2  A    between atoms: C2_7  and  N3_8 
REMARK    3  A    between atoms: C4_10  and  C5_11 
REMARK    4  A    between atoms: C12_28  and  N8_29 
REMARK    5  A    between atoms: C16_41  and  N12_42 
ROOT
HETATM    1  C5  UNL     1      32.221   5.283   6.542  1.00  0.00     0.074 A 
HETATM    2  N4  UNL     1      30.881   5.285   6.825  1.00  0.00    -0.339 N 
ATOM      3  H4  UNL     1      30.205   5.473   6.084  1.00  0.00     0.167 HD
HETATM    4  C6  UNL     1      30.458   5.043   8.057  1.00  0.00     0.123 A 
HETATM    5  N5  UNL     1      29.118   5.047   8.329  1.00  0.00    -0.318 N 
ATOM      6  H5  UNL     1      28.459   5.237   7.573  1.00  0.00     0.170 HD
HETATM    7  C7  UNL     1      28.647   4.808   9.559  1.00  0.00     0.178 A 
HETATM    8  S1  UNL     1      27.031   4.835   9.777  1.00  0.00    -0.040 SA
HETATM    9  N6  UNL     1      29.488   4.552  10.578  1.00  0.00    -0.319 N 
ATOM     10  H6  UNL     1      29.113   4.372  11.508  1.00  0.00     0.170 HD
HETATM   11  C8  UNL     1      30.844   4.532  10.378  1.00  0.00     0.116 A 
HETATM   12  N7  UNL     1      31.530   4.281  11.410  1.00  0.00    -0.385 N 
ATOM     13  H71 UNL     1      32.539   4.266  11.261  1.00  0.00     0.157 HD
ATOM     14  H72 UNL     1      31.181   4.098  12.351  1.00  0.00     0.157 HD
HETATM   15  C9  UNL     1      31.310   4.777   9.121  1.00  0.00     0.063 A 
HETATM   16  C10 UNL     1      32.682   4.772   8.850  1.00  0.00    -0.004 A 
HETATM   17  C11 UNL     1      33.569   4.518   9.853  1.00  0.00     0.049 A 
HETATM   18  C12 UNL     1      34.939   4.510   9.588  1.00  0.00     0.103 A 
HETATM   19  C13 UNL     1      35.366   4.762   8.311  1.00  0.00     0.037 A 
HETATM   20  C14 UNL     1      34.484   5.019   7.294  1.00  0.00     0.017 A 
HETATM   21  C15 UNL     1      33.124   5.030   7.536  1.00  0.00     0.004 A 
ENDROOT
BRANCH   1  22
HETATM   22  C4  UNL     1      32.602   5.560   5.156  1.00  0.00     0.095 A 
HETATM   23  C3  UNL     1      32.631   6.858   4.591  1.00  0.00     0.170 A 
HETATM   24  N3  UNL     1      33.018   6.773   3.313  1.00  0.00    -0.080 N 
HETATM   25  N10 UNL     1      33.224   5.502   3.067  1.00  0.00    -0.221 N 
HETATM   26  N9  UNL     1      32.978   4.804   4.147  1.00  0.00    -0.282 N 
ATOM     27  H10 UNL     1      33.529   5.116   2.174  1.00  0.00     0.209 HD
ATOM     28  H9  UNL     1      33.068   3.789   4.200  1.00  0.00     0.188 HD
BRANCH  24  29
HETATM   29  C2  UNL     1      33.167   7.876   2.414  1.00  0.00     0.733 A 
HETATM   30  N2  UNL     1      32.079   8.526   1.976  1.00  0.00    -0.020 N 
HETATM   31  C1  UNL     1      32.209   9.568   1.127  1.00  0.00     0.705 A 
ATOM     32  H2  UNL     1      31.152   8.233   2.283  1.00  0.00     0.203 HD
HETATM   33  N13 UNL     1      33.464   9.920   0.747  1.00  0.00    -0.022 N 
HETATM   34  C16 UNL     1      34.530   9.262   1.195  1.00  0.00     0.705 A 
ATOM     35  H13 UNL     1      33.592  10.704   0.107  1.00  0.00     0.203 HD
HETATM   36  N11 UNL     1      34.416   8.211   2.050  1.00  0.00    -0.020 N 
ATOM     37  H11 UNL     1      35.232   7.705   2.395  1.00  0.00     0.203 HD
BRANCH  31  38
HETATM   38  N1  UNL     1      31.194  10.215   0.685  1.00  0.00    -0.234 N 
ATOM     39  H12 UNL     1      30.251   9.857   0.834  1.00  0.00     0.174 HD
ATOM     40  H11 UNL     1      31.293  11.095   0.177  1.00  0.00     0.174 HD
ENDBRANCH  31  38
BRANCH  34  41
HETATM   41  N12 UNL     1      35.701   9.620   0.818  1.00  0.00    -0.234 N 
ATOM     42 2H12 UNL     1      35.845   9.958  -0.133  1.00  0.00     0.174 HD
ATOM     43 1H12 UNL     1      36.467   9.557   1.489  1.00  0.00     0.174 HD
ENDBRANCH  34  41
ENDBRANCH  24  29
ENDBRANCH   1  22
BRANCH  18  44
HETATM   44  N8  UNL     1      35.820   4.243  10.659  1.00  0.00    -0.116 N 
HETATM   45  O1  UNL     1      36.858   3.595  10.474  1.00  0.00    -0.532 OA
HETATM   46  O2  UNL     1      35.586   4.676  11.948  1.00  0.00    -0.532 OA
ENDBRANCH  18  44
TORSDOF 5
ENDMDL
MODEL 5
REMARK VINA RESULT: -8.352908182      1.344      1.731
REMARK  5 active torsions:
REMARK  status: ('A' for Active; 'I' for Inactive)
REMARK    1  A    between atoms: N1_1  and  C1_4 
REMARK    2  A    between atoms: C2_7  and  N3_8 
REMARK    3  A    between atoms: C4_10  and  C5_11 
REMARK    4  A    between atoms: C12_28  and  N8_29 
REMARK    5  A    between atoms: C16_41  and  N12_42 
ROOT
HETATM    1  C5  UNL     1      33.163   5.357   6.929  1.00  0.00     0.074 A 
HETATM    2  N4  UNL     1      33.603   5.540   5.645  1.00  0.00    -0.339 N 
ATOM      3  H4  UNL     1      34.563   5.841   5.474  1.00  0.00     0.167 HD
HETATM    4  C6  UNL     1      32.786   5.329   4.623  1.00  0.00     0.123 A 
HETATM    5  N5  UNL     1      33.235   5.514   3.345  1.00  0.00    -0.318 N 
ATOM      6  H5  UNL     1      34.198   5.815   3.196  1.00  0.00     0.170 HD
HETATM    7  C7  UNL     1      32.444   5.312   2.284  1.00  0.00     0.178 A 
HETATM    8  S1  UNL     1      33.076   5.561   0.802  1.00  0.00    -0.040 SA
HETATM    9  N6  UNL     1      31.168   4.915   2.445  1.00  0.00    -0.319 N 
ATOM     10  H6  UNL     1      30.580   4.766   1.626  1.00  0.00     0.170 HD
HETATM   11  C8  UNL     1      30.652   4.709   3.698  1.00  0.00     0.116 A 
HETATM   12  N7  UNL     1      29.443   4.338   3.720  1.00  0.00    -0.385 N 
ATOM     13  H71 UNL     1      29.059   4.184   4.653  1.00  0.00     0.157 HD
ATOM     14  H72 UNL     1      28.832   4.181   2.918  1.00  0.00     0.157 HD
HETATM   15  C9  UNL     1      31.467   4.918   4.769  1.00  0.00     0.063 A 
HETATM   16  C10 UNL     1      31.002   4.727   6.074  1.00  0.00    -0.004 A 
HETATM   17  C11 UNL     1      29.717   4.325   6.282  1.00  0.00     0.049 A 
HETATM   18  C12 UNL     1      29.248   4.131   7.582  1.00  0.00     0.103 A 
HETATM   19  C13 UNL     1      30.100   4.353   8.632  1.00  0.00     0.037 A 
HETATM   20  C14 UNL     1      31.395   4.758   8.435  1.00  0.00     0.017 A 
HETATM   21  C15 UNL     1      31.878   4.954   7.156  1.00  0.00     0.004 A 
ENDROOT
BRANCH   1  22
HETATM   22  C4  UNL     1      34.131   5.614   7.999  1.00  0.00     0.095 A 
HETATM   23  C3  UNL     1      34.986   4.625   8.541  1.00  0.00     0.170 A 
HETATM   24  N3  UNL     1      35.745   5.175   9.496  1.00  0.00    -0.080 N 
HETATM   25  N10 UNL     1      35.402   6.439   9.566  1.00  0.00    -0.221 N 
HETATM   26  N9  UNL     1      34.461   6.684   8.690  1.00  0.00    -0.282 N 
ATOM     27  H10 UNL     1      35.806   7.125  10.203  1.00  0.00     0.209 HD
ATOM     28  H9  UNL     1      34.031   7.600   8.558  1.00  0.00     0.188 HD
BRANCH  24  29
HETATM   29  C2  UNL     1      36.731   4.489  10.273  1.00  0.00     0.733 A 
HETATM   30  N2  UNL     1      37.644   3.723   9.658  1.00  0.00    -0.020 N 
HETATM   31  C1  UNL     1      38.579   3.072  10.382  1.00  0.00     0.705 A 
ATOM     32  H2  UNL     1      37.632   3.632   8.642  1.00  0.00     0.203 HD
HETATM   33  N13 UNL     1      38.554   3.226  11.731  1.00  0.00    -0.022 N 
HETATM   34  C16 UNL     1      37.640   3.991  12.320  1.00  0.00     0.705 A 
ATOM     35  H13 UNL     1      39.248   2.745  12.303  1.00  0.00     0.203 HD
HETATM   36  N11 UNL     1      36.691   4.654  11.606  1.00  0.00    -0.020 N 
ATOM     37  H11 UNL     1      35.990   5.242  12.056  1.00  0.00     0.203 HD
BRANCH  31  38
HETATM   38  N1  UNL     1      39.469   2.329   9.833  1.00  0.00    -0.234 N 
ATOM     39  H12 UNL     1      39.524   2.258   8.817  1.00  0.00     0.174 HD
ATOM     40  H11 UNL     1      40.141   1.794  10.382  1.00  0.00     0.174 HD
ENDBRANCH  31  38
BRANCH  34  41
HETATM   41  N12 UNL     1      37.643   4.116  13.595  1.00  0.00    -0.234 N 
ATOM     42 2H12 UNL     1      37.558   3.289  14.184  1.00  0.00     0.174 HD
ATOM     43 1H12 UNL     1      37.732   5.052  13.991  1.00  0.00     0.174 HD
ENDBRANCH  34  41
ENDBRANCH  24  29
ENDBRANCH   1  22
BRANCH  18  44
HETATM   44  N8  UNL     1      27.909   3.715   7.749  1.00  0.00    -0.116 N 
HETATM   45  O1  UNL     1      27.141   3.665   6.780  1.00  0.00    -0.532 OA
HETATM   46  O2  UNL     1      27.385   3.346   8.970  1.00  0.00    -0.532 OA
ENDBRANCH  18  44
TORSDOF 5
ENDMDL
