MODEL 1
REMARK VINA RESULT: -8.034293511      0.000      0.000
REMARK  7 active torsions:
REMARK  status: ('A' for Active; 'I' for Inactive)
REMARK    1  A    between atoms: C5_10  and  N3_11 
REMARK    2  A    between atoms: C7_15  and  C8_16 
REMARK    3  A    between atoms: C11_19  and  N4_20 
REMARK       I    between atoms: N4_20  and  C12_22 
REMARK    4  A    between atoms: C12_22  and  O2_24 
REMARK    5  A    between atoms: O2_24  and  N5_25 
REMARK    6  A    between atoms: C15_34  and  N10_35 
REMARK    7  A    between atoms: C18_40  and  O3_41 
ROOT
HETATM    1  C8  UNL     1      34.323   5.311   8.915  1.00  0.00     0.010 A 
HETATM    2  C9  UNL     1      33.618   4.393   8.185  1.00  0.00     0.017 A 
HETATM    3  C10 UNL     1      32.931   4.760   7.030  1.00  0.00     0.031 A 
HETATM    4  C11 UNL     1      32.948   6.054   6.602  1.00  0.00     0.045 A 
HETATM    5  C16 UNL     1      33.673   6.996   7.356  1.00  0.00    -0.001 A 
HETATM    6  C17 UNL     1      33.675   8.386   6.874  1.00  0.00     0.054 C 
HETATM    7  C18 UNL     1      34.344   6.635   8.483  1.00  0.00     0.085 A 
ENDROOT
BRANCH   4   8
HETATM    8  N4  UNL     1      32.284   6.495   5.453  1.00  0.00    -0.301 N 
HETATM    9  C12 UNL     1      32.667   6.337   4.116  1.00  0.00     0.388 C 
HETATM   10  O1  UNL     1      33.687   5.767   3.688  1.00  0.00    -0.236 OA
ATOM     11  H4  UNL     1      31.409   6.994   5.610  1.00  0.00     0.171 HD
BRANCH   9  12
HETATM   12  O2  UNL     1      31.831   6.871   3.105  1.00  0.00    -0.156 OA
BRANCH  12  13
HETATM   13  N5  UNL     1      31.999   8.182   2.708  1.00  0.00    -0.009 N 
HETATM   14  C13 UNL     1      31.293   9.159   3.298  1.00  0.00     0.240 A 
HETATM   15  N6  UNL     1      30.372   8.855   4.334  1.00  0.00    -0.060 NA
HETATM   16  N7  UNL     1      31.431  10.452   2.936  1.00  0.00    -0.302 N 
HETATM   17  C14 UNL     1      32.292  10.819   1.956  1.00  0.00     0.209 A 
ATOM     18  H7  UNL     1      30.876  11.166   3.409  1.00  0.00     0.171 HD
HETATM   19  N8  UNL     1      32.441  12.176   1.571  1.00  0.00    -0.063 NA
HETATM   20  N9  UNL     1      32.994   9.835   1.369  1.00  0.00    -0.161 N 
HETATM   21  C15 UNL     1      32.856   8.526   1.734  1.00  0.00     0.708 A 
ATOM     22  H9  UNL     1      33.651  10.074   0.628  1.00  0.00     0.187 HD
BRANCH  21  23
HETATM   23  N10 UNL     1      33.537   7.604   1.160  1.00  0.00    -0.232 N 
ATOM     24 2H10 UNL     1      33.772   7.660   0.169  1.00  0.00     0.174 HD
ATOM     25 1H10 UNL     1      33.842   6.804   1.715  1.00  0.00     0.174 HD
ENDBRANCH  21  23
ENDBRANCH  12  13
ENDBRANCH   9  12
ENDBRANCH   4   8
BRANCH   7  26
HETATM   26  O3  UNL     1      35.059   7.513   9.243  1.00  0.00    -0.359 OA
ATOM     27  H3  UNL     1      34.810   8.428   9.183  1.00  0.00     0.217 HD
ENDBRANCH   7  26
BRANCH   1  28
HETATM   28  C7  UNL     1      35.080   4.899  10.136  1.00  0.00     0.006 A 
HETATM   29  C2  UNL     1      34.417   5.039  11.338  1.00  0.00    -0.007 A 
HETATM   30  C1  UNL     1      33.043   5.543  11.628  1.00  0.00     0.057 C 
HETATM   31  S1  UNL     1      35.542   4.492  12.473  1.00  0.00    -0.075 SA
HETATM   32  C3  UNL     1      36.836   4.093  11.414  1.00  0.00     0.090 A 
HETATM   33  N1  UNL     1      38.089   3.587  11.632  1.00  0.00    -0.346 N 
HETATM   34  C6  UNL     1      36.333   4.409  10.185  1.00  0.00     0.053 A 
HETATM   35  C4  UNL     1      38.911   3.370  10.596  1.00  0.00     0.182 A 
ATOM     36  H1  UNL     1      38.396   3.376  12.581  1.00  0.00     0.167 HD
HETATM   37  N2  UNL     1      38.453   3.665   9.401  1.00  0.00    -0.338 N 
HETATM   38  C5  UNL     1      37.216   4.173   9.104  1.00  0.00     0.113 A 
ATOM     39  H2  UNL     1      39.082   3.498   8.615  1.00  0.00     0.168 HD
BRANCH  38  40
HETATM   40  N3  UNL     1      36.989   4.380   7.902  1.00  0.00    -0.385 N 
ATOM     41  H32 UNL     1      37.670   4.373   7.143  1.00  0.00     0.157 HD
ATOM     42  H31 UNL     1      36.018   4.576   7.659  1.00  0.00     0.157 HD
ENDBRANCH  38  40
ENDBRANCH   1  28
TORSDOF 7
ENDMDL
MODEL 2
REMARK VINA RESULT: -7.704458589      0.762      1.604
REMARK  7 active torsions:
REMARK  status: ('A' for Active; 'I' for Inactive)
REMARK    1  A    between atoms: C5_10  and  N3_11 
REMARK    2  A    between atoms: C7_15  and  C8_16 
REMARK    3  A    between atoms: C11_19  and  N4_20 
REMARK       I    between atoms: N4_20  and  C12_22 
REMARK    4  A    between atoms: C12_22  and  O2_24 
REMARK    5  A    between atoms: O2_24  and  N5_25 
REMARK    6  A    between atoms: C15_34  and  N10_35 
REMARK    7  A    between atoms: C18_40  and  O3_41 
ROOT
HETATM    1  C8  UNL     1      34.393   5.291   8.844  1.00  0.00     0.010 A 
HETATM    2  C9  UNL     1      33.808   4.310   8.091  1.00  0.00     0.017 A 
HETATM    3  C10 UNL     1      33.262   4.588   6.840  1.00  0.00     0.031 A 
HETATM    4  C11 UNL     1      33.300   5.854   6.338  1.00  0.00     0.045 A 
HETATM    5  C16 UNL     1      33.902   6.860   7.117  1.00  0.00    -0.001 A 
HETATM    6  C17 UNL     1      33.930   8.220   6.554  1.00  0.00     0.054 C 
HETATM    7  C18 UNL     1      34.436   6.587   8.338  1.00  0.00     0.085 A 
ENDROOT
BRANCH   4   8
HETATM    8  N4  UNL     1      32.775   6.206   5.092  1.00  0.00    -0.301 N 
HETATM    9  C12 UNL     1      31.492   6.680   4.793  1.00  0.00     0.388 C 
HETATM   10  O1  UNL     1      30.560   6.883   5.593  1.00  0.00    -0.236 OA
ATOM     11  H4  UNL     1      33.407   6.104   4.298  1.00  0.00     0.171 HD
BRANCH   9  12
HETATM   12  O2  UNL     1      31.176   6.976   3.444  1.00  0.00    -0.156 OA
BRANCH  12  13
HETATM   13  N5  UNL     1      31.541   8.197   2.914  1.00  0.00    -0.009 N 
HETATM   14  C13 UNL     1      32.746   8.348   2.343  1.00  0.00     0.240 A 
HETATM   15  N6  UNL     1      33.652   7.259   2.278  1.00  0.00    -0.060 NA
HETATM   16  N7  UNL     1      33.137   9.526   1.814  1.00  0.00    -0.302 N 
HETATM   17  C14 UNL     1      32.324  10.611   1.838  1.00  0.00     0.209 A 
ATOM     18  H7  UNL     1      34.061   9.602   1.389  1.00  0.00     0.171 HD
HETATM   19  N8  UNL     1      32.729  11.854   1.284  1.00  0.00    -0.063 NA
HETATM   20  N9  UNL     1      31.120  10.451   2.412  1.00  0.00    -0.161 N 
HETATM   21  C15 UNL     1      30.722   9.260   2.948  1.00  0.00     0.708 A 
ATOM     22  H9  UNL     1      30.483  11.246   2.449  1.00  0.00     0.187 HD
BRANCH  21  23
HETATM   23  N10 UNL     1      29.568   9.130   3.491  1.00  0.00    -0.232 N 
ATOM     24 2H10 UNL     1      29.288   8.254   3.932  1.00  0.00     0.174 HD
ATOM     25 1H10 UNL     1      28.928   9.924   3.474  1.00  0.00     0.174 HD
ENDBRANCH  21  23
ENDBRANCH  12  13
ENDBRANCH   9  12
ENDBRANCH   4   8
BRANCH   7  26
HETATM   26  O3  UNL     1      35.028   7.531   9.125  1.00  0.00    -0.359 OA
ATOM     27  H3  UNL     1      34.915   8.436   8.862  1.00  0.00     0.217 HD
ENDBRANCH   7  26
BRANCH   1  28
HETATM   28  C7  UNL     1      35.001   4.974  10.173  1.00  0.00     0.006 A 
HETATM   29  C2  UNL     1      34.197   5.182  11.274  1.00  0.00    -0.007 A 
HETATM   30  C1  UNL     1      32.793   5.680  11.363  1.00  0.00     0.057 C 
HETATM   31  S1  UNL     1      35.182   4.732  12.570  1.00  0.00    -0.075 SA
HETATM   32  C3  UNL     1      36.598   4.287  11.704  1.00  0.00     0.090 A 
HETATM   33  N1  UNL     1      37.820   3.819  12.104  1.00  0.00    -0.346 N 
HETATM   34  C6  UNL     1      36.244   4.511  10.404  1.00  0.00     0.053 A 
HETATM   35  C4  UNL     1      38.763   3.549  11.191  1.00  0.00     0.182 A 
ATOM     36  H1  UNL     1      38.013   3.677  13.095  1.00  0.00     0.167 HD
HETATM   37  N2  UNL     1      38.450   3.754   9.932  1.00  0.00    -0.338 N 
HETATM   38  C5  UNL     1      37.253   4.220   9.455  1.00  0.00     0.113 A 
ATOM     39  H2  UNL     1      39.171   3.547   9.240  1.00  0.00     0.168 HD
BRANCH  38  40
HETATM   40  N3  UNL     1      37.171   4.342   8.224  1.00  0.00    -0.385 N 
ATOM     41  H32 UNL     1      37.562   5.095   7.658  1.00  0.00     0.157 HD
ATOM     42  H31 UNL     1      36.656   3.609   7.736  1.00  0.00     0.157 HD
ENDBRANCH  38  40
ENDBRANCH   1  28
TORSDOF 7
ENDMDL
MODEL 3
REMARK VINA RESULT: -7.618937192      4.770      9.242
REMARK  7 active torsions:
REMARK  status: ('A' for Active; 'I' for Inactive)
REMARK    1  A    between atoms: C5_10  and  N3_11 
REMARK    2  A    between atoms: C7_15  and  C8_16 
REMARK    3  A    between atoms: C11_19  and  N4_20 
REMARK       I    between atoms: N4_20  and  C12_22 
REMARK    4  A    between atoms: C12_22  and  O2_24 
REMARK    5  A    between atoms: O2_24  and  N5_25 
REMARK    6  A    between atoms: C15_34  and  N10_35 
REMARK    7  A    between atoms: C18_40  and  O3_41 
ROOT
HETATM    1  C8  UNL     1      29.684   4.712   8.534  1.00  0.00     0.010 A 
HETATM    2  C9  UNL     1      30.298   3.886   9.436  1.00  0.00     0.017 A 
HETATM    3  C10 UNL     1      31.591   4.141   9.886  1.00  0.00     0.031 A 
HETATM    4  C11 UNL     1      32.277   5.228   9.430  1.00  0.00     0.045 A 
HETATM    5  C16 UNL     1      31.641   6.074   8.502  1.00  0.00    -0.001 A 
HETATM    6  C17 UNL     1      32.402   7.240   8.025  1.00  0.00     0.054 C 
HETATM    7  C18 UNL     1      30.378   5.824   8.065  1.00  0.00     0.085 A 
ENDROOT
BRANCH   4   8
HETATM    8  N4  UNL     1      33.575   5.546   9.838  1.00  0.00    -0.301 N 
HETATM    9  C12 UNL     1      34.153   5.382  11.102  1.00  0.00     0.388 C 
HETATM   10  O1  UNL     1      33.612   4.913  12.121  1.00  0.00    -0.236 OA
ATOM     11  H4  UNL     1      34.179   5.951   9.122  1.00  0.00     0.171 HD
BRANCH   9  12
HETATM   12  O2  UNL     1      35.500   5.779  11.289  1.00  0.00    -0.156 OA
BRANCH  12  13
HETATM   13  N5  UNL     1      36.510   4.857  11.106  1.00  0.00    -0.009 N 
HETATM   14  C13 UNL     1      36.894   4.517   9.865  1.00  0.00     0.240 A 
HETATM   15  N6  UNL     1      36.267   5.102   8.734  1.00  0.00    -0.060 NA
HETATM   16  N7  UNL     1      37.877   3.620   9.647  1.00  0.00    -0.302 N 
HETATM   17  C14 UNL     1      38.522   3.021  10.678  1.00  0.00     0.209 A 
ATOM     18  H7  UNL     1      38.140   3.388   8.689  1.00  0.00     0.171 HD
HETATM   19  N8  UNL     1      39.558   2.076  10.456  1.00  0.00    -0.063 NA
HETATM   20  N9  UNL     1      38.133   3.366  11.916  1.00  0.00    -0.161 N 
HETATM   21  C15 UNL     1      37.137   4.274  12.140  1.00  0.00     0.708 A 
ATOM     22  H9  UNL     1      38.596   2.935  12.716  1.00  0.00     0.187 HD
BRANCH  21  23
HETATM   23  N10 UNL     1      36.782   4.588  13.330  1.00  0.00    -0.232 N 
ATOM     24 2H10 UNL     1      35.811   4.813  13.549  1.00  0.00     0.174 HD
ATOM     25 1H10 UNL     1      37.491   4.612  14.063  1.00  0.00     0.174 HD
ENDBRANCH  21  23
ENDBRANCH  12  13
ENDBRANCH   9  12
ENDBRANCH   4   8
BRANCH   7  26
HETATM   26  O3  UNL     1      29.725   6.617   7.167  1.00  0.00    -0.359 OA
ATOM     27  H3  UNL     1      29.420   6.196   6.372  1.00  0.00     0.217 HD
ENDBRANCH   7  26
BRANCH   1  28
HETATM   28  C7  UNL     1      28.284   4.444   8.082  1.00  0.00     0.006 A 
HETATM   29  C2  UNL     1      27.280   4.910   8.906  1.00  0.00    -0.007 A 
HETATM   30  C1  UNL     1      27.359   5.653  10.197  1.00  0.00     0.057 C 
HETATM   31  S1  UNL     1      25.868   4.442   8.105  1.00  0.00    -0.075 SA
HETATM   32  C3  UNL     1      26.564   3.663   6.741  1.00  0.00     0.090 A 
HETATM   33  N1  UNL     1      26.019   3.034   5.654  1.00  0.00    -0.346 N 
HETATM   34  C6  UNL     1      27.905   3.799   6.963  1.00  0.00     0.053 A 
HETATM   35  C4  UNL     1      26.819   2.502   4.720  1.00  0.00     0.182 A 
ATOM     36  H1  UNL     1      25.006   2.972   5.556  1.00  0.00     0.167 HD
HETATM   37  N2  UNL     1      28.113   2.618   4.908  1.00  0.00    -0.338 N 
HETATM   38  C5  UNL     1      28.732   3.230   5.966  1.00  0.00     0.113 A 
ATOM     39  H2  UNL     1      28.719   2.212   4.194  1.00  0.00     0.168 HD
BRANCH  38  40
HETATM   40  N3  UNL     1      29.973   3.224   5.945  1.00  0.00    -0.385 N 
ATOM     41  H32 UNL     1      30.579   2.404   5.930  1.00  0.00     0.157 HD
ATOM     42  H31 UNL     1      30.423   4.139   5.944  1.00  0.00     0.157 HD
ENDBRANCH  38  40
ENDBRANCH   1  28
TORSDOF 7
ENDMDL
MODEL 4
REMARK VINA RESULT: -7.462723636      1.750      2.668
REMARK  7 active torsions:
REMARK  status: ('A' for Active; 'I' for Inactive)
REMARK    1  A    between atoms: C5_10  and  N3_11 
REMARK    2  A    between atoms: C7_15  and  C8_16 
REMARK    3  A    between atoms: C11_19  and  N4_20 
REMARK       I    between atoms: N4_20  and  C12_22 
REMARK    4  A    between atoms: C12_22  and  O2_24 
REMARK    5  A    between atoms: O2_24  and  N5_25 
REMARK    6  A    between atoms: C15_34  and  N10_35 
REMARK    7  A    between atoms: C18_40  and  O3_41 
ROOT
HETATM    1  C8  UNL     1      34.591   5.346   8.989  1.00  0.00     0.010 A 
HETATM    2  C9  UNL     1      34.027   4.466   8.106  1.00  0.00     0.017 A 
HETATM    3  C10 UNL     1      33.485   4.901   6.898  1.00  0.00     0.031 A 
HETATM    4  C11 UNL     1      33.506   6.225   6.572  1.00  0.00     0.045 A 
HETATM    5  C16 UNL     1      34.087   7.126   7.483  1.00  0.00    -0.001 A 
HETATM    6  C17 UNL     1      34.096   8.549   7.109  1.00  0.00     0.054 C 
HETATM    7  C18 UNL     1      34.616   6.699   8.661  1.00  0.00     0.085 A 
ENDROOT
BRANCH   4   8
HETATM    8  N4  UNL     1      32.984   6.732   5.379  1.00  0.00    -0.301 N 
HETATM    9  C12 UNL     1      31.674   6.635   4.894  1.00  0.00     0.388 C 
HETATM   10  O1  UNL     1      30.710   6.068   5.441  1.00  0.00    -0.236 OA
ATOM     11  H4  UNL     1      33.641   7.239   4.786  1.00  0.00     0.171 HD
BRANCH   9  12
HETATM   12  O2  UNL     1      31.366   7.232   3.647  1.00  0.00    -0.156 OA
BRANCH  12  13
HETATM   13  N5  UNL     1      31.722   6.586   2.480  1.00  0.00    -0.009 N 
HETATM   14  C13 UNL     1      32.909   6.838   1.906  1.00  0.00     0.240 A 
HETATM   15  N6  UNL     1      33.807   7.766   2.493  1.00  0.00    -0.060 NA
HETATM   16  N7  UNL     1      33.290   6.226   0.766  1.00  0.00    -0.302 N 
HETATM   17  C14 UNL     1      32.485   5.327   0.149  1.00  0.00     0.209 A 
ATOM     18  H7  UNL     1      34.200   6.444   0.361  1.00  0.00     0.171 HD
HETATM   19  N8  UNL     1      32.879   4.680  -1.051  1.00  0.00    -0.063 NA
HETATM   20  N9  UNL     1      31.298   5.081   0.728  1.00  0.00    -0.161 N 
HETATM   21  C15 UNL     1      30.910   5.699   1.883  1.00  0.00     0.708 A 
ATOM     22  H9  UNL     1      30.666   4.410   0.291  1.00  0.00     0.187 HD
BRANCH  21  23
HETATM   23  N10 UNL     1      29.773   5.449   2.418  1.00  0.00    -0.232 N 
ATOM     24 2H10 UNL     1      28.908   5.805   2.012  1.00  0.00     0.174 HD
ATOM     25 1H10 UNL     1      29.746   4.883   3.266  1.00  0.00     0.174 HD
ENDBRANCH  21  23
ENDBRANCH  12  13
ENDBRANCH   9  12
ENDBRANCH   4   8
BRANCH   7  26
HETATM   26  O3  UNL     1      35.188   7.537   9.573  1.00  0.00    -0.359 OA
ATOM     27  H3  UNL     1      35.262   8.450   9.323  1.00  0.00     0.217 HD
ENDBRANCH   7  26
BRANCH   1  28
HETATM   28  C7  UNL     1      35.196   4.863  10.268  1.00  0.00     0.006 A 
HETATM   29  C2  UNL     1      34.413   4.994  11.397  1.00  0.00    -0.007 A 
HETATM   30  C1  UNL     1      33.037   5.548  11.558  1.00  0.00     0.057 C 
HETATM   31  S1  UNL     1      35.388   4.363  12.625  1.00  0.00    -0.075 SA
HETATM   32  C3  UNL     1      36.771   3.942  11.695  1.00  0.00     0.090 A 
HETATM   33  N1  UNL     1      37.972   3.376  12.026  1.00  0.00    -0.346 N 
HETATM   34  C6  UNL     1      36.415   4.318  10.431  1.00  0.00     0.053 A 
HETATM   35  C4  UNL     1      38.891   3.156  11.076  1.00  0.00     0.182 A 
ATOM     36  H1  UNL     1      38.167   3.121  12.995  1.00  0.00     0.167 HD
HETATM   37  N2  UNL     1      38.576   3.507   9.851  1.00  0.00    -0.338 N 
HETATM   38  C5  UNL     1      37.399   4.078   9.442  1.00  0.00     0.113 A 
ATOM     39  H2  UNL     1      39.278   3.337   9.130  1.00  0.00     0.168 HD
BRANCH  38  40
HETATM   40  N3  UNL     1      37.311   4.332   8.232  1.00  0.00    -0.385 N 
ATOM     41  H32 UNL     1      37.164   3.661   7.477  1.00  0.00     0.157 HD
ATOM     42  H31 UNL     1      37.395   5.315   7.975  1.00  0.00     0.157 HD
ENDBRANCH  38  40
ENDBRANCH   1  28
TORSDOF 7
ENDMDL
MODEL 5
REMARK VINA RESULT: -7.417695504      5.631      9.539
REMARK  7 active torsions:
REMARK  status: ('A' for Active; 'I' for Inactive)
REMARK    1  A    between atoms: C5_10  and  N3_11 
REMARK    2  A    between atoms: C7_15  and  C8_16 
REMARK    3  A    between atoms: C11_19  and  N4_20 
REMARK       I    between atoms: N4_20  and  C12_22 
REMARK    4  A    between atoms: C12_22  and  O2_24 
REMARK    5  A    between atoms: O2_24  and  N5_25 
REMARK    6  A    between atoms: C15_34  and  N10_35 
REMARK    7  A    between atoms: C18_40  and  O3_41 
ROOT
HETATM    1  C8  UNL     1      29.752   4.517   9.253  1.00  0.00     0.010 A 
HETATM    2  C9  UNL     1      30.843   4.044   8.576  1.00  0.00     0.017 A 
HETATM    3  C10 UNL     1      32.106   4.023   9.165  1.00  0.00     0.031 A 
HETATM    4  C11 UNL     1      32.279   4.478  10.438  1.00  0.00     0.045 A 
HETATM    5  C16 UNL     1      31.154   4.965  11.130  1.00  0.00    -0.001 A 
HETATM    6  C17 UNL     1      31.368   5.452  12.501  1.00  0.00     0.054 C 
HETATM    7  C18 UNL     1      29.922   4.984  10.554  1.00  0.00     0.085 A 
ENDROOT
BRANCH   4   8
HETATM    8  N4  UNL     1      33.515   4.486  11.092  1.00  0.00    -0.301 N 
HETATM    9  C12 UNL     1      34.465   5.513  11.140  1.00  0.00     0.388 C 
HETATM   10  O1  UNL     1      34.391   6.632  10.601  1.00  0.00    -0.236 OA
ATOM     11  H4  UNL     1      33.754   3.634  11.599  1.00  0.00     0.171 HD
BRANCH   9  12
HETATM   12  O2  UNL     1      35.659   5.297  11.871  1.00  0.00    -0.156 OA
BRANCH  12  13
HETATM   13  N5  UNL     1      36.635   4.472  11.348  1.00  0.00    -0.009 N 
HETATM   14  C13 UNL     1      37.286   3.612  12.147  1.00  0.00     0.240 A 
HETATM   15  N6  UNL     1      36.978   3.542  13.530  1.00  0.00    -0.060 NA
HETATM   16  N7  UNL     1      38.245   2.791  11.672  1.00  0.00    -0.302 N 
HETATM   17  C14 UNL     1      38.593   2.801  10.362  1.00  0.00     0.209 A 
ATOM     18  H7  UNL     1      38.718   2.151  12.310  1.00  0.00     0.171 HD
HETATM   19  N8  UNL     1      39.601   1.940   9.855  1.00  0.00    -0.063 NA
HETATM   20  N9  UNL     1      37.937   3.665   9.569  1.00  0.00    -0.161 N 
HETATM   21  C15 UNL     1      36.965   4.497  10.048  1.00  0.00     0.708 A 
ATOM     22  H9  UNL     1      38.172   3.700   8.578  1.00  0.00     0.187 HD
BRANCH  21  23
HETATM   23  N10 UNL     1      36.352   5.314   9.273  1.00  0.00    -0.232 N 
ATOM     24 2H10 UNL     1      36.866   5.952   8.665  1.00  0.00     0.174 HD
ATOM     25 1H10 UNL     1      35.333   5.317   9.275  1.00  0.00     0.174 HD
ENDBRANCH  21  23
ENDBRANCH  12  13
ENDBRANCH   9  12
ENDBRANCH   4   8
BRANCH   7  26
HETATM   26  O3  UNL     1      28.806   5.447  11.187  1.00  0.00    -0.359 OA
ATOM     27  H3  UNL     1      28.908   6.236  11.706  1.00  0.00     0.217 HD
ENDBRANCH   7  26
BRANCH   1  28
HETATM   28  C7  UNL     1      28.397   4.508   8.621  1.00  0.00     0.006 A 
HETATM   29  C2  UNL     1      28.223   5.354   7.545  1.00  0.00    -0.007 A 
HETATM   30  C1  UNL     1      29.180   6.295   6.893  1.00  0.00     0.057 C 
HETATM   31  S1  UNL     1      26.617   5.089   7.094  1.00  0.00    -0.075 SA
HETATM   32  C3  UNL     1      26.186   3.913   8.270  1.00  0.00     0.090 A 
HETATM   33  N1  UNL     1      25.024   3.233   8.519  1.00  0.00    -0.346 N 
HETATM   34  C6  UNL     1      27.337   3.765   8.991  1.00  0.00     0.053 A 
HETATM   35  C4  UNL     1      24.969   2.353   9.528  1.00  0.00     0.182 A 
ATOM     36  H1  UNL     1      24.203   3.396   7.937  1.00  0.00     0.167 HD
HETATM   37  N2  UNL     1      26.062   2.190  10.238  1.00  0.00    -0.338 N 
HETATM   38  C5  UNL     1      27.258   2.832  10.052  1.00  0.00     0.113 A 
ATOM     39  H2  UNL     1      26.015   1.519  11.005  1.00  0.00     0.168 HD
BRANCH  38  40
HETATM   40  N3  UNL     1      28.164   2.528  10.842  1.00  0.00    -0.385 N 
ATOM     41  H32 UNL     1      28.795   3.170  11.322  1.00  0.00     0.157 HD
ATOM     42  H31 UNL     1      28.284   1.532  11.023  1.00  0.00     0.157 HD
ENDBRANCH  38  40
ENDBRANCH   1  28
TORSDOF 7
ENDMDL
