MODEL 1
REMARK VINA RESULT: -7.792893434      0.000      0.000
REMARK  7 active torsions:
REMARK  status: ('A' for Active; 'I' for Inactive)
REMARK    1  A    between atoms: C2_2  and  N1_3 
REMARK    2  A    between atoms: N1_3  and  C3_4 
REMARK    3  A    between atoms: N1_3  and  C5_6 
REMARK    4  A    between atoms: C5_6  and  O1_7 
REMARK    5  A    between atoms: C5_6  and  C6_9 
REMARK    6  A    between atoms: C6_9  and  N2_10 
REMARK       I    between atoms: N2_10  and  C7_12 
REMARK       I    between atoms: C7_12  and  N3_14 
REMARK    7  A    between atoms: N3_14  and  C8_16 
ROOT
HETATM    1  C6  UNL     1      22.784  -3.730  10.860  1.00  0.00     0.099 C 
HETATM    2  C14 UNL     1      23.895  -3.474  11.831  1.00  0.00     0.040 C 
HETATM    3  C15 UNL     1      25.173  -4.224  11.552  1.00  0.00     0.003 C 
HETATM    4  C16 UNL     1      24.999  -5.668  11.239  1.00  0.00     0.000 C 
HETATM    5  C17 UNL     1      23.677  -6.015  10.645  1.00  0.00     0.003 C 
HETATM    6  C18 UNL     1      23.132  -4.825   9.871  1.00  0.00     0.040 C 
ENDROOT
BRANCH   1   7
HETATM    7  C5  UNL     1      22.203  -2.522  10.250  1.00  0.00     0.142 C 
BRANCH   7   8
HETATM    8  N1  UNL     1      21.944  -1.257  10.734  1.00  0.00    -0.364 N 
BRANCH   8   9
HETATM    9  C2  UNL     1      21.077  -0.889  11.805  1.00  0.00     0.120 C 
HETATM   10  C1  UNL     1      21.813  -0.543  13.100  1.00  0.00     0.026 C 
ENDBRANCH   8   9
BRANCH   8  11
HETATM   11  C3  UNL     1      22.629  -0.092  10.092  1.00  0.00     0.120 C 
HETATM   12  C4  UNL     1      21.665   0.947   9.645  1.00  0.00     0.026 C 
ENDBRANCH   8  11
ENDBRANCH   7   8
BRANCH   7  13
HETATM   13  O1  UNL     1      21.849  -2.661   8.980  1.00  0.00    -0.348 OA
ATOM     14  H1  UNL     1      21.923  -3.559   8.679  1.00  0.00     0.219 HD
ENDBRANCH   7  13
ENDBRANCH   1   7
BRANCH   1  15
HETATM   15  N2  UNL     1      21.703  -4.336  11.694  1.00  0.00    -0.326 N 
HETATM   16  C7  UNL     1      20.552  -4.924  11.131  1.00  0.00     0.317 C 
HETATM   17  O2  UNL     1      20.398  -4.948   9.901  1.00  0.00    -0.247 OA
HETATM   18  N3  UNL     1      19.544  -5.501  11.929  1.00  0.00    -0.339 N 
ATOM     19  H3  UNL     1      19.677  -5.480  12.940  1.00  0.00     0.164 HD
ATOM     20  H2  UNL     1      21.802  -4.325  12.709  1.00  0.00     0.165 HD
BRANCH  18  21
HETATM   21  C8  UNL     1      18.352  -6.112  11.436  1.00  0.00     0.086 C 
HETATM   22  C9  UNL     1      17.092  -5.383  11.841  1.00  0.00     0.025 C 
HETATM   23  C10 UNL     1      16.005  -5.859  10.891  1.00  0.00     0.002 C 
HETATM   24  C11 UNL     1      15.781  -7.332  11.212  1.00  0.00     0.000 C 
HETATM   25  C12 UNL     1      17.054  -8.128  11.034  1.00  0.00     0.002 C 
HETATM   26  C13 UNL     1      18.184  -7.554  11.878  1.00  0.00     0.025 C 
ENDBRANCH  18  21
ENDBRANCH   1  15
TORSDOF 7
ENDMDL
MODEL 2
REMARK VINA RESULT: -7.755567537      1.382      3.810
REMARK  7 active torsions:
REMARK  status: ('A' for Active; 'I' for Inactive)
REMARK    1  A    between atoms: C2_2  and  N1_3 
REMARK    2  A    between atoms: N1_3  and  C3_4 
REMARK    3  A    between atoms: N1_3  and  C5_6 
REMARK    4  A    between atoms: C5_6  and  O1_7 
REMARK    5  A    between atoms: C5_6  and  C6_9 
REMARK    6  A    between atoms: C6_9  and  N2_10 
REMARK       I    between atoms: N2_10  and  C7_12 
REMARK       I    between atoms: C7_12  and  N3_14 
REMARK    7  A    between atoms: N3_14  and  C8_16 
ROOT
HETATM    1  C6  UNL     1      22.713  -2.720   9.890  1.00  0.00     0.099 C 
HETATM    2  C14 UNL     1      21.823  -2.548   8.699  1.00  0.00     0.040 C 
HETATM    3  C15 UNL     1      21.616  -1.122   8.255  1.00  0.00     0.003 C 
HETATM    4  C16 UNL     1      21.311  -0.162   9.350  1.00  0.00     0.000 C 
HETATM    5  C17 UNL     1      21.847  -0.556  10.684  1.00  0.00     0.003 C 
HETATM    6  C18 UNL     1      23.105  -1.392  10.506  1.00  0.00     0.040 C 
ENDROOT
BRANCH   1   7
HETATM    7  C5  UNL     1      23.835  -3.655   9.696  1.00  0.00     0.142 C 
BRANCH   7   8
HETATM    8  N1  UNL     1      24.460  -4.558  10.529  1.00  0.00    -0.364 N 
BRANCH   8   9
HETATM    9  C2  UNL     1      25.316  -4.281  11.636  1.00  0.00     0.120 C 
HETATM   10  C1  UNL     1      24.572  -3.832  12.893  1.00  0.00     0.026 C 
ENDBRANCH   8   9
BRANCH   8  11
HETATM   11  C3  UNL     1      24.248  -6.019  10.288  1.00  0.00     0.120 C 
HETATM   12  C4  UNL     1      23.357  -6.631  11.308  1.00  0.00     0.026 C 
ENDBRANCH   8  11
ENDBRANCH   7   8
BRANCH   7  13
HETATM   13  O1  UNL     1      24.364  -3.636   8.480  1.00  0.00    -0.348 OA
ATOM     14  H1  UNL     1      23.906  -3.047   7.893  1.00  0.00     0.219 HD
ENDBRANCH   7  13
ENDBRANCH   1   7
BRANCH   1  15
HETATM   15  N2  UNL     1      21.828  -3.341  10.920  1.00  0.00    -0.326 N 
HETATM   16  C7  UNL     1      20.932  -4.387  10.618  1.00  0.00     0.317 C 
HETATM   17  O2  UNL     1      20.846  -4.825   9.462  1.00  0.00    -0.247 OA
HETATM   18  N3  UNL     1      20.109  -4.971  11.603  1.00  0.00    -0.339 N 
ATOM     19  H3  UNL     1      20.185  -4.608  12.552  1.00  0.00     0.164 HD
ATOM     20  H2  UNL     1      21.873  -2.996  11.879  1.00  0.00     0.165 HD
BRANCH  18  21
HETATM   21  C8  UNL     1      19.179  -6.029  11.377  1.00  0.00     0.086 C 
HETATM   22  C9  UNL     1      17.746  -5.639  11.657  1.00  0.00     0.025 C 
HETATM   23  C10 UNL     1      16.881  -6.669  10.949  1.00  0.00     0.002 C 
HETATM   24  C11 UNL     1      17.124  -7.990  11.669  1.00  0.00     0.000 C 
HETATM   25  C12 UNL     1      18.586  -8.374  11.623  1.00  0.00     0.002 C 
HETATM   26  C13 UNL     1      19.463  -7.271  12.200  1.00  0.00     0.025 C 
ENDBRANCH  18  21
ENDBRANCH   1  15
TORSDOF 7
ENDMDL
MODEL 3
REMARK VINA RESULT: -7.679414166      2.171      3.204
REMARK  7 active torsions:
REMARK  status: ('A' for Active; 'I' for Inactive)
REMARK    1  A    between atoms: C2_2  and  N1_3 
REMARK    2  A    between atoms: N1_3  and  C3_4 
REMARK    3  A    between atoms: N1_3  and  C5_6 
REMARK    4  A    between atoms: C5_6  and  O1_7 
REMARK    5  A    between atoms: C5_6  and  C6_9 
REMARK    6  A    between atoms: C6_9  and  N2_10 
REMARK       I    between atoms: N2_10  and  C7_12 
REMARK       I    between atoms: C7_12  and  N3_14 
REMARK    7  A    between atoms: N3_14  and  C8_16 
ROOT
HETATM    1  C6  UNL     1      22.335  -1.254  12.833  1.00  0.00     0.099 C 
HETATM    2  C14 UNL     1      22.455  -0.219  13.908  1.00  0.00     0.040 C 
HETATM    3  C15 UNL     1      23.819  -0.113  14.544  1.00  0.00     0.003 C 
HETATM    4  C16 UNL     1      24.440  -1.412  14.918  1.00  0.00     0.000 C 
HETATM    5  C17 UNL     1      23.983  -2.572  14.102  1.00  0.00     0.003 C 
HETATM    6  C18 UNL     1      23.588  -2.099  12.712  1.00  0.00     0.040 C 
ENDROOT
BRANCH   1   7
HETATM    7  C5  UNL     1      21.810  -0.757  11.550  1.00  0.00     0.142 C 
BRANCH   7   8
HETATM    8  N1  UNL     1      22.375  -0.598  10.302  1.00  0.00    -0.364 N 
BRANCH   8   9
HETATM    9  C2  UNL     1      22.356  -1.512   9.208  1.00  0.00     0.120 C 
HETATM   10  C1  UNL     1      21.258  -1.223   8.184  1.00  0.00     0.026 C 
ENDBRANCH   8   9
BRANCH   8  11
HETATM   11  C3  UNL     1      23.110   0.671  10.007  1.00  0.00     0.120 C 
HETATM   12  C4  UNL     1      24.556   0.570  10.335  1.00  0.00     0.026 C 
ENDBRANCH   8  11
ENDBRANCH   7   8
BRANCH   7  13
HETATM   13  O1  UNL     1      20.539  -0.380  11.583  1.00  0.00    -0.348 OA
ATOM     14  H1  UNL     1      20.409   0.491  11.228  1.00  0.00     0.219 HD
ENDBRANCH   7  13
ENDBRANCH   1   7
BRANCH   1  15
HETATM   15  N2  UNL     1      21.313  -2.208  13.359  1.00  0.00    -0.326 N 
HETATM   16  C7  UNL     1      20.878  -3.331  12.626  1.00  0.00     0.317 C 
HETATM   17  O2  UNL     1      21.335  -3.559  11.496  1.00  0.00    -0.247 OA
HETATM   18  N3  UNL     1      19.920  -4.229  13.138  1.00  0.00    -0.339 N 
ATOM     19  H3  UNL     1      19.548  -4.038  14.068  1.00  0.00     0.164 HD
ATOM     20  H2  UNL     1      20.915  -2.042  14.283  1.00  0.00     0.165 HD
BRANCH  18  21
HETATM   21  C8  UNL     1      19.429  -5.385  12.459  1.00  0.00     0.086 C 
HETATM   22  C9  UNL     1      17.922  -5.508  12.497  1.00  0.00     0.025 C 
HETATM   23  C10 UNL     1      17.550  -6.474  11.384  1.00  0.00     0.002 C 
HETATM   24  C11 UNL     1      18.110  -7.830  11.799  1.00  0.00     0.000 C 
HETATM   25  C12 UNL     1      19.609  -7.763  11.990  1.00  0.00     0.002 C 
HETATM   26  C13 UNL     1      19.987  -6.688  12.999  1.00  0.00     0.025 C 
ENDBRANCH  18  21
ENDBRANCH   1  15
TORSDOF 7
ENDMDL
MODEL 4
REMARK VINA RESULT: -7.662581480      2.161      3.120
REMARK  7 active torsions:
REMARK  status: ('A' for Active; 'I' for Inactive)
REMARK    1  A    between atoms: C2_2  and  N1_3 
REMARK    2  A    between atoms: N1_3  and  C3_4 
REMARK    3  A    between atoms: N1_3  and  C5_6 
REMARK    4  A    between atoms: C5_6  and  O1_7 
REMARK    5  A    between atoms: C5_6  and  C6_9 
REMARK    6  A    between atoms: C6_9  and  N2_10 
REMARK       I    between atoms: N2_10  and  C7_12 
REMARK       I    between atoms: C7_12  and  N3_14 
REMARK    7  A    between atoms: N3_14  and  C8_16 
ROOT
HETATM    1  C6  UNL     1      22.360  -1.279  12.866  1.00  0.00     0.099 C 
HETATM    2  C14 UNL     1      22.515  -0.273  13.963  1.00  0.00     0.040 C 
HETATM    3  C15 UNL     1      23.886  -0.218  14.590  1.00  0.00     0.003 C 
HETATM    4  C16 UNL     1      24.475  -1.541  14.930  1.00  0.00     0.000 C 
HETATM    5  C17 UNL     1      23.982  -2.670  14.090  1.00  0.00     0.003 C 
HETATM    6  C18 UNL     1      23.589  -2.154  12.715  1.00  0.00     0.040 C 
ENDROOT
BRANCH   1   7
HETATM    7  C5  UNL     1      21.839  -0.739  11.598  1.00  0.00     0.142 C 
BRANCH   7   8
HETATM    8  N1  UNL     1      22.416  -0.508  10.368  1.00  0.00    -0.364 N 
BRANCH   8   9
HETATM    9  C2  UNL     1      23.158   0.636   9.949  1.00  0.00     0.120 C 
HETATM   10  C1  UNL     1      24.516   0.775  10.638  1.00  0.00     0.026 C 
ENDBRANCH   8   9
BRANCH   8  11
HETATM   11  C3  UNL     1      22.277  -1.551   9.305  1.00  0.00     0.120 C 
HETATM   12  C4  UNL     1      21.303  -1.155   8.255  1.00  0.00     0.026 C 
ENDBRANCH   8  11
ENDBRANCH   7   8
BRANCH   7  13
HETATM   13  O1  UNL     1      20.557  -0.399  11.629  1.00  0.00    -0.348 OA
ATOM     14  H1  UNL     1      20.398   0.453  11.243  1.00  0.00     0.219 HD
ENDBRANCH   7  13
ENDBRANCH   1   7
BRANCH   1  15
HETATM   15  N2  UNL     1      21.317  -2.219  13.377  1.00  0.00    -0.326 N 
HETATM   16  C7  UNL     1      20.882  -3.341  12.642  1.00  0.00     0.317 C 
HETATM   17  O2  UNL     1      21.358  -3.580  11.523  1.00  0.00    -0.247 OA
HETATM   18  N3  UNL     1      19.904  -4.225  13.142  1.00  0.00    -0.339 N 
ATOM     19  H3  UNL     1      19.517  -4.023  14.063  1.00  0.00     0.164 HD
ATOM     20  H2  UNL     1      20.904  -2.042  14.293  1.00  0.00     0.165 HD
BRANCH  18  21
HETATM   21  C8  UNL     1      19.412  -5.378  12.460  1.00  0.00     0.086 C 
HETATM   22  C9  UNL     1      17.904  -5.481  12.466  1.00  0.00     0.025 C 
HETATM   23  C10 UNL     1      17.542  -6.450  11.353  1.00  0.00     0.002 C 
HETATM   24  C11 UNL     1      18.076  -7.810  11.787  1.00  0.00     0.000 C 
HETATM   25  C12 UNL     1      19.571  -7.762  12.011  1.00  0.00     0.002 C 
HETATM   26  C13 UNL     1      19.941  -6.684  13.020  1.00  0.00     0.025 C 
ENDBRANCH  18  21
ENDBRANCH   1  15
TORSDOF 7
ENDMDL
MODEL 5
REMARK VINA RESULT: -7.642475000      2.039      4.081
REMARK  7 active torsions:
REMARK  status: ('A' for Active; 'I' for Inactive)
REMARK    1  A    between atoms: C2_2  and  N1_3 
REMARK    2  A    between atoms: N1_3  and  C3_4 
REMARK    3  A    between atoms: N1_3  and  C5_6 
REMARK    4  A    between atoms: C5_6  and  O1_7 
REMARK    5  A    between atoms: C5_6  and  C6_9 
REMARK    6  A    between atoms: C6_9  and  N2_10 
REMARK       I    between atoms: N2_10  and  C7_12 
REMARK       I    between atoms: C7_12  and  N3_14 
REMARK    7  A    between atoms: N3_14  and  C8_16 
ROOT
HETATM    1  C6  UNL     1      21.694  -2.824  12.518  1.00  0.00     0.099 C 
HETATM    2  C14 UNL     1      21.676  -2.405  11.081  1.00  0.00     0.040 C 
HETATM    3  C15 UNL     1      21.963  -0.944  10.838  1.00  0.00     0.003 C 
HETATM    4  C16 UNL     1      21.227  -0.003  11.724  1.00  0.00     0.000 C 
HETATM    5  C17 UNL     1      20.845  -0.574  13.047  1.00  0.00     0.003 C 
HETATM    6  C18 UNL     1      21.847  -1.642  13.455  1.00  0.00     0.040 C 
ENDROOT
BRANCH   1   7
HETATM    7  C5  UNL     1      22.581  -3.960  12.822  1.00  0.00     0.142 C 
BRANCH   7   8
HETATM    8  N1  UNL     1      22.856  -4.653  13.981  1.00  0.00    -0.364 N 
BRANCH   8   9
HETATM    9  C2  UNL     1      23.541  -4.183  15.141  1.00  0.00     0.120 C 
HETATM   10  C1  UNL     1      24.751  -3.303  14.827  1.00  0.00     0.026 C 
ENDBRANCH   8   9
BRANCH   8  11
HETATM   11  C3  UNL     1      22.403  -6.074  14.090  1.00  0.00     0.120 C 
HETATM   12  C4  UNL     1      21.150  -6.204  14.878  1.00  0.00     0.026 C 
ENDBRANCH   8  11
ENDBRANCH   7   8
BRANCH   7  13
HETATM   13  O1  UNL     1      23.262  -4.421  11.782  1.00  0.00    -0.348 OA
ATOM     14  H1  UNL     1      24.200  -4.419  11.931  1.00  0.00     0.219 HD
ENDBRANCH   7  13
ENDBRANCH   1   7
BRANCH   1  15
HETATM   15  N2  UNL     1      20.302  -3.302  12.775  1.00  0.00    -0.326 N 
HETATM   16  C7  UNL     1      19.719  -4.361  12.048  1.00  0.00     0.317 C 
HETATM   17  O2  UNL     1      20.356  -4.931  11.151  1.00  0.00    -0.247 OA
HETATM   18  N3  UNL     1      18.408  -4.809  12.308  1.00  0.00    -0.339 N 
ATOM     19  H3  UNL     1      17.889  -4.337  13.048  1.00  0.00     0.164 HD
ATOM     20  H2  UNL     1      19.753  -2.846  13.504  1.00  0.00     0.165 HD
BRANCH  18  21
HETATM   21  C8  UNL     1      17.749  -5.870  11.618  1.00  0.00     0.086 C 
HETATM   22  C9  UNL     1      16.241  -5.799  11.708  1.00  0.00     0.025 C 
HETATM   23  C10 UNL     1      15.710  -6.674  10.585  1.00  0.00     0.002 C 
HETATM   24  C11 UNL     1      16.103  -8.103  10.943  1.00  0.00     0.000 C 
HETATM   25  C12 UNL     1      17.603  -8.236  11.081  1.00  0.00     0.002 C 
HETATM   26  C13 UNL     1      18.150  -7.250  12.103  1.00  0.00     0.025 C 
ENDBRANCH  18  21
ENDBRANCH   1  15
TORSDOF 7
ENDMDL
