MODEL 1
REMARK VINA RESULT: -7.835801502      0.000      0.000
REMARK  6 active torsions:
REMARK  status: ('A' for Active; 'I' for Inactive)
REMARK    1  A    between atoms: C2_2  and  C3_3 
REMARK    2  A    between atoms: N1_9  and  C9_10 
REMARK    3  A    between atoms: C9_10  and  C10_12 
REMARK    4  A    between atoms: C10_12  and  N2_13 
REMARK    5  A    between atoms: C10_12  and  C17_21 
REMARK    6  A    between atoms: N2_13  and  C11_15 
ROOT
HETATM    1  C10 UNL     1      21.154  -4.599  11.067  1.00  0.00     0.229 C 
ENDROOT
BRANCH   1   2
HETATM    2  C9  UNL     1      21.136  -3.303  11.790  1.00  0.00     0.107 C 
HETATM    3  S1  UNL     1      19.915  -3.176  12.946  1.00  0.00    -0.063 SA
BRANCH   2   4
HETATM    4  N1  UNL     1      21.910  -2.168  11.636  1.00  0.00    -0.368 N 
HETATM    5  C3  UNL     1      23.079  -2.026  12.527  1.00  0.00     0.084 C 
HETATM    6  C4  UNL     1      23.089  -0.666  13.030  1.00  0.00     0.025 C 
HETATM    7  C5  UNL     1      22.846   0.740  13.069  1.00  0.00     0.002 C 
HETATM    8  C6  UNL     1      21.886   1.079  11.879  1.00  0.00     0.002 C 
HETATM    9  C7  UNL     1      22.056   0.190  10.702  1.00  0.00     0.020 C 
HETATM   10  C8  UNL     1      21.506  -1.190  10.659  1.00  0.00     0.124 C 
BRANCH   5  11
HETATM   11  C2  UNL     1      24.322  -2.397  11.711  1.00  0.00     0.021 C 
HETATM   12  C1  UNL     1      25.336  -1.343  11.540  1.00  0.00     0.007 C 
ENDBRANCH   5  11
ENDBRANCH   2   4
ENDBRANCH   1   2
BRANCH   1  13
HETATM   13  N2  UNL     1      21.833  -5.564  11.939  1.00  0.00    -0.400 N 
ATOM     14  H2  UNL     1      22.634  -5.300  12.514  1.00  0.00     0.154 HD
BRANCH  13  15
HETATM   15  C11 UNL     1      21.317  -6.876  11.939  1.00  0.00     0.077 C 
HETATM   16  C12 UNL     1      22.182  -7.955  12.513  1.00  0.00     0.024 C 
HETATM   17  C13 UNL     1      21.632  -9.286  11.992  1.00  0.00     0.002 C 
HETATM   18  C14 UNL     1      20.175  -9.467  12.276  1.00  0.00     0.000 C 
HETATM   19  C15 UNL     1      19.322  -8.274  11.964  1.00  0.00     0.002 C 
HETATM   20  C16 UNL     1      19.944  -7.016  12.588  1.00  0.00     0.024 C 
ENDBRANCH  13  15
ENDBRANCH   1  13
BRANCH   1  21
HETATM   21  C17 UNL     1      21.942  -4.618   9.820  1.00  0.00     0.260 C 
HETATM   22  N3  UNL     1      23.321  -5.028   9.729  1.00  0.00    -0.060 NA
HETATM   23  O1  UNL     1      21.382  -4.240   8.753  1.00  0.00    -0.274 OA
ENDBRANCH   1  21
TORSDOF 6
ENDMDL
MODEL 2
REMARK VINA RESULT: -7.780639791      0.664      2.094
REMARK  6 active torsions:
REMARK  status: ('A' for Active; 'I' for Inactive)
REMARK    1  A    between atoms: C2_2  and  C3_3 
REMARK    2  A    between atoms: N1_9  and  C9_10 
REMARK    3  A    between atoms: C9_10  and  C10_12 
REMARK    4  A    between atoms: C10_12  and  N2_13 
REMARK    5  A    between atoms: C10_12  and  C17_21 
REMARK    6  A    between atoms: N2_13  and  C11_15 
ROOT
HETATM    1  C10 UNL     1      21.202  -4.623  11.167  1.00  0.00     0.229 C 
ENDROOT
BRANCH   1   2
HETATM    2  C9  UNL     1      21.194  -3.382  11.983  1.00  0.00     0.107 C 
HETATM    3  S1  UNL     1      19.824  -3.205  12.952  1.00  0.00    -0.063 SA
BRANCH   2   4
HETATM    4  N1  UNL     1      22.085  -2.327  12.039  1.00  0.00    -0.368 N 
HETATM    5  C3  UNL     1      21.840  -1.191  11.128  1.00  0.00     0.084 C 
HETATM    6  C4  UNL     1      23.106  -0.832  10.519  1.00  0.00     0.025 C 
HETATM    7  C5  UNL     1      24.518  -0.690  10.371  1.00  0.00     0.002 C 
HETATM    8  C6  UNL     1      25.191  -1.486  11.538  1.00  0.00     0.002 C 
HETATM    9  C7  UNL     1      24.379  -1.525  12.781  1.00  0.00     0.020 C 
HETATM   10  C8  UNL     1      23.206  -2.424  12.938  1.00  0.00     0.124 C 
BRANCH   5  11
HETATM   11  C2  UNL     1      21.208  -0.069  11.959  1.00  0.00     0.021 C 
HETATM   12  C1  UNL     1      21.950   1.201  12.022  1.00  0.00     0.007 C 
ENDBRANCH   5  11
ENDBRANCH   2   4
ENDBRANCH   1   2
BRANCH   1  13
HETATM   13  N2  UNL     1      21.905  -5.644  11.952  1.00  0.00    -0.400 N 
ATOM     14  H2  UNL     1      22.754  -5.431  12.477  1.00  0.00     0.154 HD
BRANCH  13  15
HETATM   15  C11 UNL     1      21.341  -6.936  11.942  1.00  0.00     0.077 C 
HETATM   16  C12 UNL     1      22.162  -8.048  12.516  1.00  0.00     0.024 C 
HETATM   17  C13 UNL     1      21.568  -9.356  11.984  1.00  0.00     0.002 C 
HETATM   18  C14 UNL     1      20.103  -9.485  12.257  1.00  0.00     0.000 C 
HETATM   19  C15 UNL     1      19.297  -8.260  11.944  1.00  0.00     0.002 C 
HETATM   20  C16 UNL     1      19.959  -7.029  12.580  1.00  0.00     0.024 C 
ENDBRANCH  13  15
ENDBRANCH   1  13
BRANCH   1  21
HETATM   21  C17 UNL     1      21.964  -4.545   9.906  1.00  0.00     0.260 C 
HETATM   22  N3  UNL     1      23.401  -4.581   9.814  1.00  0.00    -0.060 NA
HETATM   23  O1  UNL     1      21.320  -4.429   8.826  1.00  0.00    -0.274 OA
ENDBRANCH   1  21
TORSDOF 6
ENDMDL
MODEL 3
REMARK VINA RESULT: -7.743297764      1.846      2.539
REMARK  6 active torsions:
REMARK  status: ('A' for Active; 'I' for Inactive)
REMARK    1  A    between atoms: C2_2  and  C3_3 
REMARK    2  A    between atoms: N1_9  and  C9_10 
REMARK    3  A    between atoms: C9_10  and  C10_12 
REMARK    4  A    between atoms: C10_12  and  N2_13 
REMARK    5  A    between atoms: C10_12  and  C17_21 
REMARK    6  A    between atoms: N2_13  and  C11_15 
ROOT
HETATM    1  C10 UNL     1      23.081  -4.848  11.553  1.00  0.00     0.229 C 
ENDROOT
BRANCH   1   2
HETATM    2  C9  UNL     1      22.930  -3.486  12.124  1.00  0.00     0.107 C 
HETATM    3  S1  UNL     1      23.501  -3.336  13.705  1.00  0.00    -0.063 SA
BRANCH   2   4
HETATM    4  N1  UNL     1      22.353  -2.342  11.604  1.00  0.00    -0.368 N 
HETATM    5  C3  UNL     1      22.890  -1.842  10.322  1.00  0.00     0.084 C 
HETATM    6  C4  UNL     1      23.065  -0.408  10.446  1.00  0.00     0.025 C 
HETATM    7  C5  UNL     1      22.851   0.923  10.915  1.00  0.00     0.002 C 
HETATM    8  C6  UNL     1      21.878   0.835  12.138  1.00  0.00     0.002 C 
HETATM    9  C7  UNL     1      20.918  -0.296  12.057  1.00  0.00     0.020 C 
HETATM   10  C8  UNL     1      21.310  -1.697  12.358  1.00  0.00     0.124 C 
BRANCH   5  11
HETATM   11  C2  UNL     1      21.904  -2.256   9.224  1.00  0.00     0.021 C 
HETATM   12  C1  UNL     1      21.375  -1.177   8.373  1.00  0.00     0.007 C 
ENDBRANCH   5  11
ENDBRANCH   2   4
ENDBRANCH   1   2
BRANCH   1  13
HETATM   13  N2  UNL     1      22.872  -5.796  12.653  1.00  0.00    -0.400 N 
ATOM     14  H2  UNL     1      23.505  -5.844  13.451  1.00  0.00     0.154 HD
BRANCH  13  15
HETATM   15  C11 UNL     1      21.747  -6.639  12.544  1.00  0.00     0.077 C 
HETATM   16  C12 UNL     1      20.587  -6.136  11.743  1.00  0.00     0.024 C 
HETATM   17  C13 UNL     1      19.372  -6.976  12.149  1.00  0.00     0.002 C 
HETATM   18  C14 UNL     1      19.608  -8.446  12.011  1.00  0.00     0.000 C 
HETATM   19  C15 UNL     1      20.914  -8.927  12.568  1.00  0.00     0.002 C 
HETATM   20  C16 UNL     1      22.056  -8.045  12.042  1.00  0.00     0.024 C 
ENDBRANCH  13  15
ENDBRANCH   1  13
BRANCH   1  21
HETATM   21  C17 UNL     1      24.426  -5.173  11.042  1.00  0.00     0.260 C 
HETATM   22  N3  UNL     1      25.453  -5.838  11.803  1.00  0.00    -0.060 NA
HETATM   23  O1  UNL     1      24.711  -4.842   9.857  1.00  0.00    -0.274 OA
ENDBRANCH   1  21
TORSDOF 6
ENDMDL
MODEL 4
REMARK VINA RESULT: -7.728549114      1.177      1.621
REMARK  6 active torsions:
REMARK  status: ('A' for Active; 'I' for Inactive)
REMARK    1  A    between atoms: C2_2  and  C3_3 
REMARK    2  A    between atoms: N1_9  and  C9_10 
REMARK    3  A    between atoms: C9_10  and  C10_12 
REMARK    4  A    between atoms: C10_12  and  N2_13 
REMARK    5  A    between atoms: C10_12  and  C17_21 
REMARK    6  A    between atoms: N2_13  and  C11_15 
ROOT
HETATM    1  C10 UNL     1      21.103  -4.349  11.114  1.00  0.00     0.229 C 
ENDROOT
BRANCH   1   2
HETATM    2  C9  UNL     1      21.713  -3.387  12.066  1.00  0.00     0.107 C 
HETATM    3  S1  UNL     1      21.572  -3.839  13.686  1.00  0.00    -0.063 SA
BRANCH   2   4
HETATM    4  N1  UNL     1      22.321  -2.164  11.855  1.00  0.00    -0.368 N 
HETATM    5  C3  UNL     1      23.553  -1.885  12.621  1.00  0.00     0.084 C 
HETATM    6  C4  UNL     1      23.450  -0.538  13.147  1.00  0.00     0.025 C 
HETATM    7  C5  UNL     1      23.043   0.826  13.241  1.00  0.00     0.002 C 
HETATM    8  C6  UNL     1      21.926   1.054  12.168  1.00  0.00     0.002 C 
HETATM    9  C7  UNL     1      22.076   0.201  10.960  1.00  0.00     0.020 C 
HETATM   10  C8  UNL     1      21.698  -1.236  10.948  1.00  0.00     0.124 C 
BRANCH   5  11
HETATM   11  C2  UNL     1      24.737  -2.093  11.669  1.00  0.00     0.021 C 
HETATM   12  C1  UNL     1      25.635  -0.942  11.475  1.00  0.00     0.007 C 
ENDBRANCH   5  11
ENDBRANCH   2   4
ENDBRANCH   1   2
BRANCH   1  13
HETATM   13  N2  UNL     1      20.918  -5.609  11.843  1.00  0.00    -0.400 N 
ATOM     14  H2  UNL     1      21.642  -5.991  12.453  1.00  0.00     0.154 HD
BRANCH  13  15
HETATM   15  C11 UNL     1      19.684  -6.264  11.653  1.00  0.00     0.077 C 
HETATM   16  C12 UNL     1      19.525  -7.621  12.265  1.00  0.00     0.024 C 
HETATM   17  C13 UNL     1      18.344  -8.290  11.556  1.00  0.00     0.002 C 
HETATM   18  C14 UNL     1      17.098  -7.463  11.590  1.00  0.00     0.000 C 
HETATM   19  C15 UNL     1      17.296  -6.017  11.246  1.00  0.00     0.002 C 
HETATM   20  C16 UNL     1      18.464  -5.446  12.063  1.00  0.00     0.024 C 
ENDBRANCH  13  15
ENDBRANCH   1  13
BRANCH   1  21
HETATM   21  C17 UNL     1      21.945  -4.716   9.960  1.00  0.00     0.260 C 
HETATM   22  N3  UNL     1      23.317  -5.147  10.051  1.00  0.00    -0.060 NA
HETATM   23  O1  UNL     1      21.440  -4.642   8.805  1.00  0.00    -0.274 OA
ENDBRANCH   1  21
TORSDOF 6
ENDMDL
MODEL 5
REMARK VINA RESULT: -7.726203955      1.568      2.497
REMARK  6 active torsions:
REMARK  status: ('A' for Active; 'I' for Inactive)
REMARK    1  A    between atoms: C2_2  and  C3_3 
REMARK    2  A    between atoms: N1_9  and  C9_10 
REMARK    3  A    between atoms: C9_10  and  C10_12 
REMARK    4  A    between atoms: C10_12  and  N2_13 
REMARK    5  A    between atoms: C10_12  and  C17_21 
REMARK    6  A    between atoms: N2_13  and  C11_15 
ROOT
HETATM    1  C10 UNL     1      21.358  -4.203  11.167  1.00  0.00     0.229 C 
ENDROOT
BRANCH   1   2
HETATM    2  C9  UNL     1      22.163  -3.297  12.023  1.00  0.00     0.107 C 
HETATM    3  S1  UNL     1      22.851  -4.050  13.366  1.00  0.00    -0.063 SA
BRANCH   2   4
HETATM    4  N1  UNL     1      22.396  -1.937  11.937  1.00  0.00    -0.368 N 
HETATM    5  C3  UNL     1      21.292  -1.040  12.335  1.00  0.00     0.084 C 
HETATM    6  C4  UNL     1      21.182  -0.001  11.329  1.00  0.00     0.025 C 
HETATM    7  C5  UNL     1      21.581   0.895  10.293  1.00  0.00     0.002 C 
HETATM    8  C6  UNL     1      23.031   0.492   9.862  1.00  0.00     0.002 C 
HETATM    9  C7  UNL     1      23.842  -0.089  10.963  1.00  0.00     0.020 C 
HETATM   10  C8  UNL     1      23.666  -1.489  11.428  1.00  0.00     0.124 C 
BRANCH   5  11
HETATM   11  C2  UNL     1      21.615  -0.516  13.739  1.00  0.00     0.021 C 
HETATM   12  C1  UNL     1      20.815  -1.063  14.847  1.00  0.00     0.007 C 
ENDBRANCH   5  11
ENDBRANCH   2   4
ENDBRANCH   1   2
BRANCH   1  13
HETATM   13  N2  UNL     1      21.207  -5.463  11.904  1.00  0.00    -0.400 N 
ATOM     14  H2  UNL     1      21.948  -5.830  12.502  1.00  0.00     0.154 HD
BRANCH  13  15
HETATM   15  C11 UNL     1      19.980  -6.138  11.742  1.00  0.00     0.077 C 
HETATM   16  C12 UNL     1      19.837  -7.473  12.404  1.00  0.00     0.024 C 
HETATM   17  C13 UNL     1      18.662  -8.181  11.722  1.00  0.00     0.002 C 
HETATM   18  C14 UNL     1      17.408  -7.368  11.729  1.00  0.00     0.000 C 
HETATM   19  C15 UNL     1      17.588  -5.933  11.332  1.00  0.00     0.002 C 
HETATM   20  C16 UNL     1      18.752  -5.320  12.124  1.00  0.00     0.024 C 
ENDBRANCH  13  15
ENDBRANCH   1  13
BRANCH   1  21
HETATM   21  C17 UNL     1      21.990  -4.600   9.895  1.00  0.00     0.260 C 
HETATM   22  N3  UNL     1      23.365  -5.010   9.756  1.00  0.00    -0.060 NA
HETATM   23  O1  UNL     1      21.289  -4.573   8.845  1.00  0.00    -0.274 OA
ENDBRANCH   1  21
TORSDOF 6
ENDMDL
