MODEL 1
REMARK VINA RESULT: -8.272329797      0.000      0.000
REMARK  9 active torsions:
REMARK  status: ('A' for Active; 'I' for Inactive)
REMARK    1  A    between atoms: C2_2  and  C4_4 
REMARK    2  A    between atoms: C2_2  and  C14_22 
REMARK    3  A    between atoms: C4_4  and  N1_5 
REMARK    4  A    between atoms: N1_5  and  C5_7 
REMARK    5  A    between atoms: C7_11  and  C8_12 
REMARK    6  A    between atoms: C9_13  and  C10_14 
REMARK    7  A    between atoms: C10_14  and  C11_15 
REMARK    8  A    between atoms: C11_15  and  C12_16 
REMARK    9  A    between atoms: C12_16  and  O1_17 
ROOT
HETATM    1  C5  UNL     1      20.194  -4.299  12.720  1.00  0.00     0.677 A 
HETATM    2  N2  UNL     1      18.851  -4.372  12.748  1.00  0.00    -0.201 N 
ATOM      3  H2  UNL     1      18.323  -3.549  13.039  1.00  0.00     0.183 HD
HETATM    4  C6  UNL     1      18.178  -5.482  12.409  1.00  0.00     0.128 A 
HETATM    5  C7  UNL     1      18.860  -6.611  12.011  1.00  0.00     0.049 A 
HETATM    6  C13 UNL     1      20.254  -6.502  11.993  1.00  0.00     0.128 A 
HETATM    7  N3  UNL     1      20.874  -5.369  12.342  1.00  0.00    -0.201 N 
ATOM      8  H3  UNL     1      21.893  -5.329  12.317  1.00  0.00     0.183 HD
ENDROOT
BRANCH   1   9
HETATM    9  N1  UNL     1      20.711  -3.178  13.069  1.00  0.00    -0.225 N 
ATOM     10  H1  UNL     1      21.513  -2.862  12.523  1.00  0.00     0.177 HD
BRANCH   9  11
HETATM   11  C4  UNL     1      20.296  -2.323  14.128  1.00  0.00     0.147 C 
BRANCH  11  12
HETATM   12  C2  UNL     1      21.480  -1.747  14.896  1.00  0.00    -0.028 C 
HETATM   13  C1  UNL     1      22.179  -2.788  15.709  1.00  0.00     0.016 C 
HETATM   14  C3  UNL     1      20.984  -0.674  15.849  1.00  0.00     0.016 C 
BRANCH  12  15
HETATM   15  C14 UNL     1      22.437  -1.098  13.926  1.00  0.00    -0.005 C 
HETATM   16  C15 UNL     1      21.813   0.109  13.300  1.00  0.00     0.005 C 
HETATM   17  C16 UNL     1      22.656   0.545  12.095  1.00  0.00     0.000 C 
HETATM   18  C17 UNL     1      24.098   0.675  12.500  1.00  0.00     0.000 C 
HETATM   19  C18 UNL     1      24.259   0.613  14.005  1.00  0.00     0.000 C 
HETATM   20  C19 UNL     1      23.726  -0.685  14.574  1.00  0.00     0.005 C 
ENDBRANCH  12  15
ENDBRANCH  11  12
ENDBRANCH   9  11
ENDBRANCH   1   9
BRANCH   5  21
HETATM   21  C8  UNL     1      18.176  -7.817  11.641  1.00  0.00    -0.064 C 
HETATM   22  C9  UNL     1      17.597  -8.822  11.312  1.00  0.00    -0.101 C 
BRANCH  22  23
HETATM   23  C10 UNL     1      16.881 -10.049  10.884  1.00  0.00     0.096 C 
BRANCH  23  24
HETATM   24  C11 UNL     1      15.711  -9.617  10.030  1.00  0.00     0.038 C 
BRANCH  24  25
HETATM   25  C12 UNL     1      14.904  -8.626  10.868  1.00  0.00     0.165 C 
BRANCH  25  26
HETATM   26  O1  UNL     1      14.672  -7.496  10.122  1.00  0.00    -0.401 OA
ATOM     27  H1  UNL     1      15.465  -6.972  10.099  1.00  0.00     0.209 HD
ENDBRANCH  25  26
ENDBRANCH  24  25
ENDBRANCH  23  24
ENDBRANCH  22  23
ENDBRANCH   5  21
TORSDOF 9
ENDMDL
MODEL 2
REMARK VINA RESULT: -8.205133662      1.420      2.088
REMARK  9 active torsions:
REMARK  status: ('A' for Active; 'I' for Inactive)
REMARK    1  A    between atoms: C2_2  and  C4_4 
REMARK    2  A    between atoms: C2_2  and  C14_22 
REMARK    3  A    between atoms: C4_4  and  N1_5 
REMARK    4  A    between atoms: N1_5  and  C5_7 
REMARK    5  A    between atoms: C7_11  and  C8_12 
REMARK    6  A    between atoms: C9_13  and  C10_14 
REMARK    7  A    between atoms: C10_14  and  C11_15 
REMARK    8  A    between atoms: C11_15  and  C12_16 
REMARK    9  A    between atoms: C12_16  and  O1_17 
ROOT
HETATM    1  C5  UNL     1      20.190  -4.030  12.911  1.00  0.00     0.677 A 
HETATM    2  N2  UNL     1      20.920  -5.083  12.500  1.00  0.00    -0.201 N 
ATOM      3  H2  UNL     1      21.936  -4.994  12.475  1.00  0.00     0.183 HD
HETATM    4  C6  UNL     1      20.367  -6.246  12.121  1.00  0.00     0.128 A 
HETATM    5  C7  UNL     1      18.997  -6.400  12.142  1.00  0.00     0.049 A 
HETATM    6  C13 UNL     1      18.269  -5.288  12.575  1.00  0.00     0.128 A 
HETATM    7  N3  UNL     1      18.873  -4.152  12.941  1.00  0.00    -0.201 N 
ATOM      8  H3  UNL     1      18.306  -3.362  13.250  1.00  0.00     0.183 HD
ENDROOT
BRANCH   1   9
HETATM    9  N1  UNL     1      20.845  -2.979  13.246  1.00  0.00    -0.225 N 
ATOM     10  H1  UNL     1      21.538  -3.096  13.984  1.00  0.00     0.177 HD
BRANCH   9  11
HETATM   11  C4  UNL     1      20.716  -1.669  12.706  1.00  0.00     0.147 C 
BRANCH  11  12
HETATM   12  C2  UNL     1      21.935  -0.804  13.006  1.00  0.00    -0.028 C 
HETATM   13  C1  UNL     1      22.134  -0.609  14.473  1.00  0.00     0.016 C 
HETATM   14  C3  UNL     1      21.742   0.566  12.380  1.00  0.00     0.016 C 
BRANCH  12  15
HETATM   15  C14 UNL     1      23.157  -1.430  12.381  1.00  0.00    -0.005 C 
HETATM   16  C15 UNL     1      23.074  -1.372  10.888  1.00  0.00     0.005 C 
HETATM   17  C16 UNL     1      24.141  -2.296  10.287  1.00  0.00     0.000 C 
HETATM   18  C17 UNL     1      25.482  -1.989  10.891  1.00  0.00     0.000 C 
HETATM   19  C18 UNL     1      25.449  -0.704  11.692  1.00  0.00     0.000 C 
HETATM   20  C19 UNL     1      24.432  -0.766  12.811  1.00  0.00     0.005 C 
ENDBRANCH  12  15
ENDBRANCH  11  12
ENDBRANCH   9  11
ENDBRANCH   1   9
BRANCH   5  21
HETATM   21  C8  UNL     1      18.369  -7.627  11.745  1.00  0.00    -0.064 C 
HETATM   22  C9  UNL     1      17.833  -8.649  11.395  1.00  0.00    -0.101 C 
BRANCH  22  23
HETATM   23  C10 UNL     1      17.167  -9.895  10.943  1.00  0.00     0.096 C 
BRANCH  23  24
HETATM   24  C11 UNL     1      16.079  -9.500   9.969  1.00  0.00     0.038 C 
BRANCH  24  25
HETATM   25  C12 UNL     1      15.045  -8.711  10.770  1.00  0.00     0.165 C 
BRANCH  25  26
HETATM   26  O1  UNL     1      14.760  -7.543  10.104  1.00  0.00    -0.401 OA
ATOM     27  H1  UNL     1      14.020  -7.121  10.524  1.00  0.00     0.209 HD
ENDBRANCH  25  26
ENDBRANCH  24  25
ENDBRANCH  23  24
ENDBRANCH  22  23
ENDBRANCH   5  21
TORSDOF 9
ENDMDL
MODEL 3
REMARK VINA RESULT: -8.145384838      0.930      1.310
REMARK  9 active torsions:
REMARK  status: ('A' for Active; 'I' for Inactive)
REMARK    1  A    between atoms: C2_2  and  C4_4 
REMARK    2  A    between atoms: C2_2  and  C14_22 
REMARK    3  A    between atoms: C4_4  and  N1_5 
REMARK    4  A    between atoms: N1_5  and  C5_7 
REMARK    5  A    between atoms: C7_11  and  C8_12 
REMARK    6  A    between atoms: C9_13  and  C10_14 
REMARK    7  A    between atoms: C10_14  and  C11_15 
REMARK    8  A    between atoms: C11_15  and  C12_16 
REMARK    9  A    between atoms: C12_16  and  O1_17 
ROOT
HETATM    1  C5  UNL     1      20.073  -4.167  12.828  1.00  0.00     0.677 A 
HETATM    2  N2  UNL     1      18.732  -4.280  12.785  1.00  0.00    -0.201 N 
ATOM      3  H2  UNL     1      18.166  -3.472  13.042  1.00  0.00     0.183 HD
HETATM    4  C6  UNL     1      18.111  -5.411  12.417  1.00  0.00     0.128 A 
HETATM    5  C7  UNL     1      18.847  -6.521  12.062  1.00  0.00     0.049 A 
HETATM    6  C13 UNL     1      20.236  -6.371  12.118  1.00  0.00     0.128 A 
HETATM    7  N3  UNL     1      20.803  -5.219  12.493  1.00  0.00    -0.201 N 
ATOM      8  H3  UNL     1      21.820  -5.149  12.522  1.00  0.00     0.183 HD
ENDROOT
BRANCH   1   9
HETATM    9  N1  UNL     1      20.537  -3.030  13.197  1.00  0.00    -0.225 N 
ATOM     10  H1  UNL     1      19.991  -2.212  12.929  1.00  0.00     0.177 HD
BRANCH   9  11
HETATM   11  C4  UNL     1      21.727  -2.778  13.937  1.00  0.00     0.147 C 
BRANCH  11  12
HETATM   12  C2  UNL     1      22.083  -1.296  13.961  1.00  0.00    -0.028 C 
HETATM   13  C1  UNL     1      21.980  -0.719  15.335  1.00  0.00     0.016 C 
HETATM   14  C3  UNL     1      21.119  -0.535  13.068  1.00  0.00     0.016 C 
BRANCH  12  15
HETATM   15  C14 UNL     1      23.474  -1.108  13.407  1.00  0.00    -0.005 C 
HETATM   16  C15 UNL     1      23.447  -1.099  11.910  1.00  0.00     0.005 C 
HETATM   17  C16 UNL     1      24.879  -1.244  11.380  1.00  0.00     0.000 C 
HETATM   18  C17 UNL     1      25.773  -0.229  12.036  1.00  0.00     0.000 C 
HETATM   19  C18 UNL     1      24.971   0.803  12.803  1.00  0.00     0.000 C 
HETATM   20  C19 UNL     1      24.117   0.164  13.878  1.00  0.00     0.005 C 
ENDBRANCH  12  15
ENDBRANCH  11  12
ENDBRANCH   9  11
ENDBRANCH   1   9
BRANCH   5  21
HETATM   21  C8  UNL     1      18.219  -7.748  11.663  1.00  0.00    -0.064 C 
HETATM   22  C9  UNL     1      17.674  -8.769  11.326  1.00  0.00    -0.101 C 
BRANCH  22  23
HETATM   23  C10 UNL     1      16.982 -10.013  10.907  1.00  0.00     0.096 C 
BRANCH  23  24
HETATM   24  C11 UNL     1      15.817  -9.611  10.031  1.00  0.00     0.038 C 
BRANCH  24  25
HETATM   25  C12 UNL     1      14.964  -8.649  10.857  1.00  0.00     0.165 C 
BRANCH  25  26
HETATM   26  O1  UNL     1      14.707  -7.525  10.109  1.00  0.00    -0.401 OA
ATOM     27  H1  UNL     1      15.491  -7.289   9.628  1.00  0.00     0.209 HD
ENDBRANCH  25  26
ENDBRANCH  24  25
ENDBRANCH  23  24
ENDBRANCH  22  23
ENDBRANCH   5  21
TORSDOF 9
ENDMDL
MODEL 4
REMARK VINA RESULT: -8.142294486      1.113      1.665
REMARK  9 active torsions:
REMARK  status: ('A' for Active; 'I' for Inactive)
REMARK    1  A    between atoms: C2_2  and  C4_4 
REMARK    2  A    between atoms: C2_2  and  C14_22 
REMARK    3  A    between atoms: C4_4  and  N1_5 
REMARK    4  A    between atoms: N1_5  and  C5_7 
REMARK    5  A    between atoms: C7_11  and  C8_12 
REMARK    6  A    between atoms: C9_13  and  C10_14 
REMARK    7  A    between atoms: C10_14  and  C11_15 
REMARK    8  A    between atoms: C11_15  and  C12_16 
REMARK    9  A    between atoms: C12_16  and  O1_17 
ROOT
HETATM    1  C5  UNL     1      20.264  -4.323  12.944  1.00  0.00     0.677 A 
HETATM    2  N2  UNL     1      20.930  -5.433  12.576  1.00  0.00    -0.201 N 
ATOM      3  H2  UNL     1      21.950  -5.421  12.601  1.00  0.00     0.183 HD
HETATM    4  C6  UNL     1      20.309  -6.555  12.179  1.00  0.00     0.128 A 
HETATM    5  C7  UNL     1      18.932  -6.604  12.134  1.00  0.00     0.049 A 
HETATM    6  C13 UNL     1      18.270  -5.435  12.522  1.00  0.00     0.128 A 
HETATM    7  N3  UNL     1      18.941  -4.344  12.909  1.00  0.00    -0.201 N 
ATOM      8  H3  UNL     1      18.422  -3.510  13.184  1.00  0.00     0.183 HD
ENDROOT
BRANCH   1   9
HETATM    9  N1  UNL     1      20.979  -3.321  13.302  1.00  0.00    -0.225 N 
ATOM     10  H1  UNL     1      20.540  -2.660  13.942  1.00  0.00     0.177 HD
BRANCH   9  11
HETATM   11  C4  UNL     1      22.315  -3.025  12.911  1.00  0.00     0.147 C 
BRANCH  11  12
HETATM   12  C2  UNL     1      23.204  -2.703  14.106  1.00  0.00    -0.028 C 
HETATM   13  C1  UNL     1      23.927  -3.912  14.605  1.00  0.00     0.016 C 
HETATM   14  C3  UNL     1      22.346  -2.177  15.242  1.00  0.00     0.016 C 
BRANCH  12  15
HETATM   15  C14 UNL     1      24.182  -1.618  13.724  1.00  0.00    -0.005 C 
HETATM   16  C15 UNL     1      24.044  -1.273  12.274  1.00  0.00     0.005 C 
HETATM   17  C16 UNL     1      25.250  -0.429  11.841  1.00  0.00     0.000 C 
HETATM   18  C17 UNL     1      25.433   0.725  12.786  1.00  0.00     0.000 C 
HETATM   19  C18 UNL     1      24.241   0.882  13.707  1.00  0.00     0.000 C 
HETATM   20  C19 UNL     1      23.999  -0.366  14.530  1.00  0.00     0.005 C 
ENDBRANCH  12  15
ENDBRANCH  11  12
ENDBRANCH   9  11
ENDBRANCH   1   9
BRANCH   5  21
HETATM   21  C8  UNL     1      18.232  -7.785  11.715  1.00  0.00    -0.064 C 
HETATM   22  C9  UNL     1      17.649  -8.773  11.345  1.00  0.00    -0.101 C 
BRANCH  22  23
HETATM   23  C10 UNL     1      16.941  -9.985  10.865  1.00  0.00     0.096 C 
BRANCH  23  24
HETATM   24  C11 UNL     1      15.782  -9.524  10.010  1.00  0.00     0.038 C 
BRANCH  24  25
HETATM   25  C12 UNL     1      14.971  -8.552  10.864  1.00  0.00     0.165 C 
BRANCH  25  26
HETATM   26  O1  UNL     1      14.671  -7.441  10.113  1.00  0.00    -0.401 OA
ATOM     27  H1  UNL     1      13.731  -7.403   9.980  1.00  0.00     0.209 HD
ENDBRANCH  25  26
ENDBRANCH  24  25
ENDBRANCH  23  24
ENDBRANCH  22  23
ENDBRANCH   5  21
TORSDOF 9
ENDMDL
MODEL 5
REMARK VINA RESULT: -8.092996099      1.078      1.832
REMARK  9 active torsions:
REMARK  status: ('A' for Active; 'I' for Inactive)
REMARK    1  A    between atoms: C2_2  and  C4_4 
REMARK    2  A    between atoms: C2_2  and  C14_22 
REMARK    3  A    between atoms: C4_4  and  N1_5 
REMARK    4  A    between atoms: N1_5  and  C5_7 
REMARK    5  A    between atoms: C7_11  and  C8_12 
REMARK    6  A    between atoms: C9_13  and  C10_14 
REMARK    7  A    between atoms: C10_14  and  C11_15 
REMARK    8  A    between atoms: C11_15  and  C12_16 
REMARK    9  A    between atoms: C12_16  and  O1_17 
ROOT
HETATM    1  C5  UNL     1      20.219  -4.231  12.875  1.00  0.00     0.677 A 
HETATM    2  N2  UNL     1      18.876  -4.305  12.831  1.00  0.00    -0.201 N 
ATOM      3  H2  UNL     1      18.333  -3.483  13.095  1.00  0.00     0.183 HD
HETATM    4  C6  UNL     1      18.222  -5.415  12.455  1.00  0.00     0.128 A 
HETATM    5  C7  UNL     1      18.926  -6.543  12.093  1.00  0.00     0.049 A 
HETATM    6  C13 UNL     1      20.319  -6.433  12.149  1.00  0.00     0.128 A 
HETATM    7  N3  UNL     1      20.919  -5.300  12.533  1.00  0.00    -0.201 N 
ATOM      8  H3  UNL     1      21.938  -5.260  12.562  1.00  0.00     0.183 HD
ENDROOT
BRANCH   1   9
HETATM    9  N1  UNL     1      20.716  -3.110  13.252  1.00  0.00    -0.225 N 
ATOM     10  H1  UNL     1      20.078  -2.470  13.725  1.00  0.00     0.177 HD
BRANCH   9  11
HETATM   11  C4  UNL     1      22.055  -2.656  13.087  1.00  0.00     0.147 C 
BRANCH  11  12
HETATM   12  C2  UNL     1      22.243  -1.233  13.599  1.00  0.00    -0.028 C 
HETATM   13  C1  UNL     1      23.419  -1.119  14.514  1.00  0.00     0.016 C 
HETATM   14  C3  UNL     1      21.010  -0.813  14.378  1.00  0.00     0.016 C 
BRANCH  12  15
HETATM   15  C14 UNL     1      22.389  -0.295  12.425  1.00  0.00    -0.005 C 
HETATM   16  C15 UNL     1      23.144  -0.956  11.314  1.00  0.00     0.005 C 
HETATM   17  C16 UNL     1      23.565   0.105  10.290  1.00  0.00     0.000 C 
HETATM   18  C17 UNL     1      22.374   0.929   9.888  1.00  0.00     0.000 C 
HETATM   19  C18 UNL     1      21.081   0.314  10.382  1.00  0.00     0.000 C 
HETATM   20  C19 UNL     1      21.067   0.172  11.890  1.00  0.00     0.005 C 
ENDBRANCH  12  15
ENDBRANCH  11  12
ENDBRANCH   9  11
ENDBRANCH   1   9
BRANCH   5  21
HETATM   21  C8  UNL     1      18.263  -7.749  11.685  1.00  0.00    -0.064 C 
HETATM   22  C9  UNL     1      17.689  -8.754  11.349  1.00  0.00    -0.101 C 
BRANCH  22  23
HETATM   23  C10 UNL     1      16.961  -9.981  10.942  1.00  0.00     0.096 C 
BRANCH  23  24
HETATM   24  C11 UNL     1      15.816  -9.554  10.051  1.00  0.00     0.038 C 
BRANCH  24  25
HETATM   25  C12 UNL     1      14.968  -8.581  10.868  1.00  0.00     0.165 C 
BRANCH  25  26
HETATM   26  O1  UNL     1      14.707  -7.468  10.107  1.00  0.00    -0.401 OA
ATOM     27  H1  UNL     1      15.090  -6.708  10.529  1.00  0.00     0.209 HD
ENDBRANCH  25  26
ENDBRANCH  24  25
ENDBRANCH  23  24
ENDBRANCH  22  23
ENDBRANCH   5  21
TORSDOF 9
ENDMDL
