MODEL 1
REMARK VINA RESULT: -7.571130441      0.000      0.000
REMARK  10 active torsions:
REMARK  status: ('A' for Active; 'I' for Inactive)
REMARK    1  A    between atoms: O1_2  and  C2_3 
REMARK    2  A    between atoms: C2_3  and  C3_4 
REMARK    3  A    between atoms: C7_14  and  C8_15 
REMARK    4  A    between atoms: C9_16  and  C10_17 
REMARK    5  A    between atoms: C12_21  and  N6_22 
REMARK    6  A    between atoms: C13_27  and  N8_28 
REMARK    7  A    between atoms: C14_35  and  C15_36 
REMARK    8  A    between atoms: C15_36  and  C16_37 
REMARK    9  A    between atoms: C16_37  and  N11_38 
REMARK       I    between atoms: N11_38  and  C17_40 
REMARK   10  A    between atoms: C20_44  and  N12_45 
ROOT
HETATM    1  C8  UNL     1      30.170  65.597  10.191  1.00  0.00     0.033 A 
HETATM    2  C9  UNL     1      29.811  66.888   9.679  1.00  0.00     0.077 A 
HETATM    3  N9  UNL     1      28.713  67.224  10.355  1.00  0.00    -0.299 N 
ATOM      4  H9  UNL     1      28.203  68.097  10.222  1.00  0.00     0.187 HD
HETATM    5  N10 UNL     1      28.372  66.306  11.202  1.00  0.00    -0.303 N 
ATOM      6  H10 UNL     1      27.565  66.351  11.825  1.00  0.00     0.186 HD
HETATM    7  C14 UNL     1      29.269  65.255  11.136  1.00  0.00     0.041 A 
ENDROOT
BRANCH   1   8
HETATM    8  C7  UNL     1      31.276  64.880   9.578  1.00  0.00     0.106 C 
HETATM    9  N4  UNL     1      31.301  63.579   9.172  1.00  0.00    -0.365 N 
HETATM   10  C6  UNL     1      31.400  62.476  10.016  1.00  0.00     0.085 C 
HETATM   11  C19 UNL     1      31.112  63.299   7.778  1.00  0.00     0.168 C 
HETATM   12  C5  UNL     1      32.727  61.715   9.943  1.00  0.00     0.195 C 
HETATM   13  N2  UNL     1      32.838  61.032   8.667  1.00  0.00    -0.272 N 
HETATM   14  C4  UNL     1      32.715  61.538   7.437  1.00  0.00     0.132 A 
HETATM   15  N3  UNL     1      33.090  59.751   8.548  1.00  0.00    -0.283 N 
HETATM   16  N1  UNL     1      32.896  60.539   6.565  1.00  0.00    -0.330 N 
HETATM   17  C20 UNL     1      32.423  62.969   7.132  1.00  0.00     0.270 C 
HETATM   18  C3  UNL     1      33.132  59.418   7.261  1.00  0.00     0.121 A 
ATOM     19  H1  UNL     1      32.862  60.618   5.547  1.00  0.00     0.168 HD
ATOM     20  H3  UNL     1      33.234  59.106   9.326  1.00  0.00     0.188 HD
BRANCH  18  21
HETATM   21  C2  UNL     1      33.398  58.031   6.761  1.00  0.00     0.245 C 
BRANCH  21  22
HETATM   22  O1  UNL     1      33.448  57.129   7.811  1.00  0.00    -0.389 OA
HETATM   23  C1  UNL     1      32.883  55.936   7.436  1.00  0.00     0.202 C 
ENDBRANCH  21  22
ENDBRANCH  18  21
BRANCH  17  24
HETATM   24  N12 UNL     1      32.402  63.162   5.696  1.00  0.00    -0.067 N 
ATOM     25 3H12 UNL     1      33.244  63.629   5.357  1.00  0.00     0.275 HD
ATOM     26 2H12 UNL     1      32.508  62.284   5.188  1.00  0.00     0.275 HD
ATOM     27 1H12 UNL     1      31.552  63.659   5.433  1.00  0.00     0.275 HD
ENDBRANCH  17  24
ENDBRANCH   1   8
BRANCH   2  28
HETATM   28  C10 UNL     1      30.489  67.639   8.628  1.00  0.00     0.053 A 
HETATM   29  C11 UNL     1      31.455  68.587   8.875  1.00  0.00     0.123 A 
HETATM   30  N5  UNL     1      31.999  69.251   7.849  1.00  0.00    -0.201 N 
HETATM   31  C12 UNL     1      31.631  69.023   6.584  1.00  0.00     0.677 A 
ATOM     32  H5  UNL     1      32.716  69.952   8.037  1.00  0.00     0.183 HD
HETATM   33  N7  UNL     1      30.701  68.115   6.291  1.00  0.00    -0.176 N 
HETATM   34  C13 UNL     1      30.128  67.421   7.316  1.00  0.00     0.128 A 
ATOM     35  H7  UNL     1      30.423  67.944   5.324  1.00  0.00     0.186 HD
BRANCH  31  36
HETATM   36  N6  UNL     1      32.185  69.691   5.612  1.00  0.00    -0.234 N 
ATOM     37  H62 UNL     1      31.752  70.562   5.305  1.00  0.00     0.174 HD
ATOM     38  H61 UNL     1      33.035  69.341   5.171  1.00  0.00     0.174 HD
ENDBRANCH  31  36
BRANCH  34  39
HETATM   39  N8  UNL     1      29.245  66.562   6.947  1.00  0.00    -0.384 N 
ATOM     40  H82 UNL     1      28.285  66.908   6.969  1.00  0.00     0.157 HD
ATOM     41  H81 UNL     1      29.464  65.611   6.648  1.00  0.00     0.157 HD
ENDBRANCH  34  39
ENDBRANCH   2  28
BRANCH   7  42
HETATM   42  C15 UNL     1      29.159  64.095  12.054  1.00  0.00     0.079 C 
BRANCH  42  43
HETATM   43  C16 UNL     1      27.891  63.317  11.764  1.00  0.00     0.128 C 
BRANCH  43  44
HETATM   44  N11 UNL     1      27.817  62.953  10.364  1.00  0.00    -0.361 N 
HETATM   45  C17 UNL     1      27.807  61.580  10.028  1.00  0.00     0.213 C 
HETATM   46  C18 UNL     1      27.732  61.202   8.590  1.00  0.00     0.117 C 
HETATM   47  O2  UNL     1      27.858  60.674  10.899  1.00  0.00    -0.274 OA
ATOM     48  H11 UNL     1      27.773  63.669   9.639  1.00  0.00     0.162 HD
ENDBRANCH  43  44
ENDBRANCH  42  43
ENDBRANCH   7  42
TORSDOF 10
ENDMDL
MODEL 2
REMARK VINA RESULT: -7.330668274      1.159      1.272
REMARK  10 active torsions:
REMARK  status: ('A' for Active; 'I' for Inactive)
REMARK    1  A    between atoms: O1_2  and  C2_3 
REMARK    2  A    between atoms: C2_3  and  C3_4 
REMARK    3  A    between atoms: C7_14  and  C8_15 
REMARK    4  A    between atoms: C9_16  and  C10_17 
REMARK    5  A    between atoms: C12_21  and  N6_22 
REMARK    6  A    between atoms: C13_27  and  N8_28 
REMARK    7  A    between atoms: C14_35  and  C15_36 
REMARK    8  A    between atoms: C15_36  and  C16_37 
REMARK    9  A    between atoms: C16_37  and  N11_38 
REMARK       I    between atoms: N11_38  and  C17_40 
REMARK   10  A    between atoms: C20_44  and  N12_45 
ROOT
HETATM    1  C8  UNL     1      30.122  64.793   9.636  1.00  0.00     0.033 A 
HETATM    2  C9  UNL     1      30.097  66.225   9.546  1.00  0.00     0.077 A 
HETATM    3  N9  UNL     1      29.374  66.615  10.596  1.00  0.00    -0.299 N 
ATOM      4  H9  UNL     1      29.166  67.588  10.818  1.00  0.00     0.187 HD
HETATM    5  N10 UNL     1      28.968  65.606  11.299  1.00  0.00    -0.303 N 
ATOM      6  H10 UNL     1      28.402  65.670  12.145  1.00  0.00     0.186 HD
HETATM    7  C14 UNL     1      29.420  64.429  10.731  1.00  0.00     0.041 A 
ENDROOT
BRANCH   1   8
HETATM    8  C7  UNL     1      30.741  64.031   8.564  1.00  0.00     0.106 C 
HETATM    9  N4  UNL     1      31.240  62.764   8.625  1.00  0.00    -0.365 N 
HETATM   10  C6  UNL     1      32.445  62.403   9.221  1.00  0.00     0.085 C 
HETATM   11  C19 UNL     1      30.427  61.690   8.130  1.00  0.00     0.168 C 
HETATM   12  C5  UNL     1      33.545  61.958   8.252  1.00  0.00     0.195 C 
HETATM   13  N2  UNL     1      33.197  60.680   7.658  1.00  0.00    -0.272 N 
HETATM   14  C4  UNL     1      32.075  60.337   7.017  1.00  0.00     0.132 A 
HETATM   15  N3  UNL     1      33.985  59.633   7.672  1.00  0.00    -0.283 N 
HETATM   16  N1  UNL     1      32.196  59.058   6.642  1.00  0.00    -0.330 N 
HETATM   17  C20 UNL     1      30.917  61.247   6.784  1.00  0.00     0.270 C 
HETATM   18  C3  UNL     1      33.393  58.616   7.052  1.00  0.00     0.121 A 
ATOM     19  H1  UNL     1      31.499  58.514   6.132  1.00  0.00     0.168 HD
ATOM     20  H3  UNL     1      34.913  59.603   8.095  1.00  0.00     0.188 HD
BRANCH  18  21
HETATM   21  C2  UNL     1      34.012  57.262   6.884  1.00  0.00     0.245 C 
BRANCH  21  22
HETATM   22  O1  UNL     1      33.268  56.294   7.538  1.00  0.00    -0.389 OA
HETATM   23  C1  UNL     1      33.501  56.350   8.889  1.00  0.00     0.202 C 
ENDBRANCH  21  22
ENDBRANCH  18  21
BRANCH  17  24
HETATM   24  N12 UNL     1      29.900  60.549   6.023  1.00  0.00    -0.067 N 
ATOM     25 3H12 UNL     1      30.241  60.249   5.109  1.00  0.00     0.275 HD
ATOM     26 2H12 UNL     1      29.693  59.628   6.410  1.00  0.00     0.275 HD
ATOM     27 1H12 UNL     1      29.068  61.133   5.952  1.00  0.00     0.275 HD
ENDBRANCH  17  24
ENDBRANCH   1   8
BRANCH   2  28
HETATM   28  C10 UNL     1      30.704  67.053   8.510  1.00  0.00     0.053 A 
HETATM   29  C11 UNL     1      31.891  67.728   8.678  1.00  0.00     0.123 A 
HETATM   30  N5  UNL     1      32.356  68.492   7.683  1.00  0.00    -0.201 N 
HETATM   31  C12 UNL     1      31.700  68.622   6.525  1.00  0.00     0.677 A 
ATOM     32  H5  UNL     1      33.236  68.990   7.811  1.00  0.00     0.183 HD
HETATM   33  N7  UNL     1      30.547  67.989   6.312  1.00  0.00    -0.176 N 
HETATM   34  C13 UNL     1      30.048  67.202   7.308  1.00  0.00     0.128 A 
ATOM     35  H7  UNL     1      30.050  68.091   5.427  1.00  0.00     0.186 HD
BRANCH  31  36
HETATM   36  N6  UNL     1      32.187  69.376   5.580  1.00  0.00    -0.234 N 
ATOM     37  H62 UNL     1      33.192  69.363   5.409  1.00  0.00     0.174 HD
ATOM     38  H61 UNL     1      31.566  69.967   5.027  1.00  0.00     0.174 HD
ENDBRANCH  31  36
BRANCH  34  39
HETATM   39  N8  UNL     1      28.936  66.623   7.018  1.00  0.00    -0.384 N 
ATOM     40  H82 UNL     1      28.622  66.770   6.059  1.00  0.00     0.157 HD
ATOM     41  H81 UNL     1      28.400  66.055   7.675  1.00  0.00     0.157 HD
ENDBRANCH  34  39
ENDBRANCH   2  28
BRANCH   7  42
HETATM   42  C15 UNL     1      29.162  63.119  11.376  1.00  0.00     0.079 C 
BRANCH  42  43
HETATM   43  C16 UNL     1      27.691  62.767  11.275  1.00  0.00     0.128 C 
BRANCH  43  44
HETATM   44  N11 UNL     1      27.319  62.492   9.902  1.00  0.00    -0.361 N 
HETATM   45  C17 UNL     1      27.215  61.143   9.494  1.00  0.00     0.213 C 
HETATM   46  C18 UNL     1      26.833  60.856   8.084  1.00  0.00     0.117 C 
HETATM   47  O2  UNL     1      27.432  60.183  10.278  1.00  0.00    -0.274 OA
ATOM     48  H11 UNL     1      27.136  63.252   9.248  1.00  0.00     0.162 HD
ENDBRANCH  43  44
ENDBRANCH  42  43
ENDBRANCH   7  42
TORSDOF 10
ENDMDL
MODEL 3
REMARK VINA RESULT: -7.182859269      1.235      1.584
REMARK  10 active torsions:
REMARK  status: ('A' for Active; 'I' for Inactive)
REMARK    1  A    between atoms: O1_2  and  C2_3 
REMARK    2  A    between atoms: C2_3  and  C3_4 
REMARK    3  A    between atoms: C7_14  and  C8_15 
REMARK    4  A    between atoms: C9_16  and  C10_17 
REMARK    5  A    between atoms: C12_21  and  N6_22 
REMARK    6  A    between atoms: C13_27  and  N8_28 
REMARK    7  A    between atoms: C14_35  and  C15_36 
REMARK    8  A    between atoms: C15_36  and  C16_37 
REMARK    9  A    between atoms: C16_37  and  N11_38 
REMARK       I    between atoms: N11_38  and  C17_40 
REMARK   10  A    between atoms: C20_44  and  N12_45 
ROOT
HETATM    1  C8  UNL     1      30.271  65.769  10.281  1.00  0.00     0.033 A 
HETATM    2  C9  UNL     1      29.903  67.035   9.717  1.00  0.00     0.077 A 
HETATM    3  N9  UNL     1      28.827  67.411  10.408  1.00  0.00    -0.299 N 
ATOM      4  H9  UNL     1      28.317  68.279  10.247  1.00  0.00     0.187 HD
HETATM    5  N10 UNL     1      28.507  66.537  11.309  1.00  0.00    -0.303 N 
ATOM      6  H10 UNL     1      27.720  66.617  11.952  1.00  0.00     0.186 HD
HETATM    7  C14 UNL     1      29.397  65.479  11.268  1.00  0.00     0.041 A 
ENDROOT
BRANCH   1   8
HETATM    8  C7  UNL     1      31.355  65.016   9.672  1.00  0.00     0.106 C 
HETATM    9  N4  UNL     1      31.318  63.736   9.204  1.00  0.00    -0.365 N 
HETATM   10  C6  UNL     1      31.321  62.591   9.996  1.00  0.00     0.085 C 
HETATM   11  C19 UNL     1      31.165  63.534   7.792  1.00  0.00     0.168 C 
HETATM   12  C5  UNL     1      32.603  61.755   9.931  1.00  0.00     0.195 C 
HETATM   13  N2  UNL     1      32.721  61.127   8.627  1.00  0.00    -0.272 N 
HETATM   14  C4  UNL     1      32.673  61.697   7.420  1.00  0.00     0.132 A 
HETATM   15  N3  UNL     1      32.902  59.840   8.454  1.00  0.00    -0.283 N 
HETATM   16  N1  UNL     1      32.827  60.731   6.506  1.00  0.00    -0.330 N 
HETATM   17  C20 UNL     1      32.477  63.156   7.175  1.00  0.00     0.270 C 
HETATM   18  C3  UNL     1      32.971  59.566   7.154  1.00  0.00     0.121 A 
ATOM     19  H1  UNL     1      32.835  60.859   5.494  1.00  0.00     0.168 HD
ATOM     20  H3  UNL     1      32.978  59.152   9.204  1.00  0.00     0.188 HD
BRANCH  18  21
HETATM   21  C2  UNL     1      33.174  58.190   6.597  1.00  0.00     0.245 C 
BRANCH  21  22
HETATM   22  O1  UNL     1      33.847  57.385   7.501  1.00  0.00    -0.389 OA
HETATM   23  C1  UNL     1      33.225  56.167   7.603  1.00  0.00     0.202 C 
ENDBRANCH  21  22
ENDBRANCH  18  21
BRANCH  17  24
HETATM   24  N12 UNL     1      32.520  63.416   5.751  1.00  0.00    -0.067 N 
ATOM     25 3H12 UNL     1      33.403  63.839   5.462  1.00  0.00     0.275 HD
ATOM     26 2H12 UNL     1      32.584  62.558   5.204  1.00  0.00     0.275 HD
ATOM     27 1H12 UNL     1      31.716  63.984   5.485  1.00  0.00     0.275 HD
ENDBRANCH  17  24
ENDBRANCH   1   8
BRANCH   2  28
HETATM   28  C10 UNL     1      30.552  67.730   8.610  1.00  0.00     0.053 A 
HETATM   29  C11 UNL     1      31.549  68.661   8.780  1.00  0.00     0.123 A 
HETATM   30  N5  UNL     1      32.064  69.273   7.708  1.00  0.00    -0.201 N 
HETATM   31  C12 UNL     1      31.638  69.007   6.469  1.00  0.00     0.677 A 
ATOM     32  H5  UNL     1      32.805  69.962   7.838  1.00  0.00     0.183 HD
HETATM   33  N7  UNL     1      30.675  68.113   6.250  1.00  0.00    -0.176 N 
HETATM   34  C13 UNL     1      30.130  67.472   7.324  1.00  0.00     0.128 A 
ATOM     35  H7  UNL     1      30.352  67.913   5.303  1.00  0.00     0.186 HD
BRANCH  31  36
HETATM   36  N6  UNL     1      32.165  69.625   5.450  1.00  0.00    -0.234 N 
ATOM     37  H62 UNL     1      33.089  70.045   5.554  1.00  0.00     0.174 HD
ATOM     38  H61 UNL     1      31.656  69.683   4.568  1.00  0.00     0.174 HD
ENDBRANCH  31  36
BRANCH  34  39
HETATM   39  N8  UNL     1      29.213  66.621   7.025  1.00  0.00    -0.384 N 
ATOM     40  H82 UNL     1      28.585  66.391   7.796  1.00  0.00     0.157 HD
ATOM     41  H81 UNL     1      29.101  66.204   6.101  1.00  0.00     0.157 HD
ENDBRANCH  34  39
ENDBRANCH   2  28
BRANCH   7  42
HETATM   42  C15 UNL     1      29.309  64.367  12.246  1.00  0.00     0.079 C 
BRANCH  42  43
HETATM   43  C16 UNL     1      28.194  63.416  11.857  1.00  0.00     0.128 C 
BRANCH  43  44
HETATM   44  N11 UNL     1      27.047  63.582  12.728  1.00  0.00    -0.361 N 
HETATM   45  C17 UNL     1      25.935  64.304  12.241  1.00  0.00     0.213 C 
HETATM   46  C18 UNL     1      24.755  64.476  13.133  1.00  0.00     0.117 C 
HETATM   47  O2  UNL     1      25.909  64.802  11.086  1.00  0.00    -0.274 OA
ATOM     48  H11 UNL     1      27.043  63.186  13.668  1.00  0.00     0.162 HD
ENDBRANCH  43  44
ENDBRANCH  42  43
ENDBRANCH   7  42
TORSDOF 10
ENDMDL
MODEL 4
REMARK VINA RESULT: -7.105680369      0.890      1.126
REMARK  10 active torsions:
REMARK  status: ('A' for Active; 'I' for Inactive)
REMARK    1  A    between atoms: O1_2  and  C2_3 
REMARK    2  A    between atoms: C2_3  and  C3_4 
REMARK    3  A    between atoms: C7_14  and  C8_15 
REMARK    4  A    between atoms: C9_16  and  C10_17 
REMARK    5  A    between atoms: C12_21  and  N6_22 
REMARK    6  A    between atoms: C13_27  and  N8_28 
REMARK    7  A    between atoms: C14_35  and  C15_36 
REMARK    8  A    between atoms: C15_36  and  C16_37 
REMARK    9  A    between atoms: C16_37  and  N11_38 
REMARK       I    between atoms: N11_38  and  C17_40 
REMARK   10  A    between atoms: C20_44  and  N12_45 
ROOT
HETATM    1  C8  UNL     1      30.184  65.590  10.207  1.00  0.00     0.033 A 
HETATM    2  C9  UNL     1      29.821  66.877   9.684  1.00  0.00     0.077 A 
HETATM    3  N9  UNL     1      28.722  67.215  10.358  1.00  0.00    -0.299 N 
ATOM      4  H9  UNL     1      28.209  68.085  10.218  1.00  0.00     0.187 HD
HETATM    5  N10 UNL     1      28.384  66.303  11.213  1.00  0.00    -0.303 N 
ATOM      6  H10 UNL     1      27.578  66.350  11.836  1.00  0.00     0.186 HD
HETATM    7  C14 UNL     1      29.284  65.253  11.155  1.00  0.00     0.041 A 
ENDROOT
BRANCH   1   8
HETATM    8  C7  UNL     1      31.291  64.872   9.600  1.00  0.00     0.106 C 
HETATM    9  N4  UNL     1      31.312  63.574   9.183  1.00  0.00    -0.365 N 
HETATM   10  C6  UNL     1      31.395  62.463  10.017  1.00  0.00     0.085 C 
HETATM   11  C19 UNL     1      31.136  63.308   7.784  1.00  0.00     0.168 C 
HETATM   12  C5  UNL     1      32.717  61.693   9.952  1.00  0.00     0.195 C 
HETATM   13  N2  UNL     1      32.837  61.021   8.671  1.00  0.00    -0.272 N 
HETATM   14  C4  UNL     1      32.731  61.540   7.444  1.00  0.00     0.132 A 
HETATM   15  N3  UNL     1      33.083  59.739   8.543  1.00  0.00    -0.283 N 
HETATM   16  N1  UNL     1      32.915  60.547   6.565  1.00  0.00    -0.330 N 
HETATM   17  C20 UNL     1      32.452  62.975   7.149  1.00  0.00     0.270 C 
HETATM   18  C3  UNL     1      33.136  59.418   7.254  1.00  0.00     0.121 A 
ATOM     19  H1  UNL     1      32.892  60.635   5.548  1.00  0.00     0.168 HD
ATOM     20  H3  UNL     1      33.214  59.087   9.317  1.00  0.00     0.188 HD
BRANCH  18  21
HETATM   21  C2  UNL     1      33.398  58.034   6.745  1.00  0.00     0.245 C 
BRANCH  21  22
HETATM   22  O1  UNL     1      33.433  57.122   7.787  1.00  0.00    -0.389 OA
HETATM   23  C1  UNL     1      32.843  55.945   7.405  1.00  0.00     0.202 C 
ENDBRANCH  21  22
ENDBRANCH  18  21
BRANCH  17  24
HETATM   24  N12 UNL     1      32.448  63.180   5.715  1.00  0.00    -0.067 N 
ATOM     25 3H12 UNL     1      33.289  62.813   5.270  1.00  0.00     0.275 HD
ATOM     26 2H12 UNL     1      31.764  62.590   5.243  1.00  0.00     0.275 HD
ATOM     27 1H12 UNL     1      32.307  64.170   5.514  1.00  0.00     0.275 HD
ENDBRANCH  17  24
ENDBRANCH   1   8
BRANCH   2  28
HETATM   28  C10 UNL     1      30.496  67.621   8.627  1.00  0.00     0.053 A 
HETATM   29  C11 UNL     1      31.471  68.561   8.865  1.00  0.00     0.123 A 
HETATM   30  N5  UNL     1      32.012  69.219   7.833  1.00  0.00    -0.201 N 
HETATM   31  C12 UNL     1      31.632  68.992   6.572  1.00  0.00     0.677 A 
ATOM     32  H5  UNL     1      32.735  69.915   8.014  1.00  0.00     0.183 HD
HETATM   33  N7  UNL     1      30.692  68.091   6.287  1.00  0.00    -0.176 N 
HETATM   34  C13 UNL     1      30.122  67.403   7.318  1.00  0.00     0.128 A 
ATOM     35  H7  UNL     1      30.406  67.921   5.323  1.00  0.00     0.186 HD
BRANCH  31  36
HETATM   36  N6  UNL     1      32.184  69.654   5.594  1.00  0.00    -0.234 N 
ATOM     37  H62 UNL     1      33.178  69.520   5.408  1.00  0.00     0.174 HD
ATOM     38  H61 UNL     1      31.624  70.294   5.031  1.00  0.00     0.174 HD
ENDBRANCH  31  36
BRANCH  34  39
HETATM   39  N8  UNL     1      29.230  66.550   6.957  1.00  0.00    -0.384 N 
ATOM     40  H82 UNL     1      29.183  65.717   7.545  1.00  0.00     0.157 HD
ATOM     41  H81 UNL     1      28.609  66.677   6.158  1.00  0.00     0.157 HD
ENDBRANCH  34  39
ENDBRANCH   2  28
BRANCH   7  42
HETATM   42  C15 UNL     1      29.177  64.102  12.084  1.00  0.00     0.079 C 
BRANCH  42  43
HETATM   43  C16 UNL     1      28.149  63.112  11.573  1.00  0.00     0.128 C 
BRANCH  43  44
HETATM   44  N11 UNL     1      27.368  62.568  12.665  1.00  0.00    -0.361 N 
HETATM   45  C17 UNL     1      26.646  61.374  12.444  1.00  0.00     0.213 C 
HETATM   46  C18 UNL     1      25.842  60.813  13.563  1.00  0.00     0.117 C 
HETATM   47  O2  UNL     1      26.661  60.774  11.338  1.00  0.00    -0.274 OA
ATOM     48  H11 UNL     1      27.341  63.035  13.572  1.00  0.00     0.162 HD
ENDBRANCH  43  44
ENDBRANCH  42  43
ENDBRANCH   7  42
TORSDOF 10
ENDMDL
MODEL 5
REMARK VINA RESULT: -7.055520301      0.742      1.290
REMARK  10 active torsions:
REMARK  status: ('A' for Active; 'I' for Inactive)
REMARK    1  A    between atoms: O1_2  and  C2_3 
REMARK    2  A    between atoms: C2_3  and  C3_4 
REMARK    3  A    between atoms: C7_14  and  C8_15 
REMARK    4  A    between atoms: C9_16  and  C10_17 
REMARK    5  A    between atoms: C12_21  and  N6_22 
REMARK    6  A    between atoms: C13_27  and  N8_28 
REMARK    7  A    between atoms: C14_35  and  C15_36 
REMARK    8  A    between atoms: C15_36  and  C16_37 
REMARK    9  A    between atoms: C16_37  and  N11_38 
REMARK       I    between atoms: N11_38  and  C17_40 
REMARK   10  A    between atoms: C20_44  and  N12_45 
ROOT
HETATM    1  C8  UNL     1      30.161  65.609  10.261  1.00  0.00     0.033 A 
HETATM    2  C9  UNL     1      29.734  66.852   9.686  1.00  0.00     0.077 A 
HETATM    3  N9  UNL     1      28.652  67.192  10.387  1.00  0.00    -0.299 N 
ATOM      4  H9  UNL     1      28.105  68.036  10.222  1.00  0.00     0.187 HD
HETATM    5  N10 UNL     1      28.381  66.318  11.303  1.00  0.00    -0.303 N 
ATOM      6  H10 UNL     1      27.599  66.374  11.956  1.00  0.00     0.186 HD
HETATM    7  C14 UNL     1      29.312  65.296  11.263  1.00  0.00     0.041 A 
ENDROOT
BRANCH   1   8
HETATM    8  C7  UNL     1      31.267  64.894   9.647  1.00  0.00     0.106 C 
HETATM    9  N4  UNL     1      31.285  63.600   9.219  1.00  0.00    -0.365 N 
HETATM   10  C6  UNL     1      31.366  62.481  10.044  1.00  0.00     0.085 C 
HETATM   11  C19 UNL     1      31.108  63.345   7.818  1.00  0.00     0.168 C 
HETATM   12  C5  UNL     1      32.688  61.710   9.972  1.00  0.00     0.195 C 
HETATM   13  N2  UNL     1      32.806  61.048   8.685  1.00  0.00    -0.272 N 
HETATM   14  C4  UNL     1      32.699  61.577   7.463  1.00  0.00     0.132 A 
HETATM   15  N3  UNL     1      33.049  59.767   8.546  1.00  0.00    -0.283 N 
HETATM   16  N1  UNL     1      32.881  60.591   6.575  1.00  0.00    -0.330 N 
HETATM   17  C20 UNL     1      32.423  63.015   7.179  1.00  0.00     0.270 C 
HETATM   18  C3  UNL     1      33.100  59.457   7.254  1.00  0.00     0.121 A 
ATOM     19  H1  UNL     1      32.857  60.687   5.559  1.00  0.00     0.168 HD
ATOM     20  H3  UNL     1      33.179  59.108   9.314  1.00  0.00     0.188 HD
BRANCH  18  21
HETATM   21  C2  UNL     1      33.360  58.076   6.733  1.00  0.00     0.245 C 
BRANCH  21  22
HETATM   22  O1  UNL     1      33.497  57.173   7.774  1.00  0.00    -0.389 OA
HETATM   23  C1  UNL     1      32.948  55.964   7.427  1.00  0.00     0.202 C 
ENDBRANCH  21  22
ENDBRANCH  18  21
BRANCH  17  24
HETATM   24  N12 UNL     1      32.417  63.232   5.747  1.00  0.00    -0.067 N 
ATOM     25 3H12 UNL     1      33.137  63.894   5.454  1.00  0.00     0.275 HD
ATOM     26 2H12 UNL     1      32.750  62.418   5.232  1.00  0.00     0.275 HD
ATOM     27 1H12 UNL     1      31.485  63.521   5.451  1.00  0.00     0.275 HD
ENDBRANCH  17  24
ENDBRANCH   1   8
BRANCH   2  28
HETATM   28  C10 UNL     1      30.339  67.558   8.562  1.00  0.00     0.053 A 
HETATM   29  C11 UNL     1      30.009  67.318   7.249  1.00  0.00     0.123 A 
HETATM   30  N5  UNL     1      30.642  67.991   6.281  1.00  0.00    -0.201 N 
HETATM   31  C12 UNL     1      31.591  68.893   6.551  1.00  0.00     0.677 A 
ATOM     32  H5  UNL     1      30.393  67.811   5.308  1.00  0.00     0.183 HD
HETATM   33  N7  UNL     1      31.947  69.163   7.806  1.00  0.00    -0.176 N 
HETATM   34  C13 UNL     1      31.319  68.493   8.815  1.00  0.00     0.128 A 
ATOM     35  H7  UNL     1      32.671  69.853   8.008  1.00  0.00     0.186 HD
BRANCH  31  36
HETATM   36  N6  UNL     1      32.184  69.528   5.579  1.00  0.00    -0.234 N 
ATOM     37  H62 UNL     1      32.949  69.068   5.086  1.00  0.00     0.174 HD
ATOM     38  H61 UNL     1      31.882  70.468   5.324  1.00  0.00     0.174 HD
ENDBRANCH  31  36
BRANCH  34  39
HETATM   39  N8  UNL     1      31.718  68.817   9.995  1.00  0.00    -0.384 N 
ATOM     40  H82 UNL     1      32.197  68.069  10.497  1.00  0.00     0.157 HD
ATOM     41  H81 UNL     1      31.581  69.739  10.410  1.00  0.00     0.157 HD
ENDBRANCH  34  39
ENDBRANCH   2  28
BRANCH   7  42
HETATM   42  C15 UNL     1      29.283  64.194  12.256  1.00  0.00     0.079 C 
BRANCH  42  43
HETATM   43  C16 UNL     1      27.922  63.527  12.256  1.00  0.00     0.128 C 
BRANCH  43  44
HETATM   44  N11 UNL     1      27.940  62.316  11.461  1.00  0.00    -0.361 N 
HETATM   45  C17 UNL     1      27.039  62.212  10.378  1.00  0.00     0.213 C 
HETATM   46  C18 UNL     1      27.054  60.969   9.559  1.00  0.00     0.117 C 
HETATM   47  O2  UNL     1      26.230  63.130  10.084  1.00  0.00    -0.274 OA
ATOM     48  H11 UNL     1      28.587  61.558  11.678  1.00  0.00     0.162 HD
ENDBRANCH  43  44
ENDBRANCH  42  43
ENDBRANCH   7  42
TORSDOF 10
ENDMDL
