MODEL 1
REMARK VINA RESULT: -6.655517986      0.000      0.000
REMARK  11 active torsions:
REMARK  status: ('A' for Active; 'I' for Inactive)
REMARK    1  A    between atoms: C1_4  and  C2_6 
REMARK    2  A    between atoms: C4_10  and  C5_11 
REMARK       I    between atoms: C5_11  and  N4_13 
REMARK    3  A    between atoms: N4_13  and  C6_15 
REMARK    4  A    between atoms: N6_19  and  C8_21 
REMARK    5  A    between atoms: C8_21  and  C9_22 
REMARK    6  A    between atoms: C9_22  and  O2_23 
REMARK    7  A    between atoms: O2_23  and  C10_24 
REMARK    8  A    between atoms: C10_24  and  C11_25 
REMARK    9  A    between atoms: C11_25  and  N7_26 
REMARK   10  A    between atoms: C18_38  and  N10_39 
REMARK   11  A    between atoms: C19_42  and  O3_43 
ROOT
HETATM    1  C6  UNL     1      31.171  61.711  11.932  1.00  0.00     0.150 C 
HETATM    2  N5  UNL     1      31.137  60.362  12.089  1.00  0.00    -0.174 N 
ATOM      3  H5  UNL     1      30.221  59.933  11.960  1.00  0.00     0.186 HD
HETATM    4  C7  UNL     1      32.151  59.491  12.394  1.00  0.00     0.679 C 
HETATM    5  N6  UNL     1      31.909  58.269  12.143  1.00  0.00    -0.224 N 
ATOM      6  H6  UNL     1      31.000  58.037  11.744  1.00  0.00     0.177 HD
HETATM    7  N9  UNL     1      33.329  59.878  12.921  1.00  0.00    -0.202 N 
ATOM      8  H9  UNL     1      33.731  59.253  13.619  1.00  0.00     0.183 HD
HETATM    9  C16 UNL     1      34.052  61.000  12.639  1.00  0.00     0.108 C 
HETATM   10  C17 UNL     1      33.599  62.179  12.076  1.00  0.00     0.050 C 
HETATM   11  C18 UNL     1      32.272  62.544  11.903  1.00  0.00     0.072 C 
ENDROOT
BRANCH   1  12
HETATM   12  N4  UNL     1      30.038  62.308  11.795  1.00  0.00    -0.306 N 
HETATM   13  C5  UNL     1      29.055  61.836  10.875  1.00  0.00     0.262 C 
HETATM   14  O1  UNL     1      28.364  60.831  11.113  1.00  0.00    -0.267 OA
ATOM     15  H4  UNL     1      29.839  63.136  12.355  1.00  0.00     0.170 HD
BRANCH  13  16
HETATM   16  C4  UNL     1      28.870  62.584   9.602  1.00  0.00     0.098 A 
HETATM   17  C3  UNL     1      28.990  63.954   9.602  1.00  0.00     0.106 A 
HETATM   18  S1  UNL     1      28.712  64.382   7.985  1.00  0.00    -0.068 SA
HETATM   19  N3  UNL     1      29.284  64.830  10.716  1.00  0.00    -0.093 NA
HETATM   20  C2  UNL     1      28.446  62.806   7.326  1.00  0.00     0.081 A 
HETATM   21  C19 UNL     1      28.589  62.009   8.419  1.00  0.00     0.104 A 
BRANCH  20  22
HETATM   22  C1  UNL     1      28.143  62.479   5.919  1.00  0.00     0.130 C 
HETATM   23  N1  UNL     1      28.746  61.642   5.217  1.00  0.00    -0.387 N 
ATOM     24  H12 UNL     1      28.537  61.415   4.244  1.00  0.00     0.157 HD
ATOM     25  H11 UNL     1      29.517  61.133   5.648  1.00  0.00     0.157 HD
HETATM   26  N2  UNL     1      27.051  63.201   5.308  1.00  0.00    -0.082 NA
ENDBRANCH  20  22
BRANCH  21  27
HETATM   27  O3  UNL     1      28.436  60.600   8.266  1.00  0.00    -0.358 OA
ATOM     28  H3  UNL     1      29.095  60.118   7.780  1.00  0.00     0.217 HD
ENDBRANCH  21  27
ENDBRANCH  13  16
ENDBRANCH   1  12
BRANCH  11  29
HETATM   29  N10 UNL     1      32.057  63.797  11.694  1.00  0.00    -0.396 N 
ATOM     30 2H10 UNL     1      31.508  64.279  12.406  1.00  0.00     0.156 HD
ATOM     31 1H10 UNL     1      32.447  64.202  10.843  1.00  0.00     0.156 HD
ENDBRANCH  11  29
BRANCH   5  32
HETATM   32  C8  UNL     1      32.819  57.203  12.380  1.00  0.00     0.164 C 
BRANCH  32  33
HETATM   33  C9  UNL     1      33.488  56.837  11.045  1.00  0.00     0.187 C 
BRANCH  33  34
HETATM   34  O2  UNL     1      34.479  57.740  10.708  1.00  0.00    -0.388 OA
BRANCH  34  35
HETATM   35  C10 UNL     1      34.259  58.072   9.359  1.00  0.00     0.187 C 
BRANCH  35  36
HETATM   36  C11 UNL     1      33.878  59.528   9.217  1.00  0.00     0.143 C 
BRANCH  36  37
HETATM   37  N7  UNL     1      33.929  59.906   7.848  1.00  0.00    -0.407 N 
HETATM   38  C12 UNL     1      33.435  58.983   6.896  1.00  0.00     0.144 C 
HETATM   39  C13 UNL     1      32.020  59.240   6.450  1.00  0.00     0.251 C 
HETATM   40  N8  UNL     1      31.407  60.347   7.137  1.00  0.00    -0.072 N 
HETATM   41  C14 UNL     1      32.219  61.528   7.161  1.00  0.00     0.251 C 
ATOM     42  H82 UNL     1      30.487  60.551   6.746  1.00  0.00     0.277 HD
ATOM     43  H81 UNL     1      31.134  60.078   8.083  1.00  0.00     0.277 HD
HETATM   44  C15 UNL     1      33.633  61.281   7.584  1.00  0.00     0.144 C 
ENDBRANCH  36  37
ENDBRANCH  35  36
ENDBRANCH  34  35
ENDBRANCH  33  34
ENDBRANCH  32  33
ENDBRANCH   5  32
TORSDOF 11
ENDMDL
MODEL 2
REMARK VINA RESULT: -6.353565753      3.239      7.467
REMARK  11 active torsions:
REMARK  status: ('A' for Active; 'I' for Inactive)
REMARK    1  A    between atoms: C1_4  and  C2_6 
REMARK    2  A    between atoms: C4_10  and  C5_11 
REMARK       I    between atoms: C5_11  and  N4_13 
REMARK    3  A    between atoms: N4_13  and  C6_15 
REMARK    4  A    between atoms: N6_19  and  C8_21 
REMARK    5  A    between atoms: C8_21  and  C9_22 
REMARK    6  A    between atoms: C9_22  and  O2_23 
REMARK    7  A    between atoms: O2_23  and  C10_24 
REMARK    8  A    between atoms: C10_24  and  C11_25 
REMARK    9  A    between atoms: C11_25  and  N7_26 
REMARK   10  A    between atoms: C18_38  and  N10_39 
REMARK   11  A    between atoms: C19_42  and  O3_43 
ROOT
HETATM    1  C6  UNL     1      34.271  59.304   8.320  1.00  0.00     0.150 C 
HETATM    2  N5  UNL     1      33.070  58.932   7.804  1.00  0.00    -0.174 N 
ATOM      3  H5  UNL     1      32.708  58.042   8.147  1.00  0.00     0.186 HD
HETATM    4  C7  UNL     1      32.274  59.573   6.892  1.00  0.00     0.679 C 
HETATM    5  N6  UNL     1      31.069  59.175   6.850  1.00  0.00    -0.224 N 
ATOM      6  H6  UNL     1      30.794  58.424   7.484  1.00  0.00     0.177 HD
HETATM    7  N9  UNL     1      32.714  60.560   6.087  1.00  0.00    -0.202 N 
ATOM      8  H9  UNL     1      32.339  60.561   5.139  1.00  0.00     0.183 HD
HETATM    9  C16 UNL     1      33.597  61.559   6.380  1.00  0.00     0.108 C 
HETATM   10  C17 UNL     1      34.540  61.583   7.391  1.00  0.00     0.050 C 
HETATM   11  C18 UNL     1      34.939  60.501   8.162  1.00  0.00     0.072 C 
ENDROOT
BRANCH   1  12
HETATM   12  N4  UNL     1      34.881  58.437   9.054  1.00  0.00    -0.306 N 
HETATM   13  C5  UNL     1      34.165  57.555   9.915  1.00  0.00     0.262 C 
HETATM   14  O1  UNL     1      33.543  56.572   9.475  1.00  0.00    -0.267 OA
ATOM     15  H4  UNL     1      35.899  58.382   9.017  1.00  0.00     0.170 HD
BRANCH  13  16
HETATM   16  C4  UNL     1      34.176  57.838  11.376  1.00  0.00     0.098 A 
HETATM   17  C3  UNL     1      35.225  58.545  11.916  1.00  0.00     0.106 A 
HETATM   18  S1  UNL     1      34.838  58.639  13.565  1.00  0.00    -0.068 SA
HETATM   19  N3  UNL     1      36.386  59.085  11.243  1.00  0.00    -0.093 NA
HETATM   20  C2  UNL     1      33.342  57.774  13.546  1.00  0.00     0.081 A 
HETATM   21  C19 UNL     1      33.214  57.448  12.231  1.00  0.00     0.104 A 
BRANCH  20  22
HETATM   22  C1  UNL     1      32.470  57.494  14.703  1.00  0.00     0.130 C 
HETATM   23  N1  UNL     1      31.248  57.735  14.774  1.00  0.00    -0.387 N 
ATOM     24  H12 UNL     1      30.645  57.541  15.574  1.00  0.00     0.157 HD
ATOM     25  H11 UNL     1      30.804  58.161  13.961  1.00  0.00     0.157 HD
HETATM   26  N2  UNL     1      33.100  56.891  15.856  1.00  0.00    -0.082 NA
ENDBRANCH  20  22
BRANCH  21  27
HETATM   27  O3  UNL     1      32.069  56.709  11.814  1.00  0.00    -0.358 OA
ATOM     28  H3  UNL     1      31.917  56.585  10.885  1.00  0.00     0.217 HD
ENDBRANCH  21  27
ENDBRANCH  13  16
ENDBRANCH   1  12
BRANCH  11  29
HETATM   29  N10 UNL     1      36.054  60.642   8.793  1.00  0.00    -0.396 N 
ATOM     30 2H10 UNL     1      36.163  60.077   9.635  1.00  0.00     0.156 HD
ATOM     31 1H10 UNL     1      36.729  61.299   8.404  1.00  0.00     0.156 HD
ENDBRANCH  11  29
BRANCH   5  32
HETATM   32  C8  UNL     1      30.076  59.702   5.980  1.00  0.00     0.164 C 
BRANCH  32  33
HETATM   33  C9  UNL     1      29.306  60.796   6.738  1.00  0.00     0.187 C 
BRANCH  33  34
HETATM   34  O2  UNL     1      29.893  62.038   6.574  1.00  0.00    -0.388 OA
BRANCH  34  35
HETATM   35  C10 UNL     1      30.148  62.521   7.869  1.00  0.00     0.187 C 
BRANCH  35  36
HETATM   36  C11 UNL     1      31.024  63.752   7.823  1.00  0.00     0.143 C 
BRANCH  36  37
HETATM   37  N7  UNL     1      30.442  64.785   8.607  1.00  0.00    -0.407 N 
HETATM   38  C12 UNL     1      31.059  66.057   8.573  1.00  0.00     0.144 C 
HETATM   39  C13 UNL     1      30.424  67.037   7.622  1.00  0.00     0.251 C 
HETATM   40  N8  UNL     1      29.341  66.464   6.866  1.00  0.00    -0.072 N 
HETATM   41  C14 UNL     1      28.391  65.757   7.672  1.00  0.00     0.251 C 
ATOM     42  H82 UNL     1      28.877  67.177   6.304  1.00  0.00     0.277 HD
ATOM     43  H81 UNL     1      29.698  65.865   6.121  1.00  0.00     0.277 HD
HETATM   44  C15 UNL     1      29.011  64.795   8.636  1.00  0.00     0.144 C 
ENDBRANCH  36  37
ENDBRANCH  35  36
ENDBRANCH  34  35
ENDBRANCH  33  34
ENDBRANCH  32  33
ENDBRANCH   5  32
TORSDOF 11
ENDMDL
MODEL 3
REMARK VINA RESULT: -6.311115789      2.901      6.786
REMARK  11 active torsions:
REMARK  status: ('A' for Active; 'I' for Inactive)
REMARK    1  A    between atoms: C1_4  and  C2_6 
REMARK    2  A    between atoms: C4_10  and  C5_11 
REMARK       I    between atoms: C5_11  and  N4_13 
REMARK    3  A    between atoms: N4_13  and  C6_15 
REMARK    4  A    between atoms: N6_19  and  C8_21 
REMARK    5  A    between atoms: C8_21  and  C9_22 
REMARK    6  A    between atoms: C9_22  and  O2_23 
REMARK    7  A    between atoms: O2_23  and  C10_24 
REMARK    8  A    between atoms: C10_24  and  C11_25 
REMARK    9  A    between atoms: C11_25  and  N7_26 
REMARK   10  A    between atoms: C18_38  and  N10_39 
REMARK   11  A    between atoms: C19_42  and  O3_43 
ROOT
HETATM    1  C6  UNL     1      32.832  61.780  10.167  1.00  0.00     0.150 C 
HETATM    2  N5  UNL     1      32.049  61.425   9.116  1.00  0.00    -0.174 N 
ATOM      3  H5  UNL     1      32.206  60.484   8.755  1.00  0.00     0.186 HD
HETATM    4  C7  UNL     1      31.079  62.144   8.467  1.00  0.00     0.679 C 
HETATM    5  N6  UNL     1      30.282  61.458   7.754  1.00  0.00    -0.224 N 
ATOM      6  H6  UNL     1      30.424  60.448   7.721  1.00  0.00     0.177 HD
HETATM    7  N9  UNL     1      30.957  63.482   8.562  1.00  0.00    -0.202 N 
ATOM      8  H9  UNL     1      30.689  63.967   7.707  1.00  0.00     0.183 HD
HETATM    9  C16 UNL     1      31.147  64.271   9.659  1.00  0.00     0.108 C 
HETATM   10  C17 UNL     1      31.877  63.976  10.796  1.00  0.00     0.050 C 
HETATM   11  C18 UNL     1      32.757  62.914  10.950  1.00  0.00     0.072 C 
ENDROOT
BRANCH   1  12
HETATM   12  N4  UNL     1      33.776  60.963  10.490  1.00  0.00    -0.306 N 
HETATM   13  C5  UNL     1      34.431  60.159   9.511  1.00  0.00     0.262 C 
HETATM   14  O1  UNL     1      35.269  60.635   8.727  1.00  0.00    -0.267 OA
ATOM     15  H4  UNL     1      34.060  60.890  11.466  1.00  0.00     0.170 HD
BRANCH  13  16
HETATM   16  C4  UNL     1      34.084  58.713   9.445  1.00  0.00     0.098 A 
HETATM   17  C3  UNL     1      33.922  58.006  10.613  1.00  0.00     0.106 A 
HETATM   18  S1  UNL     1      33.541  56.440  10.084  1.00  0.00    -0.068 SA
HETATM   19  N3  UNL     1      34.047  58.479  11.975  1.00  0.00    -0.093 NA
HETATM   20  C2  UNL     1      33.591  56.707   8.377  1.00  0.00     0.081 A 
HETATM   21  C19 UNL     1      33.910  58.027   8.301  1.00  0.00     0.104 A 
BRANCH  20  22
HETATM   22  C1  UNL     1      33.342  55.707   7.321  1.00  0.00     0.130 C 
HETATM   23  N1  UNL     1      34.199  55.230   6.548  1.00  0.00    -0.387 N 
ATOM     24  H12 UNL     1      34.026  54.539   5.817  1.00  0.00     0.157 HD
ATOM     25  H11 UNL     1      35.159  55.555   6.652  1.00  0.00     0.157 HD
HETATM   26  N2  UNL     1      31.980  55.247   7.173  1.00  0.00    -0.082 NA
ENDBRANCH  20  22
BRANCH  21  27
HETATM   27  O3  UNL     1      34.045  58.628   7.015  1.00  0.00    -0.358 OA
ATOM     28  H3  UNL     1      33.663  59.485   6.869  1.00  0.00     0.217 HD
ENDBRANCH  21  27
ENDBRANCH  13  16
ENDBRANCH   1  12
BRANCH  11  29
HETATM   29  N10 UNL     1      33.587  63.010  11.931  1.00  0.00    -0.396 N 
ATOM     30 2H10 UNL     1      33.628  62.208  12.559  1.00  0.00     0.156 HD
ATOM     31 1H10 UNL     1      34.129  63.871  12.000  1.00  0.00     0.156 HD
ENDBRANCH  11  29
BRANCH   5  32
HETATM   32  C8  UNL     1      29.206  62.000   6.999  1.00  0.00     0.164 C 
BRANCH  32  33
HETATM   33  C9  UNL     1      28.062  60.973   6.988  1.00  0.00     0.187 C 
BRANCH  33  34
HETATM   34  O2  UNL     1      27.949  60.324   8.204  1.00  0.00    -0.388 OA
BRANCH  34  35
HETATM   35  C10 UNL     1      26.814  60.867   8.831  1.00  0.00     0.187 C 
BRANCH  35  36
HETATM   36  C11 UNL     1      27.064  61.089  10.305  1.00  0.00     0.143 C 
BRANCH  36  37
HETATM   37  N7  UNL     1      28.046  62.102  10.477  1.00  0.00    -0.407 N 
HETATM   38  C12 UNL     1      27.653  63.440  10.242  1.00  0.00     0.144 C 
HETATM   39  C13 UNL     1      27.286  64.212  11.481  1.00  0.00     0.251 C 
HETATM   40  N8  UNL     1      27.337  63.412  12.677  1.00  0.00    -0.072 N 
HETATM   41  C14 UNL     1      28.550  62.662  12.814  1.00  0.00     0.251 C 
ATOM     42  H82 UNL     1      27.174  63.988  13.504  1.00  0.00     0.277 HD
ATOM     43  H81 UNL     1      26.524  62.798  12.735  1.00  0.00     0.277 HD
HETATM   44  C15 UNL     1      28.935  61.905  11.581  1.00  0.00     0.144 C 
ENDBRANCH  36  37
ENDBRANCH  35  36
ENDBRANCH  34  35
ENDBRANCH  33  34
ENDBRANCH  32  33
ENDBRANCH   5  32
TORSDOF 11
ENDMDL
MODEL 4
REMARK VINA RESULT: -6.296546693      2.752      5.819
REMARK  11 active torsions:
REMARK  status: ('A' for Active; 'I' for Inactive)
REMARK    1  A    between atoms: C1_4  and  C2_6 
REMARK    2  A    between atoms: C4_10  and  C5_11 
REMARK       I    between atoms: C5_11  and  N4_13 
REMARK    3  A    between atoms: N4_13  and  C6_15 
REMARK    4  A    between atoms: N6_19  and  C8_21 
REMARK    5  A    between atoms: C8_21  and  C9_22 
REMARK    6  A    between atoms: C9_22  and  O2_23 
REMARK    7  A    between atoms: O2_23  and  C10_24 
REMARK    8  A    between atoms: C10_24  and  C11_25 
REMARK    9  A    between atoms: C11_25  and  N7_26 
REMARK   10  A    between atoms: C18_38  and  N10_39 
REMARK   11  A    between atoms: C19_42  and  O3_43 
ROOT
HETATM    1  C6  UNL     1      35.114  58.551  10.812  1.00  0.00     0.150 C 
HETATM    2  N5  UNL     1      35.988  59.519  11.194  1.00  0.00    -0.174 N 
ATOM      3  H5  UNL     1      36.453  60.009  10.430  1.00  0.00     0.186 HD
HETATM    4  C7  UNL     1      36.337  59.934  12.452  1.00  0.00     0.679 C 
HETATM    5  N6  UNL     1      36.907  61.068  12.510  1.00  0.00    -0.224 N 
ATOM      6  H6  UNL     1      37.057  61.569  11.634  1.00  0.00     0.177 HD
HETATM    7  N9  UNL     1      36.102  59.212  13.564  1.00  0.00    -0.202 N 
ATOM      8  H9  UNL     1      36.830  59.243  14.277  1.00  0.00     0.183 HD
HETATM    9  C16 UNL     1      35.013  58.443  13.858  1.00  0.00     0.108 C 
HETATM   10  C17 UNL     1      34.100  57.898  12.975  1.00  0.00     0.050 C 
HETATM   11  C18 UNL     1      34.241  57.825  11.596  1.00  0.00     0.072 C 
ENDROOT
BRANCH   1  12
HETATM   12  N4  UNL     1      35.084  58.258   9.557  1.00  0.00    -0.306 N 
HETATM   13  C5  UNL     1      35.055  59.274   8.556  1.00  0.00     0.262 C 
HETATM   14  O1  UNL     1      36.068  59.930   8.260  1.00  0.00    -0.267 OA
ATOM     15  H4  UNL     1      35.082  57.278   9.274  1.00  0.00     0.170 HD
BRANCH  13  16
HETATM   16  C4  UNL     1      33.766  59.536   7.861  1.00  0.00     0.098 A 
HETATM   17  C3  UNL     1      33.198  58.544   7.098  1.00  0.00     0.106 A 
HETATM   18  S1  UNL     1      31.775  59.255   6.509  1.00  0.00    -0.068 SA
HETATM   19  N3  UNL     1      33.692  57.206   6.850  1.00  0.00    -0.093 NA
HETATM   20  C2  UNL     1      31.920  60.811   7.246  1.00  0.00     0.081 A 
HETATM   21  C19 UNL     1      33.093  60.699   7.927  1.00  0.00     0.104 A 
BRANCH  20  22
HETATM   22  C1  UNL     1      30.973  61.936   7.125  1.00  0.00     0.130 C 
HETATM   23  N1  UNL     1      30.254  62.183   6.135  1.00  0.00    -0.387 N 
ATOM     24  H12 UNL     1      29.599  62.962   6.050  1.00  0.00     0.157 HD
ATOM     25  H11 UNL     1      30.320  61.554   5.335  1.00  0.00     0.157 HD
HETATM   26  N2  UNL     1      30.879  62.829   8.257  1.00  0.00    -0.082 NA
ENDBRANCH  20  22
BRANCH  21  27
HETATM   27  O3  UNL     1      33.560  61.817   8.680  1.00  0.00    -0.358 OA
ATOM     28  H3  UNL     1      34.374  61.735   9.161  1.00  0.00     0.217 HD
ENDBRANCH  21  27
ENDBRANCH  13  16
ENDBRANCH   1  12
BRANCH  11  29
HETATM   29  N10 UNL     1      33.469  56.984  10.997  1.00  0.00    -0.396 N 
ATOM     30 2H10 UNL     1      33.445  57.051   9.979  1.00  0.00     0.156 HD
ATOM     31 1H10 UNL     1      32.950  56.330  11.581  1.00  0.00     0.156 HD
ENDBRANCH  11  29
BRANCH   5  32
HETATM   32  C8  UNL     1      37.349  61.688  13.710  1.00  0.00     0.164 C 
BRANCH  32  33
HETATM   33  C9  UNL     1      36.382  62.835  14.043  1.00  0.00     0.187 C 
BRANCH  33  34
HETATM   34  O2  UNL     1      35.861  63.411  12.899  1.00  0.00    -0.388 OA
BRANCH  34  35
HETATM   35  C10 UNL     1      34.675  64.055  13.292  1.00  0.00     0.187 C 
BRANCH  35  36
HETATM   36  C11 UNL     1      33.543  63.726  12.348  1.00  0.00     0.143 C 
BRANCH  36  37
HETATM   37  N7  UNL     1      32.630  62.840  12.982  1.00  0.00    -0.407 N 
HETATM   38  C12 UNL     1      31.255  63.164  12.920  1.00  0.00     0.144 C 
HETATM   39  C13 UNL     1      30.493  62.452  11.833  1.00  0.00     0.251 C 
HETATM   40  N8  UNL     1      31.333  61.622  11.009  1.00  0.00    -0.072 N 
HETATM   41  C14 UNL     1      32.195  60.757  11.759  1.00  0.00     0.251 C 
ATOM     42  H82 UNL     1      30.772  61.086  10.347  1.00  0.00     0.277 HD
ATOM     43  H81 UNL     1      31.871  62.190  10.356  1.00  0.00     0.277 HD
HETATM   44  C15 UNL     1      32.943  61.450  12.855  1.00  0.00     0.144 C 
ENDBRANCH  36  37
ENDBRANCH  35  36
ENDBRANCH  34  35
ENDBRANCH  33  34
ENDBRANCH  32  33
ENDBRANCH   5  32
TORSDOF 11
ENDMDL
MODEL 5
REMARK VINA RESULT: -6.238923988      3.668      5.705
REMARK  11 active torsions:
REMARK  status: ('A' for Active; 'I' for Inactive)
REMARK    1  A    between atoms: C1_4  and  C2_6 
REMARK    2  A    between atoms: C4_10  and  C5_11 
REMARK       I    between atoms: C5_11  and  N4_13 
REMARK    3  A    between atoms: N4_13  and  C6_15 
REMARK    4  A    between atoms: N6_19  and  C8_21 
REMARK    5  A    between atoms: C8_21  and  C9_22 
REMARK    6  A    between atoms: C9_22  and  O2_23 
REMARK    7  A    between atoms: O2_23  and  C10_24 
REMARK    8  A    between atoms: C10_24  and  C11_25 
REMARK    9  A    between atoms: C11_25  and  N7_26 
REMARK   10  A    between atoms: C18_38  and  N10_39 
REMARK   11  A    between atoms: C19_42  and  O3_43 
ROOT
HETATM    1  C6  UNL     1      29.972  63.722   8.870  1.00  0.00     0.150 C 
HETATM    2  N5  UNL     1      31.233  63.672   8.366  1.00  0.00    -0.174 N 
ATOM      3  H5  UNL     1      31.853  64.421   8.675  1.00  0.00     0.186 HD
HETATM    4  C7  UNL     1      31.796  62.767   7.506  1.00  0.00     0.679 C 
HETATM    5  N6  UNL     1      33.066  62.766   7.474  1.00  0.00    -0.224 N 
ATOM      6  H6  UNL     1      33.557  63.426   8.079  1.00  0.00     0.177 HD
HETATM    7  N9  UNL     1      31.077  61.925   6.738  1.00  0.00    -0.202 N 
ATOM      8  H9  UNL     1      31.441  61.756   5.801  1.00  0.00     0.183 HD
HETATM    9  C16 UNL     1      29.923  61.269   7.057  1.00  0.00     0.108 C 
HETATM   10  C17 UNL     1      29.011  61.594   8.044  1.00  0.00     0.050 C 
HETATM   11  C18 UNL     1      28.964  62.786   8.753  1.00  0.00     0.072 C 
ENDROOT
BRANCH   1  12
HETATM   12  N4  UNL     1      29.657  64.773   9.545  1.00  0.00    -0.306 N 
HETATM   13  C5  UNL     1      29.163  65.948   8.906  1.00  0.00     0.262 C 
HETATM   14  O1  UNL     1      27.999  66.018   8.475  1.00  0.00    -0.267 OA
ATOM     15  H4  UNL     1      29.765  64.765  10.559  1.00  0.00     0.170 HD
BRANCH  13  16
HETATM   16  C4  UNL     1      30.084  67.108   8.761  1.00  0.00     0.098 A 
HETATM   17  C3  UNL     1      30.648  67.664   9.886  1.00  0.00     0.106 A 
HETATM   18  S1  UNL     1      31.605  68.923   9.273  1.00  0.00    -0.068 SA
HETATM   19  N3  UNL     1      30.471  67.272  11.267  1.00  0.00    -0.093 NA
HETATM   20  C2  UNL     1      31.275  68.725   7.589  1.00  0.00     0.081 A 
HETATM   21  C19 UNL     1      30.418  67.668   7.585  1.00  0.00     0.104 A 
BRANCH  20  22
HETATM   22  C1  UNL     1      31.819  69.537   6.482  1.00  0.00     0.130 C 
HETATM   23  N1  UNL     1      31.568  69.382   5.270  1.00  0.00    -0.387 N 
ATOM     24  H12 UNL     1      31.944  69.943   4.505  1.00  0.00     0.157 HD
ATOM     25  H11 UNL     1      30.928  68.631   5.013  1.00  0.00     0.157 HD
HETATM   26  N2  UNL     1      32.726  70.601   6.846  1.00  0.00    -0.082 NA
ENDBRANCH  20  22
BRANCH  21  27
HETATM   27  O3  UNL     1      29.911  67.199   6.338  1.00  0.00    -0.358 OA
ATOM     28  H3  UNL     1      29.386  66.407   6.326  1.00  0.00     0.217 HD
ENDBRANCH  21  27
ENDBRANCH  13  16
ENDBRANCH   1  12
BRANCH  11  29
HETATM   29  N10 UNL     1      27.856  63.034   9.362  1.00  0.00    -0.396 N 
ATOM     30 2H10 UNL     1      27.054  63.230   8.762  1.00  0.00     0.156 HD
ATOM     31 1H10 UNL     1      27.869  63.015  10.381  1.00  0.00     0.156 HD
ENDBRANCH  11  29
BRANCH   5  32
HETATM   32  C8  UNL     1      33.852  61.909   6.656  1.00  0.00     0.164 C 
BRANCH  32  33
HETATM   33  C9  UNL     1      34.224  60.666   7.480  1.00  0.00     0.187 C 
BRANCH  33  34
HETATM   34  O2  UNL     1      33.276  59.667   7.352  1.00  0.00    -0.388 OA
BRANCH  34  35
HETATM   35  C10 UNL     1      33.693  58.625   8.199  1.00  0.00     0.187 C 
BRANCH  35  36
HETATM   36  C11 UNL     1      33.710  59.075   9.641  1.00  0.00     0.143 C 
BRANCH  36  37
HETATM   37  N7  UNL     1      34.295  58.065  10.452  1.00  0.00    -0.407 N 
HETATM   38  C12 UNL     1      34.331  58.287  11.848  1.00  0.00     0.144 C 
HETATM   39  C13 UNL     1      33.215  57.630  12.617  1.00  0.00     0.251 C 
HETATM   40  N8  UNL     1      32.272  56.950  11.767  1.00  0.00    -0.072 N 
HETATM   41  C14 UNL     1      32.888  56.084  10.806  1.00  0.00     0.251 C 
ATOM     42  H82 UNL     1      31.587  56.440  12.324  1.00  0.00     0.277 HD
ATOM     43  H81 UNL     1      31.655  57.619  11.307  1.00  0.00     0.277 HD
HETATM   44  C15 UNL     1      34.012  56.721  10.049  1.00  0.00     0.144 C 
ENDBRANCH  36  37
ENDBRANCH  35  36
ENDBRANCH  34  35
ENDBRANCH  33  34
ENDBRANCH  32  33
ENDBRANCH   5  32
TORSDOF 11
ENDMDL
