MODEL 1
REMARK VINA RESULT: -6.818238441      0.000      0.000
REMARK  10 active torsions:
REMARK  status: ('A' for Active; 'I' for Inactive)
REMARK    1  A    between atoms: C2_2  and  N1_3 
REMARK    2  A    between atoms: C2_2  and  C3_7 
REMARK    3  A    between atoms: C2_2  and  C6_14 
REMARK    4  A    between atoms: C3_7  and  C4_8 
REMARK    5  A    between atoms: C4_8  and  C5_9 
REMARK    6  A    between atoms: C5_9  and  N2_10 
REMARK    7  A    between atoms: C6_14  and  C7_15 
REMARK    8  A    between atoms: C7_15  and  C8_16 
REMARK    9  A    between atoms: C8_16  and  C9_17 
REMARK       I    between atoms: C9_17  and  N3_19 
REMARK   10  A    between atoms: N4_23  and  N5_24 
ROOT
HETATM    1  C9  UNL     1      30.402  65.043  11.852  1.00  0.00     0.226 C 
HETATM    2  O1  UNL     1      29.490  65.219  12.707  1.00  0.00    -0.273 OA
HETATM    3  N3  UNL     1      30.986  63.721  11.810  1.00  0.00    -0.287 N 
HETATM    4  C10 UNL     1      32.052  63.418  10.855  1.00  0.00     0.137 C 
HETATM    5  C11 UNL     1      31.567  62.450   9.801  1.00  0.00     0.042 C 
HETATM    6  C12 UNL     1      31.897  62.963   8.437  1.00  0.00     0.143 C 
HETATM    7  N4  UNL     1      32.271  61.935   7.520  1.00  0.00    -0.333 N 
HETATM    8  C13 UNL     1      33.651  61.895   7.155  1.00  0.00     0.169 C 
HETATM    9  C14 UNL     1      34.475  60.910   7.939  1.00  0.00     0.253 C 
HETATM   10  N6  UNL     1      34.318  59.574   7.349  1.00  0.00    -0.072 N 
ATOM     11  H61 UNL     1      34.484  59.558   6.343  1.00  0.00     0.277 HD
ATOM     12  H62 UNL     1      33.348  59.258   7.325  1.00  0.00     0.277 HD
HETATM   13  C15 UNL     1      35.185  58.688   8.082  1.00  0.00     0.259 C 
HETATM   14  C16 UNL     1      34.708  58.474   9.499  1.00  0.00     0.259 C 
HETATM   15  N7  UNL     1      34.479  57.058   9.786  1.00  0.00    -0.072 N 
ATOM     16  H71 UNL     1      35.180  56.678  10.422  1.00  0.00     0.277 HD
ATOM     17  H72 UNL     1      34.677  56.467   8.978  1.00  0.00     0.277 HD
HETATM   18  C17 UNL     1      33.115  56.868  10.289  1.00  0.00     0.259 C 
HETATM   19  C18 UNL     1      33.054  57.273  11.729  1.00  0.00     0.259 C 
HETATM   20  N8  UNL     1      32.118  58.387  11.944  1.00  0.00    -0.072 N 
ATOM     21  H81 UNL     1      31.329  58.355  11.298  1.00  0.00     0.277 HD
ATOM     22  H82 UNL     1      32.511  59.281  11.651  1.00  0.00     0.277 HD
HETATM   23  C19 UNL     1      31.695  58.404  13.314  1.00  0.00     0.259 C 
HETATM   24  C20 UNL     1      30.451  59.241  13.485  1.00  0.00     0.260 C 
HETATM   25  N9  UNL     1      30.442  60.306  12.503  1.00  0.00    -0.065 N 
ATOM     26  H91 UNL     1      29.490  60.585  12.266  1.00  0.00     0.277 HD
ATOM     27  H92 UNL     1      30.743  59.970  11.588  1.00  0.00     0.277 HD
HETATM   28  C21 UNL     1      31.229  61.434  12.934  1.00  0.00     0.335 C 
HETATM   29  C22 UNL     1      30.525  62.736  12.687  1.00  0.00     0.252 C 
HETATM   30  O2  UNL     1      29.442  62.912  13.340  1.00  0.00    -0.271 OA
ENDROOT
BRANCH   1  31
HETATM   31  C8  UNL     1      30.881  66.092  10.927  1.00  0.00     0.103 C 
BRANCH  31  32
HETATM   32  C7  UNL     1      30.137  66.186   9.636  1.00  0.00     0.012 C 
BRANCH  32  33
HETATM   33  C6  UNL     1      30.255  67.567   8.971  1.00  0.00     0.038 C 
BRANCH  33  34
HETATM   34  C2  UNL     1      30.547  67.423   7.514  1.00  0.00     0.120 C 
HETATM   35  C1  UNL     1      31.567  66.376   7.198  1.00  0.00     0.046 C 
BRANCH  34  36
HETATM   36  N1  UNL     1      29.262  66.806   6.987  1.00  0.00    -0.071 N 
ATOM     37  H13 UNL     1      29.320  66.444   6.035  1.00  0.00     0.275 HD
ATOM     38  H12 UNL     1      29.007  65.917   7.417  1.00  0.00     0.275 HD
ATOM     39  H11 UNL     1      28.583  67.555   7.119  1.00  0.00     0.275 HD
ENDBRANCH  34  36
BRANCH  34  40
HETATM   40  C3  UNL     1      30.649  68.695   6.781  1.00  0.00     0.040 C 
BRANCH  40  41
HETATM   41  C4  UNL     1      31.920  69.116   6.181  1.00  0.00     0.030 C 
BRANCH  41  42
HETATM   42  C5  UNL     1      32.021  70.475   5.592  1.00  0.00     0.230 C 
BRANCH  42  43
HETATM   43  N2  UNL     1      30.984  70.650   4.543  1.00  0.00    -0.079 N 
ATOM     44  H23 UNL     1      30.039  70.605   4.927  1.00  0.00     0.274 HD
ATOM     45  H22 UNL     1      30.955  71.607   4.190  1.00  0.00     0.274 HD
ATOM     46  H21 UNL     1      31.126  69.971   3.795  1.00  0.00     0.274 HD
ENDBRANCH  42  43
ENDBRANCH  41  42
ENDBRANCH  40  41
ENDBRANCH  34  40
ENDBRANCH  33  34
ENDBRANCH  32  33
ENDBRANCH  31  32
ENDBRANCH   1  31
BRANCH   7  47
HETATM   47  N5  UNL     1      31.684  60.706   7.711  1.00  0.00    -0.347 N 
ATOM     48  H52 UNL     1      31.865  60.022   6.977  1.00  0.00     0.176 HD
ATOM     49  H51 UNL     1      31.690  60.347   8.666  1.00  0.00     0.176 HD
ENDBRANCH   7  47
TORSDOF 10
ENDMDL
MODEL 2
REMARK VINA RESULT: -6.752266641      1.896      2.443
REMARK  10 active torsions:
REMARK  status: ('A' for Active; 'I' for Inactive)
REMARK    1  A    between atoms: C2_2  and  N1_3 
REMARK    2  A    between atoms: C2_2  and  C3_7 
REMARK    3  A    between atoms: C2_2  and  C6_14 
REMARK    4  A    between atoms: C3_7  and  C4_8 
REMARK    5  A    between atoms: C4_8  and  C5_9 
REMARK    6  A    between atoms: C5_9  and  N2_10 
REMARK    7  A    between atoms: C6_14  and  C7_15 
REMARK    8  A    between atoms: C7_15  and  C8_16 
REMARK    9  A    between atoms: C8_16  and  C9_17 
REMARK       I    between atoms: C9_17  and  N3_19 
REMARK   10  A    between atoms: N4_23  and  N5_24 
ROOT
HETATM    1  C9  UNL     1      29.672  65.517   8.904  1.00  0.00     0.226 C 
HETATM    2  O1  UNL     1      28.512  65.925   9.191  1.00  0.00    -0.273 OA
HETATM    3  N3  UNL     1      30.135  64.358   9.633  1.00  0.00    -0.287 N 
HETATM    4  C10 UNL     1      31.466  63.810   9.374  1.00  0.00     0.137 C 
HETATM    5  C11 UNL     1      31.369  62.456   8.711  1.00  0.00     0.042 C 
HETATM    6  C12 UNL     1      32.240  62.410   7.498  1.00  0.00     0.143 C 
HETATM    7  N4  UNL     1      32.872  61.145   7.302  1.00  0.00    -0.333 N 
HETATM    8  C13 UNL     1      34.279  61.106   7.545  1.00  0.00     0.169 C 
HETATM    9  C14 UNL     1      34.662  60.610   8.912  1.00  0.00     0.253 C 
HETATM   10  N6  UNL     1      34.659  59.141   8.910  1.00  0.00    -0.072 N 
ATOM     11  H61 UNL     1      35.204  58.740   8.147  1.00  0.00     0.277 HD
ATOM     12  H62 UNL     1      33.757  58.743   8.648  1.00  0.00     0.277 HD
HETATM   13  C15 UNL     1      35.108  58.719  10.211  1.00  0.00     0.259 C 
HETATM   14  C16 UNL     1      34.102  59.043  11.290  1.00  0.00     0.259 C 
HETATM   15  N7  UNL     1      33.684  57.846  12.019  1.00  0.00    -0.072 N 
ATOM     16  H71 UNL     1      34.052  57.828  12.970  1.00  0.00     0.277 HD
ATOM     17  H72 UNL     1      34.142  57.004  11.667  1.00  0.00     0.277 HD
HETATM   18  C17 UNL     1      32.223  57.732  11.991  1.00  0.00     0.259 C 
HETATM   19  C18 UNL     1      31.630  58.673  12.994  1.00  0.00     0.259 C 
HETATM   20  N8  UNL     1      30.762  59.674  12.358  1.00  0.00    -0.072 N 
ATOM     21  H81 UNL     1      30.288  59.305  11.534  1.00  0.00     0.277 HD
ATOM     22  H82 UNL     1      31.298  60.412  11.901  1.00  0.00     0.277 HD
HETATM   23  C19 UNL     1      29.839  60.196  13.325  1.00  0.00     0.259 C 
HETATM   24  C20 UNL     1      28.687  60.897  12.647  1.00  0.00     0.260 C 
HETATM   25  N9  UNL     1      29.134  61.471  11.395  1.00  0.00    -0.065 N 
ATOM     26  H91 UNL     1      28.372  61.531  10.720  1.00  0.00     0.277 HD
ATOM     27  H92 UNL     1      29.746  60.830  10.889  1.00  0.00     0.277 HD
HETATM   28  C21 UNL     1      29.764  62.752  11.592  1.00  0.00     0.335 C 
HETATM   29  C22 UNL     1      29.303  63.765  10.586  1.00  0.00     0.252 C 
HETATM   30  O2  UNL     1      28.065  64.075  10.640  1.00  0.00    -0.271 OA
ENDROOT
BRANCH   1  31
HETATM   31  C8  UNL     1      30.544  66.151   7.892  1.00  0.00     0.103 C 
BRANCH  31  32
HETATM   32  C7  UNL     1      30.704  67.628   8.029  1.00  0.00     0.012 C 
BRANCH  32  33
HETATM   33  C6  UNL     1      31.945  68.028   8.844  1.00  0.00     0.038 C 
BRANCH  33  34
HETATM   34  C2  UNL     1      32.465  69.351   8.390  1.00  0.00     0.120 C 
HETATM   35  C1  UNL     1      31.893  70.517   9.130  1.00  0.00     0.046 C 
BRANCH  34  36
HETATM   36  N1  UNL     1      33.904  69.319   8.880  1.00  0.00    -0.071 N 
ATOM     37  H13 UNL     1      34.025  68.960   9.827  1.00  0.00     0.275 HD
ATOM     38  H12 UNL     1      34.493  68.618   8.431  1.00  0.00     0.275 HD
ATOM     39  H11 UNL     1      34.208  70.283   8.745  1.00  0.00     0.275 HD
ENDBRANCH  34  36
BRANCH  34  40
HETATM   40  C3  UNL     1      32.598  69.488   6.930  1.00  0.00     0.040 C 
BRANCH  40  41
HETATM   41  C4  UNL     1      32.168  70.715   6.249  1.00  0.00     0.030 C 
BRANCH  41  42
HETATM   42  C5  UNL     1      30.774  70.807   5.746  1.00  0.00     0.230 C 
BRANCH  42  43
HETATM   43  N2  UNL     1      30.765  70.736   4.263  1.00  0.00    -0.079 N 
ATOM     44  H23 UNL     1      31.369  71.444   3.842  1.00  0.00     0.274 HD
ATOM     45  H22 UNL     1      31.245  69.906   3.916  1.00  0.00     0.274 HD
ATOM     46  H21 UNL     1      29.808  70.796   3.917  1.00  0.00     0.274 HD
ENDBRANCH  42  43
ENDBRANCH  41  42
ENDBRANCH  40  41
ENDBRANCH  34  40
ENDBRANCH  33  34
ENDBRANCH  32  33
ENDBRANCH  31  32
ENDBRANCH   1  31
BRANCH   7  47
HETATM   47  N5  UNL     1      32.176  60.042   7.738  1.00  0.00    -0.347 N 
ATOM     48  H52 UNL     1      31.272  60.244   8.165  1.00  0.00     0.176 HD
ATOM     49  H51 UNL     1      32.210  59.220   7.137  1.00  0.00     0.176 HD
ENDBRANCH   7  47
TORSDOF 10
ENDMDL
MODEL 3
REMARK VINA RESULT: -6.688141570      2.450      3.158
REMARK  10 active torsions:
REMARK  status: ('A' for Active; 'I' for Inactive)
REMARK    1  A    between atoms: C2_2  and  N1_3 
REMARK    2  A    between atoms: C2_2  and  C3_7 
REMARK    3  A    between atoms: C2_2  and  C6_14 
REMARK    4  A    between atoms: C3_7  and  C4_8 
REMARK    5  A    between atoms: C4_8  and  C5_9 
REMARK    6  A    between atoms: C5_9  and  N2_10 
REMARK    7  A    between atoms: C6_14  and  C7_15 
REMARK    8  A    between atoms: C7_15  and  C8_16 
REMARK    9  A    between atoms: C8_16  and  C9_17 
REMARK       I    between atoms: C9_17  and  N3_19 
REMARK   10  A    between atoms: N4_23  and  N5_24 
ROOT
HETATM    1  C9  UNL     1      30.339  65.243   8.383  1.00  0.00     0.226 C 
HETATM    2  O1  UNL     1      29.179  65.722   8.525  1.00  0.00    -0.273 OA
HETATM    3  N3  UNL     1      30.674  64.126   9.237  1.00  0.00    -0.287 N 
HETATM    4  C10 UNL     1      31.994  63.503   9.150  1.00  0.00     0.137 C 
HETATM    5  C11 UNL     1      31.892  62.107   8.582  1.00  0.00     0.042 C 
HETATM    6  C12 UNL     1      32.869  61.929   7.466  1.00  0.00     0.143 C 
HETATM    7  N4  UNL     1      33.453  60.628   7.426  1.00  0.00    -0.333 N 
HETATM    8  C13 UNL     1      34.828  60.548   7.807  1.00  0.00     0.169 C 
HETATM    9  C14 UNL     1      35.055  60.144   9.238  1.00  0.00     0.253 C 
HETATM   10  N6  UNL     1      34.979  58.680   9.342  1.00  0.00    -0.072 N 
ATOM     11  H61 UNL     1      35.573  58.198   8.668  1.00  0.00     0.277 HD
ATOM     12  H62 UNL     1      34.087  58.301   9.023  1.00  0.00     0.277 HD
HETATM   13  C15 UNL     1      35.282  58.342  10.709  1.00  0.00     0.259 C 
HETATM   14  C16 UNL     1      34.196  58.791  11.658  1.00  0.00     0.259 C 
HETATM   15  N7  UNL     1      33.653  57.673  12.428  1.00  0.00    -0.072 N 
ATOM     16  H71 UNL     1      33.928  57.713  13.409  1.00  0.00     0.277 HD
ATOM     17  H72 UNL     1      34.098  56.788  12.185  1.00  0.00     0.277 HD
HETATM   18  C17 UNL     1      32.196  57.620  12.266  1.00  0.00     0.259 C 
HETATM   19  C18 UNL     1      31.560  58.660  13.136  1.00  0.00     0.259 C 
HETATM   20  N8  UNL     1      30.807  59.646  12.346  1.00  0.00    -0.072 N 
ATOM     21  H81 UNL     1      30.394  59.234  11.509  1.00  0.00     0.277 HD
ATOM     22  H82 UNL     1      31.419  60.322  11.891  1.00  0.00     0.277 HD
HETATM   23  C19 UNL     1      29.824  60.280  13.177  1.00  0.00     0.259 C 
HETATM   24  C20 UNL     1      28.777  60.974  12.340  1.00  0.00     0.260 C 
HETATM   25  N9  UNL     1      29.368  61.430  11.100  1.00  0.00    -0.065 N 
ATOM     26  H91 UNL     1      28.677  61.470  10.351  1.00  0.00     0.277 HD
ATOM     27  H92 UNL     1      29.992  60.726  10.705  1.00  0.00     0.277 HD
HETATM   28  C21 UNL     1      30.040  62.695  11.263  1.00  0.00     0.335 C 
HETATM   29  C22 UNL     1      29.726  63.645  10.145  1.00  0.00     0.252 C 
HETATM   30  O2  UNL     1      28.506  64.010  10.055  1.00  0.00    -0.271 OA
ENDROOT
BRANCH   1  31
HETATM   31  C8  UNL     1      31.334  65.759   7.418  1.00  0.00     0.103 C 
BRANCH  31  32
HETATM   32  C7  UNL     1      31.208  67.210   7.093  1.00  0.00     0.012 C 
BRANCH  32  33
HETATM   33  C6  UNL     1      31.784  68.124   8.187  1.00  0.00     0.038 C 
BRANCH  33  34
HETATM   34  C2  UNL     1      32.363  69.361   7.584  1.00  0.00     0.120 C 
HETATM   35  C1  UNL     1      32.216  69.440   6.098  1.00  0.00     0.046 C 
BRANCH  34  36
HETATM   36  N1  UNL     1      31.407  70.437   8.071  1.00  0.00    -0.071 N 
ATOM     37  H13 UNL     1      30.598  70.594   7.470  1.00  0.00     0.275 HD
ATOM     38  H12 UNL     1      30.869  70.187   8.901  1.00  0.00     0.275 HD
ATOM     39  H11 UNL     1      32.018  71.245   8.185  1.00  0.00     0.275 HD
ENDBRANCH  34  36
BRANCH  34  40
HETATM   40  C3  UNL     1      33.660  69.768   8.147  1.00  0.00     0.040 C 
BRANCH  40  41
HETATM   41  C4  UNL     1      34.129  69.219   9.426  1.00  0.00     0.030 C 
BRANCH  41  42
HETATM   42  C5  UNL     1      35.462  69.626   9.937  1.00  0.00     0.230 C 
BRANCH  42  43
HETATM   43  N2  UNL     1      36.164  68.451  10.513  1.00  0.00    -0.079 N 
ATOM     44  H23 UNL     1      35.952  68.326  11.504  1.00  0.00     0.274 HD
ATOM     45  H22 UNL     1      35.783  67.571  10.167  1.00  0.00     0.274 HD
ATOM     46  H21 UNL     1      37.167  68.526  10.344  1.00  0.00     0.274 HD
ENDBRANCH  42  43
ENDBRANCH  41  42
ENDBRANCH  40  41
ENDBRANCH  34  40
ENDBRANCH  33  34
ENDBRANCH  32  33
ENDBRANCH  31  32
ENDBRANCH   1  31
BRANCH   7  47
HETATM   47  N5  UNL     1      32.665  59.593   7.872  1.00  0.00    -0.347 N 
ATOM     48  H52 UNL     1      32.653  58.770   7.270  1.00  0.00     0.176 HD
ATOM     49  H51 UNL     1      32.683  59.411   8.875  1.00  0.00     0.176 HD
ENDBRANCH   7  47
TORSDOF 10
ENDMDL
MODEL 4
REMARK VINA RESULT: -6.597982454      3.781      8.332
REMARK  10 active torsions:
REMARK  status: ('A' for Active; 'I' for Inactive)
REMARK    1  A    between atoms: C2_2  and  N1_3 
REMARK    2  A    between atoms: C2_2  and  C3_7 
REMARK    3  A    between atoms: C2_2  and  C6_14 
REMARK    4  A    between atoms: C3_7  and  C4_8 
REMARK    5  A    between atoms: C4_8  and  C5_9 
REMARK    6  A    between atoms: C5_9  and  N2_10 
REMARK    7  A    between atoms: C6_14  and  C7_15 
REMARK    8  A    between atoms: C7_15  and  C8_16 
REMARK    9  A    between atoms: C8_16  and  C9_17 
REMARK       I    between atoms: C9_17  and  N3_19 
REMARK   10  A    between atoms: N4_23  and  N5_24 
ROOT
HETATM    1  C9  UNL     1      35.124  60.118   9.134  1.00  0.00     0.226 C 
HETATM    2  O1  UNL     1      36.227  59.903   9.709  1.00  0.00    -0.273 OA
HETATM    3  N3  UNL     1      34.047  60.584   9.978  1.00  0.00    -0.287 N 
HETATM    4  C10 UNL     1      32.729  60.858   9.406  1.00  0.00     0.137 C 
HETATM    5  C11 UNL     1      32.429  62.339   9.439  1.00  0.00     0.042 C 
HETATM    6  C12 UNL     1      31.973  62.805   8.094  1.00  0.00     0.143 C 
HETATM    7  N4  UNL     1      30.950  63.798   8.156  1.00  0.00    -0.333 N 
HETATM    8  C13 UNL     1      29.644  63.376   7.759  1.00  0.00     0.169 C 
HETATM    9  C14 UNL     1      28.743  62.984   8.897  1.00  0.00     0.253 C 
HETATM   10  N6  UNL     1      28.138  64.193   9.471  1.00  0.00    -0.072 N 
ATOM     11  H61 UNL     1      27.699  64.792   8.772  1.00  0.00     0.277 HD
ATOM     12  H62 UNL     1      28.827  64.867   9.805  1.00  0.00     0.277 HD
HETATM   13  C15 UNL     1      27.227  63.759  10.498  1.00  0.00     0.259 C 
HETATM   14  C16 UNL     1      27.951  63.166  11.684  1.00  0.00     0.259 C 
HETATM   15  N7  UNL     1      27.626  63.868  12.924  1.00  0.00    -0.072 N 
ATOM     16  H71 UNL     1      27.046  63.303  13.545  1.00  0.00     0.277 HD
ATOM     17  H72 UNL     1      26.972  64.636  12.770  1.00  0.00     0.277 HD
HETATM   18  C17 UNL     1      28.859  64.317  13.579  1.00  0.00     0.259 C 
HETATM   19  C18 UNL     1      29.499  63.160  14.283  1.00  0.00     0.259 C 
HETATM   20  N8  UNL     1      30.838  62.870  13.751  1.00  0.00    -0.072 N 
ATOM     21  H81 UNL     1      31.316  63.712  13.432  1.00  0.00     0.277 HD
ATOM     22  H82 UNL     1      30.798  62.376  12.859  1.00  0.00     0.277 HD
HETATM   23  C19 UNL     1      31.602  62.153  14.732  1.00  0.00     0.259 C 
HETATM   24  C20 UNL     1      33.075  62.199  14.406  1.00  0.00     0.260 C 
HETATM   25  N9  UNL     1      33.255  62.273  12.971  1.00  0.00    -0.065 N 
ATOM     26  H91 UNL     1      34.123  62.752  12.730  1.00  0.00     0.277 HD
ATOM     27  H92 UNL     1      32.591  62.920  12.546  1.00  0.00     0.277 HD
HETATM   28  C21 UNL     1      33.185  60.971  12.357  1.00  0.00     0.335 C 
HETATM   29  C22 UNL     1      34.274  60.769  11.345  1.00  0.00     0.252 C 
HETATM   30  O2  UNL     1      35.465  60.775  11.803  1.00  0.00    -0.271 OA
ENDROOT
BRANCH   1  31
HETATM   31  C8  UNL     1      34.895  59.920   7.686  1.00  0.00     0.103 C 
BRANCH  31  32
HETATM   32  C7  UNL     1      34.824  58.496   7.245  1.00  0.00     0.012 C 
BRANCH  32  33
HETATM   33  C6  UNL     1      33.388  57.949   7.200  1.00  0.00     0.038 C 
BRANCH  33  34
HETATM   34  C2  UNL     1      33.345  56.550   7.718  1.00  0.00     0.120 C 
HETATM   35  C1  UNL     1      32.101  55.804   7.354  1.00  0.00     0.046 C 
BRANCH  34  36
HETATM   36  N1  UNL     1      34.406  55.860   6.876  1.00  0.00    -0.071 N 
ATOM     37  H13 UNL     1      34.471  54.852   7.012  1.00  0.00     0.275 HD
ATOM     38  H12 UNL     1      34.197  55.814   5.879  1.00  0.00     0.275 HD
ATOM     39  H11 UNL     1      35.251  56.380   7.112  1.00  0.00     0.275 HD
ENDBRANCH  34  36
BRANCH  34  40
HETATM   40  C3  UNL     1      33.837  56.392   9.096  1.00  0.00     0.040 C 
BRANCH  40  41
HETATM   41  C4  UNL     1      32.902  56.330  10.225  1.00  0.00     0.030 C 
BRANCH  41  42
HETATM   42  C5  UNL     1      33.118  57.226  11.388  1.00  0.00     0.230 C 
BRANCH  42  43
HETATM   43  N2  UNL     1      31.833  57.459  12.095  1.00  0.00    -0.079 N 
ATOM     44  H23 UNL     1      31.028  57.239  11.508  1.00  0.00     0.274 HD
ATOM     45  H22 UNL     1      31.672  56.772  12.831  1.00  0.00     0.274 HD
ATOM     46  H21 UNL     1      31.798  58.414  12.449  1.00  0.00     0.274 HD
ENDBRANCH  42  43
ENDBRANCH  41  42
ENDBRANCH  40  41
ENDBRANCH  34  40
ENDBRANCH  33  34
ENDBRANCH  32  33
ENDBRANCH  31  32
ENDBRANCH   1  31
BRANCH   7  47
HETATM   47  N5  UNL     1      30.984  64.640   9.243  1.00  0.00    -0.347 N 
ATOM     48  H52 UNL     1      31.475  65.521   9.091  1.00  0.00     0.176 HD
ATOM     49  H51 UNL     1      30.129  64.696   9.797  1.00  0.00     0.176 HD
ENDBRANCH   7  47
TORSDOF 10
ENDMDL
MODEL 5
REMARK VINA RESULT: -6.596599987      3.853      8.790
REMARK  10 active torsions:
REMARK  status: ('A' for Active; 'I' for Inactive)
REMARK    1  A    between atoms: C2_2  and  N1_3 
REMARK    2  A    between atoms: C2_2  and  C3_7 
REMARK    3  A    between atoms: C2_2  and  C6_14 
REMARK    4  A    between atoms: C3_7  and  C4_8 
REMARK    5  A    between atoms: C4_8  and  C5_9 
REMARK    6  A    between atoms: C5_9  and  N2_10 
REMARK    7  A    between atoms: C6_14  and  C7_15 
REMARK    8  A    between atoms: C7_15  and  C8_16 
REMARK    9  A    between atoms: C8_16  and  C9_17 
REMARK       I    between atoms: C9_17  and  N3_19 
REMARK   10  A    between atoms: N4_23  and  N5_24 
ROOT
HETATM    1  C9  UNL     1      35.781  60.345  12.682  1.00  0.00     0.226 C 
HETATM    2  O1  UNL     1      36.575  59.396  12.434  1.00  0.00    -0.273 OA
HETATM    3  N3  UNL     1      34.851  60.687  11.630  1.00  0.00    -0.287 N 
HETATM    4  C10 UNL     1      33.891  61.774  11.820  1.00  0.00     0.137 C 
HETATM    5  C11 UNL     1      32.481  61.236  11.902  1.00  0.00     0.042 C 
HETATM    6  C12 UNL     1      31.786  61.790  13.103  1.00  0.00     0.143 C 
HETATM    7  N4  UNL     1      30.404  62.068  12.879  1.00  0.00    -0.333 N 
HETATM    8  C13 UNL     1      30.047  63.450  12.811  1.00  0.00     0.169 C 
HETATM    9  C14 UNL     1      29.949  64.001  11.415  1.00  0.00     0.253 C 
HETATM   10  N6  UNL     1      28.630  63.670  10.860  1.00  0.00    -0.072 N 
ATOM     11  H61 UNL     1      27.859  63.934  11.473  1.00  0.00     0.277 HD
ATOM     12  H62 UNL     1      28.442  62.668  10.840  1.00  0.00     0.277 HD
HETATM   13  C15 UNL     1      28.556  64.286   9.560  1.00  0.00     0.259 C 
HETATM   14  C16 UNL     1      29.496  63.636   8.571  1.00  0.00     0.259 C 
HETATM   15  N7  UNL     1      28.783  63.132   7.398  1.00  0.00    -0.072 N 
ATOM     16  H71 UNL     1      28.979  63.684   6.563  1.00  0.00     0.277 HD
ATOM     17  H72 UNL     1      27.779  63.303   7.457  1.00  0.00     0.277 HD
HETATM   18  C17 UNL     1      29.090  61.711   7.204  1.00  0.00     0.259 C 
HETATM   19  C18 UNL     1      30.440  61.574   6.569  1.00  0.00     0.259 C 
HETATM   20  N8  UNL     1      31.375  60.834   7.428  1.00  0.00    -0.072 N 
ATOM     21  H81 UNL     1      30.904  60.122   7.986  1.00  0.00     0.277 HD
ATOM     22  H82 UNL     1      31.732  61.408   8.192  1.00  0.00     0.277 HD
HETATM   23  C19 UNL     1      32.431  60.282   6.628  1.00  0.00     0.259 C 
HETATM   24  C20 UNL     1      33.163  59.195   7.376  1.00  0.00     0.260 C 
HETATM   25  N9  UNL     1      33.133  59.477   8.796  1.00  0.00    -0.065 N 
ATOM     26  H91 UNL     1      33.180  58.619   9.347  1.00  0.00     0.277 HD
ATOM     27  H92 UNL     1      32.213  59.806   9.091  1.00  0.00     0.277 HD
HETATM   28  C21 UNL     1      34.169  60.403   9.179  1.00  0.00     0.335 C 
HETATM   29  C22 UNL     1      34.875  59.970  10.430  1.00  0.00     0.252 C 
HETATM   30  O2  UNL     1      35.525  58.874  10.348  1.00  0.00    -0.271 OA
ENDROOT
BRANCH   1  31
HETATM   31  C8  UNL     1      35.762  61.095  13.957  1.00  0.00     0.103 C 
BRANCH  31  32
HETATM   32  C7  UNL     1      35.424  60.285  15.164  1.00  0.00     0.012 C 
BRANCH  32  33
HETATM   33  C6  UNL     1      34.022  59.659  15.096  1.00  0.00     0.038 C 
BRANCH  33  34
HETATM   34  C2  UNL     1      34.104  58.175  15.241  1.00  0.00     0.120 C 
HETATM   35  C1  UNL     1      35.490  57.661  15.461  1.00  0.00     0.046 C 
BRANCH  34  36
HETATM   36  N1  UNL     1      33.445  57.945  16.591  1.00  0.00    -0.071 N 
ATOM     37  H13 UNL     1      32.574  57.416  16.557  1.00  0.00     0.275 HD
ATOM     38  H12 UNL     1      33.936  57.291  17.201  1.00  0.00     0.275 HD
ATOM     39  H11 UNL     1      33.356  58.891  16.961  1.00  0.00     0.275 HD
ENDBRANCH  34  36
BRANCH  34  40
HETATM   40  C3  UNL     1      33.255  57.421  14.305  1.00  0.00     0.040 C 
BRANCH  40  41
HETATM   41  C4  UNL     1      33.535  57.426  12.865  1.00  0.00     0.030 C 
BRANCH  41  42
HETATM   42  C5  UNL     1      32.400  57.508  11.912  1.00  0.00     0.230 C 
BRANCH  42  43
HETATM   43  N2  UNL     1      31.183  57.991  12.613  1.00  0.00    -0.079 N 
ATOM     44  H23 UNL     1      30.920  58.932  12.317  1.00  0.00     0.274 HD
ATOM     45  H22 UNL     1      30.345  57.499  12.306  1.00  0.00     0.274 HD
ATOM     46  H21 UNL     1      31.315  57.931  13.622  1.00  0.00     0.274 HD
ENDBRANCH  42  43
ENDBRANCH  41  42
ENDBRANCH  40  41
ENDBRANCH  34  40
ENDBRANCH  33  34
ENDBRANCH  32  33
ENDBRANCH  31  32
ENDBRANCH   1  31
BRANCH   7  47
HETATM   47  N5  UNL     1      29.758  61.256  11.976  1.00  0.00    -0.347 N 
ATOM     48  H52 UNL     1      29.935  60.258  12.090  1.00  0.00     0.176 HD
ATOM     49  H51 UNL     1      28.801  61.515  11.740  1.00  0.00     0.176 HD
ENDBRANCH   7  47
TORSDOF 10
ENDMDL
