MODEL 1
REMARK VINA RESULT: -7.211834328      0.000      0.000
REMARK  11 active torsions:
REMARK  status: ('A' for Active; 'I' for Inactive)
REMARK    1  A    between atoms: N1_3  and  C4_5 
REMARK    2  A    between atoms: C7_12  and  O1_13 
REMARK    3  A    between atoms: O1_13  and  C8_14 
REMARK    4  A    between atoms: C8_14  and  C9_15 
REMARK    5  A    between atoms: C11_17  and  N4_18 
REMARK       I    between atoms: N4_18  and  C12_20 
REMARK    6  A    between atoms: C15_31  and  O2_32 
REMARK    7  A    between atoms: O2_32  and  C16_33 
REMARK    8  A    between atoms: C16_33  and  C17_34 
REMARK    9  A    between atoms: C17_34  and  C18_35 
REMARK   10  A    between atoms: C18_35  and  N9_36 
REMARK       I    between atoms: N9_36  and  C19_38 
REMARK   11  A    between atoms: N12_43  and  N13_44 
ROOT
HETATM    1  C1  UNL     1      28.419  65.639   7.890  1.00  0.00     0.037 C 
HETATM    2  C2  UNL     1      28.711  64.482   7.689  1.00  0.00     0.003 C 
HETATM    3  N1  UNL     1      29.066  63.158   7.442  1.00  0.00    -0.294 N 
HETATM    4  C3  UNL     1      28.304  62.318   6.552  1.00  0.00     0.168 C 
ENDROOT
BRANCH   3   5
HETATM    5  C4  UNL     1      30.205  62.619   8.084  1.00  0.00     0.166 A 
HETATM    6  C5  UNL     1      31.445  62.542   7.493  1.00  0.00     0.099 A 
HETATM    7  N2  UNL     1      31.914  62.910   6.278  1.00  0.00    -0.348 N 
HETATM    8  C14 UNL     1      32.317  61.975   8.366  1.00  0.00     0.098 A 
HETATM    9  C6  UNL     1      33.191  62.739   5.903  1.00  0.00     0.183 A 
ATOM     10  H2  UNL     1      31.266  63.337   5.616  1.00  0.00     0.167 HD
HETATM   11  N3  UNL     1      34.042  62.180   6.769  1.00  0.00    -0.332 N 
HETATM   12  C7  UNL     1      33.632  61.785   8.014  1.00  0.00     0.160 A 
ATOM     13  H3  UNL     1      35.016  62.044   6.497  1.00  0.00     0.168 HD
HETATM   14  C15 UNL     1      31.571  61.698   9.533  1.00  0.00     0.182 A 
HETATM   15  N12 UNL     1      30.311  62.095   9.328  1.00  0.00    -0.220 N 
BRANCH  12  16
HETATM   16  O1  UNL     1      34.483  61.205   8.931  1.00  0.00    -0.329 OA
BRANCH  16  17
HETATM   17  C8  UNL     1      35.385  60.208   8.569  1.00  0.00     0.234 C 
BRANCH  17  18
HETATM   18  C9  UNL     1      34.775  58.864   8.476  1.00  0.00     0.038 A 
HETATM   19  C10 UNL     1      34.347  58.254   9.664  1.00  0.00     0.075 A 
HETATM   20  C11 UNL     1      33.761  57.009   9.644  1.00  0.00     0.110 A 
HETATM   21  N7  UNL     1      33.610  56.396   8.456  1.00  0.00    -0.338 N 
HETATM   22  C13 UNL     1      34.012  56.960   7.305  1.00  0.00     0.182 A 
ATOM     23  H7  UNL     1      33.177  55.473   8.428  1.00  0.00     0.168 HD
HETATM   24  N8  UNL     1      34.577  58.170   7.358  1.00  0.00    -0.354 N 
ATOM     25  H8  UNL     1      34.880  58.591   6.479  1.00  0.00     0.166 HD
BRANCH  20  26
HETATM   26  N4  UNL     1      33.375  56.478  10.768  1.00  0.00    -0.317 N 
HETATM   27  C12 UNL     1      33.019  57.253  11.911  1.00  0.00     0.187 C 
HETATM   28  N5  UNL     1      31.768  57.527  12.123  1.00  0.00    -0.373 N 
HETATM   29  N6  UNL     1      33.963  57.749  12.844  1.00  0.00    -0.064 NA
ATOM     30  H52 UNL     1      31.088  57.170  11.452  1.00  0.00     0.158 HD
ATOM     31  H51 UNL     1      31.514  58.082  12.941  1.00  0.00     0.158 HD
ATOM     32  H4  UNL     1      33.324  55.461  10.834  1.00  0.00     0.170 HD
ENDBRANCH  20  26
ENDBRANCH  17  18
ENDBRANCH  16  17
ENDBRANCH  12  16
BRANCH  14  33
HETATM   33  O2  UNL     1      32.176  61.113  10.618  1.00  0.00    -0.334 OA
BRANCH  33  34
HETATM   34  C16 UNL     1      31.820  61.161  11.944  1.00  0.00     0.179 C 
BRANCH  34  35
HETATM   35  C17 UNL     1      32.854  61.210  13.001  1.00  0.00     0.046 C 
BRANCH  35  36
HETATM   36  C18 UNL     1      34.160  61.782  12.565  1.00  0.00     0.124 C 
BRANCH  36  37
HETATM   37  N9  UNL     1      34.990  60.790  11.925  1.00  0.00    -0.365 N 
HETATM   38  C19 UNL     1      36.300  60.433  12.358  1.00  0.00     0.181 C 
HETATM   39  N10 UNL     1      36.762  59.242  12.248  1.00  0.00    -0.374 N 
HETATM   40  N11 UNL     1      37.129  61.437  12.936  1.00  0.00    -0.064 NA
ATOM     41 2H10 UNL     1      36.168  58.524  11.834  1.00  0.00     0.158 HD
ATOM     42 1H10 UNL     1      37.700  58.987  12.558  1.00  0.00     0.158 HD
ATOM     43  H9  UNL     1      34.614  60.311  11.107  1.00  0.00     0.162 HD
ENDBRANCH  36  37
ENDBRANCH  35  36
ENDBRANCH  34  35
ENDBRANCH  33  34
ENDBRANCH  14  33
BRANCH  15  44
HETATM   44  N13 UNL     1      29.180  62.034  10.160  1.00  0.00    -0.335 N 
ATOM     45 2H13 UNL     1      28.879  61.323  10.827  1.00  0.00     0.177 HD
ATOM     46 1H13 UNL     1      28.496  62.790  10.141  1.00  0.00     0.177 HD
ENDBRANCH  15  44
ENDBRANCH   3   5
TORSDOF 11
ENDMDL
MODEL 2
REMARK VINA RESULT: -7.077896707      2.094      7.081
REMARK  11 active torsions:
REMARK  status: ('A' for Active; 'I' for Inactive)
REMARK    1  A    between atoms: N1_3  and  C4_5 
REMARK    2  A    between atoms: C7_12  and  O1_13 
REMARK    3  A    between atoms: O1_13  and  C8_14 
REMARK    4  A    between atoms: C8_14  and  C9_15 
REMARK    5  A    between atoms: C11_17  and  N4_18 
REMARK       I    between atoms: N4_18  and  C12_20 
REMARK    6  A    between atoms: C15_31  and  O2_32 
REMARK    7  A    between atoms: O2_32  and  C16_33 
REMARK    8  A    between atoms: C16_33  and  C17_34 
REMARK    9  A    between atoms: C17_34  and  C18_35 
REMARK   10  A    between atoms: C18_35  and  N9_36 
REMARK       I    between atoms: N9_36  and  C19_38 
REMARK   11  A    between atoms: N12_43  and  N13_44 
ROOT
HETATM    1  C1  UNL     1      32.012  55.470   7.281  1.00  0.00     0.037 C 
HETATM    2  C2  UNL     1      32.835  56.350   7.182  1.00  0.00     0.003 C 
HETATM    3  N1  UNL     1      33.768  57.376   7.053  1.00  0.00    -0.294 N 
HETATM    4  C3  UNL     1      34.924  57.253   6.200  1.00  0.00     0.168 C 
ENDROOT
BRANCH   3   5
HETATM    5  C4  UNL     1      33.580  58.574   7.781  1.00  0.00     0.166 A 
HETATM    6  C5  UNL     1      34.157  58.816   9.007  1.00  0.00     0.099 A 
HETATM    7  N2  UNL     1      34.979  58.092   9.801  1.00  0.00    -0.348 N 
HETATM    8  C14 UNL     1      33.779  60.048   9.438  1.00  0.00     0.098 A 
HETATM    9  C6  UNL     1      35.431  58.534  10.985  1.00  0.00     0.183 A 
ATOM     10  H2  UNL     1      35.268  57.166   9.485  1.00  0.00     0.167 HD
HETATM   11  N3  UNL     1      35.054  59.747  11.400  1.00  0.00    -0.332 N 
HETATM   12  C7  UNL     1      34.223  60.531  10.645  1.00  0.00     0.160 A 
ATOM     13  H3  UNL     1      35.391  60.096  12.298  1.00  0.00     0.168 HD
HETATM   14  C15 UNL     1      32.938  60.570   8.430  1.00  0.00     0.182 A 
HETATM   15  N12 UNL     1      32.841  59.660   7.454  1.00  0.00    -0.220 N 
BRANCH  12  16
HETATM   16  O1  UNL     1      33.814  61.786  11.044  1.00  0.00    -0.329 OA
BRANCH  16  17
HETATM   17  C8  UNL     1      32.938  61.969  12.110  1.00  0.00     0.234 C 
BRANCH  17  18
HETATM   18  C9  UNL     1      31.653  62.589  11.719  1.00  0.00     0.038 A 
HETATM   19  C10 UNL     1      30.539  61.751  11.569  1.00  0.00     0.075 A 
HETATM   20  C11 UNL     1      29.313  62.268  11.217  1.00  0.00     0.110 A 
HETATM   21  N7  UNL     1      29.214  63.596  11.023  1.00  0.00    -0.338 N 
HETATM   22  C13 UNL     1      30.267  64.418  11.161  1.00  0.00     0.182 A 
ATOM     23  H7  UNL     1      28.310  63.990  10.763  1.00  0.00     0.168 HD
HETATM   24  N8  UNL     1      31.444  63.885  11.503  1.00  0.00    -0.354 N 
ATOM     25  H8  UNL     1      32.238  64.518  11.605  1.00  0.00     0.166 HD
BRANCH  20  26
HETATM   26  N4  UNL     1      28.302  61.457  11.091  1.00  0.00    -0.317 N 
HETATM   27  C12 UNL     1      27.384  61.524  10.001  1.00  0.00     0.187 C 
HETATM   28  N5  UNL     1      27.565  60.748   8.976  1.00  0.00    -0.373 N 
HETATM   29  N6  UNL     1      26.271  62.399   9.971  1.00  0.00    -0.064 NA
ATOM     30  H52 UNL     1      28.367  60.117   8.999  1.00  0.00     0.158 HD
ATOM     31  H51 UNL     1      26.908  60.796   8.197  1.00  0.00     0.158 HD
ATOM     32  H4  UNL     1      28.161  60.741  11.804  1.00  0.00     0.170 HD
ENDBRANCH  20  26
ENDBRANCH  17  18
ENDBRANCH  16  17
ENDBRANCH  12  16
BRANCH  14  33
HETATM   33  O2  UNL     1      32.384  61.818   8.569  1.00  0.00    -0.334 OA
BRANCH  33  34
HETATM   34  C16 UNL     1      32.440  62.895   7.718  1.00  0.00     0.179 C 
BRANCH  34  35
HETATM   35  C17 UNL     1      31.265  63.774   7.536  1.00  0.00     0.046 C 
BRANCH  35  36
HETATM   36  C18 UNL     1      29.954  63.064   7.533  1.00  0.00     0.124 C 
BRANCH  36  37
HETATM   37  N9  UNL     1      29.844  62.150   6.421  1.00  0.00    -0.365 N 
HETATM   38  C19 UNL     1      28.664  61.960   5.646  1.00  0.00     0.181 C 
HETATM   39  N10 UNL     1      28.699  61.691   4.393  1.00  0.00    -0.374 N 
HETATM   40  N11 UNL     1      27.396  62.076   6.285  1.00  0.00    -0.064 NA
ATOM     41 2H10 UNL     1      29.607  61.608   3.936  1.00  0.00     0.158 HD
ATOM     42 1H10 UNL     1      27.854  61.555   3.837  1.00  0.00     0.158 HD
ATOM     43  H9  UNL     1      30.667  61.602   6.174  1.00  0.00     0.162 HD
ENDBRANCH  36  37
ENDBRANCH  35  36
ENDBRANCH  34  35
ENDBRANCH  33  34
ENDBRANCH  14  33
BRANCH  15  44
HETATM   44  N13 UNL     1      32.124  59.680   6.246  1.00  0.00    -0.335 N 
ATOM     45 2H13 UNL     1      32.410  59.442   5.296  1.00  0.00     0.177 HD
ATOM     46 1H13 UNL     1      31.150  59.981   6.240  1.00  0.00     0.177 HD
ENDBRANCH  15  44
ENDBRANCH   3   5
TORSDOF 11
ENDMDL
MODEL 3
REMARK VINA RESULT: -6.849928445      2.071      6.901
REMARK  11 active torsions:
REMARK  status: ('A' for Active; 'I' for Inactive)
REMARK    1  A    between atoms: N1_3  and  C4_5 
REMARK    2  A    between atoms: C7_12  and  O1_13 
REMARK    3  A    between atoms: O1_13  and  C8_14 
REMARK    4  A    between atoms: C8_14  and  C9_15 
REMARK    5  A    between atoms: C11_17  and  N4_18 
REMARK       I    between atoms: N4_18  and  C12_20 
REMARK    6  A    between atoms: C15_31  and  O2_32 
REMARK    7  A    between atoms: O2_32  and  C16_33 
REMARK    8  A    between atoms: C16_33  and  C17_34 
REMARK    9  A    between atoms: C17_34  and  C18_35 
REMARK   10  A    between atoms: C18_35  and  N9_36 
REMARK       I    between atoms: N9_36  and  C19_38 
REMARK   11  A    between atoms: N12_43  and  N13_44 
ROOT
HETATM    1  C1  UNL     1      32.053  55.415   7.286  1.00  0.00     0.037 C 
HETATM    2  C2  UNL     1      32.875  56.298   7.189  1.00  0.00     0.003 C 
HETATM    3  N1  UNL     1      33.806  57.326   7.061  1.00  0.00    -0.294 N 
HETATM    4  C3  UNL     1      34.985  57.189   6.241  1.00  0.00     0.168 C 
ENDROOT
BRANCH   3   5
HETATM    5  C4  UNL     1      33.593  58.539   7.755  1.00  0.00     0.166 A 
HETATM    6  C5  UNL     1      34.112  58.801   9.003  1.00  0.00     0.099 A 
HETATM    7  N2  UNL     1      34.890  58.086   9.849  1.00  0.00    -0.348 N 
HETATM    8  C14 UNL     1      33.724  60.043   9.391  1.00  0.00     0.098 A 
HETATM    9  C6  UNL     1      35.289  58.549  11.044  1.00  0.00     0.183 A 
ATOM     10  H2  UNL     1      35.186  57.153   9.565  1.00  0.00     0.167 HD
HETATM   11  N3  UNL     1      34.901  59.772  11.418  1.00  0.00    -0.332 N 
HETATM   12  C7  UNL     1      34.115  60.547  10.609  1.00  0.00     0.160 A 
ATOM     13  H3  UNL     1      35.198  60.136  12.324  1.00  0.00     0.168 HD
HETATM   14  C15 UNL     1      32.937  60.551   8.334  1.00  0.00     0.182 A 
HETATM   15  N12 UNL     1      32.879  59.624   7.372  1.00  0.00    -0.220 N 
BRANCH  12  16
HETATM   16  O1  UNL     1      33.697  61.812  10.963  1.00  0.00    -0.329 OA
BRANCH  16  17
HETATM   17  C8  UNL     1      33.019  62.056  12.155  1.00  0.00     0.234 C 
BRANCH  17  18
HETATM   18  C9  UNL     1      31.586  61.695  12.103  1.00  0.00     0.038 A 
HETATM   19  C10 UNL     1      30.755  62.427  11.243  1.00  0.00     0.075 A 
HETATM   20  C11 UNL     1      29.415  62.133  11.142  1.00  0.00     0.110 A 
HETATM   21  N7  UNL     1      28.926  61.126  11.888  1.00  0.00    -0.338 N 
HETATM   22  C13 UNL     1      29.702  60.411  12.719  1.00  0.00     0.182 A 
ATOM     23  H7  UNL     1      27.934  60.898  11.821  1.00  0.00     0.168 HD
HETATM   24  N8  UNL     1      30.999  60.721  12.795  1.00  0.00    -0.354 N 
ATOM     25  H8  UNL     1      31.581  60.172  13.429  1.00  0.00     0.166 HD
BRANCH  20  26
HETATM   26  N4  UNL     1      28.678  62.834  10.329  1.00  0.00    -0.317 N 
HETATM   27  C12 UNL     1      27.259  62.926  10.452  1.00  0.00     0.187 C 
HETATM   28  N5  UNL     1      26.745  63.939  11.082  1.00  0.00    -0.373 N 
HETATM   29  N6  UNL     1      26.365  61.967   9.918  1.00  0.00    -0.064 NA
ATOM     30  H52 UNL     1      27.390  64.630  11.466  1.00  0.00     0.158 HD
ATOM     31  H51 UNL     1      25.731  64.004  11.169  1.00  0.00     0.158 HD
ATOM     32  H4  UNL     1      29.135  63.340   9.571  1.00  0.00     0.170 HD
ENDBRANCH  20  26
ENDBRANCH  17  18
ENDBRANCH  16  17
ENDBRANCH  12  16
BRANCH  14  33
HETATM   33  O2  UNL     1      32.388  61.806   8.422  1.00  0.00    -0.334 OA
BRANCH  33  34
HETATM   34  C16 UNL     1      32.679  62.937   7.698  1.00  0.00     0.179 C 
BRANCH  34  35
HETATM   35  C17 UNL     1      31.679  64.016   7.551  1.00  0.00     0.046 C 
BRANCH  35  36
HETATM   36  C18 UNL     1      30.274  63.543   7.392  1.00  0.00     0.124 C 
BRANCH  36  37
HETATM   37  N9  UNL     1      30.173  62.495   6.405  1.00  0.00    -0.365 N 
HETATM   38  C19 UNL     1      29.237  61.422   6.460  1.00  0.00     0.181 C 
HETATM   39  N10 UNL     1      28.721  60.903   5.407  1.00  0.00    -0.374 N 
HETATM   40  N11 UNL     1      28.859  60.906   7.733  1.00  0.00    -0.064 NA
ATOM     41 2H10 UNL     1      28.992  61.273   4.497  1.00  0.00     0.158 HD
ATOM     42 1H10 UNL     1      28.051  60.135   5.447  1.00  0.00     0.158 HD
ATOM     43  H9  UNL     1      30.815  62.524   5.613  1.00  0.00     0.162 HD
ENDBRANCH  36  37
ENDBRANCH  35  36
ENDBRANCH  34  35
ENDBRANCH  33  34
ENDBRANCH  14  33
BRANCH  15  44
HETATM   44  N13 UNL     1      32.222  59.625   6.131  1.00  0.00    -0.335 N 
ATOM     45 2H13 UNL     1      31.389  59.127   5.815  1.00  0.00     0.177 HD
ATOM     46 1H13 UNL     1      32.587  60.191   5.365  1.00  0.00     0.177 HD
ENDBRANCH  15  44
ENDBRANCH   3   5
TORSDOF 11
ENDMDL
MODEL 4
REMARK VINA RESULT: -6.683597267      3.046      8.276
REMARK  11 active torsions:
REMARK  status: ('A' for Active; 'I' for Inactive)
REMARK    1  A    between atoms: N1_3  and  C4_5 
REMARK    2  A    between atoms: C7_12  and  O1_13 
REMARK    3  A    between atoms: O1_13  and  C8_14 
REMARK    4  A    between atoms: C8_14  and  C9_15 
REMARK    5  A    between atoms: C11_17  and  N4_18 
REMARK       I    between atoms: N4_18  and  C12_20 
REMARK    6  A    between atoms: C15_31  and  O2_32 
REMARK    7  A    between atoms: O2_32  and  C16_33 
REMARK    8  A    between atoms: C16_33  and  C17_34 
REMARK    9  A    between atoms: C17_34  and  C18_35 
REMARK   10  A    between atoms: C18_35  and  N9_36 
REMARK       I    between atoms: N9_36  and  C19_38 
REMARK   11  A    between atoms: N12_43  and  N13_44 
ROOT
HETATM    1  C1  UNL     1      33.936  56.376  10.563  1.00  0.00     0.037 C 
HETATM    2  C2  UNL     1      34.263  57.519  10.788  1.00  0.00     0.003 C 
HETATM    3  N1  UNL     1      34.645  58.837  11.023  1.00  0.00    -0.294 N 
HETATM    4  C3  UNL     1      35.929  59.170  11.590  1.00  0.00     0.168 C 
ENDROOT
BRANCH   3   5
HETATM    5  C4  UNL     1      33.750  59.882  10.698  1.00  0.00     0.166 A 
HETATM    6  C5  UNL     1      33.763  60.547   9.492  1.00  0.00     0.099 A 
HETATM    7  N2  UNL     1      34.527  60.430   8.381  1.00  0.00    -0.348 N 
HETATM    8  C14 UNL     1      32.786  61.490   9.497  1.00  0.00     0.098 A 
HETATM    9  C6  UNL     1      34.361  61.200   7.295  1.00  0.00     0.183 A 
ATOM     10  H2  UNL     1      35.263  59.724   8.369  1.00  0.00     0.167 HD
HETATM   11  N3  UNL     1      33.397  62.126   7.308  1.00  0.00    -0.332 N 
HETATM   12  C7  UNL     1      32.590  62.296   8.401  1.00  0.00     0.160 A 
ATOM     13  H3  UNL     1      33.260  62.718   6.488  1.00  0.00     0.168 HD
HETATM   14  C15 UNL     1      32.157  61.390  10.757  1.00  0.00     0.182 A 
HETATM   15  N12 UNL     1      32.760  60.419  11.450  1.00  0.00    -0.220 N 
BRANCH  12  16
HETATM   16  O1  UNL     1      31.586  63.240   8.448  1.00  0.00    -0.329 OA
BRANCH  16  17
HETATM   17  C8  UNL     1      31.802  64.517   8.961  1.00  0.00     0.234 C 
BRANCH  17  18
HETATM   18  C9  UNL     1      30.945  65.553   8.346  1.00  0.00     0.038 A 
HETATM   19  C10 UNL     1      31.537  66.442   7.438  1.00  0.00     0.075 A 
HETATM   20  C11 UNL     1      30.791  67.421   6.824  1.00  0.00     0.110 A 
HETATM   21  N7  UNL     1      29.480  67.501   7.117  1.00  0.00    -0.338 N 
HETATM   22  C13 UNL     1      28.890  66.661   7.984  1.00  0.00     0.182 A 
ATOM     23  H7  UNL     1      28.916  68.222   6.668  1.00  0.00     0.168 HD
HETATM   24  N8  UNL     1      29.642  65.721   8.564  1.00  0.00    -0.354 N 
ATOM     25  H8  UNL     1      29.185  65.087   9.220  1.00  0.00     0.166 HD
BRANCH  20  26
HETATM   26  N4  UNL     1      31.378  68.225   5.984  1.00  0.00    -0.317 N 
HETATM   27  C12 UNL     1      31.601  69.607   6.259  1.00  0.00     0.187 C 
HETATM   28  N5  UNL     1      32.752  69.978   6.732  1.00  0.00    -0.373 N 
HETATM   29  N6  UNL     1      30.629  70.613   6.042  1.00  0.00    -0.064 NA
ATOM     30  H52 UNL     1      33.453  69.252   6.888  1.00  0.00     0.158 HD
ATOM     31  H51 UNL     1      32.911  70.966   6.928  1.00  0.00     0.158 HD
ATOM     32  H4  UNL     1      31.693  67.849   5.090  1.00  0.00     0.170 HD
ENDBRANCH  20  26
ENDBRANCH  17  18
ENDBRANCH  16  17
ENDBRANCH  12  16
BRANCH  14  33
HETATM   33  O2  UNL     1      31.112  62.222  11.077  1.00  0.00    -0.334 OA
BRANCH  33  34
HETATM   34  C16 UNL     1      29.792  61.915  11.300  1.00  0.00     0.179 C 
BRANCH  34  35
HETATM   35  C17 UNL     1      28.716  62.750  10.724  1.00  0.00     0.046 C 
BRANCH  35  36
HETATM   36  C18 UNL     1      28.048  62.162   9.528  1.00  0.00     0.124 C 
BRANCH  36  37
HETATM   37  N9  UNL     1      29.003  61.792   8.510  1.00  0.00    -0.365 N 
HETATM   38  C19 UNL     1      28.781  61.920   7.110  1.00  0.00     0.181 C 
HETATM   39  N10 UNL     1      29.722  62.198   6.285  1.00  0.00    -0.374 N 
HETATM   40  N11 UNL     1      27.462  61.735   6.604  1.00  0.00    -0.064 NA
ATOM     41 2H10 UNL     1      30.666  62.330   6.647  1.00  0.00     0.158 HD
ATOM     42 1H10 UNL     1      29.563  62.290   5.281  1.00  0.00     0.158 HD
ATOM     43  H9  UNL     1      29.899  61.412   8.816  1.00  0.00     0.162 HD
ENDBRANCH  36  37
ENDBRANCH  35  36
ENDBRANCH  34  35
ENDBRANCH  33  34
ENDBRANCH  14  33
BRANCH  15  44
HETATM   44  N13 UNL     1      32.528  59.933  12.748  1.00  0.00    -0.335 N 
ATOM     45 2H13 UNL     1      32.068  60.364  13.550  1.00  0.00     0.177 HD
ATOM     46 1H13 UNL     1      32.855  59.003  13.007  1.00  0.00     0.177 HD
ENDBRANCH  15  44
ENDBRANCH   3   5
TORSDOF 11
ENDMDL
MODEL 5
REMARK VINA RESULT: -6.674011764      2.189      5.542
REMARK  11 active torsions:
REMARK  status: ('A' for Active; 'I' for Inactive)
REMARK    1  A    between atoms: N1_3  and  C4_5 
REMARK    2  A    between atoms: C7_12  and  O1_13 
REMARK    3  A    between atoms: O1_13  and  C8_14 
REMARK    4  A    between atoms: C8_14  and  C9_15 
REMARK    5  A    between atoms: C11_17  and  N4_18 
REMARK       I    between atoms: N4_18  and  C12_20 
REMARK    6  A    between atoms: C15_31  and  O2_32 
REMARK    7  A    between atoms: O2_32  and  C16_33 
REMARK    8  A    between atoms: C16_33  and  C17_34 
REMARK    9  A    between atoms: C17_34  and  C18_35 
REMARK   10  A    between atoms: C18_35  and  N9_36 
REMARK       I    between atoms: N9_36  and  C19_38 
REMARK   11  A    between atoms: N12_43  and  N13_44 
ROOT
HETATM    1  C1  UNL     1      33.973  57.659   6.908  1.00  0.00     0.037 C 
HETATM    2  C2  UNL     1      34.389  58.723   7.306  1.00  0.00     0.003 C 
HETATM    3  N1  UNL     1      34.860  59.959   7.742  1.00  0.00    -0.294 N 
HETATM    4  C3  UNL     1      36.258  60.306   7.681  1.00  0.00     0.168 C 
ENDROOT
BRANCH   3   5
HETATM    5  C4  UNL     1      33.943  60.901   8.262  1.00  0.00     0.166 A 
HETATM    6  C5  UNL     1      33.422  61.941   7.525  1.00  0.00     0.099 A 
HETATM    7  N2  UNL     1      33.591  62.341   6.244  1.00  0.00    -0.348 N 
HETATM    8  C14 UNL     1      32.580  62.661   8.311  1.00  0.00     0.098 A 
HETATM    9  C6  UNL     1      32.968  63.409   5.722  1.00  0.00     0.183 A 
ATOM     10  H2  UNL     1      34.221  61.806   5.647  1.00  0.00     0.167 HD
HETATM   11  N3  UNL     1      32.141  64.111   6.503  1.00  0.00    -0.332 N 
HETATM   12  C7  UNL     1      31.926  63.760   7.808  1.00  0.00     0.160 A 
ATOM     13  H3  UNL     1      31.660  64.925   6.118  1.00  0.00     0.168 HD
HETATM   14  C15 UNL     1      32.594  62.029   9.574  1.00  0.00     0.182 A 
HETATM   15  N12 UNL     1      33.421  60.980   9.509  1.00  0.00    -0.220 N 
BRANCH  12  16
HETATM   16  O1  UNL     1      31.081  64.462   8.641  1.00  0.00    -0.329 OA
BRANCH  16  17
HETATM   17  C8  UNL     1      29.729  64.622   8.351  1.00  0.00     0.234 C 
BRANCH  17  18
HETATM   18  C9  UNL     1      29.047  63.358   7.999  1.00  0.00     0.038 A 
HETATM   19  C10 UNL     1      28.515  62.586   9.042  1.00  0.00     0.075 A 
HETATM   20  C11 UNL     1      27.860  61.405   8.778  1.00  0.00     0.110 A 
HETATM   21  N7  UNL     1      27.744  61.013   7.496  1.00  0.00    -0.338 N 
HETATM   22  C13 UNL     1      28.245  61.735   6.481  1.00  0.00     0.182 A 
ATOM     23  H7  UNL     1      27.260  60.140   7.289  1.00  0.00     0.168 HD
HETATM   24  N8  UNL     1      28.876  62.877   6.769  1.00  0.00    -0.354 N 
ATOM     25  H8  UNL     1      29.254  63.419   5.991  1.00  0.00     0.166 HD
BRANCH  20  26
HETATM   26  N4  UNL     1      27.378  60.718   9.774  1.00  0.00    -0.317 N 
HETATM   27  C12 UNL     1      27.618  61.057  11.139  1.00  0.00     0.187 C 
HETATM   28  N5  UNL     1      26.735  61.764  11.778  1.00  0.00    -0.373 N 
HETATM   29  N6  UNL     1      28.777  60.661  11.850  1.00  0.00    -0.064 NA
ATOM     30  H52 UNL     1      25.900  62.049  11.266  1.00  0.00     0.158 HD
ATOM     31  H51 UNL     1      26.908  62.006  12.754  1.00  0.00     0.158 HD
ATOM     32  H4  UNL     1      26.802  59.902   9.569  1.00  0.00     0.170 HD
ENDBRANCH  20  26
ENDBRANCH  17  18
ENDBRANCH  16  17
ENDBRANCH  12  16
BRANCH  14  33
HETATM   33  O2  UNL     1      31.833  62.524  10.604  1.00  0.00    -0.334 OA
BRANCH  33  34
HETATM   34  C16 UNL     1      32.226  63.228  11.716  1.00  0.00     0.179 C 
BRANCH  34  35
HETATM   35  C17 UNL     1      31.705  62.875  13.055  1.00  0.00     0.046 C 
BRANCH  35  36
HETATM   36  C18 UNL     1      32.134  61.537  13.554  1.00  0.00     0.124 C 
BRANCH  36  37
HETATM   37  N9  UNL     1      31.504  60.466  12.820  1.00  0.00    -0.365 N 
HETATM   38  C19 UNL     1      31.794  59.084  13.002  1.00  0.00     0.181 C 
HETATM   39  N10 UNL     1      30.904  58.170  12.871  1.00  0.00    -0.374 N 
HETATM   40  N11 UNL     1      33.123  58.699  13.343  1.00  0.00    -0.064 NA
ATOM     41 2H10 UNL     1      29.953  58.445  12.626  1.00  0.00     0.158 HD
ATOM     42 1H10 UNL     1      31.111  57.180  13.001  1.00  0.00     0.158 HD
ATOM     43  H9  UNL     1      30.803  60.716  12.122  1.00  0.00     0.162 HD
ENDBRANCH  36  37
ENDBRANCH  35  36
ENDBRANCH  34  35
ENDBRANCH  33  34
ENDBRANCH  14  33
BRANCH  15  44
HETATM   44  N13 UNL     1      33.794  60.040  10.483  1.00  0.00    -0.335 N 
ATOM     45 2H13 UNL     1      34.683  59.889  10.961  1.00  0.00     0.177 HD
ATOM     46 1H13 UNL     1      33.115  59.354  10.813  1.00  0.00     0.177 HD
ENDBRANCH  15  44
ENDBRANCH   3   5
TORSDOF 11
ENDMDL
