MODEL 1
REMARK VINA RESULT: -6.301115876      0.000      0.000
REMARK  8 active torsions:
REMARK  status: ('A' for Active; 'I' for Inactive)
REMARK    1  A    between atoms: N2_7  and  C4_8 
REMARK    2  A    between atoms: C4_8  and  C5_9 
REMARK    3  A    between atoms: C5_9  and  C6_10 
REMARK    4  A    between atoms: C6_10  and  C7_11 
REMARK    5  A    between atoms: C7_11  and  N3_12 
REMARK    6  A    between atoms: C10_15  and  C11_16 
REMARK    7  A    between atoms: C11_16  and  O1_17 
REMARK    8  A    between atoms: N4_19  and  O2_21 
ROOT
HETATM    1  C7  UNL     1      23.544 -12.905  15.128  1.00  0.00     0.128 C 
ENDROOT
BRANCH   1   2
HETATM    2  C6  UNL     1      22.208 -12.244  15.015  1.00  0.00     0.022 C 
BRANCH   2   3
HETATM    3  C5  UNL     1      21.914 -11.699  13.652  1.00  0.00     0.022 C 
BRANCH   3   4
HETATM    4  C4  UNL     1      21.530 -10.250  13.646  1.00  0.00     0.129 C 
BRANCH   4   5
HETATM    5  N2  UNL     1      22.732  -9.467  13.433  1.00  0.00    -0.353 N 
HETATM    6  C3  UNL     1      23.532  -9.664  12.359  1.00  0.00     0.095 A 
HETATM    7  C2  UNL     1      24.680  -8.930  12.138  1.00  0.00     0.065 A 
HETATM    8  C1  UNL     1      25.040  -7.952  13.038  1.00  0.00     0.100 A 
HETATM    9  N1  UNL     1      26.122  -7.232  12.867  1.00  0.00    -0.385 N 
HETATM   10  N5  UNL     1      24.238  -7.764  14.102  1.00  0.00    -0.339 N 
ATOM     11  H12 UNL     1      26.730  -7.374  12.060  1.00  0.00     0.157 HD
ATOM     12  H11 UNL     1      26.388  -6.507  13.534  1.00  0.00     0.157 HD
HETATM   13  C14 UNL     1      23.124  -8.498  14.289  1.00  0.00     0.184 A 
ATOM     14  H5  UNL     1      24.481  -7.047  14.786  1.00  0.00     0.168 HD
ENDBRANCH   4   5
ENDBRANCH   3   4
ENDBRANCH   2   3
ENDBRANCH   1   2
BRANCH   1  15
HETATM   15  N3  UNL     1      24.536 -11.877  15.384  1.00  0.00    -0.366 N 
HETATM   16  C8  UNL     1      24.430 -11.050  16.437  1.00  0.00     0.091 A 
HETATM   17  C9  UNL     1      25.389 -10.087  16.648  1.00  0.00     0.033 A 
HETATM   18  C10 UNL     1      26.498  -9.912  15.812  1.00  0.00     0.019 A 
HETATM   19  C12 UNL     1      26.581 -10.767  14.748  1.00  0.00     0.033 A 
HETATM   20  C13 UNL     1      25.589 -11.728  14.570  1.00  0.00     0.091 A 
BRANCH  18  21
HETATM   21  C11 UNL     1      27.452  -8.881  16.109  1.00  0.00     0.170 C 
HETATM   22  N4  UNL     1      28.563  -9.002  16.656  1.00  0.00    -0.247 N 
ATOM     23  H4  UNL     1      29.083  -8.132  16.770  1.00  0.00     0.196 HD
BRANCH  21  24
HETATM   24  O1  UNL     1      27.125  -7.536  15.748  1.00  0.00    -0.344 OA
ATOM     25  H1  UNL     1      26.745  -6.973  16.413  1.00  0.00     0.219 HD
ENDBRANCH  21  24
BRANCH  22  26
HETATM   26  O2  UNL     1      29.177 -10.082  17.113  1.00  0.00    -0.288 OA
ATOM     27  H2  UNL     1      30.062 -10.191  17.439  1.00  0.00     0.244 HD
ENDBRANCH  22  26
ENDBRANCH  18  21
ENDBRANCH   1  15
TORSDOF 8
ENDMDL
MODEL 2
REMARK VINA RESULT: -6.293022935      0.090      1.017
REMARK  8 active torsions:
REMARK  status: ('A' for Active; 'I' for Inactive)
REMARK    1  A    between atoms: N2_7  and  C4_8 
REMARK    2  A    between atoms: C4_8  and  C5_9 
REMARK    3  A    between atoms: C5_9  and  C6_10 
REMARK    4  A    between atoms: C6_10  and  C7_11 
REMARK    5  A    between atoms: C7_11  and  N3_12 
REMARK    6  A    between atoms: C10_15  and  C11_16 
REMARK    7  A    between atoms: C11_16  and  O1_17 
REMARK    8  A    between atoms: N4_19  and  O2_21 
ROOT
HETATM    1  C7  UNL     1      23.633 -12.958  15.044  1.00  0.00     0.128 C 
ENDROOT
BRANCH   1   2
HETATM    2  C6  UNL     1      22.280 -12.326  15.011  1.00  0.00     0.022 C 
BRANCH   2   3
HETATM    3  C5  UNL     1      21.892 -11.791  13.667  1.00  0.00     0.022 C 
BRANCH   3   4
HETATM    4  C4  UNL     1      21.493 -10.346  13.679  1.00  0.00     0.129 C 
BRANCH   4   5
HETATM    5  N2  UNL     1      22.686  -9.549  13.465  1.00  0.00    -0.353 N 
HETATM    6  C3  UNL     1      23.473  -9.719  12.377  1.00  0.00     0.095 A 
HETATM    7  C2  UNL     1      24.611  -8.970  12.154  1.00  0.00     0.065 A 
HETATM    8  C1  UNL     1      24.975  -8.006  13.067  1.00  0.00     0.100 A 
HETATM    9  N1  UNL     1      26.048  -7.273  12.894  1.00  0.00    -0.385 N 
HETATM   10  N5  UNL     1      24.186  -7.844  14.145  1.00  0.00    -0.339 N 
ATOM     11  H12 UNL     1      26.646  -7.395  12.077  1.00  0.00     0.157 HD
ATOM     12  H11 UNL     1      26.317  -6.558  13.571  1.00  0.00     0.157 HD
HETATM   13  C14 UNL     1      23.081  -8.592  14.332  1.00  0.00     0.184 A 
ATOM     14  H5  UNL     1      24.431  -7.137  14.838  1.00  0.00     0.168 HD
ENDBRANCH   4   5
ENDBRANCH   3   4
ENDBRANCH   2   3
ENDBRANCH   1   2
BRANCH   1  15
HETATM   15  N3  UNL     1      24.611 -11.921  15.317  1.00  0.00    -0.366 N 
HETATM   16  C8  UNL     1      25.670 -11.731  14.513  1.00  0.00     0.091 A 
HETATM   17  C9  UNL     1      26.577 -10.738  14.802  1.00  0.00     0.033 A 
HETATM   18  C10 UNL     1      26.461  -9.891  15.910  1.00  0.00     0.019 A 
HETATM   19  C12 UNL     1      25.374 -10.107  16.712  1.00  0.00     0.033 A 
HETATM   20  C13 UNL     1      24.480 -11.123  16.384  1.00  0.00     0.091 A 
BRANCH  18  21
HETATM   21  C11 UNL     1      27.455  -8.880  16.135  1.00  0.00     0.170 C 
HETATM   22  N4  UNL     1      28.576  -9.014  16.657  1.00  0.00    -0.247 N 
ATOM     23  H4  UNL     1      29.127  -8.158  16.718  1.00  0.00     0.196 HD
BRANCH  21  24
HETATM   24  O1  UNL     1      27.161  -7.542  15.723  1.00  0.00    -0.344 OA
ATOM     25  H1  UNL     1      27.490  -7.251  14.880  1.00  0.00     0.219 HD
ENDBRANCH  21  24
BRANCH  22  26
HETATM   26  O2  UNL     1      29.168 -10.093  17.145  1.00  0.00    -0.288 OA
ATOM     27  H2  UNL     1      29.901 -10.172  17.743  1.00  0.00     0.244 HD
ENDBRANCH  22  26
ENDBRANCH  18  21
ENDBRANCH   1  15
TORSDOF 8
ENDMDL
MODEL 3
REMARK VINA RESULT: -6.258647748      2.004      2.953
REMARK  8 active torsions:
REMARK  status: ('A' for Active; 'I' for Inactive)
REMARK    1  A    between atoms: N2_7  and  C4_8 
REMARK    2  A    between atoms: C4_8  and  C5_9 
REMARK    3  A    between atoms: C5_9  and  C6_10 
REMARK    4  A    between atoms: C6_10  and  C7_11 
REMARK    5  A    between atoms: C7_11  and  N3_12 
REMARK    6  A    between atoms: C10_15  and  C11_16 
REMARK    7  A    between atoms: C11_16  and  O1_17 
REMARK    8  A    between atoms: N4_19  and  O2_21 
ROOT
HETATM    1  C7  UNL     1      23.933 -11.976  12.380  1.00  0.00     0.128 C 
ENDROOT
BRANCH   1   2
HETATM    2  C6  UNL     1      23.724 -10.699  11.633  1.00  0.00     0.022 C 
BRANCH   2   3
HETATM    3  C5  UNL     1      22.313 -10.200  11.665  1.00  0.00     0.022 C 
BRANCH   3   4
HETATM    4  C4  UNL     1      22.167  -8.826  12.247  1.00  0.00     0.129 C 
BRANCH   4   5
HETATM    5  N2  UNL     1      22.240  -8.941  13.691  1.00  0.00    -0.353 N 
HETATM    6  C3  UNL     1      21.354  -9.684  14.394  1.00  0.00     0.095 A 
HETATM    7  C2  UNL     1      21.406  -9.806  15.768  1.00  0.00     0.065 A 
HETATM    8  C1  UNL     1      22.395  -9.150  16.468  1.00  0.00     0.100 A 
HETATM    9  N1  UNL     1      22.480  -9.238  17.773  1.00  0.00    -0.385 N 
HETATM   10  N5  UNL     1      23.270  -8.414  15.760  1.00  0.00    -0.339 N 
ATOM     11  H12 UNL     1      21.817  -9.797  18.310  1.00  0.00     0.157 HD
ATOM     12  H11 UNL     1      23.213  -8.752  18.291  1.00  0.00     0.157 HD
HETATM   13  C14 UNL     1      23.191  -8.316  14.418  1.00  0.00     0.184 A 
ATOM     14  H5  UNL     1      24.012  -7.916  16.251  1.00  0.00     0.168 HD
ENDBRANCH   4   5
ENDBRANCH   3   4
ENDBRANCH   2   3
ENDBRANCH   1   2
BRANCH   1  15
HETATM   15  N3  UNL     1      24.529 -11.656  13.665  1.00  0.00    -0.366 N 
HETATM   16  C8  UNL     1      24.080 -12.214  14.801  1.00  0.00     0.091 A 
HETATM   17  C9  UNL     1      24.669 -11.887  16.000  1.00  0.00     0.033 A 
HETATM   18  C10 UNL     1      25.734 -10.987  16.112  1.00  0.00     0.019 A 
HETATM   19  C12 UNL     1      26.170 -10.433  14.940  1.00  0.00     0.033 A 
HETATM   20  C13 UNL     1      25.548 -10.790  13.747  1.00  0.00     0.091 A 
BRANCH  18  21
HETATM   21  C11 UNL     1      26.289 -10.704  17.406  1.00  0.00     0.170 C 
HETATM   22  N4  UNL     1      27.318 -11.181  17.917  1.00  0.00    -0.247 N 
ATOM     23  H4  UNL     1      27.532 -10.839  18.854  1.00  0.00     0.196 HD
BRANCH  21  24
HETATM   24  O1  UNL     1      25.606  -9.764  18.241  1.00  0.00    -0.344 OA
ATOM     25  H1  UNL     1      25.600  -9.920  19.179  1.00  0.00     0.219 HD
ENDBRANCH  21  24
BRANCH  22  26
HETATM   26  O2  UNL     1      28.180 -12.063  17.436  1.00  0.00    -0.288 OA
ATOM     27  H2  UNL     1      28.182 -13.011  17.492  1.00  0.00     0.244 HD
ENDBRANCH  22  26
ENDBRANCH  18  21
ENDBRANCH   1  15
TORSDOF 8
ENDMDL
MODEL 4
REMARK VINA RESULT: -6.254479592      2.207      3.896
REMARK  8 active torsions:
REMARK  status: ('A' for Active; 'I' for Inactive)
REMARK    1  A    between atoms: N2_7  and  C4_8 
REMARK    2  A    between atoms: C4_8  and  C5_9 
REMARK    3  A    between atoms: C5_9  and  C6_10 
REMARK    4  A    between atoms: C6_10  and  C7_11 
REMARK    5  A    between atoms: C7_11  and  N3_12 
REMARK    6  A    between atoms: C10_15  and  C11_16 
REMARK    7  A    between atoms: C11_16  and  O1_17 
REMARK    8  A    between atoms: N4_19  and  O2_21 
ROOT
HETATM    1  C7  UNL     1      23.899  -9.836  12.742  1.00  0.00     0.128 C 
ENDROOT
BRANCH   1   2
HETATM    2  C6  UNL     1      22.815 -10.344  13.636  1.00  0.00     0.022 C 
BRANCH   2   3
HETATM    3  C5  UNL     1      22.532  -9.461  14.811  1.00  0.00     0.022 C 
BRANCH   3   4
HETATM    4  C4  UNL     1      22.034 -10.197  16.018  1.00  0.00     0.129 C 
BRANCH   4   5
HETATM    5  N2  UNL     1      23.072 -10.156  17.030  1.00  0.00    -0.353 N 
HETATM    6  C3  UNL     1      24.366 -10.428  16.738  1.00  0.00     0.095 A 
HETATM    7  C2  UNL     1      25.369 -10.395  17.685  1.00  0.00     0.065 A 
HETATM    8  C1  UNL     1      25.058 -10.071  18.987  1.00  0.00     0.100 A 
HETATM    9  N1  UNL     1      25.979 -10.028  19.919  1.00  0.00    -0.385 N 
HETATM   10  N5  UNL     1      23.769  -9.802  19.267  1.00  0.00    -0.339 N 
ATOM     11  H12 UNL     1      26.956 -10.232  19.706  1.00  0.00     0.157 HD
ATOM     12  H11 UNL     1      25.748  -9.788  20.883  1.00  0.00     0.157 HD
HETATM   13  C14 UNL     1      22.814  -9.844  18.319  1.00  0.00     0.184 A 
ATOM     14  H5  UNL     1      23.510  -9.559  20.223  1.00  0.00     0.168 HD
ENDBRANCH   4   5
ENDBRANCH   3   4
ENDBRANCH   2   3
ENDBRANCH   1   2
BRANCH   1  15
HETATM   15  N3  UNL     1      25.146  -9.859  13.485  1.00  0.00    -0.366 N 
HETATM   16  C8  UNL     1      25.759 -11.016  13.783  1.00  0.00     0.091 A 
HETATM   17  C9  UNL     1      26.940 -11.000  14.489  1.00  0.00     0.033 A 
HETATM   18  C10 UNL     1      27.556  -9.823  14.927  1.00  0.00     0.019 A 
HETATM   19  C12 UNL     1      26.909  -8.660  14.611  1.00  0.00     0.033 A 
HETATM   20  C13 UNL     1      25.717  -8.719  13.895  1.00  0.00     0.091 A 
BRANCH  18  21
HETATM   21  C11 UNL     1      28.789  -9.900  15.659  1.00  0.00     0.170 C 
HETATM   22  N4  UNL     1      29.947  -9.767  15.222  1.00  0.00    -0.247 N 
ATOM     23  H4  UNL     1      30.684  -9.860  15.921  1.00  0.00     0.196 HD
BRANCH  21  24
HETATM   24  O1  UNL     1      28.724 -10.159  17.064  1.00  0.00    -0.344 OA
ATOM     25  H1  UNL     1      27.879 -10.094  17.493  1.00  0.00     0.219 HD
ENDBRANCH  21  24
BRANCH  22  26
HETATM   26  O2  UNL     1      30.373  -9.523  13.993  1.00  0.00    -0.288 OA
ATOM     27  H2  UNL     1      30.018  -9.798  13.156  1.00  0.00     0.244 HD
ENDBRANCH  22  26
ENDBRANCH  18  21
ENDBRANCH   1  15
TORSDOF 8
ENDMDL
MODEL 5
REMARK VINA RESULT: -6.226147768      1.881      4.198
REMARK  8 active torsions:
REMARK  status: ('A' for Active; 'I' for Inactive)
REMARK    1  A    between atoms: N2_7  and  C4_8 
REMARK    2  A    between atoms: C4_8  and  C5_9 
REMARK    3  A    between atoms: C5_9  and  C6_10 
REMARK    4  A    between atoms: C6_10  and  C7_11 
REMARK    5  A    between atoms: C7_11  and  N3_12 
REMARK    6  A    between atoms: C10_15  and  C11_16 
REMARK    7  A    between atoms: C11_16  and  O1_17 
REMARK    8  A    between atoms: N4_19  and  O2_21 
ROOT
HETATM    1  C7  UNL     1      21.392 -10.456  14.022  1.00  0.00     0.128 C 
ENDROOT
BRANCH   1   2
HETATM    2  C6  UNL     1      21.044 -10.194  15.452  1.00  0.00     0.022 C 
BRANCH   2   3
HETATM    3  C5  UNL     1      21.976 -10.837  16.431  1.00  0.00     0.022 C 
BRANCH   3   4
HETATM    4  C4  UNL     1      22.695  -9.863  17.316  1.00  0.00     0.129 C 
BRANCH   4   5
HETATM    5  N2  UNL     1      24.088 -10.261  17.384  1.00  0.00    -0.353 N 
HETATM    6  C3  UNL     1      24.704 -10.884  16.352  1.00  0.00     0.095 A 
HETATM    7  C2  UNL     1      26.029 -11.270  16.397  1.00  0.00     0.065 A 
HETATM    8  C1  UNL     1      26.768 -11.017  17.530  1.00  0.00     0.100 A 
HETATM    9  N1  UNL     1      28.029 -11.368  17.615  1.00  0.00    -0.385 N 
HETATM   10  N5  UNL     1      26.147 -10.398  18.550  1.00  0.00    -0.339 N 
ATOM     11  H12 UNL     1      28.500 -11.837  16.841  1.00  0.00     0.157 HD
ATOM     12  H11 UNL     1      28.577 -11.180  18.455  1.00  0.00     0.157 HD
HETATM   13  C14 UNL     1      24.852 -10.034  18.474  1.00  0.00     0.184 A 
ATOM     14  H5  UNL     1      26.670 -10.198  19.402  1.00  0.00     0.168 HD
ENDBRANCH   4   5
ENDBRANCH   3   4
ENDBRANCH   2   3
ENDBRANCH   1   2
BRANCH   1  15
HETATM   15  N3  UNL     1      22.597  -9.711  13.706  1.00  0.00    -0.366 N 
HETATM   16  C8  UNL     1      22.698  -8.399  13.975  1.00  0.00     0.091 A 
HETATM   17  C9  UNL     1      23.855  -7.725  13.661  1.00  0.00     0.033 A 
HETATM   18  C10 UNL     1      24.962  -8.338  13.063  1.00  0.00     0.019 A 
HETATM   19  C12 UNL     1      24.832  -9.674  12.800  1.00  0.00     0.033 A 
HETATM   20  C13 UNL     1      23.645 -10.319  13.133  1.00  0.00     0.091 A 
BRANCH  18  21
HETATM   21  C11 UNL     1      26.131  -7.557  12.770  1.00  0.00     0.170 C 
HETATM   22  N4  UNL     1      27.039  -7.219  13.551  1.00  0.00    -0.247 N 
ATOM     23  H4  UNL     1      27.782  -6.661  13.130  1.00  0.00     0.196 HD
BRANCH  21  24
HETATM   24  O1  UNL     1      26.312  -7.091  11.430  1.00  0.00    -0.344 OA
ATOM     25  H1  UNL     1      26.913  -6.369  11.284  1.00  0.00     0.219 HD
ENDBRANCH  21  24
BRANCH  22  26
HETATM   26  O2  UNL     1      27.194  -7.470  14.841  1.00  0.00    -0.288 OA
ATOM     27  H2  UNL     1      27.886  -7.210  15.437  1.00  0.00     0.244 HD
ENDBRANCH  22  26
ENDBRANCH  18  21
ENDBRANCH   1  15
TORSDOF 8
ENDMDL
