MODEL 1
REMARK VINA RESULT: -7.025069400      0.000      0.000
REMARK  7 active torsions:
REMARK  status: ('A' for Active; 'I' for Inactive)
REMARK    1  A    between atoms: O1_1  and  N1_3 
REMARK       I    between atoms: C1_5  and  N2_6 
REMARK       I    between atoms: C1_5  and  N5_18 
REMARK    2  A    between atoms: N2_6  and  C2_8 
REMARK    3  A    between atoms: C2_8  and  C3_9 
REMARK    4  A    between atoms: C3_9  and  N3_10 
REMARK    5  A    between atoms: N5_18  and  C8_20 
REMARK    6  A    between atoms: C8_20  and  C9_21 
REMARK    7  A    between atoms: C9_21  and  N6_22 
ROOT
HETATM    1  N1  UNL     1      27.332  -7.471  13.480  1.00  0.00    -0.099 N 
ATOM      2  H1  UNL     1      28.331  -7.273  13.423  1.00  0.00     0.213 HD
HETATM    3  C1  UNL     1      26.872  -8.056  14.511  1.00  0.00     0.693 C 
HETATM    4  N2  UNL     1      27.658  -8.474  15.635  1.00  0.00    -0.223 N 
ATOM      5  H2  UNL     1      27.674  -7.860  16.449  1.00  0.00     0.177 HD
HETATM    6  N5  UNL     1      25.470  -8.329  14.580  1.00  0.00    -0.223 N 
ATOM      7  H5  UNL     1      24.890  -7.836  15.259  1.00  0.00     0.177 HD
ENDROOT
BRANCH   1   8
HETATM    8  O1  UNL     1      26.526  -7.106  12.455  1.00  0.00    -0.276 OA
ATOM      9  H1  UNL     1      26.755  -6.390  11.875  1.00  0.00     0.245 HD
ENDBRANCH   1   8
BRANCH   4  10
HETATM   10  C2  UNL     1      28.415  -9.671  15.712  1.00  0.00     0.157 C 
BRANCH  10  11
HETATM   11  C3  UNL     1      27.641 -10.838  16.296  1.00  0.00     0.141 C 
BRANCH  11  12
HETATM   12  N3  UNL     1      27.252 -10.561  17.663  1.00  0.00    -0.375 N 
HETATM   13  C4  UNL     1      26.081 -10.368  18.098  1.00  0.00     0.096 A 
HETATM   14  C5  UNL     1      24.790 -10.349  17.463  1.00  0.00     0.045 A 
HETATM   15  N4  UNL     1      25.838 -10.075  19.489  1.00  0.00    -0.373 N 
HETATM   16  C6  UNL     1      23.860 -10.077  18.356  1.00  0.00    -0.004 A 
HETATM   17  C7  UNL     1      24.424  -9.880  19.695  1.00  0.00     0.148 A 
ATOM     18  H4  UNL     1      26.552 -10.015  20.213  1.00  0.00     0.161 HD
ATOM     19  H3  UNL     1      28.005 -10.515  18.350  1.00  0.00     0.161 HD
ENDBRANCH  11  12
ENDBRANCH  10  11
ENDBRANCH   4  10
BRANCH   6  20
HETATM   20  C8  UNL     1      24.879  -9.280  13.711  1.00  0.00     0.168 C 
BRANCH  20  21
HETATM   21  C9  UNL     1      23.430  -8.948  13.544  1.00  0.00     0.292 C 
BRANCH  21  22
HETATM   22  N6  UNL     1      22.611 -10.124  13.601  1.00  0.00     0.090 N 
HETATM   23  C10 UNL     1      23.169 -11.217  14.333  1.00  0.00     0.272 C 
HETATM   24  C11 UNL     1      22.049 -12.038  14.950  1.00  0.00     0.030 C 
HETATM   25  C12 UNL     1      21.357 -11.212  16.020  1.00  0.00     0.003 C 
HETATM   26  C13 UNL     1      21.180  -9.789  15.550  1.00  0.00     0.030 C 
HETATM   27  C14 UNL     1      21.266  -9.751  14.032  1.00  0.00     0.272 C 
ENDBRANCH  21  22
ENDBRANCH  20  21
ENDBRANCH   6  20
TORSDOF 7
ENDMDL
MODEL 2
REMARK VINA RESULT: -6.847321135      2.057      3.653
REMARK  7 active torsions:
REMARK  status: ('A' for Active; 'I' for Inactive)
REMARK    1  A    between atoms: O1_1  and  N1_3 
REMARK       I    between atoms: C1_5  and  N2_6 
REMARK       I    between atoms: C1_5  and  N5_18 
REMARK    2  A    between atoms: N2_6  and  C2_8 
REMARK    3  A    between atoms: C2_8  and  C3_9 
REMARK    4  A    between atoms: C3_9  and  N3_10 
REMARK    5  A    between atoms: N5_18  and  C8_20 
REMARK    6  A    between atoms: C8_20  and  C9_21 
REMARK    7  A    between atoms: C9_21  and  N6_22 
ROOT
HETATM    1  N1  UNL     1      29.903 -10.228  15.106  1.00  0.00    -0.099 N 
ATOM      2  H1  UNL     1      30.539 -10.980  15.369  1.00  0.00     0.213 HD
HETATM    3  C1  UNL     1      28.898  -9.976  15.844  1.00  0.00     0.693 C 
HETATM    4  N2  UNL     1      28.571 -10.679  17.050  1.00  0.00    -0.223 N 
ATOM      5  H2  UNL     1      28.855 -10.252  17.932  1.00  0.00     0.177 HD
HETATM    6  N5  UNL     1      28.013  -8.919  15.465  1.00  0.00    -0.223 N 
ATOM      7  H5  UNL     1      27.965  -8.071  16.031  1.00  0.00     0.177 HD
ENDROOT
BRANCH   1   8
HETATM    8  O1  UNL     1      30.147  -9.519  13.979  1.00  0.00    -0.276 OA
ATOM      9  H1  UNL     1      31.015  -9.193  13.776  1.00  0.00     0.245 HD
ENDBRANCH   1   8
BRANCH   4  10
HETATM   10  C2  UNL     1      27.885 -11.918  17.122  1.00  0.00     0.157 C 
BRANCH  10  11
HETATM   11  C3  UNL     1      26.516 -11.888  16.469  1.00  0.00     0.141 C 
BRANCH  11  12
HETATM   12  N3  UNL     1      25.653 -10.933  17.132  1.00  0.00    -0.375 N 
HETATM   13  C4  UNL     1      24.444 -10.684  16.865  1.00  0.00     0.096 A 
HETATM   14  C5  UNL     1      23.530 -11.205  15.882  1.00  0.00     0.045 A 
HETATM   15  N4  UNL     1      23.706  -9.683  17.594  1.00  0.00    -0.373 N 
HETATM   16  C6  UNL     1      22.365 -10.597  15.993  1.00  0.00    -0.004 A 
HETATM   17  C7  UNL     1      22.368  -9.596  17.064  1.00  0.00     0.148 A 
ATOM     18  H4  UNL     1      24.072  -9.125  18.364  1.00  0.00     0.161 HD
ATOM     19  H3  UNL     1      26.067 -10.403  17.899  1.00  0.00     0.161 HD
ENDBRANCH  11  12
ENDBRANCH  10  11
ENDBRANCH   4  10
BRANCH   6  20
HETATM   20  C8  UNL     1      27.201  -9.040  14.310  1.00  0.00     0.168 C 
BRANCH  20  21
HETATM   21  C9  UNL     1      25.886  -8.377  14.572  1.00  0.00     0.292 C 
BRANCH  21  22
HETATM   22  N6  UNL     1      25.008  -8.485  13.442  1.00  0.00     0.090 N 
HETATM   23  C10 UNL     1      23.644  -8.145  13.699  1.00  0.00     0.272 C 
HETATM   24  C11 UNL     1      23.015  -7.583  12.435  1.00  0.00     0.030 C 
HETATM   25  C12 UNL     1      23.658  -6.246  12.112  1.00  0.00     0.003 C 
HETATM   26  C13 UNL     1      25.149  -6.314  12.337  1.00  0.00     0.030 C 
HETATM   27  C14 UNL     1      25.592  -7.768  12.311  1.00  0.00     0.272 C 
ENDBRANCH  21  22
ENDBRANCH  20  21
ENDBRANCH   6  20
TORSDOF 7
ENDMDL
MODEL 3
REMARK VINA RESULT: -6.643881988      1.905      4.016
REMARK  7 active torsions:
REMARK  status: ('A' for Active; 'I' for Inactive)
REMARK    1  A    between atoms: O1_1  and  N1_3 
REMARK       I    between atoms: C1_5  and  N2_6 
REMARK       I    between atoms: C1_5  and  N5_18 
REMARK    2  A    between atoms: N2_6  and  C2_8 
REMARK    3  A    between atoms: C2_8  and  C3_9 
REMARK    4  A    between atoms: C3_9  and  N3_10 
REMARK    5  A    between atoms: N5_18  and  C8_20 
REMARK    6  A    between atoms: C8_20  and  C9_21 
REMARK    7  A    between atoms: C9_21  and  N6_22 
ROOT
HETATM    1  N1  UNL     1      23.416  -8.341  15.380  1.00  0.00    -0.099 N 
ATOM      2  H1  UNL     1      24.386  -8.059  15.517  1.00  0.00     0.213 HD
HETATM    3  C1  UNL     1      22.817  -8.977  16.304  1.00  0.00     0.693 C 
HETATM    4  N2  UNL     1      23.404  -9.344  17.559  1.00  0.00    -0.223 N 
ATOM      5  H2  UNL     1      23.210  -8.742  18.359  1.00  0.00     0.177 HD
HETATM    6  N5  UNL     1      21.456  -9.368  16.101  1.00  0.00    -0.223 N 
ATOM      7  H5  UNL     1      20.717  -8.936  16.654  1.00  0.00     0.177 HD
ENDROOT
BRANCH   1   8
HETATM    8  O1  UNL     1      22.794  -8.030  14.218  1.00  0.00    -0.276 OA
ATOM      9  H1  UNL     1      23.269  -7.655  13.486  1.00  0.00     0.245 HD
ENDBRANCH   1   8
BRANCH   4  10
HETATM   10  C2  UNL     1      24.232 -10.473  17.784  1.00  0.00     0.157 C 
BRANCH  10  11
HETATM   11  C3  UNL     1      25.544 -10.133  18.465  1.00  0.00     0.141 C 
BRANCH  11  12
HETATM   12  N3  UNL     1      26.428  -9.437  17.554  1.00  0.00    -0.375 N 
HETATM   13  C4  UNL     1      27.210  -9.952  16.707  1.00  0.00     0.096 A 
HETATM   14  C5  UNL     1      27.506 -11.314  16.347  1.00  0.00     0.045 A 
HETATM   15  N4  UNL     1      28.059  -9.135  15.875  1.00  0.00    -0.373 N 
HETATM   16  C6  UNL     1      28.427 -11.334  15.404  1.00  0.00    -0.004 A 
HETATM   17  C7  UNL     1      28.856  -9.984  15.027  1.00  0.00     0.148 A 
ATOM     18  H4  UNL     1      28.090  -8.116  15.886  1.00  0.00     0.161 HD
ATOM     19  H3  UNL     1      26.418  -8.418  17.602  1.00  0.00     0.161 HD
ENDBRANCH  11  12
ENDBRANCH  10  11
ENDBRANCH   4  10
BRANCH   6  20
HETATM   20  C8  UNL     1      21.128 -10.354  15.136  1.00  0.00     0.168 C 
BRANCH  20  21
HETATM   21  C9  UNL     1      21.728 -11.659  15.554  1.00  0.00     0.292 C 
BRANCH  21  22
HETATM   22  N6  UNL     1      22.279 -12.367  14.434  1.00  0.00     0.090 N 
HETATM   23  C10 UNL     1      22.015 -11.781  13.157  1.00  0.00     0.272 C 
HETATM   24  C11 UNL     1      23.157 -12.101  12.208  1.00  0.00     0.030 C 
HETATM   25  C12 UNL     1      24.410 -11.380  12.675  1.00  0.00     0.003 C 
HETATM   26  C13 UNL     1      24.532 -11.464  14.177  1.00  0.00     0.030 C 
HETATM   27  C14 UNL     1      23.694 -12.629  14.682  1.00  0.00     0.272 C 
ENDBRANCH  21  22
ENDBRANCH  20  21
ENDBRANCH   6  20
TORSDOF 7
ENDMDL
MODEL 4
REMARK VINA RESULT: -6.524557227      2.167      4.333
REMARK  7 active torsions:
REMARK  status: ('A' for Active; 'I' for Inactive)
REMARK    1  A    between atoms: O1_1  and  N1_3 
REMARK       I    between atoms: C1_5  and  N2_6 
REMARK       I    between atoms: C1_5  and  N5_18 
REMARK    2  A    between atoms: N2_6  and  C2_8 
REMARK    3  A    between atoms: C2_8  and  C3_9 
REMARK    4  A    between atoms: C3_9  and  N3_10 
REMARK    5  A    between atoms: N5_18  and  C8_20 
REMARK    6  A    between atoms: C8_20  and  C9_21 
REMARK    7  A    between atoms: C9_21  and  N6_22 
ROOT
HETATM    1  N1  UNL     1      25.926  -9.739  18.341  1.00  0.00    -0.099 N 
ATOM      2  H1  UNL     1      26.471  -9.046  18.853  1.00  0.00     0.213 HD
HETATM    3  C1  UNL     1      26.497 -10.446  17.451  1.00  0.00     0.693 C 
HETATM    4  N2  UNL     1      27.882 -10.349  17.092  1.00  0.00    -0.223 N 
ATOM      5  H2  UNL     1      28.520 -11.026  17.509  1.00  0.00     0.177 HD
HETATM    6  N5  UNL     1      25.723 -11.415  16.739  1.00  0.00    -0.223 N 
ATOM      7  H5  UNL     1      25.902 -12.409  16.880  1.00  0.00     0.177 HD
ENDROOT
BRANCH   1   8
HETATM    8  O1  UNL     1      24.610  -9.888  18.625  1.00  0.00    -0.276 OA
ATOM      9  H1  UNL     1      23.977  -9.215  18.407  1.00  0.00     0.245 HD
ENDBRANCH   1   8
BRANCH   4  10
HETATM   10  C2  UNL     1      28.439  -9.391  16.207  1.00  0.00     0.157 C 
BRANCH  10  11
HETATM   11  C3  UNL     1      27.912  -9.502  14.789  1.00  0.00     0.141 C 
BRANCH  11  12
HETATM   12  N3  UNL     1      27.471  -8.211  14.306  1.00  0.00    -0.375 N 
HETATM   13  C4  UNL     1      26.425  -7.962  13.640  1.00  0.00     0.096 A 
HETATM   14  C5  UNL     1      25.359  -8.792  13.144  1.00  0.00     0.045 A 
HETATM   15  N4  UNL     1      26.118  -6.625  13.198  1.00  0.00    -0.373 N 
HETATM   16  C6  UNL     1      24.496  -8.053  12.476  1.00  0.00    -0.004 A 
HETATM   17  C7  UNL     1      24.888  -6.641  12.446  1.00  0.00     0.148 A 
ATOM     18  H4  UNL     1      26.682  -5.797  13.388  1.00  0.00     0.161 HD
ATOM     19  H3  UNL     1      28.068  -7.414  14.526  1.00  0.00     0.161 HD
ENDBRANCH  11  12
ENDBRANCH  10  11
ENDBRANCH   4  10
BRANCH   6  20
HETATM   20  C8  UNL     1      24.708 -11.004  15.839  1.00  0.00     0.168 C 
BRANCH  20  21
HETATM   21  C9  UNL     1      23.906 -12.201  15.436  1.00  0.00     0.292 C 
BRANCH  21  22
HETATM   22  N6  UNL     1      22.500 -11.918  15.440  1.00  0.00     0.090 N 
HETATM   23  C10 UNL     1      22.133 -10.679  16.050  1.00  0.00     0.272 C 
HETATM   24  C11 UNL     1      20.875 -10.142  15.389  1.00  0.00     0.030 C 
HETATM   25  C12 UNL     1      21.195  -9.749  13.957  1.00  0.00     0.003 C 
HETATM   26  C13 UNL     1      22.090 -10.782  13.319  1.00  0.00     0.030 C 
HETATM   27  C14 UNL     1      21.973 -12.089  14.089  1.00  0.00     0.272 C 
ENDBRANCH  21  22
ENDBRANCH  20  21
ENDBRANCH   6  20
TORSDOF 7
ENDMDL
MODEL 5
REMARK VINA RESULT: -6.505941072      2.041      5.009
REMARK  7 active torsions:
REMARK  status: ('A' for Active; 'I' for Inactive)
REMARK    1  A    between atoms: O1_1  and  N1_3 
REMARK       I    between atoms: C1_5  and  N2_6 
REMARK       I    between atoms: C1_5  and  N5_18 
REMARK    2  A    between atoms: N2_6  and  C2_8 
REMARK    3  A    between atoms: C2_8  and  C3_9 
REMARK    4  A    between atoms: C3_9  and  N3_10 
REMARK    5  A    between atoms: N5_18  and  C8_20 
REMARK    6  A    between atoms: C8_20  and  C9_21 
REMARK    7  A    between atoms: C9_21  and  N6_22 
ROOT
HETATM    1  N1  UNL     1      25.699  -6.835  13.059  1.00  0.00    -0.099 N 
ATOM      2  H1  UNL     1      25.065  -6.143  12.661  1.00  0.00     0.213 HD
HETATM    3  C1  UNL     1      25.314  -8.042  13.166  1.00  0.00     0.693 C 
HETATM    4  N2  UNL     1      24.027  -8.531  12.765  1.00  0.00    -0.223 N 
ATOM      5  H2  UNL     1      23.962  -8.983  11.854  1.00  0.00     0.177 HD
HETATM    6  N5  UNL     1      26.212  -9.004  13.727  1.00  0.00    -0.223 N 
ATOM      7  H5  UNL     1      26.596  -9.742  13.137  1.00  0.00     0.177 HD
ENDROOT
BRANCH   1   8
HETATM    8  O1  UNL     1      26.933  -6.448  13.461  1.00  0.00    -0.276 OA
ATOM      9  H1  UNL     1      27.541  -6.030  12.864  1.00  0.00     0.245 HD
ENDBRANCH   1   8
BRANCH   4  10
HETATM   10  C2  UNL     1      22.835  -8.439  13.529  1.00  0.00     0.157 C 
BRANCH  10  11
HETATM   11  C3  UNL     1      23.028  -8.790  14.992  1.00  0.00     0.141 C 
BRANCH  11  12
HETATM   12  N3  UNL     1      22.292  -9.990  15.331  1.00  0.00    -0.375 N 
HETATM   13  C4  UNL     1      22.656 -11.186  15.147  1.00  0.00     0.096 A 
HETATM   14  C5  UNL     1      23.840 -11.774  14.578  1.00  0.00     0.045 A 
HETATM   15  N4  UNL     1      21.806 -12.293  15.512  1.00  0.00    -0.373 N 
HETATM   16  C6  UNL     1      23.733 -13.088  14.590  1.00  0.00    -0.004 A 
HETATM   17  C7  UNL     1      22.461 -13.530  15.169  1.00  0.00     0.148 A 
ATOM     18  H4  UNL     1      20.887 -12.213  15.944  1.00  0.00     0.161 HD
ATOM     19  H3  UNL     1      21.379  -9.856  15.765  1.00  0.00     0.161 HD
ENDBRANCH  11  12
ENDBRANCH  10  11
ENDBRANCH   4  10
BRANCH   6  20
HETATM   20  C8  UNL     1      26.571  -8.941  15.097  1.00  0.00     0.168 C 
BRANCH  20  21
HETATM   21  C9  UNL     1      28.031  -9.236  15.228  1.00  0.00     0.292 C 
BRANCH  21  22
HETATM   22  N6  UNL     1      28.278 -10.237  16.225  1.00  0.00     0.090 N 
HETATM   23  C10 UNL     1      27.199 -10.468  17.133  1.00  0.00     0.272 C 
HETATM   24  C11 UNL     1      27.227 -11.914  17.597  1.00  0.00     0.030 C 
HETATM   25  C12 UNL     1      26.901 -12.820  16.423  1.00  0.00     0.003 C 
HETATM   26  C13 UNL     1      27.602 -12.336  15.177  1.00  0.00     0.030 C 
HETATM   27  C14 UNL     1      28.771 -11.449  15.576  1.00  0.00     0.272 C 
ENDBRANCH  21  22
ENDBRANCH  20  21
ENDBRANCH   6  20
TORSDOF 7
ENDMDL
