MODEL 1
REMARK VINA RESULT: -6.669181763      0.000      0.000
REMARK  6 active torsions:
REMARK  status: ('A' for Active; 'I' for Inactive)
REMARK    1  A    between atoms: N3_4  and  N4_6 
REMARK    2  A    between atoms: N4_6  and  C2_8 
REMARK    3  A    between atoms: C5_11  and  C6_12 
REMARK    4  A    between atoms: C6_12  and  C7_13 
REMARK    5  A    between atoms: C7_13  and  N5_14 
REMARK    6  A    between atoms: C10_17  and  C11_18 
ROOT
HETATM    1  C2  UNL     1      26.190 -11.149  16.832  1.00  0.00     0.048 A 
HETATM    2  C3  UNL     1      26.185 -12.302  16.073  1.00  0.00     0.031 A 
HETATM    3  C4  UNL     1      25.018 -12.709  15.468  1.00  0.00     0.009 A 
HETATM    4  C5  UNL     1      23.838 -12.006  15.589  1.00  0.00    -0.057 A 
HETATM    5  C14 UNL     1      23.874 -10.859  16.353  1.00  0.00     0.009 A 
HETATM    6  C15 UNL     1      25.025 -10.422  16.972  1.00  0.00     0.031 A 
ENDROOT
BRANCH   4   7
HETATM    7  C6  UNL     1      22.575 -12.443  14.939  1.00  0.00     0.058 C 
BRANCH   7   8
HETATM    8  C7  UNL     1      22.726 -12.196  13.460  1.00  0.00     0.132 C 
BRANCH   8   9
HETATM    9  N5  UNL     1      22.966 -10.800  13.149  1.00  0.00    -0.366 N 
HETATM   10  C8  UNL     1      21.994  -9.888  13.330  1.00  0.00     0.091 A 
HETATM   11  C9  UNL     1      22.175  -8.550  13.049  1.00  0.00     0.031 A 
HETATM   12  C10 UNL     1      23.381  -8.088  12.565  1.00  0.00     0.004 A 
HETATM   13  C12 UNL     1      24.384  -9.036  12.381  1.00  0.00     0.031 A 
HETATM   14  C13 UNL     1      24.153 -10.363  12.676  1.00  0.00     0.091 A 
BRANCH  12  15
HETATM   15  C11 UNL     1      23.607  -6.685  12.259  1.00  0.00     0.270 C 
HETATM   16  O1  UNL     1      23.352  -5.742  13.042  1.00  0.00    -0.301 OA
ENDBRANCH  12  15
ENDBRANCH   8   9
ENDBRANCH   7   8
ENDBRANCH   4   7
BRANCH   1  17
HETATM   17  N4  UNL     1      27.405 -10.743  17.448  1.00  0.00    -0.299 N 
ATOM     18  H4  UNL     1      27.406 -10.510  18.441  1.00  0.00     0.187 HD
BRANCH  17  19
HETATM   19  N3  UNL     1      28.582 -10.656  16.737  1.00  0.00    -0.276 N 
HETATM   20  C1  UNL     1      28.859  -9.806  15.835  1.00  0.00     0.215 C 
HETATM   21  N1  UNL     1      27.889  -8.823  15.488  1.00  0.00    -0.065 NA
HETATM   22  N2  UNL     1      30.112  -9.837  15.187  1.00  0.00    -0.065 NA
ATOM     23  H3  UNL     1      29.303 -11.343  16.958  1.00  0.00     0.189 HD
ENDBRANCH  17  19
ENDBRANCH   1  17
TORSDOF 6
ENDMDL
MODEL 2
REMARK VINA RESULT: -6.649477486      0.048      1.451
REMARK  6 active torsions:
REMARK  status: ('A' for Active; 'I' for Inactive)
REMARK    1  A    between atoms: N3_4  and  N4_6 
REMARK    2  A    between atoms: N4_6  and  C2_8 
REMARK    3  A    between atoms: C5_11  and  C6_12 
REMARK    4  A    between atoms: C6_12  and  C7_13 
REMARK    5  A    between atoms: C7_13  and  N5_14 
REMARK    6  A    between atoms: C10_17  and  C11_18 
ROOT
HETATM    1  C2  UNL     1      26.189 -11.173  16.793  1.00  0.00     0.048 A 
HETATM    2  C3  UNL     1      25.037 -10.429  16.952  1.00  0.00     0.031 A 
HETATM    3  C4  UNL     1      23.872 -10.849  16.352  1.00  0.00     0.009 A 
HETATM    4  C5  UNL     1      23.804 -11.996  15.590  1.00  0.00    -0.057 A 
HETATM    5  C14 UNL     1      24.971 -12.717  15.450  1.00  0.00     0.009 A 
HETATM    6  C15 UNL     1      26.154 -12.326  16.036  1.00  0.00     0.031 A 
ENDROOT
BRANCH   4   7
HETATM    7  C6  UNL     1      22.549 -12.453  14.940  1.00  0.00     0.058 C 
BRANCH   7   8
HETATM    8  C7  UNL     1      22.688 -12.186  13.463  1.00  0.00     0.132 C 
BRANCH   8   9
HETATM    9  N5  UNL     1      22.905 -10.783  13.168  1.00  0.00    -0.366 N 
HETATM   10  C8  UNL     1      24.089 -10.367  12.684  1.00  0.00     0.091 A 
HETATM   11  C9  UNL     1      24.342  -9.044  12.389  1.00  0.00     0.031 A 
HETATM   12  C10 UNL     1      23.373  -8.081  12.580  1.00  0.00     0.004 A 
HETATM   13  C12 UNL     1      22.149  -8.518  13.078  1.00  0.00     0.031 A 
HETATM   14  C13 UNL     1      21.945  -9.853  13.359  1.00  0.00     0.091 A 
BRANCH  12  15
HETATM   15  C11 UNL     1      23.605  -6.678  12.278  1.00  0.00     0.270 C 
HETATM   16  O1  UNL     1      23.381  -5.739  13.076  1.00  0.00    -0.301 OA
ENDBRANCH  12  15
ENDBRANCH   8   9
ENDBRANCH   7   8
ENDBRANCH   4   7
BRANCH   1  17
HETATM   17  N4  UNL     1      27.383 -10.724  17.421  1.00  0.00    -0.299 N 
ATOM     18  H4  UNL     1      27.357 -10.456  18.405  1.00  0.00     0.187 HD
BRANCH  17  19
HETATM   19  N3  UNL     1      28.574 -10.642  16.733  1.00  0.00    -0.276 N 
HETATM   20  C1  UNL     1      28.854  -9.823  15.803  1.00  0.00     0.215 C 
HETATM   21  N1  UNL     1      27.872  -8.875  15.395  1.00  0.00    -0.065 NA
HETATM   22  N2  UNL     1      30.122  -9.854  15.184  1.00  0.00    -0.065 NA
ATOM     23  H3  UNL     1      29.303 -11.303  16.998  1.00  0.00     0.189 HD
ENDBRANCH  17  19
ENDBRANCH   1  17
TORSDOF 6
ENDMDL
MODEL 3
REMARK VINA RESULT: -6.636155155      0.018      1.018
REMARK  6 active torsions:
REMARK  status: ('A' for Active; 'I' for Inactive)
REMARK    1  A    between atoms: N3_4  and  N4_6 
REMARK    2  A    between atoms: N4_6  and  C2_8 
REMARK    3  A    between atoms: C5_11  and  C6_12 
REMARK    4  A    between atoms: C6_12  and  C7_13 
REMARK    5  A    between atoms: C7_13  and  N5_14 
REMARK    6  A    between atoms: C10_17  and  C11_18 
ROOT
HETATM    1  C2  UNL     1      26.191 -11.144  16.831  1.00  0.00     0.048 A 
HETATM    2  C3  UNL     1      26.192 -12.297  16.072  1.00  0.00     0.031 A 
HETATM    3  C4  UNL     1      25.027 -12.709  15.467  1.00  0.00     0.009 A 
HETATM    4  C5  UNL     1      23.843 -12.012  15.587  1.00  0.00    -0.057 A 
HETATM    5  C14 UNL     1      23.874 -10.865  16.351  1.00  0.00     0.009 A 
HETATM    6  C15 UNL     1      25.022 -10.423  16.971  1.00  0.00     0.031 A 
ENDROOT
BRANCH   4   7
HETATM    7  C6  UNL     1      22.583 -12.454  14.935  1.00  0.00     0.058 C 
BRANCH   7   8
HETATM    8  C7  UNL     1      22.728 -12.192  13.458  1.00  0.00     0.132 C 
BRANCH   8   9
HETATM    9  N5  UNL     1      22.935 -10.788  13.159  1.00  0.00    -0.366 N 
HETATM   10  C8  UNL     1      24.118 -10.364  12.679  1.00  0.00     0.091 A 
HETATM   11  C9  UNL     1      24.361  -9.040  12.380  1.00  0.00     0.031 A 
HETATM   12  C10 UNL     1      23.384  -8.084  12.564  1.00  0.00     0.004 A 
HETATM   13  C12 UNL     1      22.162  -8.529  13.059  1.00  0.00     0.031 A 
HETATM   14  C13 UNL     1      21.968  -9.865  13.343  1.00  0.00     0.091 A 
BRANCH  12  15
HETATM   15  C11 UNL     1      23.606  -6.680  12.259  1.00  0.00     0.270 C 
HETATM   16  O1  UNL     1      23.358  -5.739  13.047  1.00  0.00    -0.301 OA
ENDBRANCH  12  15
ENDBRANCH   8   9
ENDBRANCH   7   8
ENDBRANCH   4   7
BRANCH   1  17
HETATM   17  N4  UNL     1      27.404 -10.733  17.448  1.00  0.00    -0.299 N 
ATOM     18  H4  UNL     1      27.401 -10.494  18.440  1.00  0.00     0.187 HD
BRANCH  17  19
HETATM   19  N3  UNL     1      28.582 -10.648  16.740  1.00  0.00    -0.276 N 
HETATM   20  C1  UNL     1      28.857  -9.807  15.828  1.00  0.00     0.215 C 
HETATM   21  N1  UNL     1      27.883  -8.834  15.467  1.00  0.00    -0.065 NA
HETATM   22  N2  UNL     1      30.112  -9.839  15.184  1.00  0.00    -0.065 NA
ATOM     23  H3  UNL     1      29.306 -11.328  16.971  1.00  0.00     0.189 HD
ENDBRANCH  17  19
ENDBRANCH   1  17
TORSDOF 6
ENDMDL
MODEL 4
REMARK VINA RESULT: -6.583126104      3.338      5.856
REMARK  6 active torsions:
REMARK  status: ('A' for Active; 'I' for Inactive)
REMARK    1  A    between atoms: N3_4  and  N4_6 
REMARK    2  A    between atoms: N4_6  and  C2_8 
REMARK    3  A    between atoms: C5_11  and  C6_12 
REMARK    4  A    between atoms: C6_12  and  C7_13 
REMARK    5  A    between atoms: C7_13  and  N5_14 
REMARK    6  A    between atoms: C10_17  and  C11_18 
ROOT
HETATM    1  C2  UNL     1      22.902  -8.707  11.461  1.00  0.00     0.048 A 
HETATM    2  C3  UNL     1      21.710  -8.897  12.130  1.00  0.00     0.031 A 
HETATM    3  C4  UNL     1      21.465 -10.103  12.746  1.00  0.00     0.009 A 
HETATM    4  C5  UNL     1      22.369 -11.143  12.724  1.00  0.00    -0.057 A 
HETATM    5  C14 UNL     1      23.551 -10.924  12.048  1.00  0.00     0.009 A 
HETATM    6  C15 UNL     1      23.829  -9.729  11.420  1.00  0.00     0.031 A 
ENDROOT
BRANCH   4   7
HETATM    7  C6  UNL     1      22.108 -12.447  13.387  1.00  0.00     0.058 C 
BRANCH   7   8
HETATM    8  C7  UNL     1      22.042 -12.188  14.871  1.00  0.00     0.132 C 
BRANCH   8   9
HETATM    9  N5  UNL     1      23.339 -11.881  15.442  1.00  0.00    -0.366 N 
HETATM   10  C8  UNL     1      24.382 -12.706  15.239  1.00  0.00     0.091 A 
HETATM   11  C9  UNL     1      25.633 -12.456  15.762  1.00  0.00     0.031 A 
HETATM   12  C10 UNL     1      25.868 -11.331  16.523  1.00  0.00     0.004 A 
HETATM   13  C12 UNL     1      24.785 -10.479  16.728  1.00  0.00     0.031 A 
HETATM   14  C13 UNL     1      23.553 -10.774  16.184  1.00  0.00     0.091 A 
BRANCH  12  15
HETATM   15  C11 UNL     1      27.174 -11.035  17.088  1.00  0.00     0.270 C 
HETATM   16  O1  UNL     1      27.835 -11.833  17.791  1.00  0.00    -0.301 OA
ENDBRANCH  12  15
ENDBRANCH   8   9
ENDBRANCH   7   8
ENDBRANCH   4   7
BRANCH   1  17
HETATM   17  N4  UNL     1      23.139  -7.455  10.831  1.00  0.00    -0.299 N 
ATOM     18  H4  UNL     1      22.487  -7.124  10.120  1.00  0.00     0.187 HD
BRANCH  17  19
HETATM   19  N3  UNL     1      24.229  -6.677  11.157  1.00  0.00    -0.276 N 
HETATM   20  C1  UNL     1      24.349  -5.937  12.183  1.00  0.00     0.215 C 
HETATM   21  N1  UNL     1      23.279  -5.873  13.120  1.00  0.00    -0.065 NA
HETATM   22  N2  UNL     1      25.529  -5.191  12.389  1.00  0.00    -0.065 NA
ATOM     23  H3  UNL     1      25.017  -6.698  10.511  1.00  0.00     0.189 HD
ENDBRANCH  17  19
ENDBRANCH   1  17
TORSDOF 6
ENDMDL
MODEL 5
REMARK VINA RESULT: -6.551844925      2.836      3.677
REMARK  6 active torsions:
REMARK  status: ('A' for Active; 'I' for Inactive)
REMARK    1  A    between atoms: N3_4  and  N4_6 
REMARK    2  A    between atoms: N4_6  and  C2_8 
REMARK    3  A    between atoms: C5_11  and  C6_12 
REMARK    4  A    between atoms: C6_12  and  C7_13 
REMARK    5  A    between atoms: C7_13  and  N5_14 
REMARK    6  A    between atoms: C10_17  and  C11_18 
ROOT
HETATM    1  C2  UNL     1      26.157  -9.893  16.834  1.00  0.00     0.048 A 
HETATM    2  C3  UNL     1      25.239 -10.260  17.797  1.00  0.00     0.031 A 
HETATM    3  C4  UNL     1      23.895 -10.121  17.538  1.00  0.00     0.009 A 
HETATM    4  C5  UNL     1      23.418  -9.624  16.343  1.00  0.00    -0.057 A 
HETATM    5  C14 UNL     1      24.359  -9.265  15.402  1.00  0.00     0.009 A 
HETATM    6  C15 UNL     1      25.712  -9.391  15.627  1.00  0.00     0.031 A 
ENDROOT
BRANCH   4   7
HETATM    7  C6  UNL     1      21.967  -9.471  16.060  1.00  0.00     0.058 C 
BRANCH   7   8
HETATM    8  C7  UNL     1      21.375 -10.856  16.009  1.00  0.00     0.132 C 
BRANCH   8   9
HETATM    9  N5  UNL     1      21.788 -11.597  14.832  1.00  0.00    -0.366 N 
HETATM   10  C8  UNL     1      21.574 -11.092  13.603  1.00  0.00     0.091 A 
HETATM   11  C9  UNL     1      21.950 -11.760  12.457  1.00  0.00     0.031 A 
HETATM   12  C10 UNL     1      22.571 -12.989  12.527  1.00  0.00     0.004 A 
HETATM   13  C12 UNL     1      22.791 -13.505  13.801  1.00  0.00     0.031 A 
HETATM   14  C13 UNL     1      22.396 -12.799  14.918  1.00  0.00     0.091 A 
BRANCH  12  15
HETATM   15  C11 UNL     1      22.980 -13.720  11.339  1.00  0.00     0.270 C 
HETATM   16  O1  UNL     1      23.648 -14.779  11.357  1.00  0.00    -0.301 OA
ENDBRANCH  12  15
ENDBRANCH   8   9
ENDBRANCH   7   8
ENDBRANCH   4   7
BRANCH   1  17
HETATM   17  N4  UNL     1      27.541 -10.044  17.118  1.00  0.00    -0.299 N 
ATOM     18  H4  UNL     1      27.824 -10.457  18.007  1.00  0.00     0.187 HD
BRANCH  17  19
HETATM   19  N3  UNL     1      28.511  -9.648  16.223  1.00  0.00    -0.276 N 
HETATM   20  C1  UNL     1      29.051 -10.369  15.327  1.00  0.00     0.215 C 
HETATM   21  N1  UNL     1      28.648 -11.728  15.194  1.00  0.00    -0.065 NA
HETATM   22  N2  UNL     1      30.037  -9.827  14.476  1.00  0.00    -0.065 NA
ATOM     23  H3  UNL     1      28.825  -8.680  16.285  1.00  0.00     0.189 HD
ENDBRANCH  17  19
ENDBRANCH   1  17
TORSDOF 6
ENDMDL
