MODEL 1
REMARK VINA RESULT: -7.217310615      0.000      0.000
REMARK  8 active torsions:
REMARK  status: ('A' for Active; 'I' for Inactive)
REMARK    1  A    between atoms: C5_7  and  N2_8 
REMARK    2  A    between atoms: N3_11  and  C6_12 
REMARK    3  A    between atoms: C6_12  and  C7_13 
REMARK    4  A    between atoms: C7_13  and  C8_14 
REMARK    5  A    between atoms: C8_14  and  C9_15 
REMARK    6  A    between atoms: C9_15  and  N4_16 
REMARK    7  A    between atoms: C14_21  and  C15_22 
REMARK    8  A    between atoms: N5_23  and  O1_25 
ROOT
HETATM    1  C7  UNL     1      26.826  -8.153  14.811  1.00  0.00     0.022 C 
ENDROOT
BRANCH   1   2
HETATM    2  C6  UNL     1      27.417  -8.494  16.145  1.00  0.00     0.132 C 
BRANCH   2   3
HETATM    3  N3  UNL     1      27.502  -9.928  16.331  1.00  0.00    -0.323 N 
HETATM    4  C2  UNL     1      28.448 -10.681  15.745  1.00  0.00     0.080 A 
HETATM    5  C1  UNL     1      29.464 -10.060  14.846  1.00  0.00     0.089 C 
HETATM    6  N1  UNL     1      28.523 -12.032  15.932  1.00  0.00    -0.356 N 
HETATM    7  C3  UNL     1      27.630 -12.640  16.725  1.00  0.00     0.093 A 
ATOM      8  H1  UNL     1      29.254 -12.575  15.471  1.00  0.00     0.166 HD
HETATM    9  C4  UNL     1      26.651 -11.878  17.332  1.00  0.00     0.065 A 
HETATM   10  C5  UNL     1      26.592 -10.510  17.131  1.00  0.00     0.103 A 
BRANCH  10  11
HETATM   11  N2  UNL     1      25.693  -9.770  17.682  1.00  0.00    -0.385 N 
ATOM     12  H22 UNL     1      24.841 -10.212  18.025  1.00  0.00     0.157 HD
ATOM     13  H21 UNL     1      25.806  -8.762  17.787  1.00  0.00     0.157 HD
ENDBRANCH  10  11
ENDBRANCH   2   3
ENDBRANCH   1   2
BRANCH   1  14
HETATM   14  C8  UNL     1      26.038  -9.252  14.183  1.00  0.00     0.022 C 
BRANCH  14  15
HETATM   15  C9  UNL     1      24.563  -9.084  14.445  1.00  0.00     0.128 C 
BRANCH  15  16
HETATM   16  N4  UNL     1      23.922 -10.343  14.708  1.00  0.00    -0.356 N 
HETATM   17  C10 UNL     1      24.409 -11.517  14.245  1.00  0.00     0.091 A 
HETATM   18  C11 UNL     1      23.821 -12.732  14.467  1.00  0.00     0.017 A 
HETATM   19  C12 UNL     1      22.665 -12.763  15.202  1.00  0.00     0.004 A 
HETATM   20  C13 UNL     1      22.154 -11.597  15.678  1.00  0.00     0.031 A 
HETATM   21  C14 UNL     1      22.799 -10.383  15.420  1.00  0.00     0.051 A 
BRANCH  21  22
HETATM   22  C15 UNL     1      22.177  -9.202  15.985  1.00  0.00     0.143 C 
HETATM   23  N5  UNL     1      22.170  -8.975  17.249  1.00  0.00    -0.278 N 
ATOM     24  H5  UNL     1      22.611  -9.632  17.892  1.00  0.00     0.193 HD
BRANCH  23  25
HETATM   25  O1  UNL     1      21.567  -7.847  17.725  1.00  0.00    -0.290 OA
ATOM     26  H1  UNL     1      22.046  -7.274  18.312  1.00  0.00     0.244 HD
ENDBRANCH  23  25
ENDBRANCH  21  22
ENDBRANCH  15  16
ENDBRANCH  14  15
ENDBRANCH   1  14
TORSDOF 8
ENDMDL
MODEL 2
REMARK VINA RESULT: -7.179767587      1.934      3.035
REMARK  8 active torsions:
REMARK  status: ('A' for Active; 'I' for Inactive)
REMARK    1  A    between atoms: C5_7  and  N2_8 
REMARK    2  A    between atoms: N3_11  and  C6_12 
REMARK    3  A    between atoms: C6_12  and  C7_13 
REMARK    4  A    between atoms: C7_13  and  C8_14 
REMARK    5  A    between atoms: C8_14  and  C9_15 
REMARK    6  A    between atoms: C9_15  and  N4_16 
REMARK    7  A    between atoms: C14_21  and  C15_22 
REMARK    8  A    between atoms: N5_23  and  O1_25 
ROOT
HETATM    1  C7  UNL     1      24.897 -11.943  14.948  1.00  0.00     0.022 C 
ENDROOT
BRANCH   1   2
HETATM    2  C6  UNL     1      25.038 -11.150  16.213  1.00  0.00     0.132 C 
BRANCH   2   3
HETATM    3  N3  UNL     1      26.346 -10.534  16.303  1.00  0.00    -0.323 N 
HETATM    4  C2  UNL     1      27.430 -11.194  16.742  1.00  0.00     0.080 A 
HETATM    5  C1  UNL     1      27.328 -12.618  17.179  1.00  0.00     0.089 C 
HETATM    6  N1  UNL     1      28.661 -10.606  16.817  1.00  0.00    -0.356 N 
HETATM    7  C3  UNL     1      28.805  -9.327  16.444  1.00  0.00     0.093 A 
ATOM      8  H1  UNL     1      29.464 -11.136  17.156  1.00  0.00     0.166 HD
HETATM    9  C4  UNL     1      27.697  -8.636  15.992  1.00  0.00     0.065 A 
HETATM   10  C5  UNL     1      26.460  -9.249  15.923  1.00  0.00     0.103 A 
BRANCH  10  11
HETATM   11  N2  UNL     1      25.407  -8.635  15.506  1.00  0.00    -0.385 N 
ATOM     12  H22 UNL     1      25.518  -7.723  15.063  1.00  0.00     0.157 HD
ATOM     13  H21 UNL     1      24.471  -9.027  15.604  1.00  0.00     0.157 HD
ENDBRANCH  10  11
ENDBRANCH   2   3
ENDBRANCH   1   2
BRANCH   1  14
HETATM   14  C8  UNL     1      23.764 -12.912  14.947  1.00  0.00     0.022 C 
BRANCH  14  15
HETATM   15  C9  UNL     1      22.471 -12.238  15.326  1.00  0.00     0.128 C 
BRANCH  15  16
HETATM   16  N4  UNL     1      21.851 -11.601  14.195  1.00  0.00    -0.356 N 
HETATM   17  C10 UNL     1      21.503 -12.281  13.079  1.00  0.00     0.091 A 
HETATM   18  C11 UNL     1      20.922 -11.707  11.982  1.00  0.00     0.017 A 
HETATM   19  C12 UNL     1      20.676 -10.360  12.014  1.00  0.00     0.004 A 
HETATM   20  C13 UNL     1      21.016  -9.653  13.124  1.00  0.00     0.031 A 
HETATM   21  C14 UNL     1      21.608 -10.294  14.217  1.00  0.00     0.051 A 
BRANCH  21  22
HETATM   22  C15 UNL     1      21.918  -9.449  15.354  1.00  0.00     0.143 C 
HETATM   23  N5  UNL     1      21.016  -9.067  16.185  1.00  0.00    -0.278 N 
ATOM     24  H5  UNL     1      20.047  -9.357  16.060  1.00  0.00     0.193 HD
BRANCH  23  25
HETATM   25  O1  UNL     1      21.365  -8.272  17.236  1.00  0.00    -0.290 OA
ATOM     26  H1  UNL     1      21.225  -7.334  17.180  1.00  0.00     0.244 HD
ENDBRANCH  23  25
ENDBRANCH  21  22
ENDBRANCH  15  16
ENDBRANCH  14  15
ENDBRANCH   1  14
TORSDOF 8
ENDMDL
MODEL 3
REMARK VINA RESULT: -7.029434660      1.902      3.772
REMARK  8 active torsions:
REMARK  status: ('A' for Active; 'I' for Inactive)
REMARK    1  A    between atoms: C5_7  and  N2_8 
REMARK    2  A    between atoms: N3_11  and  C6_12 
REMARK    3  A    between atoms: C6_12  and  C7_13 
REMARK    4  A    between atoms: C7_13  and  C8_14 
REMARK    5  A    between atoms: C8_14  and  C9_15 
REMARK    6  A    between atoms: C9_15  and  N4_16 
REMARK    7  A    between atoms: C14_21  and  C15_22 
REMARK    8  A    between atoms: N5_23  and  O1_25 
ROOT
HETATM    1  C7  UNL     1      26.514 -13.007  15.779  1.00  0.00     0.022 C 
ENDROOT
BRANCH   1   2
HETATM    2  C6  UNL     1      27.000 -12.368  17.045  1.00  0.00     0.132 C 
BRANCH   2   3
HETATM    3  N3  UNL     1      27.270 -10.958  16.851  1.00  0.00    -0.323 N 
HETATM    4  C2  UNL     1      26.549  -9.992  17.444  1.00  0.00     0.080 A 
HETATM    5  C1  UNL     1      25.403 -10.338  18.335  1.00  0.00     0.089 C 
HETATM    6  N1  UNL     1      26.817  -8.665  17.260  1.00  0.00    -0.356 N 
HETATM    7  C3  UNL     1      27.831  -8.301  16.463  1.00  0.00     0.093 A 
ATOM      8  H1  UNL     1      26.249  -7.957  17.725  1.00  0.00     0.166 HD
HETATM    9  C4  UNL     1      28.580  -9.285  15.846  1.00  0.00     0.065 A 
HETATM   10  C5  UNL     1      28.293 -10.623  16.046  1.00  0.00     0.103 A 
BRANCH  10  11
HETATM   11  N2  UNL     1      28.971 -11.564  15.487  1.00  0.00    -0.385 N 
ATOM     12  H22 UNL     1      28.495 -12.435  15.252  1.00  0.00     0.157 HD
ATOM     13  H21 UNL     1      29.964 -11.469  15.271  1.00  0.00     0.157 HD
ENDBRANCH  10  11
ENDBRANCH   2   3
ENDBRANCH   1   2
BRANCH   1  14
HETATM   14  C8  UNL     1      25.042 -12.910  15.561  1.00  0.00     0.022 C 
BRANCH  14  15
HETATM   15  C9  UNL     1      24.711 -11.843  14.549  1.00  0.00     0.128 C 
BRANCH  15  16
HETATM   16  N4  UNL     1      23.808 -10.861  15.085  1.00  0.00    -0.356 N 
HETATM   17  C10 UNL     1      22.736 -11.196  15.840  1.00  0.00     0.091 A 
HETATM   18  C11 UNL     1      21.851 -10.291  16.358  1.00  0.00     0.017 A 
HETATM   19  C12 UNL     1      22.062  -8.962  16.097  1.00  0.00     0.004 A 
HETATM   20  C13 UNL     1      23.131  -8.599  15.341  1.00  0.00     0.031 A 
HETATM   21  C14 UNL     1      24.004  -9.569  14.837  1.00  0.00     0.051 A 
BRANCH  21  22
HETATM   22  C15 UNL     1      25.119  -9.073  14.054  1.00  0.00     0.143 C 
HETATM   23  N5  UNL     1      25.357  -7.817  13.929  1.00  0.00    -0.278 N 
ATOM     24  H5  UNL     1      24.758  -7.132  14.388  1.00  0.00     0.193 HD
BRANCH  23  25
HETATM   25  O1  UNL     1      26.420  -7.407  13.179  1.00  0.00    -0.290 OA
ATOM     26  H1  UNL     1      26.415  -6.537  12.797  1.00  0.00     0.244 HD
ENDBRANCH  23  25
ENDBRANCH  21  22
ENDBRANCH  15  16
ENDBRANCH  14  15
ENDBRANCH   1  14
TORSDOF 8
ENDMDL
MODEL 4
REMARK VINA RESULT: -6.959223023      0.814      1.791
REMARK  8 active torsions:
REMARK  status: ('A' for Active; 'I' for Inactive)
REMARK    1  A    between atoms: C5_7  and  N2_8 
REMARK    2  A    between atoms: N3_11  and  C6_12 
REMARK    3  A    between atoms: C6_12  and  C7_13 
REMARK    4  A    between atoms: C7_13  and  C8_14 
REMARK    5  A    between atoms: C8_14  and  C9_15 
REMARK    6  A    between atoms: C9_15  and  N4_16 
REMARK    7  A    between atoms: C14_21  and  C15_22 
REMARK    8  A    between atoms: N5_23  and  O1_25 
ROOT
HETATM    1  C7  UNL     1      26.733  -8.041  15.058  1.00  0.00     0.022 C 
ENDROOT
BRANCH   1   2
HETATM    2  C6  UNL     1      27.475  -8.579  16.245  1.00  0.00     0.132 C 
BRANCH   2   3
HETATM    3  N3  UNL     1      27.511 -10.027  16.229  1.00  0.00    -0.323 N 
HETATM    4  C2  UNL     1      26.686 -10.782  16.973  1.00  0.00     0.080 A 
HETATM    5  C1  UNL     1      25.685 -10.147  17.878  1.00  0.00     0.089 C 
HETATM    6  N1  UNL     1      26.725 -12.147  16.945  1.00  0.00    -0.356 N 
HETATM    7  C3  UNL     1      27.611 -12.768  16.154  1.00  0.00     0.093 A 
ATOM      8  H1  UNL     1      26.084 -12.691  17.523  1.00  0.00     0.166 HD
HETATM    9  C4  UNL     1      28.466 -12.002  15.385  1.00  0.00     0.065 A 
HETATM   10  C5  UNL     1      28.412 -10.621  15.426  1.00  0.00     0.103 A 
BRANCH  10  11
HETATM   11  N2  UNL     1      29.194  -9.878  14.722  1.00  0.00    -0.385 N 
ATOM     12  H22 UNL     1      29.881  -9.299  15.204  1.00  0.00     0.157 HD
ATOM     13  H21 UNL     1      29.150  -9.850  13.703  1.00  0.00     0.157 HD
ENDBRANCH  10  11
ENDBRANCH   2   3
ENDBRANCH   1   2
BRANCH   1  14
HETATM   14  C8  UNL     1      26.002  -9.071  14.265  1.00  0.00     0.022 C 
BRANCH  14  15
HETATM   15  C9  UNL     1      24.514  -8.966  14.477  1.00  0.00     0.128 C 
BRANCH  15  16
HETATM   16  N4  UNL     1      23.919 -10.253  14.720  1.00  0.00    -0.356 N 
HETATM   17  C10 UNL     1      24.448 -11.401  14.238  1.00  0.00     0.091 A 
HETATM   18  C11 UNL     1      23.904 -12.639  14.441  1.00  0.00     0.017 A 
HETATM   19  C12 UNL     1      22.752 -12.724  15.177  1.00  0.00     0.004 A 
HETATM   20  C13 UNL     1      22.199 -11.585  15.673  1.00  0.00     0.031 A 
HETATM   21  C14 UNL     1      22.800 -10.345  15.434  1.00  0.00     0.051 A 
BRANCH  21  22
HETATM   22  C15 UNL     1      22.136  -9.197  16.019  1.00  0.00     0.143 C 
HETATM   23  N5  UNL     1      22.203  -8.939  17.275  1.00  0.00    -0.278 N 
ATOM     24  H5  UNL     1      22.734  -9.547  17.897  1.00  0.00     0.193 HD
BRANCH  23  25
HETATM   25  O1  UNL     1      21.557  -7.845  17.772  1.00  0.00    -0.290 OA
ATOM     26  H1  UNL     1      20.649  -7.920  18.043  1.00  0.00     0.244 HD
ENDBRANCH  23  25
ENDBRANCH  21  22
ENDBRANCH  15  16
ENDBRANCH  14  15
ENDBRANCH   1  14
TORSDOF 8
ENDMDL
MODEL 5
REMARK VINA RESULT: -6.914234778      2.498      5.889
REMARK  8 active torsions:
REMARK  status: ('A' for Active; 'I' for Inactive)
REMARK    1  A    between atoms: C5_7  and  N2_8 
REMARK    2  A    between atoms: N3_11  and  C6_12 
REMARK    3  A    between atoms: C6_12  and  C7_13 
REMARK    4  A    between atoms: C7_13  and  C8_14 
REMARK    5  A    between atoms: C8_14  and  C9_15 
REMARK    6  A    between atoms: C9_15  and  N4_16 
REMARK    7  A    between atoms: C14_21  and  C15_22 
REMARK    8  A    between atoms: N5_23  and  O1_25 
ROOT
HETATM    1  C7  UNL     1      23.915 -10.118  16.153  1.00  0.00     0.022 C 
ENDROOT
BRANCH   1   2
HETATM    2  C6  UNL     1      23.143  -8.872  15.836  1.00  0.00     0.132 C 
BRANCH   2   3
HETATM    3  N3  UNL     1      22.491  -8.971  14.546  1.00  0.00    -0.323 N 
HETATM    4  C2  UNL     1      21.363  -9.675  14.356  1.00  0.00     0.080 A 
HETATM    5  C1  UNL     1      20.727 -10.411  15.487  1.00  0.00     0.089 C 
HETATM    6  N1  UNL     1      20.752  -9.757  13.137  1.00  0.00    -0.356 N 
HETATM    7  C3  UNL     1      21.287  -9.119  12.086  1.00  0.00     0.093 A 
ATOM      8  H1  UNL     1      19.896 -10.300  13.026  1.00  0.00     0.166 HD
HETATM    9  C4  UNL     1      22.448  -8.393  12.268  1.00  0.00     0.065 A 
HETATM   10  C5  UNL     1      23.051  -8.322  13.511  1.00  0.00     0.103 A 
BRANCH  10  11
HETATM   11  N2  UNL     1      24.134  -7.654  13.715  1.00  0.00    -0.385 N 
ATOM     12  H22 UNL     1      24.171  -6.681  13.413  1.00  0.00     0.157 HD
ATOM     13  H21 UNL     1      24.952  -8.065  14.166  1.00  0.00     0.157 HD
ENDBRANCH  10  11
ENDBRANCH   2   3
ENDBRANCH   1   2
BRANCH   1  14
HETATM   14  C8  UNL     1      24.414 -10.198  17.555  1.00  0.00     0.022 C 
BRANCH  14  15
HETATM   15  C9  UNL     1      25.829  -9.688  17.660  1.00  0.00     0.128 C 
BRANCH  15  16
HETATM   16  N4  UNL     1      26.737 -10.472  16.867  1.00  0.00    -0.356 N 
HETATM   17  C10 UNL     1      26.980 -11.779  17.120  1.00  0.00     0.091 A 
HETATM   18  C11 UNL     1      27.844 -12.552  16.394  1.00  0.00     0.017 A 
HETATM   19  C12 UNL     1      28.507 -11.967  15.347  1.00  0.00     0.004 A 
HETATM   20  C13 UNL     1      28.281 -10.655  15.072  1.00  0.00     0.031 A 
HETATM   21  C14 UNL     1      27.385  -9.913  15.849  1.00  0.00     0.051 A 
BRANCH  21  22
HETATM   22  C15 UNL     1      27.208  -8.528  15.462  1.00  0.00     0.143 C 
HETATM   23  N5  UNL     1      27.417  -8.124  14.260  1.00  0.00    -0.278 N 
ATOM     24  H5  UNL     1      27.716  -8.783  13.542  1.00  0.00     0.193 HD
BRANCH  23  25
HETATM   25  O1  UNL     1      27.237  -6.808  13.953  1.00  0.00    -0.290 OA
ATOM     26  H1  UNL     1      27.562  -6.471  13.126  1.00  0.00     0.244 HD
ENDBRANCH  23  25
ENDBRANCH  21  22
ENDBRANCH  15  16
ENDBRANCH  14  15
ENDBRANCH   1  14
TORSDOF 8
ENDMDL
