MODEL 1
REMARK VINA RESULT: -6.485439129      0.000      0.000
REMARK  8 active torsions:
REMARK  status: ('A' for Active; 'I' for Inactive)
REMARK    1  A    between atoms: C2_2  and  C3_3 
REMARK    2  A    between atoms: C3_3  and  C4_4 
REMARK    3  A    between atoms: C4_4  and  N1_5 
REMARK    4  A    between atoms: N1_5  and  C5_7 
REMARK    5  A    between atoms: C6_12  and  N4_13 
REMARK    6  A    between atoms: N4_13  and  C7_15 
REMARK    7  A    between atoms: C7_15  and  C8_16 
REMARK    8  A    between atoms: C8_16  and  C9_17 
ROOT
HETATM    1  C5  UNL     1      13.456  27.132  15.836  1.00  0.00     0.695 A 
HETATM    2  N2  UNL     1      14.698  26.689  16.077  1.00  0.00    -0.130 N 
ATOM      3  H2  UNL     1      14.869  26.124  16.908  1.00  0.00     0.205 HD
HETATM    4  N3  UNL     1      15.716  26.966  15.261  1.00  0.00    -0.267 N 
ATOM      5  H3  UNL     1      16.643  26.604  15.489  1.00  0.00     0.189 HD
HETATM    6  C6  UNL     1      15.560  27.709  14.143  1.00  0.00     0.186 A 
HETATM    7  C15 UNL     1      14.271  28.176  13.883  1.00  0.00     0.304 A 
HETATM    8  O1  UNL     1      14.078  28.872  12.852  1.00  0.00    -0.263 OA
HETATM    9  N5  UNL     1      13.269  27.872  14.735  1.00  0.00    -0.152 N 
ATOM     10  H5  UNL     1      12.332  28.220  14.533  1.00  0.00     0.188 HD
ENDROOT
BRANCH   6  11
HETATM   11  N4  UNL     1      16.542  27.983  13.344  1.00  0.00    -0.370 N 
ATOM     12  H4  UNL     1      16.943  28.920  13.298  1.00  0.00     0.161 HD
BRANCH  11  13
HETATM   13  C7  UNL     1      17.048  26.906  12.519  1.00  0.00     0.126 C 
BRANCH  13  14
HETATM   14  C8  UNL     1      15.996  26.382  11.569  1.00  0.00     0.058 C 
BRANCH  14  15
HETATM   15  C9  UNL     1      15.581  25.011  11.887  1.00  0.00    -0.057 A 
HETATM   16  C10 UNL     1      15.801  24.455  13.124  1.00  0.00     0.007 A 
HETATM   17  C11 UNL     1      15.403  23.150  13.419  1.00  0.00     0.001 A 
HETATM   18  C12 UNL     1      14.784  22.399  12.468  1.00  0.00     0.000 A 
HETATM   19  C13 UNL     1      14.562  22.955  11.222  1.00  0.00     0.001 A 
HETATM   20  C14 UNL     1      14.958  24.251  10.933  1.00  0.00     0.007 A 
ENDBRANCH  14  15
ENDBRANCH  13  14
ENDBRANCH  11  13
ENDBRANCH   6  11
BRANCH   1  21
HETATM   21  N1  UNL     1      12.535  26.819  16.672  1.00  0.00    -0.224 N 
ATOM     22  H1  UNL     1      12.607  27.151  17.634  1.00  0.00     0.177 HD
BRANCH  21  23
HETATM   23  C4  UNL     1      11.413  26.021  16.298  1.00  0.00     0.142 C 
BRANCH  23  24
HETATM   24  C3  UNL     1      11.810  24.694  15.692  1.00  0.00     0.046 C 
BRANCH  24  25
HETATM   25  C2  UNL     1      11.264  24.564  14.318  1.00  0.00    -0.035 C 
HETATM   26  C1  UNL     1      12.013  24.833  13.273  1.00  0.00     0.007 C 
ENDBRANCH  24  25
ENDBRANCH  23  24
ENDBRANCH  21  23
ENDBRANCH   1  21
TORSDOF 8
ENDMDL
MODEL 2
REMARK VINA RESULT: -6.445701557      0.038      1.030
REMARK  8 active torsions:
REMARK  status: ('A' for Active; 'I' for Inactive)
REMARK    1  A    between atoms: C2_2  and  C3_3 
REMARK    2  A    between atoms: C3_3  and  C4_4 
REMARK    3  A    between atoms: C4_4  and  N1_5 
REMARK    4  A    between atoms: N1_5  and  C5_7 
REMARK    5  A    between atoms: C6_12  and  N4_13 
REMARK    6  A    between atoms: N4_13  and  C7_15 
REMARK    7  A    between atoms: C7_15  and  C8_16 
REMARK    8  A    between atoms: C8_16  and  C9_17 
ROOT
HETATM    1  C5  UNL     1      13.452  27.127  15.835  1.00  0.00     0.695 A 
HETATM    2  N2  UNL     1      14.695  26.691  16.081  1.00  0.00    -0.130 N 
ATOM      3  H2  UNL     1      14.866  26.129  16.915  1.00  0.00     0.205 HD
HETATM    4  N3  UNL     1      15.715  26.969  15.268  1.00  0.00    -0.267 N 
ATOM      5  H3  UNL     1      16.642  26.612  15.500  1.00  0.00     0.189 HD
HETATM    6  C6  UNL     1      15.559  27.709  14.147  1.00  0.00     0.186 A 
HETATM    7  C15 UNL     1      14.269  28.168  13.881  1.00  0.00     0.304 A 
HETATM    8  O1  UNL     1      14.076  28.860  12.846  1.00  0.00    -0.263 OA
HETATM    9  N5  UNL     1      13.265  27.863  14.731  1.00  0.00    -0.152 N 
ATOM     10  H5  UNL     1      12.327  28.205  14.524  1.00  0.00     0.188 HD
ENDROOT
BRANCH   6  11
HETATM   11  N4  UNL     1      16.543  27.984  13.351  1.00  0.00    -0.370 N 
ATOM     12  H4  UNL     1      16.943  28.921  13.307  1.00  0.00     0.161 HD
BRANCH  11  13
HETATM   13  C7  UNL     1      17.051  26.908  12.526  1.00  0.00     0.126 C 
BRANCH  13  14
HETATM   14  C8  UNL     1      16.010  26.402  11.555  1.00  0.00     0.058 C 
BRANCH  14  15
HETATM   15  C9  UNL     1      15.579  25.032  11.854  1.00  0.00    -0.057 A 
HETATM   16  C10 UNL     1      14.942  24.251  10.920  1.00  0.00     0.007 A 
HETATM   17  C11 UNL     1      14.535  22.949  11.212  1.00  0.00     0.001 A 
HETATM   18  C12 UNL     1      14.767  22.428  12.447  1.00  0.00     0.000 A 
HETATM   19  C13 UNL     1      15.407  23.211  13.390  1.00  0.00     0.001 A 
HETATM   20  C14 UNL     1      15.810  24.503  13.096  1.00  0.00     0.007 A 
ENDBRANCH  14  15
ENDBRANCH  13  14
ENDBRANCH  11  13
ENDBRANCH   6  11
BRANCH   1  21
HETATM   21  N1  UNL     1      12.529  26.812  16.668  1.00  0.00    -0.224 N 
ATOM     22  H1  UNL     1      12.602  27.139  17.632  1.00  0.00     0.177 HD
BRANCH  21  23
HETATM   23  C4  UNL     1      11.404  26.020  16.289  1.00  0.00     0.142 C 
BRANCH  23  24
HETATM   24  C3  UNL     1      11.795  24.665  15.743  1.00  0.00     0.046 C 
BRANCH  24  25
HETATM   25  C2  UNL     1      11.263  24.483  14.371  1.00  0.00    -0.035 C 
HETATM   26  C1  UNL     1      11.984  24.815  13.324  1.00  0.00     0.007 C 
ENDBRANCH  24  25
ENDBRANCH  23  24
ENDBRANCH  21  23
ENDBRANCH   1  21
TORSDOF 8
ENDMDL
MODEL 3
REMARK VINA RESULT: -6.240062503      2.500      4.295
REMARK  8 active torsions:
REMARK  status: ('A' for Active; 'I' for Inactive)
REMARK    1  A    between atoms: C2_2  and  C3_3 
REMARK    2  A    between atoms: C3_3  and  C4_4 
REMARK    3  A    between atoms: C4_4  and  N1_5 
REMARK    4  A    between atoms: N1_5  and  C5_7 
REMARK    5  A    between atoms: C6_12  and  N4_13 
REMARK    6  A    between atoms: N4_13  and  C7_15 
REMARK    7  A    between atoms: C7_15  and  C8_16 
REMARK    8  A    between atoms: C8_16  and  C9_17 
ROOT
HETATM    1  C5  UNL     1      12.554  23.703  14.989  1.00  0.00     0.695 A 
HETATM    2  N2  UNL     1      12.558  24.325  13.802  1.00  0.00    -0.130 N 
ATOM      3  H2  UNL     1      12.709  23.775  12.957  1.00  0.00     0.205 HD
HETATM    4  N3  UNL     1      12.369  25.640  13.693  1.00  0.00    -0.267 N 
ATOM      5  H3  UNL     1      12.380  26.065  12.765  1.00  0.00     0.189 HD
HETATM    6  C6  UNL     1      12.163  26.429  14.772  1.00  0.00     0.186 A 
HETATM    7  C15 UNL     1      12.158  25.792  16.014  1.00  0.00     0.304 A 
HETATM    8  O1  UNL     1      11.969  26.487  17.047  1.00  0.00    -0.263 OA
HETATM    9  N5  UNL     1      12.353  24.458  16.078  1.00  0.00    -0.152 N 
ATOM     10  H5  UNL     1      12.347  24.005  16.993  1.00  0.00     0.188 HD
ENDROOT
BRANCH   6  11
HETATM   11  N4  UNL     1      11.978  27.707  14.677  1.00  0.00    -0.370 N 
ATOM     12  H4  UNL     1      11.514  28.232  15.418  1.00  0.00     0.161 HD
BRANCH  11  13
HETATM   13  C7  UNL     1      12.458  28.361  13.478  1.00  0.00     0.126 C 
BRANCH  13  14
HETATM   14  C8  UNL     1      13.842  28.936  13.664  1.00  0.00     0.058 C 
BRANCH  14  15
HETATM   15  C9  UNL     1      14.899  28.017  13.226  1.00  0.00    -0.057 A 
HETATM   16  C10 UNL     1      15.680  27.329  14.122  1.00  0.00     0.007 A 
HETATM   17  C11 UNL     1      16.683  26.456  13.697  1.00  0.00     0.001 A 
HETATM   18  C12 UNL     1      16.903  26.274  12.366  1.00  0.00     0.000 A 
HETATM   19  C13 UNL     1      16.119  26.966  11.462  1.00  0.00     0.001 A 
HETATM   20  C14 UNL     1      15.125  27.831  11.887  1.00  0.00     0.007 A 
ENDBRANCH  14  15
ENDBRANCH  13  14
ENDBRANCH  11  13
ENDBRANCH   6  11
BRANCH   1  21
HETATM   21  N1  UNL     1      12.743  22.435  15.004  1.00  0.00    -0.224 N 
ATOM     22  H1  UNL     1      12.376  21.889  15.784  1.00  0.00     0.177 HD
BRANCH  21  23
HETATM   23  C4  UNL     1      13.451  21.763  13.962  1.00  0.00     0.142 C 
BRANCH  23  24
HETATM   24  C3  UNL     1      14.586  20.908  14.478  1.00  0.00     0.046 C 
BRANCH  24  25
HETATM   25  C2  UNL     1      15.655  21.757  15.060  1.00  0.00    -0.035 C 
HETATM   26  C1  UNL     1      16.326  22.597  14.306  1.00  0.00     0.007 C 
ENDBRANCH  24  25
ENDBRANCH  23  24
ENDBRANCH  21  23
ENDBRANCH   1  21
TORSDOF 8
ENDMDL
MODEL 4
REMARK VINA RESULT: -6.233174802      1.217      1.320
REMARK  8 active torsions:
REMARK  status: ('A' for Active; 'I' for Inactive)
REMARK    1  A    between atoms: C2_2  and  C3_3 
REMARK    2  A    between atoms: C3_3  and  C4_4 
REMARK    3  A    between atoms: C4_4  and  N1_5 
REMARK    4  A    between atoms: N1_5  and  C5_7 
REMARK    5  A    between atoms: C6_12  and  N4_13 
REMARK    6  A    between atoms: N4_13  and  C7_15 
REMARK    7  A    between atoms: C7_15  and  C8_16 
REMARK    8  A    between atoms: C8_16  and  C9_17 
ROOT
HETATM    1  C5  UNL     1      12.469  26.558  15.713  1.00  0.00     0.695 A 
HETATM    2  N2  UNL     1      13.667  27.005  16.113  1.00  0.00    -0.130 N 
ATOM      3  H2  UNL     1      13.947  26.869  17.084  1.00  0.00     0.205 HD
HETATM    4  N3  UNL     1      14.506  27.621  15.279  1.00  0.00    -0.267 N 
ATOM      5  H3  UNL     1      15.408  27.941  15.633  1.00  0.00     0.189 HD
HETATM    6  C6  UNL     1      14.199  27.835  13.979  1.00  0.00     0.186 A 
HETATM    7  C15 UNL     1      12.953  27.374  13.552  1.00  0.00     0.304 A 
HETATM    8  O1  UNL     1      12.625  27.550  12.349  1.00  0.00    -0.263 OA
HETATM    9  N5  UNL     1      12.136  26.755  14.430  1.00  0.00    -0.152 N 
ATOM     10  H5  UNL     1      11.228  26.423  14.104  1.00  0.00     0.188 HD
ENDROOT
BRANCH   6  11
HETATM   11  N4  UNL     1      15.006  28.432  13.161  1.00  0.00    -0.370 N 
ATOM     12  H4  UNL     1      14.740  29.296  12.690  1.00  0.00     0.161 HD
BRANCH  11  13
HETATM   13  C7  UNL     1      16.301  27.822  12.943  1.00  0.00     0.126 C 
BRANCH  13  14
HETATM   14  C8  UNL     1      16.270  26.822  11.811  1.00  0.00     0.058 C 
BRANCH  14  15
HETATM   15  C9  UNL     1      15.874  25.481  12.255  1.00  0.00    -0.057 A 
HETATM   16  C10 UNL     1      16.289  24.963  13.459  1.00  0.00     0.007 A 
HETATM   17  C11 UNL     1      15.908  23.686  13.874  1.00  0.00     0.001 A 
HETATM   18  C12 UNL     1      15.108  22.925  13.078  1.00  0.00     0.000 A 
HETATM   19  C13 UNL     1      14.690  23.442  11.867  1.00  0.00     0.001 A 
HETATM   20  C14 UNL     1      15.070  24.710  11.458  1.00  0.00     0.007 A 
ENDBRANCH  14  15
ENDBRANCH  13  14
ENDBRANCH  11  13
ENDBRANCH   6  11
BRANCH   1  21
HETATM   21  N1  UNL     1      11.725  25.976  16.580  1.00  0.00    -0.224 N 
ATOM     22  H1  UNL     1      11.773  26.277  17.554  1.00  0.00     0.177 HD
BRANCH  21  23
HETATM   23  C4  UNL     1      10.832  24.921  16.225  1.00  0.00     0.142 C 
BRANCH  23  24
HETATM   24  C3  UNL     1      11.398  23.548  16.513  1.00  0.00     0.046 C 
BRANCH  24  25
HETATM   25  C2  UNL     1      12.101  23.014  15.321  1.00  0.00    -0.035 C 
HETATM   26  C1  UNL     1      11.587  23.160  14.121  1.00  0.00     0.007 C 
ENDBRANCH  24  25
ENDBRANCH  23  24
ENDBRANCH  21  23
ENDBRANCH   1  21
TORSDOF 8
ENDMDL
MODEL 5
REMARK VINA RESULT: -6.216029203      1.323      1.739
REMARK  8 active torsions:
REMARK  status: ('A' for Active; 'I' for Inactive)
REMARK    1  A    between atoms: C2_2  and  C3_3 
REMARK    2  A    between atoms: C3_3  and  C4_4 
REMARK    3  A    between atoms: C4_4  and  N1_5 
REMARK    4  A    between atoms: N1_5  and  C5_7 
REMARK    5  A    between atoms: C6_12  and  N4_13 
REMARK    6  A    between atoms: N4_13  and  C7_15 
REMARK    7  A    between atoms: C7_15  and  C8_16 
REMARK    8  A    between atoms: C8_16  and  C9_17 
ROOT
HETATM    1  C5  UNL     1      12.571  26.726  16.007  1.00  0.00     0.695 A 
HETATM    2  N2  UNL     1      12.093  27.214  14.854  1.00  0.00    -0.130 N 
ATOM      3  H2  UNL     1      11.100  27.113  14.648  1.00  0.00     0.205 HD
HETATM    4  N3  UNL     1      12.879  27.828  13.968  1.00  0.00    -0.267 N 
ATOM      5  H3  UNL     1      12.466  28.183  13.105  1.00  0.00     0.189 HD
HETATM    6  C6  UNL     1      14.204  27.996  14.177  1.00  0.00     0.186 A 
HETATM    7  C15 UNL     1      14.712  27.491  15.375  1.00  0.00     0.304 A 
HETATM    8  O1  UNL     1      15.941  27.625  15.613  1.00  0.00    -0.263 OA
HETATM    9  N5  UNL     1      13.881  26.876  16.243  1.00  0.00    -0.152 N 
ATOM     10  H5  UNL     1      14.266  26.512  17.115  1.00  0.00     0.188 HD
ENDROOT
BRANCH   6  11
HETATM   11  N4  UNL     1      14.975  28.591  13.324  1.00  0.00    -0.370 N 
ATOM     12  H4  UNL     1      15.403  29.493  13.534  1.00  0.00     0.161 HD
BRANCH  11  13
HETATM   13  C7  UNL     1      15.207  27.924  12.059  1.00  0.00     0.126 C 
BRANCH  13  14
HETATM   14  C8  UNL     1      16.358  26.949  12.138  1.00  0.00     0.058 C 
BRANCH  14  15
HETATM   15  C9  UNL     1      15.916  25.576  12.406  1.00  0.00    -0.057 A 
HETATM   16  C10 UNL     1      16.296  24.898  13.540  1.00  0.00     0.007 A 
HETATM   17  C11 UNL     1      15.871  23.593  13.787  1.00  0.00     0.001 A 
HETATM   18  C12 UNL     1      15.061  22.963  12.893  1.00  0.00     0.000 A 
HETATM   19  C13 UNL     1      14.677  23.641  11.751  1.00  0.00     0.001 A 
HETATM   20  C14 UNL     1      15.100  24.937  11.509  1.00  0.00     0.007 A 
ENDBRANCH  14  15
ENDBRANCH  13  14
ENDBRANCH  11  13
ENDBRANCH   6  11
BRANCH   1  21
HETATM   21  N1  UNL     1      11.746  26.150  16.802  1.00  0.00    -0.224 N 
ATOM     22  H1  UNL     1      11.739  26.419  17.786  1.00  0.00     0.177 HD
BRANCH  21  23
HETATM   23  C4  UNL     1      10.837  25.145  16.353  1.00  0.00     0.142 C 
BRANCH  23  24
HETATM   24  C3  UNL     1      11.353  23.742  16.579  1.00  0.00     0.046 C 
BRANCH  24  25
HETATM   25  C2  UNL     1      12.070  23.251  15.376  1.00  0.00    -0.035 C 
HETATM   26  C1  UNL     1      11.651  23.567  14.172  1.00  0.00     0.007 C 
ENDBRANCH  24  25
ENDBRANCH  23  24
ENDBRANCH  21  23
ENDBRANCH   1  21
TORSDOF 8
ENDMDL
