MODEL 1
REMARK VINA RESULT: -6.425473421      0.000      0.000
REMARK  8 active torsions:
REMARK  status: ('A' for Active; 'I' for Inactive)
REMARK    1  A    between atoms: C2_3  and  N7_24 
REMARK    2  A    between atoms: C3_4  and  C4_5 
REMARK    3  A    between atoms: N2_8  and  C7_9 
REMARK    4  A    between atoms: C7_9  and  C8_10 
REMARK    5  A    between atoms: C8_10  and  C9_11 
REMARK    6  A    between atoms: C9_11  and  N3_12 
REMARK    7  A    between atoms: N7_24  and  N8_26 
REMARK    8  A    between atoms: N8_26  and  N9_27 
ROOT
HETATM    1  N1  UNL     1      13.107  23.242  15.858  1.00  0.00    -0.190 NA
HETATM    2  C1  UNL     1      13.385  22.493  14.989  1.00  0.00     0.120 C 
HETATM    3  C2  UNL     1      13.689  21.583  13.927  1.00  0.00     0.143 C 
HETATM    4  C3  UNL     1      14.517  21.939  12.970  1.00  0.00     0.055 C 
ENDROOT
BRANCH   3   5
HETATM    5  N7  UNL     1      13.075  20.268  13.919  1.00  0.00    -0.206 N 
ATOM      6  H7  UNL     1      13.636  19.445  13.696  1.00  0.00     0.204 HD
BRANCH   5   7
HETATM    7  N8  UNL     1      11.879  20.143  14.181  1.00  0.00    -0.243 NA
BRANCH   7   8
HETATM    8  N9  UNL     1      10.653  20.046  14.327  1.00  0.00    -0.260 N 
ATOM      9  H92 UNL     1      10.666  20.854  13.706  1.00  0.00     0.193 HD
ATOM     10  H91 UNL     1       9.662  19.886  14.507  1.00  0.00     0.193 HD
ENDBRANCH   7   8
ENDBRANCH   5   7
ENDBRANCH   3   5
BRANCH   4  11
HETATM   11  C4  UNL     1      15.142  23.246  12.961  1.00  0.00    -0.031 A 
HETATM   12  C5  UNL     1      14.783  24.181  12.014  1.00  0.00     0.028 A 
HETATM   13  C6  UNL     1      15.393  25.398  12.005  1.00  0.00     0.091 A 
HETATM   14  N2  UNL     1      16.367  25.771  12.896  1.00  0.00    -0.366 N 
HETATM   15  C12 UNL     1      16.694  24.847  13.800  1.00  0.00     0.091 A 
HETATM   16  C13 UNL     1      16.102  23.592  13.852  1.00  0.00     0.028 A 
BRANCH  14  17
HETATM   17  C7  UNL     1      16.907  27.106  12.813  1.00  0.00     0.129 C 
BRANCH  17  18
HETATM   18  C8  UNL     1      16.064  28.197  13.325  1.00  0.00     0.042 C 
BRANCH  18  19
HETATM   19  C9  UNL     1      15.566  28.211  14.705  1.00  0.00     0.152 C 
BRANCH  19  20
HETATM   20  N3  UNL     1      14.282  27.610  14.951  1.00  0.00    -0.273 N 
HETATM   21  C10 UNL     1      13.247  27.609  14.040  1.00  0.00     0.218 A 
HETATM   22  N4  UNL     1      12.212  26.998  14.598  1.00  0.00    -0.185 N 
HETATM   23  C11 UNL     1      12.534  26.600  15.838  1.00  0.00     0.691 A 
ATOM     24  H4  UNL     1      11.306  26.852  14.152  1.00  0.00     0.185 HD
HETATM   25  N5  UNL     1      11.823  25.974  16.716  1.00  0.00    -0.233 N 
HETATM   26  N6  UNL     1      13.835  27.005  16.014  1.00  0.00    -0.129 N 
ATOM     27  H52 UNL     1      10.857  25.673  16.586  1.00  0.00     0.174 HD
ATOM     28  H51 UNL     1      12.068  25.671  17.659  1.00  0.00     0.174 HD
ATOM     29  H6  UNL     1      14.378  26.852  16.863  1.00  0.00     0.206 HD
ENDBRANCH  19  20
ENDBRANCH  18  19
ENDBRANCH  17  18
ENDBRANCH  14  17
ENDBRANCH   4  11
TORSDOF 8
ENDMDL
MODEL 2
REMARK VINA RESULT: -6.413278707      2.760      6.293
REMARK  8 active torsions:
REMARK  status: ('A' for Active; 'I' for Inactive)
REMARK    1  A    between atoms: C2_3  and  N7_24 
REMARK    2  A    between atoms: C3_4  and  C4_5 
REMARK    3  A    between atoms: N2_8  and  C7_9 
REMARK    4  A    between atoms: C7_9  and  C8_10 
REMARK    5  A    between atoms: C8_10  and  C9_11 
REMARK    6  A    between atoms: C9_11  and  N3_12 
REMARK    7  A    between atoms: N7_24  and  N8_26 
REMARK    8  A    between atoms: N8_26  and  N9_27 
ROOT
HETATM    1  N1  UNL     1       8.395  26.731  13.256  1.00  0.00    -0.190 NA
HETATM    2  C1  UNL     1       8.898  27.511  13.984  1.00  0.00     0.120 C 
HETATM    3  C2  UNL     1       9.485  28.448  14.893  1.00  0.00     0.143 C 
HETATM    4  C3  UNL     1      10.767  28.374  15.179  1.00  0.00     0.055 C 
ENDROOT
BRANCH   3   5
HETATM    5  N7  UNL     1       8.655  29.475  15.493  1.00  0.00    -0.206 N 
ATOM      6  H7  UNL     1       7.794  29.217  15.976  1.00  0.00     0.204 HD
BRANCH   5   7
HETATM    7  N8  UNL     1       8.986  30.659  15.419  1.00  0.00    -0.243 NA
BRANCH   7   8
HETATM    8  N9  UNL     1       9.200  31.876  15.340  1.00  0.00    -0.260 N 
ATOM      9  H92 UNL     1       8.806  31.732  14.410  1.00  0.00     0.193 HD
ATOM     10  H91 UNL     1       9.412  32.873  15.368  1.00  0.00     0.193 HD
ENDBRANCH   7   8
ENDBRANCH   5   7
ENDBRANCH   3   5
BRANCH   4  11
HETATM   11  C4  UNL     1      11.614  27.358  14.588  1.00  0.00    -0.031 A 
HETATM   12  C5  UNL     1      11.860  26.182  15.263  1.00  0.00     0.028 A 
HETATM   13  C6  UNL     1      12.674  25.244  14.705  1.00  0.00     0.091 A 
HETATM   14  N2  UNL     1      13.284  25.389  13.486  1.00  0.00    -0.366 N 
HETATM   15  C12 UNL     1      13.029  26.537  12.857  1.00  0.00     0.091 A 
HETATM   16  C13 UNL     1      12.207  27.525  13.382  1.00  0.00     0.028 A 
BRANCH  14  17
HETATM   17  C7  UNL     1      14.090  24.305  12.981  1.00  0.00     0.129 C 
BRANCH  17  18
HETATM   18  C8  UNL     1      15.187  23.836  13.840  1.00  0.00     0.042 C 
BRANCH  18  19
HETATM   19  C9  UNL     1      16.488  24.516  13.879  1.00  0.00     0.152 C 
BRANCH  19  20
HETATM   20  N3  UNL     1      16.486  25.952  13.791  1.00  0.00    -0.273 N 
HETATM   21  C10 UNL     1      16.830  26.652  12.654  1.00  0.00     0.218 A 
HETATM   22  N4  UNL     1      16.744  27.945  12.929  1.00  0.00    -0.185 N 
HETATM   23  C11 UNL     1      16.356  28.114  14.202  1.00  0.00     0.691 A 
ATOM     24  H4  UNL     1      16.943  28.699  12.271  1.00  0.00     0.185 HD
HETATM   25  N5  UNL     1      16.151  29.203  14.866  1.00  0.00    -0.233 N 
HETATM   26  N6  UNL     1      16.209  26.843  14.699  1.00  0.00    -0.129 N 
ATOM     27  H52 UNL     1      16.261  30.148  14.497  1.00  0.00     0.174 HD
ATOM     28  H51 UNL     1      15.856  29.332  15.834  1.00  0.00     0.174 HD
ATOM     29  H6  UNL     1      15.920  26.624  15.652  1.00  0.00     0.206 HD
ENDBRANCH  19  20
ENDBRANCH  18  19
ENDBRANCH  17  18
ENDBRANCH  14  17
ENDBRANCH   4  11
TORSDOF 8
ENDMDL
MODEL 3
REMARK VINA RESULT: -6.266121672      1.771      5.752
REMARK  8 active torsions:
REMARK  status: ('A' for Active; 'I' for Inactive)
REMARK    1  A    between atoms: C2_3  and  N7_24 
REMARK    2  A    between atoms: C3_4  and  C4_5 
REMARK    3  A    between atoms: N2_8  and  C7_9 
REMARK    4  A    between atoms: C7_9  and  C8_10 
REMARK    5  A    between atoms: C8_10  and  C9_11 
REMARK    6  A    between atoms: C9_11  and  N3_12 
REMARK    7  A    between atoms: N7_24  and  N8_26 
REMARK    8  A    between atoms: N8_26  and  N9_27 
ROOT
HETATM    1  N1  UNL     1      13.874  26.486  15.801  1.00  0.00    -0.190 NA
HETATM    2  C1  UNL     1      14.742  26.898  15.117  1.00  0.00     0.120 C 
HETATM    3  C2  UNL     1      15.813  27.410  14.316  1.00  0.00     0.143 C 
HETATM    4  C3  UNL     1      16.501  26.601  13.540  1.00  0.00     0.055 C 
ENDROOT
BRANCH   3   5
HETATM    5  N7  UNL     1      16.129  28.825  14.370  1.00  0.00    -0.206 N 
ATOM      6  H7  UNL     1      17.089  29.127  14.538  1.00  0.00     0.204 HD
BRANCH   5   7
HETATM    7  N8  UNL     1      15.241  29.663  14.214  1.00  0.00    -0.243 NA
BRANCH   7   8
HETATM    8  N9  UNL     1      14.294  30.426  13.980  1.00  0.00    -0.260 N 
ATOM      9  H92 UNL     1      13.791  29.726  14.525  1.00  0.00     0.193 HD
ATOM     10  H91 UNL     1      13.580  31.112  13.736  1.00  0.00     0.193 HD
ENDBRANCH   7   8
ENDBRANCH   5   7
ENDBRANCH   3   5
BRANCH   4  11
HETATM   11  C4  UNL     1      16.200  25.186  13.470  1.00  0.00    -0.031 A 
HETATM   12  C5  UNL     1      15.240  24.724  12.596  1.00  0.00     0.028 A 
HETATM   13  C6  UNL     1      14.952  23.394  12.554  1.00  0.00     0.091 A 
HETATM   14  N2  UNL     1      15.568  22.454  13.341  1.00  0.00    -0.366 N 
HETATM   15  C12 UNL     1      16.492  22.930  14.176  1.00  0.00     0.091 A 
HETATM   16  C13 UNL     1      16.821  24.277  14.258  1.00  0.00     0.028 A 
BRANCH  14  17
HETATM   17  C7  UNL     1      15.208  21.068  13.173  1.00  0.00     0.129 C 
BRANCH  17  18
HETATM   18  C8  UNL     1      14.103  20.563  14.002  1.00  0.00     0.042 C 
BRANCH  18  19
HETATM   19  C9  UNL     1      12.701  20.880  13.704  1.00  0.00     0.152 C 
BRANCH  19  20
HETATM   20  N3  UNL     1      12.042  21.830  14.560  1.00  0.00    -0.273 N 
HETATM   21  C10 UNL     1      10.682  21.845  14.789  1.00  0.00     0.218 A 
HETATM   22  N4  UNL     1      10.415  22.859  15.599  1.00  0.00    -0.185 N 
HETATM   23  C11 UNL     1      11.550  23.505  15.907  1.00  0.00     0.691 A 
ATOM     24  H4  UNL     1       9.487  23.110  15.938  1.00  0.00     0.185 HD
HETATM   25  N5  UNL     1      11.735  24.538  16.660  1.00  0.00    -0.233 N 
HETATM   26  N6  UNL     1      12.537  22.828  15.235  1.00  0.00    -0.129 N 
ATOM     27  H52 UNL     1      11.001  25.041  17.160  1.00  0.00     0.174 HD
ATOM     28  H51 UNL     1      12.597  25.030  16.895  1.00  0.00     0.174 HD
ATOM     29  H6  UNL     1      13.527  23.073  15.260  1.00  0.00     0.206 HD
ENDBRANCH  19  20
ENDBRANCH  18  19
ENDBRANCH  17  18
ENDBRANCH  14  17
ENDBRANCH   4  11
TORSDOF 8
ENDMDL
MODEL 4
REMARK VINA RESULT: -6.150724982      2.584      5.187
REMARK  8 active torsions:
REMARK  status: ('A' for Active; 'I' for Inactive)
REMARK    1  A    between atoms: C2_3  and  N7_24 
REMARK    2  A    between atoms: C3_4  and  C4_5 
REMARK    3  A    between atoms: N2_8  and  C7_9 
REMARK    4  A    between atoms: C7_9  and  C8_10 
REMARK    5  A    between atoms: C8_10  and  C9_11 
REMARK    6  A    between atoms: C9_11  and  N3_12 
REMARK    7  A    between atoms: N7_24  and  N8_26 
REMARK    8  A    between atoms: N8_26  and  N9_27 
ROOT
HETATM    1  N1  UNL     1      11.069  24.410  17.942  1.00  0.00    -0.190 NA
HETATM    2  C1  UNL     1      10.278  24.823  17.170  1.00  0.00     0.120 C 
HETATM    3  C2  UNL     1       9.317  25.355  16.252  1.00  0.00     0.143 C 
HETATM    4  C3  UNL     1       9.602  25.431  14.970  1.00  0.00     0.055 C 
ENDROOT
BRANCH   3   5
HETATM    5  N7  UNL     1       8.031  25.807  16.749  1.00  0.00    -0.206 N 
ATOM      6  H7  UNL     1       7.439  25.171  17.283  1.00  0.00     0.204 HD
BRANCH   5   7
HETATM    7  N8  UNL     1       7.654  26.958  16.528  1.00  0.00    -0.243 NA
BRANCH   7   8
HETATM    8  N9  UNL     1       7.163  28.068  16.281  1.00  0.00    -0.260 N 
ATOM      9  H92 UNL     1       7.501  28.259  17.224  1.00  0.00     0.193 HD
ATOM     10  H91 UNL     1       6.733  28.945  15.988  1.00  0.00     0.193 HD
ENDBRANCH   7   8
ENDBRANCH   5   7
ENDBRANCH   3   5
BRANCH   4  11
HETATM   11  C4  UNL     1      10.878  24.982  14.453  1.00  0.00    -0.031 A 
HETATM   12  C5  UNL     1      11.922  25.872  14.312  1.00  0.00     0.028 A 
HETATM   13  C6  UNL     1      13.109  25.441  13.806  1.00  0.00     0.091 A 
HETATM   14  N2  UNL     1      13.350  24.148  13.416  1.00  0.00    -0.366 N 
HETATM   15  C12 UNL     1      12.324  23.310  13.564  1.00  0.00     0.091 A 
HETATM   16  C13 UNL     1      11.092  23.699  14.074  1.00  0.00     0.028 A 
BRANCH  14  17
HETATM   17  C7  UNL     1      14.666  23.803  12.936  1.00  0.00     0.129 C 
BRANCH  17  18
HETATM   18  C8  UNL     1      15.723  23.651  13.947  1.00  0.00     0.042 C 
BRANCH  18  19
HETATM   19  C9  UNL     1      16.920  24.502  13.953  1.00  0.00     0.152 C 
BRANCH  19  20
HETATM   20  N3  UNL     1      16.723  25.921  13.816  1.00  0.00    -0.273 N 
HETATM   21  C10 UNL     1      16.960  26.620  12.652  1.00  0.00     0.218 A 
HETATM   22  N4  UNL     1      16.702  27.899  12.885  1.00  0.00    -0.185 N 
HETATM   23  C11 UNL     1      16.306  28.059  14.156  1.00  0.00     0.691 A 
ATOM     24  H4  UNL     1      16.792  28.650  12.200  1.00  0.00     0.185 HD
HETATM   25  N5  UNL     1      15.961  29.132  14.786  1.00  0.00    -0.233 N 
HETATM   26  N6  UNL     1      16.336  26.797  14.698  1.00  0.00    -0.129 N 
ATOM     27  H52 UNL     1      15.939  30.070  14.384  1.00  0.00     0.174 HD
ATOM     28  H51 UNL     1      15.659  29.254  15.753  1.00  0.00     0.174 HD
ATOM     29  H6  UNL     1      16.088  26.575  15.661  1.00  0.00     0.206 HD
ENDBRANCH  19  20
ENDBRANCH  18  19
ENDBRANCH  17  18
ENDBRANCH  14  17
ENDBRANCH   4  11
TORSDOF 8
ENDMDL
MODEL 5
REMARK VINA RESULT: -6.077392832      2.603      4.689
REMARK  8 active torsions:
REMARK  status: ('A' for Active; 'I' for Inactive)
REMARK    1  A    between atoms: C2_3  and  N7_24 
REMARK    2  A    between atoms: C3_4  and  C4_5 
REMARK    3  A    between atoms: N2_8  and  C7_9 
REMARK    4  A    between atoms: C7_9  and  C8_10 
REMARK    5  A    between atoms: C8_10  and  C9_11 
REMARK    6  A    between atoms: C9_11  and  N3_12 
REMARK    7  A    between atoms: N7_24  and  N8_26 
REMARK    8  A    between atoms: N8_26  and  N9_27 
ROOT
HETATM    1  N1  UNL     1      11.436  23.146  17.561  1.00  0.00    -0.190 NA
HETATM    2  C1  UNL     1      10.725  23.949  17.068  1.00  0.00     0.120 C 
HETATM    3  C2  UNL     1       9.862  24.940  16.500  1.00  0.00     0.143 C 
HETATM    4  C3  UNL     1      10.234  25.600  15.426  1.00  0.00     0.055 C 
ENDROOT
BRANCH   3   5
HETATM    5  N7  UNL     1       8.579  25.208  17.122  1.00  0.00    -0.206 N 
ATOM      6  H7  UNL     1       8.194  24.550  17.801  1.00  0.00     0.204 HD
BRANCH   5   7
HETATM    7  N8  UNL     1       7.953  26.227  16.833  1.00  0.00    -0.243 NA
BRANCH   7   8
HETATM    8  N9  UNL     1       7.293  27.197  16.436  1.00  0.00    -0.260 N 
ATOM      9  H92 UNL     1       6.915  26.491  15.805  1.00  0.00     0.193 HD
ATOM     10  H91 UNL     1       6.798  28.051  16.179  1.00  0.00     0.193 HD
ENDBRANCH   7   8
ENDBRANCH   5   7
ENDBRANCH   3   5
BRANCH   4  11
HETATM   11  C4  UNL     1      11.510  25.346  14.788  1.00  0.00    -0.031 A 
HETATM   12  C5  UNL     1      11.574  24.578  13.646  1.00  0.00     0.028 A 
HETATM   13  C6  UNL     1      12.781  24.330  13.068  1.00  0.00     0.091 A 
HETATM   14  N2  UNL     1      13.973  24.805  13.555  1.00  0.00    -0.366 N 
HETATM   15  C12 UNL     1      13.881  25.544  14.660  1.00  0.00     0.091 A 
HETATM   16  C13 UNL     1      12.674  25.825  15.288  1.00  0.00     0.028 A 
BRANCH  14  17
HETATM   17  C7  UNL     1      15.183  24.511  12.828  1.00  0.00     0.129 C 
BRANCH  17  18
HETATM   18  C8  UNL     1      15.345  25.158  11.517  1.00  0.00     0.042 C 
BRANCH  18  19
HETATM   19  C9  UNL     1      16.041  26.441  11.365  1.00  0.00     0.152 C 
BRANCH  19  20
HETATM   20  N3  UNL     1      15.782  27.455  12.354  1.00  0.00    -0.273 N 
HETATM   21  C10 UNL     1      14.622  28.198  12.407  1.00  0.00     0.218 A 
HETATM   22  N4  UNL     1      14.727  29.049  13.417  1.00  0.00    -0.185 N 
HETATM   23  C11 UNL     1      15.913  28.888  14.024  1.00  0.00     0.691 A 
ATOM     24  H4  UNL     1      14.015  29.725  13.691  1.00  0.00     0.185 HD
HETATM   25  N5  UNL     1      16.412  29.509  15.041  1.00  0.00    -0.233 N 
HETATM   26  N6  UNL     1      16.536  27.884  13.325  1.00  0.00    -0.129 N 
ATOM     27  H52 UNL     1      15.949  30.255  15.561  1.00  0.00     0.174 HD
ATOM     28  H51 UNL     1      17.313  29.387  15.503  1.00  0.00     0.174 HD
ATOM     29  H6  UNL     1      17.465  27.521  13.538  1.00  0.00     0.206 HD
ENDBRANCH  19  20
ENDBRANCH  18  19
ENDBRANCH  17  18
ENDBRANCH  14  17
ENDBRANCH   4  11
TORSDOF 8
ENDMDL
