MODEL 1
REMARK VINA RESULT: -6.423701806      0.000      0.000
REMARK  8 active torsions:
REMARK  status: ('A' for Active; 'I' for Inactive)
REMARK    1  A    between atoms: C2_2  and  C3_3 
REMARK    2  A    between atoms: C3_3  and  C4_4 
REMARK    3  A    between atoms: C4_4  and  N1_5 
REMARK    4  A    between atoms: N1_5  and  C5_7 
REMARK    5  A    between atoms: C7_14  and  N4_15 
REMARK    6  A    between atoms: N4_15  and  C8_17 
REMARK    7  A    between atoms: C8_17  and  C9_18 
REMARK    8  A    between atoms: C9_18  and  C10_19 
ROOT
HETATM    1  C5  UNL     1      13.584  27.034  15.552  1.00  0.00     0.696 A 
HETATM    2  N2  UNL     1      13.322  27.971  14.632  1.00  0.00    -0.140 N 
ATOM      3  H2  UNL     1      12.421  28.449  14.606  1.00  0.00     0.189 HD
HETATM    4  C6  UNL     1      14.293  28.260  13.741  1.00  0.00     0.352 A 
HETATM    5  O1  UNL     1      14.051  29.138  12.876  1.00  0.00    -0.246 OA
HETATM    6  N3  UNL     1      15.480  27.633  13.774  1.00  0.00    -0.140 N 
ATOM      7  H3  UNL     1      16.189  27.879  13.083  1.00  0.00     0.189 HD
HETATM    8  C7  UNL     1      15.763  26.686  14.694  1.00  0.00     0.696 A 
HETATM    9  N5  UNL     1      14.800  26.398  15.578  1.00  0.00    -0.022 N 
ATOM     10  H5  UNL     1      14.973  25.688  16.290  1.00  0.00     0.203 HD
ENDROOT
BRANCH   8  11
HETATM   11  N4  UNL     1      16.912  26.088  14.715  1.00  0.00    -0.225 N 
ATOM     12  H4  UNL     1      17.621  26.341  15.403  1.00  0.00     0.177 HD
BRANCH  11  13
HETATM   13  C8  UNL     1      17.162  25.055  13.736  1.00  0.00     0.142 C 
BRANCH  13  14
HETATM   14  C9  UNL     1      17.370  23.702  14.378  1.00  0.00     0.058 C 
BRANCH  14  15
HETATM   15  C10 UNL     1      16.130  22.911  14.109  1.00  0.00    -0.057 A 
HETATM   16  C11 UNL     1      15.850  21.765  14.821  1.00  0.00     0.007 A 
HETATM   17  C12 UNL     1      14.720  21.000  14.610  1.00  0.00     0.001 A 
HETATM   18  C13 UNL     1      13.815  21.382  13.648  1.00  0.00     0.000 A 
HETATM   19  C14 UNL     1      14.099  22.533  12.933  1.00  0.00     0.001 A 
HETATM   20  C15 UNL     1      15.224  23.294  13.143  1.00  0.00     0.007 A 
ENDBRANCH  14  15
ENDBRANCH  13  14
ENDBRANCH  11  13
ENDBRANCH   8  11
BRANCH   1  21
HETATM   21  N1  UNL     1      12.712  26.706  16.430  1.00  0.00    -0.225 N 
ATOM     22  H1  UNL     1      12.869  26.997  17.395  1.00  0.00     0.177 HD
BRANCH  21  23
HETATM   23  C4  UNL     1      11.530  25.955  16.135  1.00  0.00     0.142 C 
BRANCH  23  24
HETATM   24  C3  UNL     1      11.801  24.809  15.159  1.00  0.00     0.046 C 
BRANCH  24  25
HETATM   25  C2  UNL     1      11.875  23.552  15.929  1.00  0.00    -0.035 C 
HETATM   26  C1  UNL     1      11.032  23.262  16.894  1.00  0.00     0.007 C 
ENDBRANCH  24  25
ENDBRANCH  23  24
ENDBRANCH  21  23
ENDBRANCH   1  21
TORSDOF 8
ENDMDL
MODEL 2
REMARK VINA RESULT: -6.281176030      2.598      5.369
REMARK  8 active torsions:
REMARK  status: ('A' for Active; 'I' for Inactive)
REMARK    1  A    between atoms: C2_2  and  C3_3 
REMARK    2  A    between atoms: C3_3  and  C4_4 
REMARK    3  A    between atoms: C4_4  and  N1_5 
REMARK    4  A    between atoms: N1_5  and  C5_7 
REMARK    5  A    between atoms: C7_14  and  N4_15 
REMARK    6  A    between atoms: N4_15  and  C8_17 
REMARK    7  A    between atoms: C8_17  and  C9_18 
REMARK    8  A    between atoms: C9_18  and  C10_19 
ROOT
HETATM    1  C5  UNL     1      12.802  23.791  14.329  1.00  0.00     0.696 A 
HETATM    2  N2  UNL     1      12.398  23.151  15.433  1.00  0.00    -0.140 N 
ATOM      3  H2  UNL     1      12.482  22.138  15.517  1.00  0.00     0.189 HD
HETATM    4  C6  UNL     1      11.878  23.895  16.431  1.00  0.00     0.352 A 
HETATM    5  O1  UNL     1      11.498  23.298  17.468  1.00  0.00    -0.246 OA
HETATM    6  N3  UNL     1      11.769  25.229  16.322  1.00  0.00    -0.140 N 
ATOM      7  H3  UNL     1      11.370  25.757  17.099  1.00  0.00     0.189 HD
HETATM    8  C7  UNL     1      12.171  25.893  15.217  1.00  0.00     0.696 A 
HETATM    9  N5  UNL     1      12.687  25.155  14.226  1.00  0.00    -0.022 N 
ATOM     10  H5  UNL     1      13.002  25.618  13.373  1.00  0.00     0.203 HD
ENDROOT
BRANCH   8  11
HETATM   11  N4  UNL     1      12.059  27.180  15.126  1.00  0.00    -0.225 N 
ATOM     12  H4  UNL     1      11.890  27.750  15.955  1.00  0.00     0.177 HD
BRANCH  11  13
HETATM   13  C8  UNL     1      12.182  27.786  13.821  1.00  0.00     0.142 C 
BRANCH  13  14
HETATM   14  C9  UNL     1      13.324  28.776  13.758  1.00  0.00     0.058 C 
BRANCH  14  15
HETATM   15  C10 UNL     1      14.495  28.037  13.193  1.00  0.00    -0.057 A 
HETATM   16  C11 UNL     1      14.506  27.620  11.880  1.00  0.00     0.007 A 
HETATM   17  C12 UNL     1      15.562  26.935  11.313  1.00  0.00     0.001 A 
HETATM   18  C13 UNL     1      16.667  26.643  12.077  1.00  0.00     0.000 A 
HETATM   19  C14 UNL     1      16.654  27.062  13.396  1.00  0.00     0.001 A 
HETATM   20  C15 UNL     1      15.603  27.744  13.960  1.00  0.00     0.007 A 
ENDBRANCH  14  15
ENDBRANCH  13  14
ENDBRANCH  11  13
ENDBRANCH   8  11
BRANCH   1  21
HETATM   21  N1  UNL     1      13.306  23.153  13.340  1.00  0.00    -0.225 N 
ATOM     22  H1  UNL     1      12.788  22.357  12.967  1.00  0.00     0.177 HD
BRANCH  21  23
HETATM   23  C4  UNL     1      14.554  23.492  12.727  1.00  0.00     0.142 C 
BRANCH  23  24
HETATM   24  C3  UNL     1      15.720  23.429  13.715  1.00  0.00     0.046 C 
BRANCH  24  25
HETATM   25  C2  UNL     1      15.943  22.017  14.080  1.00  0.00    -0.035 C 
HETATM   26  C1  UNL     1      15.838  21.579  15.314  1.00  0.00     0.007 C 
ENDBRANCH  24  25
ENDBRANCH  23  24
ENDBRANCH  21  23
ENDBRANCH   1  21
TORSDOF 8
ENDMDL
MODEL 3
REMARK VINA RESULT: -6.246764750      2.474      4.882
REMARK  8 active torsions:
REMARK  status: ('A' for Active; 'I' for Inactive)
REMARK    1  A    between atoms: C2_2  and  C3_3 
REMARK    2  A    between atoms: C3_3  and  C4_4 
REMARK    3  A    between atoms: C4_4  and  N1_5 
REMARK    4  A    between atoms: N1_5  and  C5_7 
REMARK    5  A    between atoms: C7_14  and  N4_15 
REMARK    6  A    between atoms: N4_15  and  C8_17 
REMARK    7  A    between atoms: C8_17  and  C9_18 
REMARK    8  A    between atoms: C9_18  and  C10_19 
ROOT
HETATM    1  C5  UNL     1      12.593  23.888  15.643  1.00  0.00     0.696 A 
HETATM    2  N2  UNL     1      11.542  23.892  16.473  1.00  0.00    -0.140 N 
ATOM      3  H2  UNL     1      11.043  23.032  16.697  1.00  0.00     0.189 HD
HETATM    4  C6  UNL     1      11.168  25.076  17.002  1.00  0.00     0.352 A 
HETATM    5  O1  UNL     1      10.183  25.084  17.780  1.00  0.00    -0.246 OA
HETATM    6  N3  UNL     1      11.826  26.210  16.708  1.00  0.00    -0.140 N 
ATOM      7  H3  UNL     1      11.513  27.085  17.128  1.00  0.00     0.189 HD
HETATM    8  C7  UNL     1      12.888  26.226  15.875  1.00  0.00     0.696 A 
HETATM    9  N5  UNL     1      13.259  25.052  15.349  1.00  0.00    -0.022 N 
ATOM     10  H5  UNL     1      14.056  25.021  14.714  1.00  0.00     0.203 HD
ENDROOT
BRANCH   8  11
HETATM   11  N4  UNL     1      13.513  27.327  15.600  1.00  0.00    -0.225 N 
ATOM     12  H4  UNL     1      13.019  28.121  15.192  1.00  0.00     0.177 HD
BRANCH  11  13
HETATM   13  C8  UNL     1      14.926  27.401  15.889  1.00  0.00     0.142 C 
BRANCH  13  14
HETATM   14  C9  UNL     1      15.677  28.211  14.856  1.00  0.00     0.058 C 
BRANCH  14  15
HETATM   15  C10 UNL     1      15.770  27.355  13.633  1.00  0.00    -0.057 A 
HETATM   16  C11 UNL     1      15.415  27.844  12.395  1.00  0.00     0.007 A 
HETATM   17  C12 UNL     1      15.483  27.095  11.237  1.00  0.00     0.001 A 
HETATM   18  C13 UNL     1      15.925  25.794  11.299  1.00  0.00     0.000 A 
HETATM   19  C14 UNL     1      16.280  25.304  12.544  1.00  0.00     0.001 A 
HETATM   20  C15 UNL     1      16.212  26.051  13.696  1.00  0.00     0.007 A 
ENDBRANCH  14  15
ENDBRANCH  13  14
ENDBRANCH  11  13
ENDBRANCH   8  11
BRANCH   1  21
HETATM   21  N1  UNL     1      13.006  22.804  15.103  1.00  0.00    -0.225 N 
ATOM     22  H1  UNL     1      12.310  22.143  14.757  1.00  0.00     0.177 HD
BRANCH  21  23
HETATM   23  C4  UNL     1      14.389  22.466  14.955  1.00  0.00     0.142 C 
BRANCH  23  24
HETATM   24  C3  UNL     1      14.584  21.090  14.316  1.00  0.00     0.046 C 
BRANCH  24  25
HETATM   25  C2  UNL     1      15.342  21.264  13.063  1.00  0.00    -0.035 C 
HETATM   26  C1  UNL     1      14.848  21.886  12.017  1.00  0.00     0.007 C 
ENDBRANCH  24  25
ENDBRANCH  23  24
ENDBRANCH  21  23
ENDBRANCH   1  21
TORSDOF 8
ENDMDL
MODEL 4
REMARK VINA RESULT: -6.244204009      2.684      4.620
REMARK  8 active torsions:
REMARK  status: ('A' for Active; 'I' for Inactive)
REMARK    1  A    between atoms: C2_2  and  C3_3 
REMARK    2  A    between atoms: C3_3  and  C4_4 
REMARK    3  A    between atoms: C4_4  and  N1_5 
REMARK    4  A    between atoms: N1_5  and  C5_7 
REMARK    5  A    between atoms: C7_14  and  N4_15 
REMARK    6  A    between atoms: N4_15  and  C8_17 
REMARK    7  A    between atoms: C8_17  and  C9_18 
REMARK    8  A    between atoms: C9_18  and  C10_19 
ROOT
HETATM    1  C5  UNL     1      12.422  26.019  15.874  1.00  0.00     0.696 A 
HETATM    2  N2  UNL     1      11.462  25.737  16.762  1.00  0.00    -0.140 N 
ATOM      3  H2  UNL     1      10.961  26.478  17.253  1.00  0.00     0.189 HD
HETATM    4  C6  UNL     1      11.179  24.436  16.985  1.00  0.00     0.352 A 
HETATM    5  O1  UNL     1      10.279  24.168  17.818  1.00  0.00    -0.246 OA
HETATM    6  N3  UNL     1      11.836  23.459  16.339  1.00  0.00    -0.140 N 
ATOM      7  H3  UNL     1      11.594  22.488  16.534  1.00  0.00     0.189 HD
HETATM    8  C7  UNL     1      12.807  23.724  15.439  1.00  0.00     0.696 A 
HETATM    9  N5  UNL     1      13.088  25.014  15.218  1.00  0.00    -0.022 N 
ATOM     10  H5  UNL     1      13.816  25.256  14.546  1.00  0.00     0.203 HD
ENDROOT
BRANCH   8  11
HETATM   11  N4  UNL     1      13.433  22.771  14.823  1.00  0.00    -0.225 N 
ATOM     12  H4  UNL     1      12.977  21.877  14.644  1.00  0.00     0.177 HD
BRANCH  11  13
HETATM   13  C8  UNL     1      14.792  23.010  14.398  1.00  0.00     0.142 C 
BRANCH  13  14
HETATM   14  C9  UNL     1      14.895  23.209  12.902  1.00  0.00     0.058 C 
BRANCH  14  15
HETATM   15  C10 UNL     1      15.522  24.550  12.695  1.00  0.00    -0.057 A 
HETATM   16  C11 UNL     1      15.283  25.277  11.549  1.00  0.00     0.007 A 
HETATM   17  C12 UNL     1      15.838  26.519  11.312  1.00  0.00     0.001 A 
HETATM   18  C13 UNL     1      16.674  27.077  12.250  1.00  0.00     0.000 A 
HETATM   19  C14 UNL     1      16.913  26.345  13.400  1.00  0.00     0.001 A 
HETATM   20  C15 UNL     1      16.360  25.109  13.636  1.00  0.00     0.007 A 
ENDBRANCH  14  15
ENDBRANCH  13  14
ENDBRANCH  11  13
ENDBRANCH   8  11
BRANCH   1  21
HETATM   21  N1  UNL     1      12.746  27.229  15.610  1.00  0.00    -0.225 N 
ATOM     22  H1  UNL     1      12.295  27.974  16.141  1.00  0.00     0.177 HD
BRANCH  21  23
HETATM   23  C4  UNL     1      13.704  27.596  14.612  1.00  0.00     0.142 C 
BRANCH  23  24
HETATM   24  C3  UNL     1      13.080  28.423  13.487  1.00  0.00     0.046 C 
BRANCH  24  25
HETATM   25  C2  UNL     1      12.494  27.496  12.499  1.00  0.00    -0.035 C 
HETATM   26  C1  UNL     1      11.211  27.218  12.463  1.00  0.00     0.007 C 
ENDBRANCH  24  25
ENDBRANCH  23  24
ENDBRANCH  21  23
ENDBRANCH   1  21
TORSDOF 8
ENDMDL
MODEL 5
REMARK VINA RESULT: -6.237279698      2.600      5.234
REMARK  8 active torsions:
REMARK  status: ('A' for Active; 'I' for Inactive)
REMARK    1  A    between atoms: C2_2  and  C3_3 
REMARK    2  A    between atoms: C3_3  and  C4_4 
REMARK    3  A    between atoms: C4_4  and  N1_5 
REMARK    4  A    between atoms: N1_5  and  C5_7 
REMARK    5  A    between atoms: C7_14  and  N4_15 
REMARK    6  A    between atoms: N4_15  and  C8_17 
REMARK    7  A    between atoms: C8_17  and  C9_18 
REMARK    8  A    between atoms: C9_18  and  C10_19 
ROOT
HETATM    1  C5  UNL     1      12.466  23.668  14.275  1.00  0.00     0.696 A 
HETATM    2  N2  UNL     1      12.155  23.065  15.429  1.00  0.00    -0.140 N 
ATOM      3  H2  UNL     1      12.171  22.049  15.515  1.00  0.00     0.189 HD
HETATM    4  C6  UNL     1      11.822  23.850  16.475  1.00  0.00     0.352 A 
HETATM    5  O1  UNL     1      11.530  23.288  17.559  1.00  0.00    -0.246 OA
HETATM    6  N3  UNL     1      11.802  25.188  16.363  1.00  0.00    -0.140 N 
ATOM      7  H3  UNL     1      11.545  25.748  17.177  1.00  0.00     0.189 HD
HETATM    8  C7  UNL     1      12.113  25.816  15.208  1.00  0.00     0.696 A 
HETATM    9  N5  UNL     1      12.443  25.037  14.171  1.00  0.00    -0.022 N 
ATOM     10  H5  UNL     1      12.684  25.471  13.280  1.00  0.00     0.203 HD
ENDROOT
BRANCH   8  11
HETATM   11  N4  UNL     1      12.090  27.107  15.115  1.00  0.00    -0.225 N 
ATOM     12  H4  UNL     1      11.971  27.689  15.945  1.00  0.00     0.177 HD
BRANCH  11  13
HETATM   13  C8  UNL     1      12.237  27.701  13.807  1.00  0.00     0.142 C 
BRANCH  13  14
HETATM   14  C9  UNL     1      13.423  28.636  13.736  1.00  0.00     0.058 C 
BRANCH  14  15
HETATM   15  C10 UNL     1      14.572  27.825  13.226  1.00  0.00    -0.057 A 
HETATM   16  C11 UNL     1      15.465  27.235  14.093  1.00  0.00     0.007 A 
HETATM   17  C12 UNL     1      16.540  26.478  13.672  1.00  0.00     0.001 A 
HETATM   18  C13 UNL     1      16.749  26.290  12.326  1.00  0.00     0.000 A 
HETATM   19  C14 UNL     1      15.851  26.884  11.456  1.00  0.00     0.001 A 
HETATM   20  C15 UNL     1      14.781  27.638  11.876  1.00  0.00     0.007 A 
ENDBRANCH  14  15
ENDBRANCH  13  14
ENDBRANCH  11  13
ENDBRANCH   8  11
BRANCH   1  21
HETATM   21  N1  UNL     1      12.792  22.990  13.240  1.00  0.00    -0.225 N 
ATOM     22  H1  UNL     1      12.198  23.057  12.414  1.00  0.00     0.177 HD
BRANCH  21  23
HETATM   23  C4  UNL     1      13.944  22.142  13.176  1.00  0.00     0.142 C 
BRANCH  23  24
HETATM   24  C3  UNL     1      15.246  22.940  13.086  1.00  0.00     0.046 C 
BRANCH  24  25
HETATM   25  C2  UNL     1      16.105  22.557  14.223  1.00  0.00    -0.035 C 
HETATM   26  C1  UNL     1      15.719  21.706  15.146  1.00  0.00     0.007 C 
ENDBRANCH  24  25
ENDBRANCH  23  24
ENDBRANCH  21  23
ENDBRANCH   1  21
TORSDOF 8
ENDMDL
