MODEL 1
REMARK VINA RESULT: -7.675373807      0.000      0.000
REMARK  12 active torsions:
REMARK  status: ('A' for Active; 'I' for Inactive)
REMARK    1  A    between atoms: C2_3  and  S1_4 
REMARK    2  A    between atoms: S1_4  and  C3_5 
REMARK    3  A    between atoms: C3_5  and  C4_6 
REMARK    4  A    between atoms: C5_9  and  C6_10 
REMARK    5  A    between atoms: N3_11  and  N4_13 
REMARK       I    between atoms: N4_13  and  C7_15 
REMARK    6  A    between atoms: N6_17  and  N7_19 
REMARK    7  A    between atoms: C9_24  and  N10_25 
REMARK    8  A    between atoms: N10_25  and  N11_27 
REMARK    9  A    between atoms: C10_30  and  C11_31 
REMARK       I    between atoms: C11_31  and  N12_33 
REMARK   10  A    between atoms: N12_33  and  C12_35 
REMARK   11  A    between atoms: N15_40  and  C13_41 
REMARK   12  A    between atoms: C13_41  and  O3_42 
ROOT
HETATM    1  C1  UNL     1       7.032  86.147  33.777  1.00  0.00     0.157 C 
HETATM    2  N1  UNL     1       8.286  85.858  33.118  1.00  0.00    -0.339 N 
HETATM    3  C2  UNL     1       9.461  86.394  33.475  1.00  0.00     0.086 A 
HETATM    4  C5  UNL     1      10.484  85.912  32.640  1.00  0.00     0.045 A 
HETATM    5  C9  UNL     1       9.819  85.071  31.790  1.00  0.00     0.094 A 
HETATM    6  C10 UNL     1       8.444  85.034  32.083  1.00  0.00     0.133 A 
ENDROOT
BRANCH   6   7
HETATM    7  C11 UNL     1       7.428  84.250  31.370  1.00  0.00     0.289 C 
HETATM    8  O2  UNL     1       7.087  84.545  30.199  1.00  0.00    -0.265 OA
HETATM    9  N12 UNL     1       6.824  83.137  32.017  1.00  0.00    -0.151 N 
ATOM     10  H12 UNL     1       6.372  83.257  32.924  1.00  0.00     0.188 HD
BRANCH   9  11
HETATM   11  C12 UNL     1       6.849  81.978  31.458  1.00  0.00     0.717 A 
HETATM   12  N13 UNL     1       6.112  81.615  30.373  1.00  0.00    -0.115 N 
HETATM   13  N14 UNL     1       6.408  80.337  30.084  1.00  0.00    -0.209 N 
ATOM     14  H13 UNL     1       5.453  82.208  29.869  1.00  0.00     0.207 HD
HETATM   15  N15 UNL     1       7.301  79.897  30.951  1.00  0.00    -0.181 N 
ATOM     16  H14 UNL     1       6.008  79.795  29.319  1.00  0.00     0.210 HD
HETATM   17  N16 UNL     1       7.559  80.877  31.767  1.00  0.00    -0.111 N 
ATOM     18  H16 UNL     1       8.217  80.818  32.544  1.00  0.00     0.207 HD
BRANCH  15  19
HETATM   19  C13 UNL     1       7.871  78.568  30.972  1.00  0.00     0.336 C 
BRANCH  19  20
HETATM   20  O3  UNL     1       6.959  77.595  31.349  1.00  0.00    -0.379 OA
ATOM     21  H3  UNL     1       7.364  76.751  31.511  1.00  0.00     0.211 HD
ENDBRANCH  19  20
ENDBRANCH  15  19
ENDBRANCH   9  11
ENDBRANCH   6   7
BRANCH   5  22
HETATM   22  N10 UNL     1      10.374  84.284  30.756  1.00  0.00    -0.304 N 
ATOM     23  H10 UNL     1      10.653  84.743  29.888  1.00  0.00     0.186 HD
BRANCH  22  24
HETATM   24  N11 UNL     1      10.558  82.901  30.871  1.00  0.00    -0.345 N 
ATOM     25 2H11 UNL     1      11.419  82.574  31.309  1.00  0.00     0.176 HD
ATOM     26 1H11 UNL     1       9.872  82.223  30.538  1.00  0.00     0.176 HD
ENDBRANCH  22  24
ENDBRANCH   5  22
BRANCH   3  27
HETATM   27  S1  UNL     1       9.704  87.563  34.823  1.00  0.00    -0.102 SA
BRANCH  27  28
HETATM   28  C3  UNL     1       9.762  86.644  36.383  1.00  0.00     0.180 C 
BRANCH  28  29
HETATM   29  C4  UNL     1      10.846  85.622  36.319  1.00  0.00     0.240 C 
HETATM   30  N2  UNL     1      10.557  84.247  36.183  1.00  0.00    -0.061 NA
HETATM   31  O1  UNL     1      12.056  85.993  36.388  1.00  0.00    -0.276 OA
ENDBRANCH  28  29
ENDBRANCH  27  28
ENDBRANCH   3  27
BRANCH   4  32
HETATM   32  C6  UNL     1      11.884  86.296  32.749  1.00  0.00     0.123 C 
HETATM   33  N3  UNL     1      12.852  85.805  33.286  1.00  0.00    -0.309 N 
ATOM     34  H3  UNL     1      13.662  86.402  33.123  1.00  0.00     0.186 HD
BRANCH  33  35
HETATM   35  N4  UNL     1      13.223  84.765  34.010  1.00  0.00    -0.273 N 
HETATM   36  C7  UNL     1      13.054  83.375  33.643  1.00  0.00     0.222 C 
HETATM   37  N5  UNL     1      13.097  82.984  32.263  1.00  0.00    -0.061 NA
HETATM   38  N6  UNL     1      12.870  82.527  34.574  1.00  0.00    -0.270 N 
ATOM     39  H6  UNL     1      12.851  82.870  35.534  1.00  0.00     0.189 HD
ATOM     40  H4  UNL     1      13.669  84.958  34.907  1.00  0.00     0.189 HD
BRANCH  38  41
HETATM   41  N7  UNL     1      12.695  81.179  34.369  1.00  0.00    -0.274 N 
HETATM   42  C8  UNL     1      11.655  80.571  33.972  1.00  0.00     0.215 C 
HETATM   43  N8  UNL     1      10.451  81.252  33.664  1.00  0.00    -0.065 NA
HETATM   44  N9  UNL     1      11.686  79.158  33.822  1.00  0.00    -0.065 NA
ATOM     45  H7  UNL     1      13.506  80.591  34.561  1.00  0.00     0.189 HD
ENDBRANCH  38  41
ENDBRANCH  33  35
ENDBRANCH   4  32
TORSDOF 12
ENDMDL
MODEL 2
REMARK VINA RESULT: -7.324561082      1.278      1.719
REMARK  12 active torsions:
REMARK  status: ('A' for Active; 'I' for Inactive)
REMARK    1  A    between atoms: C2_3  and  S1_4 
REMARK    2  A    between atoms: S1_4  and  C3_5 
REMARK    3  A    between atoms: C3_5  and  C4_6 
REMARK    4  A    between atoms: C5_9  and  C6_10 
REMARK    5  A    between atoms: N3_11  and  N4_13 
REMARK       I    between atoms: N4_13  and  C7_15 
REMARK    6  A    between atoms: N6_17  and  N7_19 
REMARK    7  A    between atoms: C9_24  and  N10_25 
REMARK    8  A    between atoms: N10_25  and  N11_27 
REMARK    9  A    between atoms: C10_30  and  C11_31 
REMARK       I    between atoms: C11_31  and  N12_33 
REMARK   10  A    between atoms: N12_33  and  C12_35 
REMARK   11  A    between atoms: N15_40  and  C13_41 
REMARK   12  A    between atoms: C13_41  and  O3_42 
ROOT
HETATM    1  C1  UNL     1       7.118  85.719  33.996  1.00  0.00     0.157 C 
HETATM    2  N1  UNL     1       8.347  85.566  33.249  1.00  0.00    -0.339 N 
HETATM    3  C2  UNL     1       9.520  86.096  33.619  1.00  0.00     0.086 A 
HETATM    4  C5  UNL     1      10.515  85.767  32.682  1.00  0.00     0.045 A 
HETATM    5  C9  UNL     1       9.836  85.017  31.760  1.00  0.00     0.094 A 
HETATM    6  C10 UNL     1       8.480  84.890  32.109  1.00  0.00     0.133 A 
ENDROOT
BRANCH   6   7
HETATM    7  C11 UNL     1       7.455  84.166  31.346  1.00  0.00     0.289 C 
HETATM    8  O2  UNL     1       7.160  84.505  30.174  1.00  0.00    -0.265 OA
HETATM    9  N12 UNL     1       6.789  83.061  31.945  1.00  0.00    -0.151 N 
ATOM     10  H12 UNL     1       6.316  83.175  32.841  1.00  0.00     0.188 HD
BRANCH   9  11
HETATM   11  C12 UNL     1       6.785  81.917  31.355  1.00  0.00     0.717 A 
HETATM   12  N13 UNL     1       6.045  81.604  30.257  1.00  0.00    -0.115 N 
HETATM   13  N14 UNL     1       6.307  80.327  29.935  1.00  0.00    -0.209 N 
ATOM     14  H13 UNL     1       5.405  82.229  29.765  1.00  0.00     0.207 HD
HETATM   15  N15 UNL     1       7.182  79.839  30.794  1.00  0.00    -0.181 N 
ATOM     16  H14 UNL     1       5.896  79.817  29.153  1.00  0.00     0.210 HD
HETATM   17  N16 UNL     1       7.463  80.789  31.638  1.00  0.00    -0.111 N 
ATOM     18  H16 UNL     1       8.114  80.691  32.416  1.00  0.00     0.207 HD
BRANCH  15  19
HETATM   19  C13 UNL     1       7.715  78.495  30.781  1.00  0.00     0.336 C 
BRANCH  19  20
HETATM   20  O3  UNL     1       6.845  77.563  31.327  1.00  0.00    -0.379 OA
ATOM     21  H3  UNL     1       5.962  77.897  31.430  1.00  0.00     0.211 HD
ENDBRANCH  19  20
ENDBRANCH  15  19
ENDBRANCH   9  11
ENDBRANCH   6   7
BRANCH   5  22
HETATM   22  N10 UNL     1      10.364  84.392  30.608  1.00  0.00    -0.304 N 
ATOM     23  H10 UNL     1      10.604  84.973  29.804  1.00  0.00     0.186 HD
BRANCH  22  24
HETATM   24  N11 UNL     1      10.571  83.011  30.523  1.00  0.00    -0.345 N 
ATOM     25 2H11 UNL     1      10.122  82.512  29.754  1.00  0.00     0.176 HD
ATOM     26 1H11 UNL     1      11.145  82.497  31.191  1.00  0.00     0.176 HD
ENDBRANCH  22  24
ENDBRANCH   5  22
BRANCH   3  27
HETATM   27  S1  UNL     1       9.792  87.090  35.096  1.00  0.00    -0.102 SA
BRANCH  27  28
HETATM   28  C3  UNL     1       9.261  88.788  34.757  1.00  0.00     0.180 C 
BRANCH  28  29
HETATM   29  C4  UNL     1       9.916  89.276  33.510  1.00  0.00     0.240 C 
HETATM   30  N2  UNL     1       9.160  89.687  32.390  1.00  0.00    -0.061 NA
HETATM   31  O1  UNL     1      11.182  89.325  33.448  1.00  0.00    -0.276 OA
ENDBRANCH  28  29
ENDBRANCH  27  28
ENDBRANCH   3  27
BRANCH   4  32
HETATM   32  C6  UNL     1      11.906  86.187  32.777  1.00  0.00     0.123 C 
HETATM   33  N3  UNL     1      12.901  85.698  33.264  1.00  0.00    -0.309 N 
ATOM     34  H3  UNL     1      13.689  86.327  33.112  1.00  0.00     0.186 HD
BRANCH  33  35
HETATM   35  N4  UNL     1      13.322  84.634  33.923  1.00  0.00    -0.273 N 
HETATM   36  C7  UNL     1      13.075  83.256  33.552  1.00  0.00     0.222 C 
HETATM   37  N5  UNL     1      12.954  82.895  32.169  1.00  0.00    -0.061 NA
HETATM   38  N6  UNL     1      12.971  82.395  34.482  1.00  0.00    -0.270 N 
ATOM     39  H6  UNL     1      13.068  82.718  35.444  1.00  0.00     0.189 HD
ATOM     40  H4  UNL     1      13.869  84.797  34.768  1.00  0.00     0.189 HD
BRANCH  38  41
HETATM   41  N7  UNL     1      12.737  81.056  34.273  1.00  0.00    -0.274 N 
HETATM   42  C8  UNL     1      11.634  80.476  34.038  1.00  0.00     0.215 C 
HETATM   43  N8  UNL     1      10.410  81.185  33.951  1.00  0.00    -0.065 NA
HETATM   44  N9  UNL     1      11.612  79.068  33.848  1.00  0.00    -0.065 NA
ATOM     45  H7  UNL     1      13.557  80.450  34.313  1.00  0.00     0.189 HD
ENDBRANCH  38  41
ENDBRANCH  33  35
ENDBRANCH   4  32
TORSDOF 12
ENDMDL
MODEL 3
REMARK VINA RESULT: -7.109414675      2.552      4.389
REMARK  12 active torsions:
REMARK  status: ('A' for Active; 'I' for Inactive)
REMARK    1  A    between atoms: C2_3  and  S1_4 
REMARK    2  A    between atoms: S1_4  and  C3_5 
REMARK    3  A    between atoms: C3_5  and  C4_6 
REMARK    4  A    between atoms: C5_9  and  C6_10 
REMARK    5  A    between atoms: N3_11  and  N4_13 
REMARK       I    between atoms: N4_13  and  C7_15 
REMARK    6  A    between atoms: N6_17  and  N7_19 
REMARK    7  A    between atoms: C9_24  and  N10_25 
REMARK    8  A    between atoms: N10_25  and  N11_27 
REMARK    9  A    between atoms: C10_30  and  C11_31 
REMARK       I    between atoms: C11_31  and  N12_33 
REMARK   10  A    between atoms: N12_33  and  C12_35 
REMARK   11  A    between atoms: N15_40  and  C13_41 
REMARK   12  A    between atoms: C13_41  and  O3_42 
ROOT
HETATM    1  C1  UNL     1      11.941  81.986  32.984  1.00  0.00     0.157 C 
HETATM    2  N1  UNL     1      11.909  83.431  33.027  1.00  0.00    -0.339 N 
HETATM    3  C2  UNL     1      12.734  84.177  33.775  1.00  0.00     0.086 A 
HETATM    4  C5  UNL     1      12.445  85.541  33.595  1.00  0.00     0.045 A 
HETATM    5  C9  UNL     1      11.410  85.524  32.701  1.00  0.00     0.094 A 
HETATM    6  C10 UNL     1      11.069  84.207  32.343  1.00  0.00     0.133 A 
ENDROOT
BRANCH   6   7
HETATM    7  C11 UNL     1      10.000  83.811  31.418  1.00  0.00     0.289 C 
HETATM    8  O2  UNL     1      10.209  83.734  30.183  1.00  0.00    -0.265 OA
HETATM    9  N12 UNL     1       8.709  83.509  31.931  1.00  0.00    -0.151 N 
ATOM     10  H12 UNL     1       8.217  84.189  32.511  1.00  0.00     0.188 HD
BRANCH   9  11
HETATM   11  C12 UNL     1       8.161  82.375  31.663  1.00  0.00     0.717 A 
HETATM   12  N13 UNL     1       6.861  82.199  31.302  1.00  0.00    -0.115 N 
HETATM   13  N14 UNL     1       6.663  80.885  31.106  1.00  0.00    -0.209 N 
ATOM     14  H13 UNL     1       6.161  82.934  31.199  1.00  0.00     0.207 HD
HETATM   15  N15 UNL     1       7.793  80.243  31.332  1.00  0.00    -0.181 N 
ATOM     16  H14 UNL     1       5.782  80.454  30.827  1.00  0.00     0.210 HD
HETATM   17  N16 UNL     1       8.682  81.134  31.665  1.00  0.00    -0.111 N 
ATOM     18  H16 UNL     1       9.651  80.919  31.897  1.00  0.00     0.207 HD
BRANCH  15  19
HETATM   19  C13 UNL     1       7.986  78.814  31.226  1.00  0.00     0.336 C 
BRANCH  19  20
HETATM   20  O3  UNL     1       6.804  78.099  31.338  1.00  0.00    -0.379 OA
ATOM     21  H3  UNL     1       6.819  77.280  30.856  1.00  0.00     0.211 HD
ENDBRANCH  19  20
ENDBRANCH  15  19
ENDBRANCH   9  11
ENDBRANCH   6   7
BRANCH   5  22
HETATM   22  N10 UNL     1      10.744  86.637  32.138  1.00  0.00    -0.304 N 
ATOM     23  H10 UNL     1      11.106  87.035  31.271  1.00  0.00     0.186 HD
BRANCH  22  24
HETATM   24  N11 UNL     1       9.610  87.215  32.720  1.00  0.00    -0.345 N 
ATOM     25 2H11 UNL     1       9.524  87.168  33.736  1.00  0.00     0.176 HD
ATOM     26 1H11 UNL     1       8.881  87.672  32.173  1.00  0.00     0.176 HD
ENDBRANCH  22  24
ENDBRANCH   5  22
BRANCH   3  27
HETATM   27  S1  UNL     1      14.023  83.536  34.856  1.00  0.00    -0.102 SA
BRANCH  27  28
HETATM   28  C3  UNL     1      13.378  83.468  36.548  1.00  0.00     0.180 C 
BRANCH  28  29
HETATM   29  C4  UNL     1      12.052  82.787  36.549  1.00  0.00     0.240 C 
HETATM   30  N2  UNL     1      10.846  83.519  36.597  1.00  0.00    -0.061 NA
HETATM   31  O1  UNL     1      12.002  81.521  36.506  1.00  0.00    -0.276 OA
ENDBRANCH  28  29
ENDBRANCH  27  28
ENDBRANCH   3  27
BRANCH   4  32
HETATM   32  C6  UNL     1      13.151  86.626  34.263  1.00  0.00     0.123 C 
HETATM   33  N3  UNL     1      12.797  87.590  34.903  1.00  0.00    -0.309 N 
ATOM     34  H3  UNL     1      13.621  88.113  35.201  1.00  0.00     0.186 HD
BRANCH  33  35
HETATM   35  N4  UNL     1      11.716  88.202  35.352  1.00  0.00    -0.273 N 
HETATM   36  C7  UNL     1      10.811  87.690  36.359  1.00  0.00     0.222 C 
HETATM   37  N5  UNL     1      11.307  86.851  37.412  1.00  0.00    -0.061 NA
HETATM   38  N6  UNL     1       9.582  88.008  36.278  1.00  0.00    -0.270 N 
ATOM     39  H6  UNL     1       9.295  88.609  35.505  1.00  0.00     0.189 HD
ATOM     40  H4  UNL     1      11.500  89.115  34.953  1.00  0.00     0.189 HD
BRANCH  38  41
HETATM   41  N7  UNL     1       8.615  87.594  37.164  1.00  0.00    -0.274 N 
HETATM   42  C8  UNL     1       7.844  86.591  37.076  1.00  0.00     0.215 C 
HETATM   43  N8  UNL     1       7.882  85.701  35.974  1.00  0.00    -0.065 NA
HETATM   44  N9  UNL     1       6.908  86.338  38.115  1.00  0.00    -0.065 NA
ATOM     45  H7  UNL     1       8.504  88.167  38.000  1.00  0.00     0.189 HD
ENDBRANCH  38  41
ENDBRANCH  33  35
ENDBRANCH   4  32
TORSDOF 12
ENDMDL
MODEL 4
REMARK VINA RESULT: -6.915360842      3.028      7.040
REMARK  12 active torsions:
REMARK  status: ('A' for Active; 'I' for Inactive)
REMARK    1  A    between atoms: C2_3  and  S1_4 
REMARK    2  A    between atoms: S1_4  and  C3_5 
REMARK    3  A    between atoms: C3_5  and  C4_6 
REMARK    4  A    between atoms: C5_9  and  C6_10 
REMARK    5  A    between atoms: N3_11  and  N4_13 
REMARK       I    between atoms: N4_13  and  C7_15 
REMARK    6  A    between atoms: N6_17  and  N7_19 
REMARK    7  A    between atoms: C9_24  and  N10_25 
REMARK    8  A    between atoms: N10_25  and  N11_27 
REMARK    9  A    between atoms: C10_30  and  C11_31 
REMARK       I    between atoms: C11_31  and  N12_33 
REMARK   10  A    between atoms: N12_33  and  C12_35 
REMARK   11  A    between atoms: N15_40  and  C13_41 
REMARK   12  A    between atoms: C13_41  and  O3_42 
ROOT
HETATM    1  C1  UNL     1      10.028  84.924  33.119  1.00  0.00     0.157 C 
HETATM    2  N1  UNL     1       9.061  83.978  32.609  1.00  0.00    -0.339 N 
HETATM    3  C2  UNL     1       8.005  84.317  31.857  1.00  0.00     0.086 A 
HETATM    4  C5  UNL     1       7.261  83.172  31.526  1.00  0.00     0.045 A 
HETATM    5  C9  UNL     1       7.959  82.163  32.133  1.00  0.00     0.094 A 
HETATM    6  C10 UNL     1       9.084  82.662  32.813  1.00  0.00     0.133 A 
ENDROOT
BRANCH   6   7
HETATM    7  C11 UNL     1      10.051  81.869  33.583  1.00  0.00     0.289 C 
HETATM    8  O2  UNL     1      10.428  80.741  33.182  1.00  0.00    -0.265 OA
HETATM    9  N12 UNL     1      10.567  82.389  34.801  1.00  0.00    -0.151 N 
ATOM     10  H12 UNL     1       9.931  82.686  35.541  1.00  0.00     0.188 HD
BRANCH   9  11
HETATM   11  C12 UNL     1      11.840  82.486  34.969  1.00  0.00     0.717 A 
HETATM   12  N13 UNL     1      12.647  81.495  35.436  1.00  0.00    -0.115 N 
HETATM   13  N14 UNL     1      13.903  81.970  35.471  1.00  0.00    -0.209 N 
ATOM     14  H13 UNL     1      12.351  80.558  35.710  1.00  0.00     0.207 HD
HETATM   15  N15 UNL     1      13.902  83.218  35.043  1.00  0.00    -0.181 N 
ATOM     16  H14 UNL     1      14.724  81.449  35.779  1.00  0.00     0.210 HD
HETATM   17  N16 UNL     1      12.672  83.521  34.746  1.00  0.00    -0.111 N 
ATOM     18  H16 UNL     1      12.375  84.430  34.390  1.00  0.00     0.207 HD
BRANCH  15  19
HETATM   19  C13 UNL     1      15.064  84.072  34.934  1.00  0.00     0.336 C 
BRANCH  19  20
HETATM   20  O3  UNL     1      16.232  83.367  34.692  1.00  0.00    -0.379 OA
ATOM     21  H3  UNL     1      17.009  83.913  34.731  1.00  0.00     0.211 HD
ENDBRANCH  19  20
ENDBRANCH  15  19
ENDBRANCH   9  11
ENDBRANCH   6   7
BRANCH   5  22
HETATM   22  N10 UNL     1       7.671  80.780  32.097  1.00  0.00    -0.304 N 
ATOM     23  H10 UNL     1       7.022  80.398  32.786  1.00  0.00     0.186 HD
BRANCH  22  24
HETATM   24  N11 UNL     1       8.237  79.912  31.156  1.00  0.00    -0.345 N 
ATOM     25 2H11 UNL     1       9.190  80.108  30.847  1.00  0.00     0.176 HD
ATOM     26 1H11 UNL     1       7.739  79.107  30.778  1.00  0.00     0.176 HD
ENDBRANCH  22  24
ENDBRANCH   5  22
BRANCH   3  27
HETATM   27  S1  UNL     1       7.589  85.993  31.345  1.00  0.00    -0.102 SA
BRANCH  27  28
HETATM   28  C3  UNL     1       8.142  86.230  29.636  1.00  0.00     0.180 C 
BRANCH  28  29
HETATM   29  C4  UNL     1       9.526  85.698  29.482  1.00  0.00     0.240 C 
HETATM   30  N2  UNL     1       9.776  84.459  28.853  1.00  0.00    -0.061 NA
HETATM   31  O1  UNL     1      10.505  86.371  29.925  1.00  0.00    -0.276 OA
ENDBRANCH  28  29
ENDBRANCH  27  28
ENDBRANCH   3  27
BRANCH   4  32
HETATM   32  C6  UNL     1       6.047  83.183  30.722  1.00  0.00     0.123 C 
HETATM   33  N3  UNL     1       4.870  83.048  30.973  1.00  0.00    -0.309 N 
ATOM     34  H3  UNL     1       4.335  83.124  30.109  1.00  0.00     0.186 HD
BRANCH  33  35
HETATM   35  N4  UNL     1       4.039  82.835  31.976  1.00  0.00    -0.273 N 
HETATM   36  C7  UNL     1       4.165  83.383  33.311  1.00  0.00     0.222 C 
HETATM   37  N5  UNL     1       4.764  84.672  33.505  1.00  0.00    -0.061 NA
HETATM   38  N6  UNL     1       3.732  82.691  34.286  1.00  0.00    -0.270 N 
ATOM     39  H6  UNL     1       3.316  81.783  34.079  1.00  0.00     0.189 HD
ATOM     40  H4  UNL     1       3.237  82.231  31.796  1.00  0.00     0.189 HD
BRANCH  38  41
HETATM   41  N7  UNL     1       3.788  83.089  35.602  1.00  0.00    -0.274 N 
HETATM   42  C8  UNL     1       4.597  82.715  36.504  1.00  0.00     0.215 C 
HETATM   43  N8  UNL     1       5.624  81.771  36.255  1.00  0.00    -0.065 NA
HETATM   44  N9  UNL     1       4.482  83.256  37.812  1.00  0.00    -0.065 NA
ATOM     45  H7  UNL     1       3.088  83.773  35.889  1.00  0.00     0.189 HD
ENDBRANCH  38  41
ENDBRANCH  33  35
ENDBRANCH   4  32
TORSDOF 12
ENDMDL
MODEL 5
REMARK VINA RESULT: -6.883282702      3.540      7.225
REMARK  12 active torsions:
REMARK  status: ('A' for Active; 'I' for Inactive)
REMARK    1  A    between atoms: C2_3  and  S1_4 
REMARK    2  A    between atoms: S1_4  and  C3_5 
REMARK    3  A    between atoms: C3_5  and  C4_6 
REMARK    4  A    between atoms: C5_9  and  C6_10 
REMARK    5  A    between atoms: N3_11  and  N4_13 
REMARK       I    between atoms: N4_13  and  C7_15 
REMARK    6  A    between atoms: N6_17  and  N7_19 
REMARK    7  A    between atoms: C9_24  and  N10_25 
REMARK    8  A    between atoms: N10_25  and  N11_27 
REMARK    9  A    between atoms: C10_30  and  C11_31 
REMARK       I    between atoms: C11_31  and  N12_33 
REMARK   10  A    between atoms: N12_33  and  C12_35 
REMARK   11  A    between atoms: N15_40  and  C13_41 
REMARK   12  A    between atoms: C13_41  and  O3_42 
ROOT
HETATM    1  C1  UNL     1       9.306  86.208  33.092  1.00  0.00     0.157 C 
HETATM    2  N1  UNL     1       8.240  85.824  32.194  1.00  0.00    -0.339 N 
HETATM    3  C2  UNL     1       7.028  86.397  32.181  1.00  0.00     0.086 A 
HETATM    4  C5  UNL     1       6.223  85.799  31.196  1.00  0.00     0.045 A 
HETATM    5  C9  UNL     1       7.050  84.855  30.651  1.00  0.00     0.094 A 
HETATM    6  C10 UNL     1       8.312  84.865  31.272  1.00  0.00     0.133 A 
ENDROOT
BRANCH   6   7
HETATM    7  C11 UNL     1       9.441  83.983  30.952  1.00  0.00     0.289 C 
HETATM    8  O2  UNL     1      10.023  84.053  29.842  1.00  0.00    -0.265 OA
HETATM    9  N12 UNL     1       9.881  83.036  31.916  1.00  0.00    -0.151 N 
ATOM     10  H12 UNL     1       9.222  82.366  32.313  1.00  0.00     0.188 HD
BRANCH   9  11
HETATM   11  C12 UNL     1      11.114  83.024  32.288  1.00  0.00     0.717 A 
HETATM   12  N13 UNL     1      12.149  82.532  31.554  1.00  0.00    -0.115 N 
HETATM   13  N14 UNL     1      13.274  82.696  32.270  1.00  0.00    -0.209 N 
ATOM     14  H13 UNL     1      12.083  82.114  30.626  1.00  0.00     0.207 HD
HETATM   15  N15 UNL     1      12.972  83.270  33.419  1.00  0.00    -0.181 N 
ATOM     16  H14 UNL     1      14.210  82.420  31.973  1.00  0.00     0.210 HD
HETATM   17  N16 UNL     1      11.685  83.462  33.426  1.00  0.00    -0.111 N 
ATOM     18  H16 UNL     1      11.173  83.892  34.196  1.00  0.00     0.207 HD
BRANCH  15  19
HETATM   19  C13 UNL     1      13.912  83.612  34.463  1.00  0.00     0.336 C 
BRANCH  19  20
HETATM   20  O3  UNL     1      15.231  83.570  34.038  1.00  0.00    -0.379 OA
ATOM     21  H3  UNL     1      15.847  83.463  34.753  1.00  0.00     0.211 HD
ENDBRANCH  19  20
ENDBRANCH  15  19
ENDBRANCH   9  11
ENDBRANCH   6   7
BRANCH   5  22
HETATM   22  N10 UNL     1       6.760  83.976  29.583  1.00  0.00    -0.304 N 
ATOM     23  H10 UNL     1       7.242  84.112  28.694  1.00  0.00     0.186 HD
BRANCH  22  24
HETATM   24  N11 UNL     1       5.841  82.926  29.694  1.00  0.00    -0.345 N 
ATOM     25 2H11 UNL     1       4.882  83.163  29.949  1.00  0.00     0.176 HD
ATOM     26 1H11 UNL     1       6.094  81.951  29.531  1.00  0.00     0.176 HD
ENDBRANCH  22  24
ENDBRANCH   5  22
BRANCH   3  27
HETATM   27  S1  UNL     1       6.498  87.734  33.265  1.00  0.00    -0.102 SA
BRANCH  27  28
HETATM   28  C3  UNL     1       6.937  89.313  32.493  1.00  0.00     0.180 C 
BRANCH  28  29
HETATM   29  C4  UNL     1       8.294  89.730  32.946  1.00  0.00     0.240 C 
HETATM   30  N2  UNL     1       8.530  90.163  34.270  1.00  0.00    -0.061 NA
HETATM   31  O1  UNL     1       9.262  89.696  32.128  1.00  0.00    -0.276 OA
ENDBRANCH  28  29
ENDBRANCH  27  28
ENDBRANCH   3  27
BRANCH   4  32
HETATM   32  C6  UNL     1       4.845  86.179  30.919  1.00  0.00     0.123 C 
HETATM   33  N3  UNL     1       4.222  86.400  29.904  1.00  0.00    -0.309 N 
ATOM     34  H3  UNL     1       3.262  86.642  30.150  1.00  0.00     0.186 HD
BRANCH  33  35
HETATM   35  N4  UNL     1       4.352  86.438  28.591  1.00  0.00    -0.273 N 
HETATM   36  C7  UNL     1       4.214  85.311  27.694  1.00  0.00     0.222 C 
HETATM   37  N5  UNL     1       3.308  84.245  28.012  1.00  0.00    -0.061 NA
HETATM   38  N6  UNL     1       4.913  85.301  26.631  1.00  0.00    -0.270 N 
ATOM     39  H6  UNL     1       5.537  86.090  26.464  1.00  0.00     0.189 HD
ATOM     40  H4  UNL     1       4.569  87.342  28.172  1.00  0.00     0.189 HD
BRANCH  38  41
HETATM   41  N7  UNL     1       4.882  84.295  25.694  1.00  0.00    -0.274 N 
HETATM   42  C8  UNL     1       5.628  83.273  25.610  1.00  0.00     0.215 C 
HETATM   43  N8  UNL     1       6.666  83.016  26.539  1.00  0.00    -0.065 NA
HETATM   44  N9  UNL     1       5.424  82.345  24.553  1.00  0.00    -0.065 NA
ATOM     45  H7  UNL     1       4.165  84.382  24.973  1.00  0.00     0.189 HD
ENDBRANCH  38  41
ENDBRANCH  33  35
ENDBRANCH   4  32
TORSDOF 12
ENDMDL
