MODEL 1
REMARK VINA RESULT: -8.082803815      0.000      0.000
REMARK  14 active torsions:
REMARK  status: ('A' for Active; 'I' for Inactive)
REMARK    1  A    between atoms: N1_1  and  N2_4 
REMARK    2  A    between atoms: C3_8  and  N3_9 
REMARK       I    between atoms: N3_9  and  C4_11 
REMARK    3  A    between atoms: C4_11  and  C5_13 
REMARK    4  A    between atoms: C5_13  and  N4_14 
REMARK    5  A    between atoms: C5_13  and  C6_18 
REMARK    6  A    between atoms: C6_18  and  C7_19 
REMARK    7  A    between atoms: C7_19  and  N5_20 
REMARK    8  A    between atoms: N5_20  and  C8_22 
REMARK    9  A    between atoms: C10_26  and  O2_27 
REMARK   10  A    between atoms: C11_29  and  O3_30 
REMARK   11  A    between atoms: C12_32  and  O4_33 
REMARK   12  A    between atoms: C12_32  and  C13_35 
REMARK   13  A    between atoms: C14_40  and  S1_41 
REMARK   14  A    between atoms: S1_41  and  N9_42 
ROOT
HETATM    1  C5  UNL     1      12.580  81.817  33.614  1.00  0.00     0.276 C 
ENDROOT
BRANCH   1   2
HETATM    2  C4  UNL     1      11.436  82.331  32.736  1.00  0.00     0.254 C 
HETATM    3  N3  UNL     1      10.132  82.252  33.195  1.00  0.00    -0.311 N 
ATOM      4  H3  UNL     1      10.007  81.830  34.115  1.00  0.00     0.170 HD
HETATM    5  O1  UNL     1      11.742  82.809  31.624  1.00  0.00    -0.271 OA
BRANCH   3   6
HETATM    6  C3  UNL     1       8.962  82.680  32.553  1.00  0.00     0.113 A 
HETATM    7  C2  UNL     1       7.679  82.388  32.929  1.00  0.00     0.098 A 
HETATM    8  C1  UNL     1       6.595  82.880  32.197  1.00  0.00     0.125 A 
HETATM    9  N2  UNL     1       5.421  82.563  32.607  1.00  0.00    -0.292 N 
HETATM   10  N10 UNL     1       6.763  83.646  31.110  1.00  0.00    -0.316 N 
ATOM     11  H2  UNL     1       5.361  81.975  33.439  1.00  0.00     0.188 HD
HETATM   12  C14 UNL     1       8.018  83.932  30.742  1.00  0.00     0.226 A 
ATOM     13  H10 UNL     1       5.965  83.999  30.582  1.00  0.00     0.169 HD
HETATM   14  N8  UNL     1       9.058  83.474  31.427  1.00  0.00    -0.317 N 
ATOM     15  H8  UNL     1       9.991  83.725  31.099  1.00  0.00     0.169 HD
BRANCH   9  16
HETATM   16  N1  UNL     1       4.227  82.951  32.019  1.00  0.00    -0.344 N 
ATOM     17  H12 UNL     1       4.089  82.659  31.051  1.00  0.00     0.176 HD
ATOM     18  H11 UNL     1       3.492  83.495  32.470  1.00  0.00     0.176 HD
ENDBRANCH   9  16
BRANCH  12  19
HETATM   19  S1  UNL     1       8.342  84.943  29.322  1.00  0.00     0.289 S 
HETATM   20  O6  UNL     1       9.628  84.427  28.741  1.00  0.00    -0.198 OA
HETATM   21  O7  UNL     1       7.183  84.748  28.388  1.00  0.00    -0.198 OA
BRANCH  19  22
HETATM   22  N9  UNL     1       8.478  86.584  29.809  1.00  0.00    -0.322 N 
ATOM     23  H92 UNL     1       9.348  87.117  29.810  1.00  0.00     0.169 HD
ATOM     24  H91 UNL     1       7.561  86.929  30.093  1.00  0.00     0.169 HD
ENDBRANCH  19  22
ENDBRANCH  12  19
ENDBRANCH   3   6
ENDBRANCH   1   2
BRANCH   1  25
HETATM   25  N4  UNL     1      12.430  80.425  33.883  1.00  0.00    -0.066 N 
ATOM     26  H43 UNL     1      13.307  80.004  34.188  1.00  0.00     0.275 HD
ATOM     27  H42 UNL     1      11.879  80.262  34.727  1.00  0.00     0.275 HD
ATOM     28  H41 UNL     1      12.038  79.937  33.078  1.00  0.00     0.275 HD
ENDBRANCH   1  25
BRANCH   1  29
HETATM   29  C6  UNL     1      12.440  82.595  34.915  1.00  0.00     0.062 C 
BRANCH  29  30
HETATM   30  C7  UNL     1      13.190  83.879  34.750  1.00  0.00     0.123 C 
BRANCH  30  31
HETATM   31  N5  UNL     1      12.409  84.831  34.025  1.00  0.00    -0.377 N 
ATOM     32  H5  UNL     1      11.971  84.503  33.164  1.00  0.00     0.160 HD
BRANCH  31  33
HETATM   33  C8  UNL     1      12.180  86.189  34.379  1.00  0.00     0.120 C 
HETATM   34  N6  UNL     1      12.206  86.562  35.567  1.00  0.00    -0.374 N 
HETATM   35  C9  UNL     1      11.987  87.893  36.000  1.00  0.00     0.155 C 
ATOM     36  H6  UNL     1      12.399  85.858  36.280  1.00  0.00     0.160 HD
HETATM   37  C10 UNL     1      11.177  88.722  35.031  1.00  0.00     0.168 C 
HETATM   38  C11 UNL     1      11.594  88.504  33.606  1.00  0.00     0.199 C 
HETATM   39  C12 UNL     1      11.921  87.108  33.243  1.00  0.00     0.222 C 
BRANCH  37  40
HETATM   40  O2  UNL     1       9.819  88.495  35.237  1.00  0.00    -0.391 OA
ATOM     41  H2  UNL     1       9.345  88.622  34.423  1.00  0.00     0.210 HD
ENDBRANCH  37  40
BRANCH  38  42
HETATM   42  O3  UNL     1      12.683  89.362  33.328  1.00  0.00    -0.389 OA
ATOM     43  H3  UNL     1      13.189  89.467  34.124  1.00  0.00     0.210 HD
ENDBRANCH  38  42
BRANCH  39  44
HETATM   44  O4  UNL     1      13.132  87.113  32.508  1.00  0.00    -0.371 OA
ATOM     45  H4  UNL     1      13.321  88.033  32.366  1.00  0.00     0.211 HD
ENDBRANCH  39  44
BRANCH  39  46
HETATM   46  C13 UNL     1      10.889  86.466  32.393  1.00  0.00     0.276 C 
HETATM   47  N7  UNL     1       9.587  86.243  32.904  1.00  0.00    -0.059 NA
HETATM   48  O5  UNL     1      11.120  86.100  31.208  1.00  0.00    -0.273 OA
ENDBRANCH  39  46
ENDBRANCH  31  33
ENDBRANCH  30  31
ENDBRANCH  29  30
ENDBRANCH   1  29
TORSDOF 14
ENDMDL
MODEL 2
REMARK VINA RESULT: -8.044216237      1.739      2.529
REMARK  14 active torsions:
REMARK  status: ('A' for Active; 'I' for Inactive)
REMARK    1  A    between atoms: N1_1  and  N2_4 
REMARK    2  A    between atoms: C3_8  and  N3_9 
REMARK       I    between atoms: N3_9  and  C4_11 
REMARK    3  A    between atoms: C4_11  and  C5_13 
REMARK    4  A    between atoms: C5_13  and  N4_14 
REMARK    5  A    between atoms: C5_13  and  C6_18 
REMARK    6  A    between atoms: C6_18  and  C7_19 
REMARK    7  A    between atoms: C7_19  and  N5_20 
REMARK    8  A    between atoms: N5_20  and  C8_22 
REMARK    9  A    between atoms: C10_26  and  O2_27 
REMARK   10  A    between atoms: C11_29  and  O3_30 
REMARK   11  A    between atoms: C12_32  and  O4_33 
REMARK   12  A    between atoms: C12_32  and  C13_35 
REMARK   13  A    between atoms: C14_40  and  S1_41 
REMARK   14  A    between atoms: S1_41  and  N9_42 
ROOT
HETATM    1  C5  UNL     1      12.513  81.589  34.141  1.00  0.00     0.276 C 
ENDROOT
BRANCH   1   2
HETATM    2  C4  UNL     1      11.620  82.217  33.069  1.00  0.00     0.254 C 
HETATM    3  N3  UNL     1      10.243  82.161  33.205  1.00  0.00    -0.311 N 
ATOM      4  H3  UNL     1       9.895  81.676  34.033  1.00  0.00     0.170 HD
HETATM    5  O1  UNL     1      12.190  82.764  32.102  1.00  0.00    -0.271 OA
BRANCH   3   6
HETATM    6  C3  UNL     1       9.267  82.686  32.348  1.00  0.00     0.113 A 
HETATM    7  C2  UNL     1       8.090  82.084  31.995  1.00  0.00     0.098 A 
HETATM    8  C1  UNL     1       7.200  82.720  31.125  1.00  0.00     0.125 A 
HETATM    9  N2  UNL     1       6.117  82.094  30.837  1.00  0.00    -0.292 N 
HETATM   10  N10 UNL     1       7.458  83.929  30.606  1.00  0.00    -0.316 N 
ATOM     11  H2  UNL     1       5.982  81.176  31.263  1.00  0.00     0.188 HD
HETATM   12  C14 UNL     1       8.608  84.518  30.951  1.00  0.00     0.226 A 
ATOM     13  H10 UNL     1       6.801  84.383  29.971  1.00  0.00     0.169 HD
HETATM   14  N8  UNL     1       9.464  83.928  31.777  1.00  0.00    -0.317 N 
ATOM     15  H8  UNL     1      10.325  84.426  32.004  1.00  0.00     0.169 HD
BRANCH   9  16
HETATM   16  N1  UNL     1       5.116  82.556  29.998  1.00  0.00    -0.344 N 
ATOM     17  H12 UNL     1       5.218  83.514  29.662  1.00  0.00     0.176 HD
ATOM     18  H11 UNL     1       4.300  82.023  29.696  1.00  0.00     0.176 HD
ENDBRANCH   9  16
BRANCH  12  19
HETATM   19  S1  UNL     1       9.036  86.120  30.321  1.00  0.00     0.289 S 
HETATM   20  O6  UNL     1      10.538  86.156  30.288  1.00  0.00    -0.198 OA
HETATM   21  O7  UNL     1       8.438  86.209  28.948  1.00  0.00    -0.198 OA
BRANCH  19  22
HETATM   22  N9  UNL     1       8.394  87.329  31.358  1.00  0.00    -0.322 N 
ATOM     23  H92 UNL     1       8.762  87.551  32.283  1.00  0.00     0.169 HD
ATOM     24  H91 UNL     1       7.601  87.779  30.902  1.00  0.00     0.169 HD
ENDBRANCH  19  22
ENDBRANCH  12  19
ENDBRANCH   3   6
ENDBRANCH   1   2
BRANCH   1  25
HETATM   25  N4  UNL     1      12.754  80.211  33.862  1.00  0.00    -0.066 N 
ATOM     26  H43 UNL     1      12.020  79.616  34.246  1.00  0.00     0.275 HD
ATOM     27  H42 UNL     1      12.624  80.000  32.873  1.00  0.00     0.275 HD
ATOM     28  H41 UNL     1      13.677  79.928  34.189  1.00  0.00     0.275 HD
ENDBRANCH   1  25
BRANCH   1  29
HETATM   29  C6  UNL     1      11.704  81.704  35.426  1.00  0.00     0.062 C 
BRANCH  29  30
HETATM   30  C7  UNL     1      12.548  82.432  36.422  1.00  0.00     0.123 C 
BRANCH  30  31
HETATM   31  N5  UNL     1      12.098  83.779  36.579  1.00  0.00    -0.377 N 
ATOM     32  H5  UNL     1      11.612  84.001  37.448  1.00  0.00     0.160 HD
BRANCH  31  33
HETATM   33  C8  UNL     1      12.255  84.843  35.649  1.00  0.00     0.120 C 
HETATM   34  N6  UNL     1      13.340  85.042  35.070  1.00  0.00    -0.374 N 
HETATM   35  C9  UNL     1      13.576  86.079  34.134  1.00  0.00     0.155 C 
ATOM     36  H6  UNL     1      14.114  84.414  35.285  1.00  0.00     0.160 HD
HETATM   37  C10 UNL     1      12.643  87.258  34.283  1.00  0.00     0.168 C 
HETATM   38  C11 UNL     1      11.223  86.836  34.524  1.00  0.00     0.199 C 
HETATM   39  C12 UNL     1      11.046  85.674  35.422  1.00  0.00     0.222 C 
BRANCH  37  40
HETATM   40  O2  UNL     1      13.124  88.118  35.267  1.00  0.00    -0.391 OA
ATOM     41  H2  UNL     1      13.251  88.985  34.901  1.00  0.00     0.210 HD
ENDBRANCH  37  40
BRANCH  38  42
HETATM   42  O3  UNL     1      10.615  86.597  33.270  1.00  0.00    -0.389 OA
ATOM     43  H3  UNL     1       9.731  86.284  33.423  1.00  0.00     0.210 HD
ENDBRANCH  38  42
BRANCH  39  44
HETATM   44  O4  UNL     1      10.116  84.788  34.823  1.00  0.00    -0.371 OA
ATOM     45  H4  UNL     1      10.068  85.071  33.917  1.00  0.00     0.211 HD
ENDBRANCH  39  44
BRANCH  39  46
HETATM   46  C13 UNL     1      10.515  86.040  36.757  1.00  0.00     0.276 C 
HETATM   47  N7  UNL     1      11.221  86.955  37.575  1.00  0.00    -0.059 NA
HETATM   48  O5  UNL     1       9.437  85.564  37.211  1.00  0.00    -0.273 OA
ENDBRANCH  39  46
ENDBRANCH  31  33
ENDBRANCH  30  31
ENDBRANCH  29  30
ENDBRANCH   1  29
TORSDOF 14
ENDMDL
MODEL 3
REMARK VINA RESULT: -7.986352722      1.773      2.249
REMARK  14 active torsions:
REMARK  status: ('A' for Active; 'I' for Inactive)
REMARK    1  A    between atoms: N1_1  and  N2_4 
REMARK    2  A    between atoms: C3_8  and  N3_9 
REMARK       I    between atoms: N3_9  and  C4_11 
REMARK    3  A    between atoms: C4_11  and  C5_13 
REMARK    4  A    between atoms: C5_13  and  N4_14 
REMARK    5  A    between atoms: C5_13  and  C6_18 
REMARK    6  A    between atoms: C6_18  and  C7_19 
REMARK    7  A    between atoms: C7_19  and  N5_20 
REMARK    8  A    between atoms: N5_20  and  C8_22 
REMARK    9  A    between atoms: C10_26  and  O2_27 
REMARK   10  A    between atoms: C11_29  and  O3_30 
REMARK   11  A    between atoms: C12_32  and  O4_33 
REMARK   12  A    between atoms: C12_32  and  C13_35 
REMARK   13  A    between atoms: C14_40  and  S1_41 
REMARK   14  A    between atoms: S1_41  and  N9_42 
ROOT
HETATM    1  C5  UNL     1      11.284  80.534  34.018  1.00  0.00     0.276 C 
ENDROOT
BRANCH   1   2
HETATM    2  C4  UNL     1      10.148  81.468  33.594  1.00  0.00     0.254 C 
HETATM    3  N3  UNL     1       9.934  81.720  32.249  1.00  0.00    -0.311 N 
ATOM      4  H3  UNL     1      10.577  81.263  31.602  1.00  0.00     0.170 HD
HETATM    5  O1  UNL     1       9.453  81.968  34.503  1.00  0.00    -0.271 OA
BRANCH   3   6
HETATM    6  C3  UNL     1       8.946  82.523  31.667  1.00  0.00     0.113 A 
HETATM    7  C2  UNL     1       7.650  82.159  31.415  1.00  0.00     0.098 A 
HETATM    8  C1  UNL     1       6.761  83.061  30.824  1.00  0.00     0.125 A 
HETATM    9  N2  UNL     1       5.563  82.649  30.616  1.00  0.00    -0.292 N 
HETATM   10  N10 UNL     1       7.133  84.303  30.484  1.00  0.00    -0.316 N 
ATOM     11  H2  UNL     1       5.345  81.692  30.896  1.00  0.00     0.188 HD
HETATM   12  C14 UNL     1       8.399  84.660  30.730  1.00  0.00     0.226 A 
ATOM     13  H10 UNL     1       6.475  84.953  30.052  1.00  0.00     0.169 HD
HETATM   14  N8  UNL     1       9.256  83.816  31.290  1.00  0.00    -0.317 N 
ATOM     15  H8  UNL     1      10.208  84.144  31.454  1.00  0.00     0.169 HD
BRANCH   9  16
HETATM   16  N1  UNL     1       4.542  83.390  30.044  1.00  0.00    -0.344 N 
ATOM     17  H12 UNL     1       4.426  83.292  29.035  1.00  0.00     0.176 HD
ATOM     18  H11 UNL     1       3.909  84.015  30.545  1.00  0.00     0.176 HD
ENDBRANCH   9  16
BRANCH  12  19
HETATM   19  S1  UNL     1       8.983  86.283  30.320  1.00  0.00     0.289 S 
HETATM   20  O6  UNL     1      10.470  86.148  30.148  1.00  0.00    -0.198 OA
HETATM   21  O7  UNL     1       8.300  86.670  29.042  1.00  0.00    -0.198 OA
BRANCH  19  22
HETATM   22  N9  UNL     1       8.587  87.368  31.590  1.00  0.00    -0.322 N 
ATOM     23  H92 UNL     1       8.422  88.368  31.467  1.00  0.00     0.169 HD
ATOM     24  H91 UNL     1       8.545  86.856  32.471  1.00  0.00     0.169 HD
ENDBRANCH  19  22
ENDBRANCH  12  19
ENDBRANCH   3   6
ENDBRANCH   1   2
BRANCH   1  25
HETATM   25  N4  UNL     1      11.197  80.224  35.408  1.00  0.00    -0.066 N 
ATOM     26  H43 UNL     1      11.578  80.975  35.985  1.00  0.00     0.275 HD
ATOM     27  H42 UNL     1      10.233  80.247  35.739  1.00  0.00     0.275 HD
ATOM     28  H41 UNL     1      11.644  79.330  35.611  1.00  0.00     0.275 HD
ENDBRANCH   1  25
BRANCH   1  29
HETATM   29  C6  UNL     1      12.552  81.337  33.764  1.00  0.00     0.062 C 
BRANCH  29  30
HETATM   30  C7  UNL     1      12.904  82.032  35.041  1.00  0.00     0.123 C 
BRANCH  30  31
HETATM   31  N5  UNL     1      12.256  83.304  35.120  1.00  0.00    -0.377 N 
ATOM     32  H5  UNL     1      11.340  83.323  35.569  1.00  0.00     0.160 HD
BRANCH  31  33
HETATM   33  C8  UNL     1      12.755  84.545  34.638  1.00  0.00     0.120 C 
HETATM   34  N6  UNL     1      13.907  84.929  34.913  1.00  0.00    -0.374 N 
HETATM   35  C9  UNL     1      14.476  86.150  34.473  1.00  0.00     0.155 C 
ATOM     36  H6  UNL     1      14.483  84.322  35.495  1.00  0.00     0.160 HD
HETATM   37  C10 UNL     1      13.453  87.210  34.132  1.00  0.00     0.168 C 
HETATM   38  C11 UNL     1      12.292  86.655  33.360  1.00  0.00     0.199 C 
HETATM   39  C12 UNL     1      11.815  85.324  33.793  1.00  0.00     0.222 C 
BRANCH  37  40
HETATM   40  O2  UNL     1      13.063  87.877  35.290  1.00  0.00    -0.391 OA
ATOM     41  H2  UNL     1      13.787  88.394  35.622  1.00  0.00     0.210 HD
ENDBRANCH  37  40
BRANCH  38  42
HETATM   42  O3  UNL     1      12.638  86.641  31.990  1.00  0.00    -0.389 OA
ATOM     43  H3  UNL     1      12.796  87.536  31.714  1.00  0.00     0.210 HD
ENDBRANCH  38  42
BRANCH  39  44
HETATM   44  O4  UNL     1      11.629  84.522  32.640  1.00  0.00    -0.371 OA
ATOM     45  H4  UNL     1      12.318  84.798  32.046  1.00  0.00     0.211 HD
ENDBRANCH  39  44
BRANCH  39  46
HETATM   46  C13 UNL     1      10.521  85.370  34.515  1.00  0.00     0.276 C 
HETATM   47  N7  UNL     1      10.499  85.472  35.928  1.00  0.00    -0.059 NA
HETATM   48  O5  UNL     1       9.410  85.323  33.917  1.00  0.00    -0.273 OA
ENDBRANCH  39  46
ENDBRANCH  31  33
ENDBRANCH  30  31
ENDBRANCH  29  30
ENDBRANCH   1  29
TORSDOF 14
ENDMDL
MODEL 4
REMARK VINA RESULT: -7.730489200      0.961      1.037
REMARK  14 active torsions:
REMARK  status: ('A' for Active; 'I' for Inactive)
REMARK    1  A    between atoms: N1_1  and  N2_4 
REMARK    2  A    between atoms: C3_8  and  N3_9 
REMARK       I    between atoms: N3_9  and  C4_11 
REMARK    3  A    between atoms: C4_11  and  C5_13 
REMARK    4  A    between atoms: C5_13  and  N4_14 
REMARK    5  A    between atoms: C5_13  and  C6_18 
REMARK    6  A    between atoms: C6_18  and  C7_19 
REMARK    7  A    between atoms: C7_19  and  N5_20 
REMARK    8  A    between atoms: N5_20  and  C8_22 
REMARK    9  A    between atoms: C10_26  and  O2_27 
REMARK   10  A    between atoms: C11_29  and  O3_30 
REMARK   11  A    between atoms: C12_32  and  O4_33 
REMARK   12  A    between atoms: C12_32  and  C13_35 
REMARK   13  A    between atoms: C14_40  and  S1_41 
REMARK   14  A    between atoms: S1_41  and  N9_42 
ROOT
HETATM    1  C5  UNL     1      12.636  81.481  33.797  1.00  0.00     0.276 C 
ENDROOT
BRANCH   1   2
HETATM    2  C4  UNL     1      11.602  82.164  32.899  1.00  0.00     0.254 C 
HETATM    3  N3  UNL     1      10.252  81.940  33.114  1.00  0.00    -0.311 N 
ATOM      4  H3  UNL     1      10.022  81.302  33.876  1.00  0.00     0.170 HD
HETATM    5  O1  UNL     1      12.036  82.909  31.995  1.00  0.00    -0.271 OA
BRANCH   3   6
HETATM    6  C3  UNL     1       9.164  82.481  32.418  1.00  0.00     0.113 A 
HETATM    7  C2  UNL     1       7.843  82.192  32.628  1.00  0.00     0.098 A 
HETATM    8  C1  UNL     1       6.850  82.804  31.858  1.00  0.00     0.125 A 
HETATM    9  N2  UNL     1       5.634  82.482  32.111  1.00  0.00    -0.292 N 
HETATM   10  N10 UNL     1       7.145  83.687  30.894  1.00  0.00    -0.316 N 
ATOM     11  H2  UNL     1       5.476  81.802  32.855  1.00  0.00     0.188 HD
HETATM   12  C14 UNL     1       8.437  83.971  30.688  1.00  0.00     0.226 A 
ATOM     13  H10 UNL     1       6.412  84.127  30.337  1.00  0.00     0.169 HD
HETATM   14  N8  UNL     1       9.391  83.399  31.411  1.00  0.00    -0.317 N 
ATOM     15  H8  UNL     1      10.358  83.654  31.209  1.00  0.00     0.169 HD
BRANCH   9  16
HETATM   16  N1  UNL     1       4.515  82.978  31.459  1.00  0.00    -0.344 N 
ATOM     17  H12 UNL     1       4.690  83.493  30.596  1.00  0.00     0.176 HD
ATOM     18  H11 UNL     1       3.550  82.870  31.771  1.00  0.00     0.176 HD
ENDBRANCH   9  16
BRANCH  12  19
HETATM   19  S1  UNL     1       8.926  85.131  29.439  1.00  0.00     0.289 S 
HETATM   20  O6  UNL     1       9.972  84.428  28.620  1.00  0.00    -0.198 OA
HETATM   21  O7  UNL     1       7.694  85.437  28.638  1.00  0.00    -0.198 OA
BRANCH  19  22
HETATM   22  N9  UNL     1       9.549  86.545  30.187  1.00  0.00    -0.322 N 
ATOM     23  H92 UNL     1       9.241  87.494  29.976  1.00  0.00     0.169 HD
ATOM     24  H91 UNL     1      10.263  86.281  30.866  1.00  0.00     0.169 HD
ENDBRANCH  19  22
ENDBRANCH  12  19
ENDBRANCH   3   6
ENDBRANCH   1   2
BRANCH   1  25
HETATM   25  N4  UNL     1      12.389  80.079  33.883  1.00  0.00    -0.066 N 
ATOM     26  H43 UNL     1      11.613  79.796  33.285  1.00  0.00     0.275 HD
ATOM     27  H42 UNL     1      13.132  79.539  33.440  1.00  0.00     0.275 HD
ATOM     28  H41 UNL     1      12.242  79.794  34.851  1.00  0.00     0.275 HD
ENDBRANCH   1  25
BRANCH   1  29
HETATM   29  C6  UNL     1      12.425  82.110  35.167  1.00  0.00     0.062 C 
BRANCH  29  30
HETATM   30  C7  UNL     1      13.369  83.265  35.277  1.00  0.00     0.123 C 
BRANCH  30  31
HETATM   31  N5  UNL     1      12.829  84.424  34.640  1.00  0.00    -0.377 N 
ATOM     32  H5  UNL     1      12.867  84.445  33.621  1.00  0.00     0.160 HD
BRANCH  31  33
HETATM   33  C8  UNL     1      12.244  85.552  35.278  1.00  0.00     0.120 C 
HETATM   34  N6  UNL     1      11.854  85.497  36.460  1.00  0.00    -0.374 N 
HETATM   35  C9  UNL     1      11.262  86.574  37.164  1.00  0.00     0.155 C 
ATOM     36  H6  UNL     1      11.970  84.613  36.956  1.00  0.00     0.160 HD
HETATM   37  C10 UNL     1      10.616  87.605  36.268  1.00  0.00     0.168 C 
HETATM   38  C11 UNL     1      11.459  87.927  35.069  1.00  0.00     0.199 C 
HETATM   39  C12 UNL     1      12.145  86.775  34.444  1.00  0.00     0.222 C 
BRANCH  37  40
HETATM   40  O2  UNL     1       9.329  87.196  35.930  1.00  0.00    -0.391 OA
ATOM     41  H2  UNL     1       8.949  87.811  35.313  1.00  0.00     0.210 HD
ENDBRANCH  37  40
BRANCH  38  42
HETATM   42  O3  UNL     1      12.390  88.925  35.437  1.00  0.00    -0.389 OA
ATOM     43  H3  UNL     1      13.066  88.961  34.771  1.00  0.00     0.210 HD
ENDBRANCH  38  42
BRANCH  39  44
HETATM   44  O4  UNL     1      13.491  87.143  34.194  1.00  0.00    -0.371 OA
ATOM     45  H4  UNL     1      13.945  86.943  35.004  1.00  0.00     0.211 HD
ENDBRANCH  39  44
BRANCH  39  46
HETATM   46  C13 UNL     1      11.548  86.369  33.149  1.00  0.00     0.276 C 
HETATM   47  N7  UNL     1      10.223  85.870  33.102  1.00  0.00    -0.059 NA
HETATM   48  O5  UNL     1      12.179  86.448  32.058  1.00  0.00    -0.273 OA
ENDBRANCH  39  46
ENDBRANCH  31  33
ENDBRANCH  30  31
ENDBRANCH  29  30
ENDBRANCH   1  29
TORSDOF 14
ENDMDL
MODEL 5
REMARK VINA RESULT: -7.661809058      2.089      4.627
REMARK  14 active torsions:
REMARK  status: ('A' for Active; 'I' for Inactive)
REMARK    1  A    between atoms: N1_1  and  N2_4 
REMARK    2  A    between atoms: C3_8  and  N3_9 
REMARK       I    between atoms: N3_9  and  C4_11 
REMARK    3  A    between atoms: C4_11  and  C5_13 
REMARK    4  A    between atoms: C5_13  and  N4_14 
REMARK    5  A    between atoms: C5_13  and  C6_18 
REMARK    6  A    between atoms: C6_18  and  C7_19 
REMARK    7  A    between atoms: C7_19  and  N5_20 
REMARK    8  A    between atoms: N5_20  and  C8_22 
REMARK    9  A    between atoms: C10_26  and  O2_27 
REMARK   10  A    between atoms: C11_29  and  O3_30 
REMARK   11  A    between atoms: C12_32  and  O4_33 
REMARK   12  A    between atoms: C12_32  and  C13_35 
REMARK   13  A    between atoms: C14_40  and  S1_41 
REMARK   14  A    between atoms: S1_41  and  N9_42 
ROOT
HETATM    1  C5  UNL     1      12.200  87.684  33.839  1.00  0.00     0.276 C 
ENDROOT
BRANCH   1   2
HETATM    2  C4  UNL     1      11.259  86.792  33.026  1.00  0.00     0.254 C 
HETATM    3  N3  UNL     1      10.034  86.424  33.558  1.00  0.00    -0.311 N 
ATOM      4  H3  UNL     1       9.832  86.770  34.496  1.00  0.00     0.170 HD
HETATM    5  O1  UNL     1      11.650  86.433  31.896  1.00  0.00    -0.271 OA
BRANCH   3   6
HETATM    6  C3  UNL     1       9.038  85.636  32.968  1.00  0.00     0.113 A 
HETATM    7  C2  UNL     1       8.121  84.862  33.627  1.00  0.00     0.098 A 
HETATM    8  C1  UNL     1       7.176  84.118  32.915  1.00  0.00     0.125 A 
HETATM    9  N2  UNL     1       6.350  83.415  33.600  1.00  0.00    -0.292 N 
HETATM   10  N10 UNL     1       7.128  84.130  31.575  1.00  0.00    -0.316 N 
ATOM     11  H2  UNL     1       6.440  83.447  34.616  1.00  0.00     0.188 HD
HETATM   12  C14 UNL     1       8.024  84.886  30.930  1.00  0.00     0.226 A 
ATOM     13  H10 UNL     1       6.435  83.582  31.066  1.00  0.00     0.169 HD
HETATM   14  N8  UNL     1       8.928  85.599  31.591  1.00  0.00    -0.317 N 
ATOM     15  H8  UNL     1       9.585  86.157  31.046  1.00  0.00     0.169 HD
BRANCH   9  16
HETATM   16  N1  UNL     1       5.344  82.615  33.080  1.00  0.00    -0.344 N 
ATOM     17  H12 UNL     1       4.839  82.036  33.751  1.00  0.00     0.176 HD
ATOM     18  H11 UNL     1       5.077  82.561  32.097  1.00  0.00     0.176 HD
ENDBRANCH   9  16
BRANCH  12  19
HETATM   19  S1  UNL     1       8.037  84.971  29.159  1.00  0.00     0.289 S 
HETATM   20  O6  UNL     1       7.991  86.434  28.822  1.00  0.00    -0.198 OA
HETATM   21  O7  UNL     1       9.318  84.329  28.713  1.00  0.00    -0.198 OA
BRANCH  19  22
HETATM   22  N9  UNL     1       6.673  84.132  28.539  1.00  0.00    -0.322 N 
ATOM     23  H92 UNL     1       6.348  84.190  27.573  1.00  0.00     0.169 HD
ATOM     24  H91 UNL     1       6.250  83.578  29.283  1.00  0.00     0.169 HD
ENDBRANCH  19  22
ENDBRANCH  12  19
ENDBRANCH   3   6
ENDBRANCH   1   2
BRANCH   1  25
HETATM   25  N4  UNL     1      13.333  88.070  33.065  1.00  0.00    -0.066 N 
ATOM     26  H43 UNL     1      13.248  89.027  32.723  1.00  0.00     0.275 HD
ATOM     27  H42 UNL     1      14.164  88.186  33.646  1.00  0.00     0.275 HD
ATOM     28  H41 UNL     1      13.496  87.411  32.304  1.00  0.00     0.275 HD
ENDBRANCH   1  25
BRANCH   1  29
HETATM   29  C6  UNL     1      12.659  86.802  34.992  1.00  0.00     0.062 C 
BRANCH  29  30
HETATM   30  C7  UNL     1      13.813  85.989  34.499  1.00  0.00     0.123 C 
BRANCH  30  31
HETATM   31  N5  UNL     1      13.687  84.628  34.915  1.00  0.00    -0.377 N 
ATOM     32  H5  UNL     1      14.077  84.390  35.827  1.00  0.00     0.160 HD
BRANCH  31  33
HETATM   33  C8  UNL     1      13.076  83.569  34.189  1.00  0.00     0.120 C 
HETATM   34  N6  UNL     1      12.845  83.670  32.970  1.00  0.00    -0.374 N 
HETATM   35  C9  UNL     1      12.239  82.663  32.177  1.00  0.00     0.155 C 
ATOM     36  H6  UNL     1      13.110  84.540  32.507  1.00  0.00     0.160 HD
HETATM   37  C10 UNL     1      11.386  81.698  32.968  1.00  0.00     0.168 C 
HETATM   38  C11 UNL     1      12.037  81.286  34.256  1.00  0.00     0.199 C 
HETATM   39  C12 UNL     1      12.752  82.357  34.982  1.00  0.00     0.222 C 
BRANCH  37  40
HETATM   40  O2  UNL     1      10.115  82.234  33.152  1.00  0.00    -0.391 OA
ATOM     41  H2  UNL     1       9.501  81.540  33.361  1.00  0.00     0.210 HD
ENDBRANCH  37  40
BRANCH  38  42
HETATM   42  O3  UNL     1      12.901  80.200  33.987  1.00  0.00    -0.389 OA
ATOM     43  H3  UNL     1      13.795  80.521  34.000  1.00  0.00     0.210 HD
ENDBRANCH  38  42
BRANCH  39  44
HETATM   44  O4  UNL     1      14.012  81.853  35.389  1.00  0.00    -0.371 OA
ATOM     45  H4  UNL     1      14.004  81.930  36.336  1.00  0.00     0.211 HD
ENDBRANCH  39  44
BRANCH  39  46
HETATM   46  C13 UNL     1      12.042  82.815  36.201  1.00  0.00     0.276 C 
HETATM   47  N7  UNL     1      10.731  83.342  36.104  1.00  0.00    -0.059 NA
HETATM   48  O5  UNL     1      12.563  82.756  37.350  1.00  0.00    -0.273 OA
ENDBRANCH  39  46
ENDBRANCH  31  33
ENDBRANCH  30  31
ENDBRANCH  29  30
ENDBRANCH   1  29
TORSDOF 14
ENDMDL
