MODEL 1
REMARK VINA RESULT: -6.993202455      0.000      0.000
REMARK  15 active torsions:
REMARK  status: ('A' for Active; 'I' for Inactive)
REMARK       I    between atoms: C1_4  and  N3_6 
REMARK    1  A    between atoms: N3_6  and  C2_8 
REMARK    2  A    between atoms: C3_9  and  N4_10 
REMARK    3  A    between atoms: C5_16  and  O2_17 
REMARK    4  A    between atoms: O2_17  and  C6_18 
REMARK    5  A    between atoms: C7_19  and  N5_20 
REMARK    6  A    between atoms: C9_25  and  N6_26 
REMARK    7  A    between atoms: C10_30  and  O3_31 
REMARK    8  A    between atoms: O3_31  and  C11_32 
REMARK    9  A    between atoms: C12_33  and  N7_34 
REMARK   10  A    between atoms: N8_40  and  C15_41 
REMARK   11  A    between atoms: C15_41  and  C16_42 
REMARK   12  A    between atoms: C16_42  and  C17_43 
REMARK   13  A    between atoms: C17_43  and  N9_44 
REMARK   14  A    between atoms: C18_48  and  O4_49 
REMARK   15  A    between atoms: C19_51  and  N10_52 
ROOT
HETATM    1  C6  UNL     1      10.953  82.427  33.766  1.00  0.00     0.186 C 
HETATM    2  C7  UNL     1      11.847  81.341  34.288  1.00  0.00     0.217 C 
HETATM    3  C8  UNL     1      13.066  81.818  34.986  1.00  0.00     0.071 C 
HETATM    4  C9  UNL     1      13.352  83.228  34.503  1.00  0.00     0.217 C 
HETATM    5  C10 UNL     1      12.273  84.102  35.121  1.00  0.00     0.186 C 
HETATM    6  C18 UNL     1      10.974  83.692  34.541  1.00  0.00     0.180 C 
ENDROOT
BRANCH   1   7
HETATM    7  O2  UNL     1      11.157  82.577  32.394  1.00  0.00    -0.349 OA
BRANCH   7   8
HETATM    8  C5  UNL     1      10.128  83.227  31.761  1.00  0.00     0.292 C 
HETATM    9  O1  UNL     1      10.297  83.376  30.386  1.00  0.00    -0.357 OA
HETATM   10  C4  UNL     1       9.610  84.516  29.990  1.00  0.00     0.205 C 
HETATM   11  C3  UNL     1       8.241  84.651  30.587  1.00  0.00     0.232 C 
HETATM   12  C2  UNL     1       7.734  83.371  31.202  1.00  0.00     0.152 C 
HETATM   13  C19 UNL     1       8.770  82.604  31.965  1.00  0.00     0.262 C 
BRANCH  11  14
HETATM   14  N4  UNL     1       8.101  85.781  31.484  1.00  0.00    -0.071 N 
ATOM     15  H43 UNL     1       7.785  85.483  32.407  1.00  0.00     0.274 HD
ATOM     16  H42 UNL     1       9.011  86.165  31.741  1.00  0.00     0.274 HD
ATOM     17  H41 UNL     1       7.491  86.502  31.100  1.00  0.00     0.274 HD
ENDBRANCH  11  14
BRANCH  12  18
HETATM   18  N3  UNL     1       6.596  83.699  32.045  1.00  0.00    -0.356 N 
HETATM   19  C1  UNL     1       5.262  83.517  31.652  1.00  0.00     0.182 C 
HETATM   20  N1  UNL     1       4.897  82.706  30.711  1.00  0.00    -0.374 N 
HETATM   21  N2  UNL     1       4.239  84.253  32.309  1.00  0.00    -0.064 NA
ATOM     22  H12 UNL     1       3.926  82.573  30.426  1.00  0.00     0.158 HD
ATOM     23  H11 UNL     1       5.631  82.177  30.241  1.00  0.00     0.158 HD
ATOM     24  H3  UNL     1       6.778  84.083  32.973  1.00  0.00     0.162 HD
ENDBRANCH  12  18
BRANCH  13  25
HETATM   25  N10 UNL     1       8.701  81.224  31.584  1.00  0.00    -0.068 N 
ATOM     26 3H10 UNL     1       7.975  80.717  32.090  1.00  0.00     0.275 HD
ATOM     27 2H10 UNL     1       8.331  81.099  30.642  1.00  0.00     0.275 HD
ATOM     28 1H10 UNL     1       9.622  80.802  31.699  1.00  0.00     0.275 HD
ENDBRANCH  13  25
ENDBRANCH   7   8
ENDBRANCH   1   7
BRANCH   2  29
HETATM   29  N5  UNL     1      11.127  80.449  35.210  1.00  0.00    -0.072 N 
ATOM     30  H53 UNL     1      10.234  80.851  35.497  1.00  0.00     0.274 HD
ATOM     31  H52 UNL     1      10.779  79.618  34.732  1.00  0.00     0.274 HD
ATOM     32  H51 UNL     1      11.702  80.203  36.016  1.00  0.00     0.274 HD
ENDBRANCH   2  29
BRANCH   6  33
HETATM   33  O4  UNL     1       9.968  83.681  35.532  1.00  0.00    -0.390 OA
ATOM     34  H4  UNL     1       9.453  84.478  35.491  1.00  0.00     0.210 HD
ENDBRANCH   6  33
BRANCH   5  35
HETATM   35  O3  UNL     1      12.581  85.442  35.027  1.00  0.00    -0.345 OA
BRANCH  35  36
HETATM   36  C11 UNL     1      11.501  86.243  34.617  1.00  0.00     0.389 C 
HETATM   37  C12 UNL     1      11.838  87.003  33.361  1.00  0.00     0.244 C 
HETATM   38  C13 UNL     1      12.411  88.330  33.782  1.00  0.00     0.067 C 
HETATM   39  C14 UNL     1      12.060  88.411  35.233  1.00  0.00     0.278 C 
HETATM   40  N8  UNL     1      11.254  87.278  35.566  1.00  0.00     0.119 N 
BRANCH  37  41
HETATM   41  N7  UNL     1      12.810  86.347  32.525  1.00  0.00    -0.071 N 
ATOM     42  H73 UNL     1      12.952  86.870  31.661  1.00  0.00     0.274 HD
ATOM     43  H72 UNL     1      13.743  86.428  32.929  1.00  0.00     0.274 HD
ATOM     44  H71 UNL     1      12.590  85.372  32.322  1.00  0.00     0.274 HD
ENDBRANCH  37  41
BRANCH  40  45
HETATM   45  C15 UNL     1       9.910  87.574  35.884  1.00  0.00     0.277 C 
BRANCH  45  46
HETATM   46  C16 UNL     1       9.283  86.803  36.992  1.00  0.00     0.057 C 
BRANCH  46  47
HETATM   47  C17 UNL     1       7.845  86.439  36.592  1.00  0.00     0.231 C 
BRANCH  47  48
HETATM   48  N9  UNL     1       7.860  85.840  35.273  1.00  0.00    -0.079 N 
ATOM     49  H93 UNL     1       8.764  85.430  35.043  1.00  0.00     0.274 HD
ATOM     50  H92 UNL     1       7.300  84.989  35.226  1.00  0.00     0.274 HD
ATOM     51  H91 UNL     1       7.564  86.538  34.589  1.00  0.00     0.274 HD
ENDBRANCH  47  48
ENDBRANCH  46  47
ENDBRANCH  45  46
ENDBRANCH  40  45
ENDBRANCH  35  36
ENDBRANCH   5  35
BRANCH   4  52
HETATM   52  N6  UNL     1      14.665  83.583  34.986  1.00  0.00    -0.072 N 
ATOM     53  H63 UNL     1      15.185  84.173  34.335  1.00  0.00     0.274 HD
ATOM     54  H62 UNL     1      14.640  84.241  35.766  1.00  0.00     0.274 HD
ATOM     55  H61 UNL     1      15.148  82.713  35.210  1.00  0.00     0.274 HD
ENDBRANCH   4  52
TORSDOF 15
ENDMDL
MODEL 2
REMARK VINA RESULT: -6.937792702      0.861      1.067
REMARK  15 active torsions:
REMARK  status: ('A' for Active; 'I' for Inactive)
REMARK       I    between atoms: C1_4  and  N3_6 
REMARK    1  A    between atoms: N3_6  and  C2_8 
REMARK    2  A    between atoms: C3_9  and  N4_10 
REMARK    3  A    between atoms: C5_16  and  O2_17 
REMARK    4  A    between atoms: O2_17  and  C6_18 
REMARK    5  A    between atoms: C7_19  and  N5_20 
REMARK    6  A    between atoms: C9_25  and  N6_26 
REMARK    7  A    between atoms: C10_30  and  O3_31 
REMARK    8  A    between atoms: O3_31  and  C11_32 
REMARK    9  A    between atoms: C12_33  and  N7_34 
REMARK   10  A    between atoms: N8_40  and  C15_41 
REMARK   11  A    between atoms: C15_41  and  C16_42 
REMARK   12  A    between atoms: C16_42  and  C17_43 
REMARK   13  A    between atoms: C17_43  and  N9_44 
REMARK   14  A    between atoms: C18_48  and  O4_49 
REMARK   15  A    between atoms: C19_51  and  N10_52 
ROOT
HETATM    1  C6  UNL     1      10.965  82.334  33.837  1.00  0.00     0.186 C 
HETATM    2  C7  UNL     1      11.881  81.282  34.391  1.00  0.00     0.217 C 
HETATM    3  C8  UNL     1      13.096  81.804  35.063  1.00  0.00     0.071 C 
HETATM    4  C9  UNL     1      13.356  83.201  34.529  1.00  0.00     0.217 C 
HETATM    5  C10 UNL     1      12.266  84.077  35.124  1.00  0.00     0.186 C 
HETATM    6  C18 UNL     1      10.970  83.626  34.568  1.00  0.00     0.180 C 
ENDROOT
BRANCH   1   7
HETATM    7  O2  UNL     1      11.158  82.441  32.459  1.00  0.00    -0.349 OA
BRANCH   7   8
HETATM    8  C5  UNL     1      10.156  83.129  31.824  1.00  0.00     0.292 C 
HETATM    9  O1  UNL     1      10.349  83.299  30.455  1.00  0.00    -0.357 OA
HETATM   10  C4  UNL     1       9.701  84.464  30.070  1.00  0.00     0.205 C 
HETATM   11  C3  UNL     1       8.328  84.627  30.650  1.00  0.00     0.232 C 
HETATM   12  C2  UNL     1       7.776  83.351  31.234  1.00  0.00     0.152 C 
HETATM   13  C19 UNL     1       8.779  82.542  31.997  1.00  0.00     0.262 C 
BRANCH  11  14
HETATM   14  N4  UNL     1       8.205  85.744  31.565  1.00  0.00    -0.071 N 
ATOM     15  H43 UNL     1       7.750  86.540  31.118  1.00  0.00     0.274 HD
ATOM     16  H42 UNL     1       7.516  85.552  32.292  1.00  0.00     0.274 HD
ATOM     17  H41 UNL     1       9.103  86.010  31.968  1.00  0.00     0.274 HD
ENDBRANCH  11  14
BRANCH  12  18
HETATM   18  N3  UNL     1       6.635  83.695  32.067  1.00  0.00    -0.356 N 
HETATM   19  C1  UNL     1       5.303  83.500  31.675  1.00  0.00     0.182 C 
HETATM   20  N1  UNL     1       4.942  82.665  30.754  1.00  0.00    -0.374 N 
HETATM   21  N2  UNL     1       4.276  84.248  32.312  1.00  0.00    -0.064 NA
ATOM     22  H12 UNL     1       3.973  82.522  30.469  1.00  0.00     0.158 HD
ATOM     23  H11 UNL     1       5.679  82.128  30.297  1.00  0.00     0.158 HD
ATOM     24  H3  UNL     1       6.814  84.101  32.985  1.00  0.00     0.162 HD
ENDBRANCH  12  18
BRANCH  13  25
HETATM   25  N10 UNL     1       8.677  81.171  31.591  1.00  0.00    -0.068 N 
ATOM     26 3H10 UNL     1       9.180  80.984  30.723  1.00  0.00     0.275 HD
ATOM     27 2H10 UNL     1       9.206  80.545  32.198  1.00  0.00     0.275 HD
ATOM     28 1H10 UNL     1       7.692  80.914  31.532  1.00  0.00     0.275 HD
ENDBRANCH  13  25
ENDBRANCH   7   8
ENDBRANCH   1   7
BRANCH   2  29
HETATM   29  N5  UNL     1      11.182  80.411  35.348  1.00  0.00    -0.072 N 
ATOM     30  H53 UNL     1      11.505  80.571  36.302  1.00  0.00     0.274 HD
ATOM     31  H52 UNL     1      10.207  80.689  35.464  1.00  0.00     0.274 HD
ATOM     32  H51 UNL     1      11.262  79.429  35.085  1.00  0.00     0.274 HD
ENDBRANCH   2  29
BRANCH   6  33
HETATM   33  O4  UNL     1       9.971  83.632  35.566  1.00  0.00    -0.390 OA
ATOM     34  H4  UNL     1      10.292  84.055  36.354  1.00  0.00     0.210 HD
ENDBRANCH   6  33
BRANCH   5  35
HETATM   35  O3  UNL     1      12.550  85.418  34.982  1.00  0.00    -0.345 OA
BRANCH  35  36
HETATM   36  C11 UNL     1      11.473  86.176  34.489  1.00  0.00     0.389 C 
HETATM   37  C12 UNL     1      11.887  86.988  33.290  1.00  0.00     0.244 C 
HETATM   38  C13 UNL     1      12.347  88.329  33.796  1.00  0.00     0.067 C 
HETATM   39  C14 UNL     1      11.856  88.350  35.209  1.00  0.00     0.278 C 
HETATM   40  N8  UNL     1      11.082  87.169  35.435  1.00  0.00     0.119 N 
BRANCH  37  41
HETATM   41  N7  UNL     1      12.967  86.406  32.536  1.00  0.00    -0.071 N 
ATOM     42  H73 UNL     1      13.099  85.429  32.794  1.00  0.00     0.274 HD
ATOM     43  H72 UNL     1      12.701  86.292  31.559  1.00  0.00     0.274 HD
ATOM     44  H71 UNL     1      13.846  86.918  32.611  1.00  0.00     0.274 HD
ENDBRANCH  37  41
BRANCH  40  45
HETATM   45  C15 UNL     1       9.701  87.388  35.630  1.00  0.00     0.277 C 
BRANCH  45  46
HETATM   46  C16 UNL     1       9.151  88.705  35.209  1.00  0.00     0.057 C 
BRANCH  46  47
HETATM   47  C17 UNL     1       8.328  88.513  33.925  1.00  0.00     0.231 C 
BRANCH  47  48
HETATM   48  N9  UNL     1       8.979  89.216  32.839  1.00  0.00    -0.079 N 
ATOM     49  H93 UNL     1       9.188  88.604  32.050  1.00  0.00     0.274 HD
ATOM     50  H92 UNL     1       8.348  89.858  32.358  1.00  0.00     0.274 HD
ATOM     51  H91 UNL     1       9.811  89.685  33.198  1.00  0.00     0.274 HD
ENDBRANCH  47  48
ENDBRANCH  46  47
ENDBRANCH  45  46
ENDBRANCH  40  45
ENDBRANCH  35  36
ENDBRANCH   5  35
BRANCH   4  52
HETATM   52  N6  UNL     1      14.665  83.595  34.990  1.00  0.00    -0.072 N 
ATOM     53  H63 UNL     1      14.728  84.588  35.218  1.00  0.00     0.274 HD
ATOM     54  H62 UNL     1      14.888  83.233  35.918  1.00  0.00     0.274 HD
ATOM     55  H61 UNL     1      15.334  83.305  34.276  1.00  0.00     0.274 HD
ENDBRANCH   4  52
TORSDOF 15
ENDMDL
MODEL 3
REMARK VINA RESULT: -6.786661999      2.848      8.079
REMARK  15 active torsions:
REMARK  status: ('A' for Active; 'I' for Inactive)
REMARK       I    between atoms: C1_4  and  N3_6 
REMARK    1  A    between atoms: N3_6  and  C2_8 
REMARK    2  A    between atoms: C3_9  and  N4_10 
REMARK    3  A    between atoms: C5_16  and  O2_17 
REMARK    4  A    between atoms: O2_17  and  C6_18 
REMARK    5  A    between atoms: C7_19  and  N5_20 
REMARK    6  A    between atoms: C9_25  and  N6_26 
REMARK    7  A    between atoms: C10_30  and  O3_31 
REMARK    8  A    between atoms: O3_31  and  C11_32 
REMARK    9  A    between atoms: C12_33  and  N7_34 
REMARK   10  A    between atoms: N8_40  and  C15_41 
REMARK   11  A    between atoms: C15_41  and  C16_42 
REMARK   12  A    between atoms: C16_42  and  C17_43 
REMARK   13  A    between atoms: C17_43  and  N9_44 
REMARK   14  A    between atoms: C18_48  and  O4_49 
REMARK   15  A    between atoms: C19_51  and  N10_52 
ROOT
HETATM    1  C6  UNL     1       8.495  82.877  33.300  1.00  0.00     0.186 C 
HETATM    2  C7  UNL     1       8.494  84.367  33.482  1.00  0.00     0.217 C 
HETATM    3  C8  UNL     1       8.009  85.138  32.312  1.00  0.00     0.071 C 
HETATM    4  C9  UNL     1       8.172  84.264  31.082  1.00  0.00     0.217 C 
HETATM    5  C10 UNL     1       7.113  83.180  31.206  1.00  0.00     0.186 C 
HETATM    6  C18 UNL     1       7.452  82.351  32.384  1.00  0.00     0.180 C 
ENDROOT
BRANCH   1   7
HETATM    7  O2  UNL     1       9.792  82.444  33.020  1.00  0.00    -0.349 OA
BRANCH   7   8
HETATM    8  C5  UNL     1      10.704  82.816  33.974  1.00  0.00     0.292 C 
HETATM    9  O1  UNL     1      10.707  82.015  35.114  1.00  0.00    -0.357 OA
HETATM   10  C4  UNL     1      11.132  82.791  36.184  1.00  0.00     0.205 C 
HETATM   11  C3  UNL     1      12.319  83.658  35.884  1.00  0.00     0.232 C 
HETATM   12  C2  UNL     1      13.038  83.262  34.620  1.00  0.00     0.152 C 
HETATM   13  C19 UNL     1      12.130  82.884  33.490  1.00  0.00     0.262 C 
BRANCH  11  14
HETATM   14  N4  UNL     1      12.035  85.078  35.928  1.00  0.00    -0.071 N 
ATOM     15  H43 UNL     1      12.838  85.605  36.272  1.00  0.00     0.274 HD
ATOM     16  H42 UNL     1      11.973  85.472  34.989  1.00  0.00     0.274 HD
ATOM     17  H41 UNL     1      11.197  85.285  36.471  1.00  0.00     0.274 HD
ENDBRANCH  11  14
BRANCH  12  18
HETATM   18  N3  UNL     1      13.919  84.355  34.244  1.00  0.00    -0.356 N 
HETATM   19  C1  UNL     1      15.281  84.402  34.575  1.00  0.00     0.182 C 
HETATM   20  N1  UNL     1      15.980  83.357  34.883  1.00  0.00    -0.374 N 
HETATM   21  N2  UNL     1      15.951  85.656  34.578  1.00  0.00    -0.064 NA
ATOM     22  H12 UNL     1      16.971  83.391  35.123  1.00  0.00     0.158 HD
ATOM     23  H11 UNL     1      15.499  82.458  34.879  1.00  0.00     0.158 HD
ATOM     24  H3  UNL     1      13.524  85.130  33.710  1.00  0.00     0.162 HD
ENDBRANCH  12  18
BRANCH  13  25
HETATM   25  N10 UNL     1      12.603  81.665  32.901  1.00  0.00    -0.068 N 
ATOM     26 3H10 UNL     1      13.411  81.813  32.297  1.00  0.00     0.275 HD
ATOM     27 2H10 UNL     1      13.045  81.050  33.583  1.00  0.00     0.275 HD
ATOM     28 1H10 UNL     1      11.831  81.212  32.412  1.00  0.00     0.275 HD
ENDBRANCH  13  25
ENDBRANCH   7   8
ENDBRANCH   1   7
BRANCH   2  29
HETATM   29  N5  UNL     1       7.685  84.765  34.644  1.00  0.00    -0.072 N 
ATOM     30  H53 UNL     1       6.960  84.076  34.848  1.00  0.00     0.274 HD
ATOM     31  H52 UNL     1       8.216  84.694  35.512  1.00  0.00     0.274 HD
ATOM     32  H51 UNL     1       7.291  85.698  34.522  1.00  0.00     0.274 HD
ENDBRANCH   2  29
BRANCH   6  33
HETATM   33  O4  UNL     1       6.286  82.014  33.107  1.00  0.00    -0.390 OA
ATOM     34  H4  UNL     1       6.020  81.123  32.909  1.00  0.00     0.210 HD
ENDBRANCH   6  33
BRANCH   5  35
HETATM   35  O3  UNL     1       6.934  82.500  30.020  1.00  0.00    -0.345 OA
BRANCH  35  36
HETATM   36  C11 UNL     1       5.598  82.465  29.585  1.00  0.00     0.389 C 
HETATM   37  C12 UNL     1       5.279  81.150  28.924  1.00  0.00     0.244 C 
HETATM   38  C13 UNL     1       5.551  81.311  27.452  1.00  0.00     0.067 C 
HETATM   39  C14 UNL     1       5.679  82.792  27.288  1.00  0.00     0.278 C 
HETATM   40  N8  UNL     1       5.383  83.413  28.541  1.00  0.00     0.119 N 
BRANCH  37  41
HETATM   41  N7  UNL     1       6.075  80.049  29.402  1.00  0.00    -0.071 N 
ATOM     42  H73 UNL     1       7.010  80.080  28.998  1.00  0.00     0.274 HD
ATOM     43  H72 UNL     1       6.309  80.177  30.386  1.00  0.00     0.274 HD
ATOM     44  H71 UNL     1       5.649  79.135  29.250  1.00  0.00     0.274 HD
ENDBRANCH  37  41
BRANCH  40  45
HETATM   45  C15 UNL     1       4.189  84.166  28.568  1.00  0.00     0.277 C 
BRANCH  45  46
HETATM   46  C16 UNL     1       3.403  84.248  27.308  1.00  0.00     0.057 C 
BRANCH  46  47
HETATM   47  C17 UNL     1       1.907  84.293  27.656  1.00  0.00     0.231 C 
BRANCH  47  48
HETATM   48  N9  UNL     1       1.213  85.078  26.656  1.00  0.00    -0.079 N 
ATOM     49  H93 UNL     1       1.677  85.968  26.471  1.00  0.00     0.274 HD
ATOM     50  H92 UNL     1       1.295  84.677  25.722  1.00  0.00     0.274 HD
ATOM     51  H91 UNL     1       0.242  85.198  26.943  1.00  0.00     0.274 HD
ENDBRANCH  47  48
ENDBRANCH  46  47
ENDBRANCH  45  46
ENDBRANCH  40  45
ENDBRANCH  35  36
ENDBRANCH   5  35
BRANCH   4  52
HETATM   52  N6  UNL     1       7.941  85.104  29.931  1.00  0.00    -0.072 N 
ATOM     53  H63 UNL     1       7.001  85.006  29.546  1.00  0.00     0.274 HD
ATOM     54  H62 UNL     1       7.884  86.095  30.165  1.00  0.00     0.274 HD
ATOM     55  H61 UNL     1       8.675  84.893  29.254  1.00  0.00     0.274 HD
ENDBRANCH   4  52
TORSDOF 15
ENDMDL
MODEL 4
REMARK VINA RESULT: -6.783771522      1.359      2.145
REMARK  15 active torsions:
REMARK  status: ('A' for Active; 'I' for Inactive)
REMARK       I    between atoms: C1_4  and  N3_6 
REMARK    1  A    between atoms: N3_6  and  C2_8 
REMARK    2  A    between atoms: C3_9  and  N4_10 
REMARK    3  A    between atoms: C5_16  and  O2_17 
REMARK    4  A    between atoms: O2_17  and  C6_18 
REMARK    5  A    between atoms: C7_19  and  N5_20 
REMARK    6  A    between atoms: C9_25  and  N6_26 
REMARK    7  A    between atoms: C10_30  and  O3_31 
REMARK    8  A    between atoms: O3_31  and  C11_32 
REMARK    9  A    between atoms: C12_33  and  N7_34 
REMARK   10  A    between atoms: N8_40  and  C15_41 
REMARK   11  A    between atoms: C15_41  and  C16_42 
REMARK   12  A    between atoms: C16_42  and  C17_43 
REMARK   13  A    between atoms: C17_43  and  N9_44 
REMARK   14  A    between atoms: C18_48  and  O4_49 
REMARK   15  A    between atoms: C19_51  and  N10_52 
ROOT
HETATM    1  C6  UNL     1      10.562  82.565  33.956  1.00  0.00     0.186 C 
HETATM    2  C7  UNL     1      11.544  81.439  34.100  1.00  0.00     0.217 C 
HETATM    3  C8  UNL     1      12.918  81.854  34.477  1.00  0.00     0.071 C 
HETATM    4  C9  UNL     1      13.088  83.307  34.076  1.00  0.00     0.217 C 
HETATM    5  C10 UNL     1      12.240  84.105  35.053  1.00  0.00     0.186 C 
HETATM    6  C18 UNL     1      10.823  83.746  34.817  1.00  0.00     0.180 C 
ENDROOT
BRANCH   1   7
HETATM    7  O2  UNL     1      10.383  82.856  32.604  1.00  0.00    -0.349 OA
BRANCH   7   8
HETATM    8  C5  UNL     1       9.065  82.984  32.248  1.00  0.00     0.292 C 
HETATM    9  O1  UNL     1       8.199  83.225  33.312  1.00  0.00    -0.357 OA
HETATM   10  C4  UNL     1       6.952  82.714  32.977  1.00  0.00     0.205 C 
HETATM   11  C3  UNL     1       6.512  83.028  31.579  1.00  0.00     0.232 C 
HETATM   12  C2  UNL     1       7.321  84.125  30.935  1.00  0.00     0.152 C 
HETATM   13  C19 UNL     1       8.790  84.050  31.217  1.00  0.00     0.262 C 
BRANCH  11  14
HETATM   14  N4  UNL     1       6.394  81.863  30.724  1.00  0.00    -0.071 N 
ATOM     15  H43 UNL     1       6.046  82.117  29.800  1.00  0.00     0.274 HD
ATOM     16  H42 UNL     1       7.311  81.505  30.458  1.00  0.00     0.274 HD
ATOM     17  H41 UNL     1       5.821  81.134  31.148  1.00  0.00     0.274 HD
ENDBRANCH  11  14
BRANCH  12  18
HETATM   18  N3  UNL     1       7.059  84.095  29.505  1.00  0.00    -0.356 N 
HETATM   19  C1  UNL     1       6.770  85.239  28.746  1.00  0.00     0.182 C 
HETATM   20  N1  UNL     1       7.082  86.440  29.115  1.00  0.00    -0.374 N 
HETATM   21  N2  UNL     1       6.099  85.094  27.502  1.00  0.00    -0.064 NA
ATOM     22  H12 UNL     1       6.872  87.272  28.562  1.00  0.00     0.158 HD
ATOM     23  H11 UNL     1       7.564  86.544  30.007  1.00  0.00     0.158 HD
ATOM     24  H3  UNL     1       7.087  83.194  29.029  1.00  0.00     0.162 HD
ENDBRANCH  12  18
BRANCH  13  25
HETATM   25  N10 UNL     1       9.259  85.353  31.591  1.00  0.00    -0.068 N 
ATOM     26 3H10 UNL     1       9.071  86.054  30.874  1.00  0.00     0.275 HD
ATOM     27 2H10 UNL     1       8.706  85.764  32.342  1.00  0.00     0.275 HD
ATOM     28 1H10 UNL     1      10.250  85.293  31.826  1.00  0.00     0.275 HD
ENDBRANCH  13  25
ENDBRANCH   7   8
ENDBRANCH   1   7
BRANCH   2  29
HETATM   29  N5  UNL     1      11.088  80.454  35.093  1.00  0.00    -0.072 N 
ATOM     30  H53 UNL     1      10.472  80.879  35.786  1.00  0.00     0.274 HD
ATOM     31  H52 UNL     1      10.431  79.789  34.685  1.00  0.00     0.274 HD
ATOM     32  H51 UNL     1      11.875  79.978  35.534  1.00  0.00     0.274 HD
ENDBRANCH   2  29
BRANCH   6  33
HETATM   33  O4  UNL     1      10.130  83.626  36.042  1.00  0.00    -0.390 OA
ATOM     34  H4  UNL     1       9.643  82.811  36.069  1.00  0.00     0.210 HD
ENDBRANCH   6  33
BRANCH   5  35
HETATM   35  O3  UNL     1      12.537  85.450  35.011  1.00  0.00    -0.345 OA
BRANCH  35  36
HETATM   36  C11 UNL     1      11.469  86.252  34.572  1.00  0.00     0.389 C 
HETATM   37  C12 UNL     1      11.860  87.060  33.362  1.00  0.00     0.244 C 
HETATM   38  C13 UNL     1      12.392  88.378  33.858  1.00  0.00     0.067 C 
HETATM   39  C14 UNL     1      11.965  88.404  35.290  1.00  0.00     0.278 C 
HETATM   40  N8  UNL     1      11.158  87.251  35.543  1.00  0.00     0.119 N 
BRANCH  37  41
HETATM   41  N7  UNL     1      12.882  86.445  32.556  1.00  0.00    -0.071 N 
ATOM     42  H73 UNL     1      12.746  86.670  31.571  1.00  0.00     0.274 HD
ATOM     43  H72 UNL     1      13.783  86.898  32.713  1.00  0.00     0.274 HD
ATOM     44  H71 UNL     1      12.961  85.436  32.687  1.00  0.00     0.274 HD
ENDBRANCH  37  41
BRANCH  40  45
HETATM   45  C15 UNL     1       9.796  87.520  35.800  1.00  0.00     0.277 C 
BRANCH  45  46
HETATM   46  C16 UNL     1       9.148  86.768  36.909  1.00  0.00     0.057 C 
BRANCH  46  47
HETATM   47  C17 UNL     1       7.731  86.364  36.474  1.00  0.00     0.231 C 
BRANCH  47  48
HETATM   48  N9  UNL     1       7.813  85.614  35.238  1.00  0.00    -0.079 N 
ATOM     49  H93 UNL     1       6.933  85.618  34.722  1.00  0.00     0.274 HD
ATOM     50  H92 UNL     1       8.391  86.080  34.538  1.00  0.00     0.274 HD
ATOM     51  H91 UNL     1       8.139  84.669  35.444  1.00  0.00     0.274 HD
ENDBRANCH  47  48
ENDBRANCH  46  47
ENDBRANCH  45  46
ENDBRANCH  40  45
ENDBRANCH  35  36
ENDBRANCH   5  35
BRANCH   4  52
HETATM   52  N6  UNL     1      14.490  83.622  34.210  1.00  0.00    -0.072 N 
ATOM     53  H63 UNL     1      14.794  83.694  35.181  1.00  0.00     0.274 HD
ATOM     54  H62 UNL     1      15.101  82.851  33.938  1.00  0.00     0.274 HD
ATOM     55  H61 UNL     1      14.658  84.474  33.673  1.00  0.00     0.274 HD
ENDBRANCH   4  52
TORSDOF 15
ENDMDL
MODEL 5
REMARK VINA RESULT: -6.760516380      2.724      4.289
REMARK  15 active torsions:
REMARK  status: ('A' for Active; 'I' for Inactive)
REMARK       I    between atoms: C1_4  and  N3_6 
REMARK    1  A    between atoms: N3_6  and  C2_8 
REMARK    2  A    between atoms: C3_9  and  N4_10 
REMARK    3  A    between atoms: C5_16  and  O2_17 
REMARK    4  A    between atoms: O2_17  and  C6_18 
REMARK    5  A    between atoms: C7_19  and  N5_20 
REMARK    6  A    between atoms: C9_25  and  N6_26 
REMARK    7  A    between atoms: C10_30  and  O3_31 
REMARK    8  A    between atoms: O3_31  and  C11_32 
REMARK    9  A    between atoms: C12_33  and  N7_34 
REMARK   10  A    between atoms: N8_40  and  C15_41 
REMARK   11  A    between atoms: C15_41  and  C16_42 
REMARK   12  A    between atoms: C16_42  and  C17_43 
REMARK   13  A    between atoms: C17_43  and  N9_44 
REMARK   14  A    between atoms: C18_48  and  O4_49 
REMARK   15  A    between atoms: C19_51  and  N10_52 
ROOT
HETATM    1  C6  UNL     1       8.354  84.146  32.433  1.00  0.00     0.186 C 
HETATM    2  C7  UNL     1       8.550  82.660  32.374  1.00  0.00     0.217 C 
HETATM    3  C8  UNL     1       9.951  82.208  32.559  1.00  0.00     0.071 C 
HETATM    4  C9  UNL     1      10.862  83.369  32.208  1.00  0.00     0.217 C 
HETATM    5  C10 UNL     1      10.703  84.373  33.337  1.00  0.00     0.186 C 
HETATM    6  C18 UNL     1       9.311  84.877  33.301  1.00  0.00     0.180 C 
ENDROOT
BRANCH   1   7
HETATM    7  O2  UNL     1       8.235  84.651  31.138  1.00  0.00    -0.349 OA
BRANCH   7   8
HETATM    8  C5  UNL     1       7.138  84.171  30.469  1.00  0.00     0.292 C 
HETATM    9  O1  UNL     1       5.915  84.535  31.028  1.00  0.00    -0.357 OA
HETATM   10  C4  UNL     1       4.989  83.547  30.717  1.00  0.00     0.205 C 
HETATM   11  C3  UNL     1       5.042  83.078  29.294  1.00  0.00     0.232 C 
HETATM   12  C2  UNL     1       5.823  84.003  28.394  1.00  0.00     0.152 C 
HETATM   13  C19 UNL     1       7.075  84.547  29.010  1.00  0.00     0.262 C 
BRANCH  11  14
HETATM   14  N4  UNL     1       5.454  81.696  29.146  1.00  0.00    -0.071 N 
ATOM     15  H43 UNL     1       5.725  81.493  28.184  1.00  0.00     0.274 HD
ATOM     16  H42 UNL     1       6.349  81.526  29.606  1.00  0.00     0.274 HD
ATOM     17  H41 UNL     1       4.740  81.046  29.475  1.00  0.00     0.274 HD
ENDBRANCH  11  14
BRANCH  12  18
HETATM   18  N3  UNL     1       6.111  83.289  27.161  1.00  0.00    -0.356 N 
HETATM   19  C1  UNL     1       5.446  83.533  25.950  1.00  0.00     0.182 C 
HETATM   20  N1  UNL     1       4.815  84.633  25.688  1.00  0.00    -0.374 N 
HETATM   21  N2  UNL     1       5.451  82.531  24.942  1.00  0.00    -0.064 NA
ATOM     22  H12 UNL     1       4.331  84.810  24.808  1.00  0.00     0.158 HD
ATOM     23  H11 UNL     1       4.812  85.352  26.412  1.00  0.00     0.158 HD
ATOM     24  H3  UNL     1       6.838  82.573  27.177  1.00  0.00     0.162 HD
ENDBRANCH  12  18
BRANCH  13  25
HETATM   25  N10 UNL     1       7.135  85.959  28.771  1.00  0.00    -0.068 N 
ATOM     26 3H10 UNL     1       8.030  86.249  28.377  1.00  0.00     0.275 HD
ATOM     27 2H10 UNL     1       6.538  86.248  27.996  1.00  0.00     0.275 HD
ATOM     28 1H10 UNL     1       6.914  86.452  29.636  1.00  0.00     0.275 HD
ENDBRANCH  13  25
ENDBRANCH   7   8
ENDBRANCH   1   7
BRANCH   2  29
HETATM   29  N5  UNL     1       7.723  81.968  33.375  1.00  0.00    -0.072 N 
ATOM     30  H53 UNL     1       8.169  81.970  34.293  1.00  0.00     0.274 HD
ATOM     31  H52 UNL     1       6.887  82.505  33.605  1.00  0.00     0.274 HD
ATOM     32  H51 UNL     1       7.489  81.022  33.075  1.00  0.00     0.274 HD
ENDBRANCH   2  29
BRANCH   6  33
HETATM   33  O4  UNL     1       8.794  85.005  34.608  1.00  0.00    -0.390 OA
ATOM     34  H4  UNL     1       9.347  85.575  35.130  1.00  0.00     0.210 HD
ENDBRANCH   6  33
BRANCH   5  35
HETATM   35  O3  UNL     1      11.693  85.332  33.315  1.00  0.00    -0.345 OA
BRANCH  35  36
HETATM   36  C11 UNL     1      12.187  85.663  34.589  1.00  0.00     0.389 C 
HETATM   37  C12 UNL     1      13.230  86.746  34.500  1.00  0.00     0.244 C 
HETATM   38  C13 UNL     1      14.568  86.069  34.370  1.00  0.00     0.067 C 
HETATM   39  C14 UNL     1      14.271  84.650  34.735  1.00  0.00     0.278 C 
HETATM   40  N8  UNL     1      12.906  84.566  35.151  1.00  0.00     0.119 N 
BRANCH  37  41
HETATM   41  N7  UNL     1      13.066  87.622  33.368  1.00  0.00    -0.071 N 
ATOM     42  H73 UNL     1      12.084  87.858  33.238  1.00  0.00     0.274 HD
ATOM     43  H72 UNL     1      13.440  88.548  33.574  1.00  0.00     0.274 HD
ATOM     44  H71 UNL     1      13.466  87.258  32.503  1.00  0.00     0.274 HD
ENDBRANCH  37  41
BRANCH  40  45
HETATM   45  C15 UNL     1      12.715  84.284  36.521  1.00  0.00     0.277 C 
BRANCH  45  46
HETATM   46  C16 UNL     1      12.960  82.889  36.974  1.00  0.00     0.057 C 
BRANCH  46  47
HETATM   47  C17 UNL     1      12.190  81.926  36.057  1.00  0.00     0.231 C 
BRANCH  47  48
HETATM   48  N9  UNL     1      13.137  81.187  35.247  1.00  0.00    -0.079 N 
ATOM     49  H93 UNL     1      13.650  81.789  34.603  1.00  0.00     0.274 HD
ATOM     50  H92 UNL     1      13.931  80.848  35.790  1.00  0.00     0.274 HD
ATOM     51  H91 UNL     1      12.645  80.433  34.766  1.00  0.00     0.274 HD
ENDBRANCH  47  48
ENDBRANCH  46  47
ENDBRANCH  45  46
ENDBRANCH  40  45
ENDBRANCH  35  36
ENDBRANCH   5  35
BRANCH   4  52
HETATM   52  N6  UNL     1      12.207  82.850  32.143  1.00  0.00    -0.072 N 
ATOM     53  H63 UNL     1      12.255  81.843  32.303  1.00  0.00     0.274 HD
ATOM     54  H62 UNL     1      12.591  82.851  31.198  1.00  0.00     0.274 HD
ATOM     55  H61 UNL     1      12.768  83.387  32.805  1.00  0.00     0.274 HD
ENDBRANCH   4  52
TORSDOF 15
ENDMDL
