MODEL 1
REMARK VINA RESULT: -8.100183711      0.000      0.000
REMARK  6 active torsions:
REMARK  status: ('A' for Active; 'I' for Inactive)
REMARK    1  A    between atoms: C2_2  and  C3_3 
REMARK    2  A    between atoms: C3_3  and  C4_4 
REMARK    3  A    between atoms: C16_19  and  C17_20 
REMARK    4  A    between atoms: N1_21  and  N2_23 
REMARK       I    between atoms: N2_23  and  C18_25 
REMARK    5  A    between atoms: C18_25  and  C19_27 
REMARK       I    between atoms: C19_27  and  N3_29 
REMARK       I    between atoms: N3_29  and  C20_31 
REMARK    6  A    between atoms: C20_31  and  O7_33 
ROOT
HETATM    1  C4  UNL     1      20.754  12.854  26.711  1.00  0.00     0.009 C 
HETATM    2  C5  UNL     1      21.982  12.802  25.934  1.00  0.00     0.007 C 
HETATM    3  C6  UNL     1      22.283  11.534  25.187  1.00  0.00     0.009 C 
HETATM    4  C7  UNL     1      22.290  11.869  23.711  1.00  0.00     0.039 C 
HETATM    5  C8  UNL     1      22.344  13.356  23.608  1.00  0.00     0.072 C 
HETATM    6  C9  UNL     1      23.423  13.902  22.695  1.00  0.00     0.047 C 
HETATM    7  O1  UNL     1      21.107  13.970  23.423  1.00  0.00    -0.349 OA
HETATM    8  C10 UNL     1      21.371  14.790  24.468  1.00  0.00     0.275 C 
HETATM    9  O2  UNL     1      20.465  15.079  25.408  1.00  0.00    -0.330 OA
HETATM   10  C11 UNL     1      19.296  14.366  25.434  1.00  0.00     0.277 C 
HETATM   11  O3  UNL     1      18.445  15.209  26.192  1.00  0.00    -0.355 OA
HETATM   12  C12 UNL     1      17.134  14.839  26.127  1.00  0.00     0.120 C 
HETATM   13  C13 UNL     1      16.449  15.189  24.831  1.00  0.00     0.039 C 
HETATM   14  C14 UNL     1      17.042  13.397  26.492  1.00  0.00     0.033 C 
HETATM   15  C15 UNL     1      18.359  12.937  27.145  1.00  0.00     0.023 C 
HETATM   16  C16 UNL     1      19.432  12.984  26.032  1.00  0.00     0.047 C 
HETATM   17  C22 UNL     1      22.381  13.879  25.007  1.00  0.00     0.041 C 
HETATM   18  C23 UNL     1      23.672  14.641  25.352  1.00  0.00     0.024 C 
ENDROOT
BRANCH  16  19
HETATM   19  C17 UNL     1      19.057  11.885  25.153  1.00  0.00     0.095 C 
HETATM   20  N1  UNL     1      18.785  12.019  23.903  1.00  0.00    -0.312 N 
ATOM     21  H1  UNL     1      18.840  12.961  23.513  1.00  0.00     0.185 HD
BRANCH  20  22
HETATM   22  N2  UNL     1      18.429  11.007  23.046  1.00  0.00    -0.262 N 
HETATM   23  C18 UNL     1      17.140  10.904  22.502  1.00  0.00     0.328 C 
HETATM   24  O4  UNL     1      16.258  11.776  22.805  1.00  0.00    -0.261 OA
ATOM     25  H2  UNL     1      19.126  10.306  22.797  1.00  0.00     0.190 HD
BRANCH  23  26
HETATM   26  C19 UNL     1      16.750   9.838  21.595  1.00  0.00     0.319 C 
HETATM   27  O5  UNL     1      15.618   9.322  21.752  1.00  0.00    -0.262 OA
HETATM   28  N3  UNL     1      17.607   9.385  20.562  1.00  0.00    -0.265 N 
HETATM   29  C20 UNL     1      17.225   8.349  19.683  1.00  0.00     0.367 C 
ATOM     30  H3  UNL     1      18.523   9.820  20.452  1.00  0.00     0.174 HD
HETATM   31  O6  UNL     1      16.101   7.823  19.825  1.00  0.00    -0.238 OA
BRANCH  29  32
HETATM   32  O7  UNL     1      18.048   7.898  18.673  1.00  0.00    -0.309 OA
HETATM   33  C21 UNL     1      18.459   6.552  18.546  1.00  0.00     0.215 C 
ENDBRANCH  29  32
ENDBRANCH  23  26
ENDBRANCH  20  22
ENDBRANCH  16  19
BRANCH   1  34
HETATM   34  C3  UNL     1      20.786  11.742  27.725  1.00  0.00     0.006 C 
BRANCH  34  35
HETATM   35  C2  UNL     1      21.492  12.039  29.008  1.00  0.00    -0.004 C 
HETATM   36  C1  UNL     1      21.175  13.461  29.478  1.00  0.00     0.005 C 
ENDBRANCH  34  35
ENDBRANCH   1  34
TORSDOF 6
ENDMDL
MODEL 2
REMARK VINA RESULT: -8.097943498      4.709      8.145
REMARK  6 active torsions:
REMARK  status: ('A' for Active; 'I' for Inactive)
REMARK    1  A    between atoms: C2_2  and  C3_3 
REMARK    2  A    between atoms: C3_3  and  C4_4 
REMARK    3  A    between atoms: C16_19  and  C17_20 
REMARK    4  A    between atoms: N1_21  and  N2_23 
REMARK       I    between atoms: N2_23  and  C18_25 
REMARK    5  A    between atoms: C18_25  and  C19_27 
REMARK       I    between atoms: C19_27  and  N3_29 
REMARK       I    between atoms: N3_29  and  C20_31 
REMARK    6  A    between atoms: C20_31  and  O7_33 
ROOT
HETATM    1  C4  UNL     1      26.698  15.400  20.074  1.00  0.00     0.009 C 
HETATM    2  C5  UNL     1      26.022  15.999  21.213  1.00  0.00     0.007 C 
HETATM    3  C6  UNL     1      24.533  16.175  21.128  1.00  0.00     0.009 C 
HETATM    4  C7  UNL     1      23.913  15.317  22.210  1.00  0.00     0.039 C 
HETATM    5  C8  UNL     1      25.018  14.923  23.132  1.00  0.00     0.072 C 
HETATM    6  C9  UNL     1      24.752  15.177  24.603  1.00  0.00     0.047 C 
HETATM    7  O1  UNL     1      25.563  13.666  22.882  1.00  0.00    -0.349 OA
HETATM    8  C10 UNL     1      26.799  14.220  22.859  1.00  0.00     0.275 C 
HETATM    9  O2  UNL     1      27.715  13.906  21.937  1.00  0.00    -0.330 OA
HETATM   10  C11 UNL     1      27.330  13.157  20.857  1.00  0.00     0.277 C 
HETATM   11  O3  UNL     1      28.567  12.650  20.385  1.00  0.00    -0.355 OA
HETATM   12  C12 UNL     1      28.418  11.649  19.471  1.00  0.00     0.120 C 
HETATM   13  C13 UNL     1      28.014  10.321  20.058  1.00  0.00     0.039 C 
HETATM   14  C14 UNL     1      27.511  12.138  18.395  1.00  0.00     0.033 C 
HETATM   15  C15 UNL     1      27.355  13.667  18.494  1.00  0.00     0.023 C 
HETATM   16  C16 UNL     1      26.578  13.937  19.803  1.00  0.00     0.047 C 
HETATM   17  C22 UNL     1      26.263  15.556  22.601  1.00  0.00     0.041 C 
HETATM   18  C23 UNL     1      26.891  16.588  23.554  1.00  0.00     0.024 C 
ENDROOT
BRANCH  16  19
HETATM   19  C17 UNL     1      25.237  13.453  19.507  1.00  0.00     0.095 C 
HETATM   20  N1  UNL     1      24.641  12.524  20.167  1.00  0.00    -0.312 N 
ATOM     21  H1  UNL     1      25.151  12.107  20.947  1.00  0.00     0.185 HD
BRANCH  20  22
HETATM   22  N2  UNL     1      23.380  12.043  19.917  1.00  0.00    -0.262 N 
HETATM   23  C18 UNL     1      22.469  11.756  20.943  1.00  0.00     0.328 C 
HETATM   24  O4  UNL     1      22.811  11.944  22.159  1.00  0.00    -0.261 OA
ATOM     25  H2  UNL     1      23.096  11.889  18.950  1.00  0.00     0.190 HD
BRANCH  23  26
HETATM   26  C19 UNL     1      21.131  11.246  20.691  1.00  0.00     0.319 C 
HETATM   27  O5  UNL     1      20.199  11.671  21.413  1.00  0.00    -0.262 OA
HETATM   28  N3  UNL     1      20.873  10.302  19.668  1.00  0.00    -0.265 N 
HETATM   29  C20 UNL     1      19.573   9.808  19.425  1.00  0.00     0.367 C 
ATOM     30  H3  UNL     1      21.646   9.971  19.091  1.00  0.00     0.174 HD
HETATM   31  O6  UNL     1      18.631  10.220  20.135  1.00  0.00    -0.238 OA
BRANCH  29  32
HETATM   32  O7  UNL     1      19.306   8.890  18.433  1.00  0.00    -0.309 OA
HETATM   33  C21 UNL     1      18.931   7.552  18.690  1.00  0.00     0.215 C 
ENDBRANCH  29  32
ENDBRANCH  23  26
ENDBRANCH  20  22
ENDBRANCH  16  19
BRANCH   1  34
HETATM   34  C3  UNL     1      26.423  16.246  18.859  1.00  0.00     0.006 C 
BRANCH  34  35
HETATM   35  C2  UNL     1      27.087  17.584  18.824  1.00  0.00    -0.004 C 
HETATM   36  C1  UNL     1      26.447  18.473  17.754  1.00  0.00     0.005 C 
ENDBRANCH  34  35
ENDBRANCH   1  34
TORSDOF 6
ENDMDL
MODEL 3
REMARK VINA RESULT: -8.092857329      2.692      4.946
REMARK  6 active torsions:
REMARK  status: ('A' for Active; 'I' for Inactive)
REMARK    1  A    between atoms: C2_2  and  C3_3 
REMARK    2  A    between atoms: C3_3  and  C4_4 
REMARK    3  A    between atoms: C16_19  and  C17_20 
REMARK    4  A    between atoms: N1_21  and  N2_23 
REMARK       I    between atoms: N2_23  and  C18_25 
REMARK    5  A    between atoms: C18_25  and  C19_27 
REMARK       I    between atoms: C19_27  and  N3_29 
REMARK       I    between atoms: N3_29  and  C20_31 
REMARK    6  A    between atoms: C20_31  and  O7_33 
ROOT
HETATM    1  C4  UNL     1      21.169  15.258  27.145  1.00  0.00     0.009 C 
HETATM    2  C5  UNL     1      20.255  14.225  27.607  1.00  0.00     0.007 C 
HETATM    3  C6  UNL     1      19.203  13.745  26.649  1.00  0.00     0.009 C 
HETATM    4  C7  UNL     1      19.474  12.281  26.375  1.00  0.00     0.039 C 
HETATM    5  C8  UNL     1      20.443  11.822  27.412  1.00  0.00     0.072 C 
HETATM    6  C9  UNL     1      20.047  10.559  28.151  1.00  0.00     0.047 C 
HETATM    7  O1  UNL     1      21.775  11.824  27.003  1.00  0.00    -0.349 OA
HETATM    8  C10 UNL     1      22.099  12.543  28.105  1.00  0.00     0.275 C 
HETATM    9  O2  UNL     1      22.930  13.590  28.067  1.00  0.00    -0.330 OA
HETATM   10  C11 UNL     1      23.308  14.084  26.846  1.00  0.00     0.277 C 
HETATM   11  O3  UNL     1      24.478  14.816  27.168  1.00  0.00    -0.355 OA
HETATM   12  C12 UNL     1      25.196  15.181  26.067  1.00  0.00     0.120 C 
HETATM   13  C13 UNL     1      25.981  14.062  25.433  1.00  0.00     0.039 C 
HETATM   14  C14 UNL     1      24.277  15.885  25.128  1.00  0.00     0.033 C 
HETATM   15  C15 UNL     1      22.974  16.264  25.857  1.00  0.00     0.023 C 
HETATM   16  C16 UNL     1      22.254  14.934  26.174  1.00  0.00     0.047 C 
HETATM   17  C22 UNL     1      20.722  13.000  28.287  1.00  0.00     0.041 C 
HETATM   18  C23 UNL     1      20.274  12.810  29.747  1.00  0.00     0.024 C 
ENDROOT
BRANCH  16  19
HETATM   19  C17 UNL     1      21.817  14.464  24.865  1.00  0.00     0.095 C 
HETATM   20  N1  UNL     1      22.038  13.282  24.410  1.00  0.00    -0.312 N 
ATOM     21  H1  UNL     1      22.553  12.640  25.014  1.00  0.00     0.185 HD
BRANCH  20  22
HETATM   22  N2  UNL     1      21.642  12.807  23.185  1.00  0.00    -0.262 N 
HETATM   23  C18 UNL     1      21.354  11.453  22.962  1.00  0.00     0.328 C 
HETATM   24  O4  UNL     1      21.458  10.621  23.926  1.00  0.00    -0.261 OA
ATOM     25  H2  UNL     1      21.555  13.462  22.409  1.00  0.00     0.190 HD
BRANCH  23  26
HETATM   26  C19 UNL     1      20.935  10.937  21.670  1.00  0.00     0.319 C 
HETATM   27  O5  UNL     1      20.915  11.734  20.702  1.00  0.00    -0.262 OA
HETATM   28  N3  UNL     1      20.559   9.584  21.492  1.00  0.00    -0.265 N 
HETATM   29  C20 UNL     1      20.152   9.086  20.235  1.00  0.00     0.367 C 
ATOM     30  H3  UNL     1      20.583   8.953  22.293  1.00  0.00     0.174 HD
HETATM   31  O6  UNL     1      20.126   9.866  19.259  1.00  0.00    -0.238 OA
BRANCH  29  32
HETATM   32  O7  UNL     1      19.783   7.771  20.047  1.00  0.00    -0.309 OA
HETATM   33  C21 UNL     1      19.033   7.324  18.936  1.00  0.00     0.215 C 
ENDBRANCH  29  32
ENDBRANCH  23  26
ENDBRANCH  20  22
ENDBRANCH  16  19
BRANCH   1  34
HETATM   34  C3  UNL     1      20.360  16.461  26.741  1.00  0.00     0.006 C 
BRANCH  34  35
HETATM   35  C2  UNL     1      19.802  17.286  27.854  1.00  0.00    -0.004 C 
HETATM   36  C1  UNL     1      20.780  18.398  28.242  1.00  0.00     0.005 C 
ENDBRANCH  34  35
ENDBRANCH   1  34
TORSDOF 6
ENDMDL
MODEL 4
REMARK VINA RESULT: -7.954454884      4.759      8.164
REMARK  6 active torsions:
REMARK  status: ('A' for Active; 'I' for Inactive)
REMARK    1  A    between atoms: C2_2  and  C3_3 
REMARK    2  A    between atoms: C3_3  and  C4_4 
REMARK    3  A    between atoms: C16_19  and  C17_20 
REMARK    4  A    between atoms: N1_21  and  N2_23 
REMARK       I    between atoms: N2_23  and  C18_25 
REMARK    5  A    between atoms: C18_25  and  C19_27 
REMARK       I    between atoms: C19_27  and  N3_29 
REMARK       I    between atoms: N3_29  and  C20_31 
REMARK    6  A    between atoms: C20_31  and  O7_33 
ROOT
HETATM    1  C4  UNL     1      27.462  14.201  20.540  1.00  0.00     0.009 C 
HETATM    2  C5  UNL     1      26.671  15.084  21.381  1.00  0.00     0.007 C 
HETATM    3  C6  UNL     1      25.247  15.341  20.978  1.00  0.00     0.009 C 
HETATM    4  C7  UNL     1      24.360  14.791  22.075  1.00  0.00     0.039 C 
HETATM    5  C8  UNL     1      25.240  14.536  23.252  1.00  0.00     0.072 C 
HETATM    6  C9  UNL     1      24.756  15.128  24.560  1.00  0.00     0.047 C 
HETATM    7  O1  UNL     1      25.679  13.219  23.374  1.00  0.00    -0.349 OA
HETATM    8  C10 UNL     1      26.954  13.666  23.475  1.00  0.00     0.275 C 
HETATM    9  O2  UNL     1      27.975  13.092  22.830  1.00  0.00    -0.330 OA
HETATM   10  C11 UNL     1      27.700  12.149  21.874  1.00  0.00     0.277 C 
HETATM   11  O3  UNL     1      28.936  11.466  21.762  1.00  0.00    -0.355 OA
HETATM   12  C12 UNL     1      28.837  10.299  21.062  1.00  0.00     0.120 C 
HETATM   13  C13 UNL     1      28.195   9.167  21.821  1.00  0.00     0.039 C 
HETATM   14  C14 UNL     1      28.187  10.598  19.754  1.00  0.00     0.033 C 
HETATM   15  C15 UNL     1      28.186  12.118  19.505  1.00  0.00     0.023 C 
HETATM   16  C16 UNL     1      27.231  12.727  20.557  1.00  0.00     0.047 C 
HETATM   17  C22 UNL     1      26.620  14.945  22.850  1.00  0.00     0.041 C 
HETATM   18  C23 UNL     1      27.185  16.117  23.672  1.00  0.00     0.024 C 
ENDROOT
BRANCH  16  19
HETATM   19  C17 UNL     1      25.914  12.284  20.117  1.00  0.00     0.095 C 
HETATM   20  N1  UNL     1      25.083  11.639  20.856  1.00  0.00    -0.312 N 
ATOM     21  H1  UNL     1      25.376  11.430  21.812  1.00  0.00     0.185 HD
BRANCH  20  22
HETATM   22  N2  UNL     1      23.838  11.207  20.475  1.00  0.00    -0.262 N 
HETATM   23  C18 UNL     1      22.751  11.173  21.361  1.00  0.00     0.328 C 
HETATM   24  O4  UNL     1      22.912  11.556  22.568  1.00  0.00    -0.261 OA
ATOM     25  H2  UNL     1      23.698  10.900  19.513  1.00  0.00     0.190 HD
BRANCH  23  26
HETATM   26  C19 UNL     1      21.428  10.717  20.969  1.00  0.00     0.319 C 
HETATM   27  O5  UNL     1      20.498  11.558  20.965  1.00  0.00    -0.262 OA
HETATM   28  N3  UNL     1      21.180   9.372  20.601  1.00  0.00    -0.265 N 
HETATM   29  C20 UNL     1      19.894   8.932  20.221  1.00  0.00     0.367 C 
ATOM     30  H3  UNL     1      21.952   8.705  20.610  1.00  0.00     0.174 HD
HETATM   31  O6  UNL     1      18.955   9.756  20.211  1.00  0.00    -0.238 OA
BRANCH  29  32
HETATM   32  O7  UNL     1      19.638   7.627  19.860  1.00  0.00    -0.309 OA
HETATM   33  C21 UNL     1      18.921   7.267  18.697  1.00  0.00     0.215 C 
ENDBRANCH  29  32
ENDBRANCH  23  26
ENDBRANCH  20  22
ENDBRANCH  16  19
BRANCH   1  34
HETATM   34  C3  UNL     1      27.494  14.773  19.148  1.00  0.00     0.006 C 
BRANCH  34  35
HETATM   35  C2  UNL     1      28.409  15.934  18.933  1.00  0.00    -0.004 C 
HETATM   36  C1  UNL     1      29.869  15.473  18.918  1.00  0.00     0.005 C 
ENDBRANCH  34  35
ENDBRANCH   1  34
TORSDOF 6
ENDMDL
MODEL 5
REMARK VINA RESULT: -7.873671571      2.166      4.284
REMARK  6 active torsions:
REMARK  status: ('A' for Active; 'I' for Inactive)
REMARK    1  A    between atoms: C2_2  and  C3_3 
REMARK    2  A    between atoms: C3_3  and  C4_4 
REMARK    3  A    between atoms: C16_19  and  C17_20 
REMARK    4  A    between atoms: N1_21  and  N2_23 
REMARK       I    between atoms: N2_23  and  C18_25 
REMARK    5  A    between atoms: C18_25  and  C19_27 
REMARK       I    between atoms: C19_27  and  N3_29 
REMARK       I    between atoms: N3_29  and  C20_31 
REMARK    6  A    between atoms: C20_31  and  O7_33 
ROOT
HETATM    1  C4  UNL     1      20.687  14.826  26.459  1.00  0.00     0.009 C 
HETATM    2  C5  UNL     1      20.000  13.783  27.204  1.00  0.00     0.007 C 
HETATM    3  C6  UNL     1      18.757  13.196  26.599  1.00  0.00     0.009 C 
HETATM    4  C7  UNL     1      19.032  11.732  26.333  1.00  0.00     0.039 C 
HETATM    5  C8  UNL     1      20.274  11.384  27.082  1.00  0.00     0.072 C 
HETATM    6  C9  UNL     1      20.173  10.155  27.963  1.00  0.00     0.047 C 
HETATM    7  O1  UNL     1      21.441  11.421  26.322  1.00  0.00    -0.349 OA
HETATM    8  C10 UNL     1      22.008  12.222  27.255  1.00  0.00     0.275 C 
HETATM    9  O2  UNL     1      22.732  13.301  26.938  1.00  0.00    -0.330 OA
HETATM   10  C11 UNL     1      22.731  13.733  25.638  1.00  0.00     0.277 C 
HETATM   11  O3  UNL     1      23.897  14.537  25.587  1.00  0.00    -0.355 OA
HETATM   12  C12 UNL     1      24.264  14.863  24.314  1.00  0.00     0.120 C 
HETATM   13  C13 UNL     1      24.912  13.743  23.544  1.00  0.00     0.039 C 
HETATM   14  C14 UNL     1      23.081  15.463  23.633  1.00  0.00     0.033 C 
HETATM   15  C15 UNL     1      22.006  15.829  24.674  1.00  0.00     0.023 C 
HETATM   16  C16 UNL     1      21.483  14.490  25.242  1.00  0.00     0.047 C 
HETATM   17  C22 UNL     1      20.708  12.628  27.788  1.00  0.00     0.041 C 
HETATM   18  C23 UNL     1      20.688  12.511  29.322  1.00  0.00     0.024 C 
ENDROOT
BRANCH  16  19
HETATM   19  C17 UNL     1      20.735  13.918  24.130  1.00  0.00     0.095 C 
HETATM   20  N1  UNL     1      20.931  12.739  23.656  1.00  0.00    -0.312 N 
ATOM     21  H1  UNL     1      21.660  12.176  24.097  1.00  0.00     0.185 HD
BRANCH  20  22
HETATM   22  N2  UNL     1      20.247  12.170  22.612  1.00  0.00    -0.262 N 
HETATM   23  C18 UNL     1      20.022  10.788  22.525  1.00  0.00     0.328 C 
HETATM   24  O4  UNL     1      20.463  10.020  23.446  1.00  0.00    -0.261 OA
ATOM     25  H2  UNL     1      19.889  12.773  21.872  1.00  0.00     0.190 HD
BRANCH  23  26
HETATM   26  C19 UNL     1      19.300  10.173  21.424  1.00  0.00     0.319 C 
HETATM   27  O5  UNL     1      18.302  10.781  20.968  1.00  0.00    -0.262 OA
HETATM   28  N3  UNL     1      19.696   8.931  20.872  1.00  0.00    -0.265 N 
HETATM   29  C20 UNL     1      18.993   8.336  19.803  1.00  0.00     0.367 C 
ATOM     30  H3  UNL     1      20.511   8.455  21.257  1.00  0.00     0.174 HD
HETATM   31  O6  UNL     1      17.995   8.928  19.336  1.00  0.00    -0.238 OA
BRANCH  29  32
HETATM   32  O7  UNL     1      19.367   7.128  19.255  1.00  0.00    -0.309 OA
HETATM   33  C21 UNL     1      18.607   6.447  18.277  1.00  0.00     0.215 C 
ENDBRANCH  29  32
ENDBRANCH  23  26
ENDBRANCH  20  22
ENDBRANCH  16  19
BRANCH   1  34
HETATM   34  C3  UNL     1      19.726  15.963  26.235  1.00  0.00     0.006 C 
BRANCH  34  35
HETATM   35  C2  UNL     1      19.307  16.721  27.452  1.00  0.00    -0.004 C 
HETATM   36  C1  UNL     1      20.452  17.603  27.956  1.00  0.00     0.005 C 
ENDBRANCH  34  35
ENDBRANCH   1  34
TORSDOF 6
ENDMDL
