MODEL 1
REMARK VINA RESULT: -8.349928983      0.000      0.000
REMARK  6 active torsions:
REMARK  status: ('A' for Active; 'I' for Inactive)
REMARK    1  A    between atoms: C2_2  and  O2_4 
REMARK    2  A    between atoms: O2_4  and  C3_5 
REMARK    3  A    between atoms: C9_11  and  C10_12 
REMARK    4  A    between atoms: C14_21  and  O6_22 
REMARK    5  A    between atoms: C19_28  and  O7_29 
REMARK    6  A    between atoms: O7_29  and  C20_30 
ROOT
HETATM    1  C3  UNL     1      19.411  11.755  22.191  1.00  0.00     0.142 C 
HETATM    2  C4  UNL     1      20.707  11.846  22.958  1.00  0.00     0.039 C 
HETATM    3  C5  UNL     1      20.650  12.951  23.962  1.00  0.00     0.011 C 
HETATM    4  C6  UNL     1      21.869  12.790  24.856  1.00  0.00    -0.020 C 
HETATM    5  C7  UNL     1      22.880  11.796  24.411  1.00  0.00     0.017 C 
HETATM    6  C8  UNL     1      22.334  14.081  25.430  1.00  0.00     0.091 C 
HETATM    7  C9  UNL     1      23.703  14.157  25.962  1.00  0.00     0.116 C 
HETATM    8  N1  UNL     1      23.628  14.129  27.247  1.00  0.00    -0.263 N 
ATOM      9  H1  UNL     1      24.440  14.168  27.864  1.00  0.00     0.194 HD
HETATM   10  O5  UNL     1      22.340  14.043  27.691  1.00  0.00    -0.267 OA
HETATM   11  C11 UNL     1      21.465  13.799  26.631  1.00  0.00     0.109 C 
HETATM   12  C12 UNL     1      20.222  14.601  26.606  1.00  0.00     0.050 C 
HETATM   13  C13 UNL     1      20.618  16.081  26.504  1.00  0.00     0.016 C 
HETATM   14  C14 UNL     1      19.313  14.291  25.488  1.00  0.00     0.136 C 
HETATM   15  C15 UNL     1      19.463  12.897  24.889  1.00  0.00     0.022 C 
HETATM   16  C16 UNL     1      19.935  11.920  25.928  1.00  0.00     0.003 C 
HETATM   17  C17 UNL     1      19.048  11.717  27.084  1.00  0.00     0.011 C 
HETATM   18  C18 UNL     1      21.317  12.377  26.227  1.00  0.00     0.038 C 
HETATM   19  C19 UNL     1      18.182  12.549  24.238  1.00  0.00     0.154 C 
HETATM   20  C22 UNL     1      18.253  11.562  23.116  1.00  0.00     0.007 C 
HETATM   21  C23 UNL     1      18.220  10.126  23.596  1.00  0.00     0.020 C 
HETATM   22  C24 UNL     1      16.984  11.752  22.277  1.00  0.00     0.020 C 
ENDROOT
BRANCH   1  23
HETATM   23  O2  UNL     1      19.503  10.571  21.388  1.00  0.00    -0.315 OA
BRANCH  23  24
HETATM   24  C2  UNL     1      19.762  10.636  20.047  1.00  0.00     0.255 C 
HETATM   25  C1  UNL     1      21.173  10.875  19.614  1.00  0.00     0.126 C 
HETATM   26  O1  UNL     1      18.822  10.495  19.239  1.00  0.00    -0.266 OA
ENDBRANCH  23  24
ENDBRANCH   1  23
BRANCH  19  27
HETATM   27  O7  UNL     1      17.232  12.043  25.147  1.00  0.00    -0.315 OA
BRANCH  27  28
HETATM   28  C20 UNL     1      15.961  12.508  25.298  1.00  0.00     0.255 C 
HETATM   29  C21 UNL     1      15.730  13.970  25.397  1.00  0.00     0.126 C 
HETATM   30  O8  UNL     1      15.004  11.702  25.350  1.00  0.00    -0.266 OA
ENDBRANCH  27  28
ENDBRANCH  19  27
BRANCH  14  31
HETATM   31  O6  UNL     1      19.531  15.194  24.429  1.00  0.00    -0.394 OA
ATOM     32  H6  UNL     1      19.716  16.060  24.774  1.00  0.00     0.210 HD
ENDBRANCH  14  31
BRANCH   7  33
HETATM   33  C10 UNL     1      24.946  14.249  25.217  1.00  0.00     0.225 C 
HETATM   34  O3  UNL     1      25.953  13.637  25.645  1.00  0.00    -0.643 OA
HETATM   35  O4  UNL     1      25.039  14.992  24.050  1.00  0.00    -0.643 OA
ENDBRANCH   7  33
TORSDOF 6
ENDMDL
MODEL 2
REMARK VINA RESULT: -8.198383504      1.848      4.917
REMARK  6 active torsions:
REMARK  status: ('A' for Active; 'I' for Inactive)
REMARK    1  A    between atoms: C2_2  and  O2_4 
REMARK    2  A    between atoms: O2_4  and  C3_5 
REMARK    3  A    between atoms: C9_11  and  C10_12 
REMARK    4  A    between atoms: C14_21  and  O6_22 
REMARK    5  A    between atoms: C19_28  and  O7_29 
REMARK    6  A    between atoms: O7_29  and  C20_30 
ROOT
HETATM    1  C3  UNL     1      17.156  11.254  23.681  1.00  0.00     0.142 C 
HETATM    2  C4  UNL     1      18.276  12.185  24.076  1.00  0.00     0.039 C 
HETATM    3  C5  UNL     1      19.590  11.477  24.037  1.00  0.00     0.011 C 
HETATM    4  C6  UNL     1      20.664  12.544  24.179  1.00  0.00    -0.020 C 
HETATM    5  C7  UNL     1      20.189  13.906  24.534  1.00  0.00     0.017 C 
HETATM    6  C8  UNL     1      21.907  12.028  24.811  1.00  0.00     0.091 C 
HETATM    7  C9  UNL     1      22.856  12.996  25.380  1.00  0.00     0.116 C 
HETATM    8  N1  UNL     1      23.849  13.099  24.567  1.00  0.00    -0.263 N 
ATOM      9  H1  UNL     1      24.651  13.710  24.725  1.00  0.00     0.194 HD
HETATM   10  O5  UNL     1      23.708  12.299  23.471  1.00  0.00    -0.267 OA
HETATM   11  C11 UNL     1      22.430  11.740  23.424  1.00  0.00     0.109 C 
HETATM   12  C12 UNL     1      22.353  10.299  23.098  1.00  0.00     0.050 C 
HETATM   13  C13 UNL     1      23.119   9.530  24.185  1.00  0.00     0.016 C 
HETATM   14  C14 UNL     1      20.984   9.757  23.031  1.00  0.00     0.136 C 
HETATM   15  C15 UNL     1      19.889  10.777  22.737  1.00  0.00     0.022 C 
HETATM   16  C16 UNL     1      20.424  11.905  21.902  1.00  0.00     0.003 C 
HETATM   17  C17 UNL     1      20.942  11.545  20.573  1.00  0.00     0.011 C 
HETATM   18  C18 UNL     1      21.373  12.591  22.818  1.00  0.00     0.038 C 
HETATM   19  C19 UNL     1      18.745  10.049  22.147  1.00  0.00     0.154 C 
HETATM   20  C22 UNL     1      17.397  10.672  22.325  1.00  0.00     0.007 C 
HETATM   21  C23 UNL     1      17.085  11.707  21.265  1.00  0.00     0.020 C 
HETATM   22  C24 UNL     1      16.365   9.554  22.137  1.00  0.00     0.020 C 
ENDROOT
BRANCH   1  23
HETATM   23  O2  UNL     1      15.978  12.063  23.582  1.00  0.00    -0.315 OA
BRANCH  23  24
HETATM   24  C2  UNL     1      15.526  12.799  24.642  1.00  0.00     0.255 C 
HETATM   25  C1  UNL     1      15.279  14.259  24.430  1.00  0.00     0.126 C 
HETATM   26  O1  UNL     1      15.336  12.234  25.738  1.00  0.00    -0.266 OA
ENDBRANCH  23  24
ENDBRANCH   1  23
BRANCH  19  27
HETATM   27  O7  UNL     1      18.898   9.831  20.763  1.00  0.00    -0.315 OA
BRANCH  27  28
HETATM   28  C20 UNL     1      19.053   8.614  20.169  1.00  0.00     0.255 C 
HETATM   29  C21 UNL     1      17.888   7.976  19.509  1.00  0.00     0.126 C 
HETATM   30  O8  UNL     1      20.170   8.050  20.186  1.00  0.00    -0.266 OA
ENDBRANCH  27  28
ENDBRANCH  19  27
BRANCH  14  31
HETATM   31  O6  UNL     1      20.642   9.165  24.262  1.00  0.00    -0.394 OA
ATOM     32  H6  UNL     1      21.402   8.737  24.639  1.00  0.00     0.210 HD
ENDBRANCH  14  31
BRANCH   7  33
HETATM   33  C10 UNL     1      22.741  13.728  26.629  1.00  0.00     0.225 C 
HETATM   34  O3  UNL     1      22.622  13.084  27.698  1.00  0.00    -0.643 OA
HETATM   35  O4  UNL     1      22.762  15.114  26.661  1.00  0.00    -0.643 OA
ENDBRANCH   7  33
TORSDOF 6
ENDMDL
MODEL 3
REMARK VINA RESULT: -8.195358202      2.426      5.852
REMARK  6 active torsions:
REMARK  status: ('A' for Active; 'I' for Inactive)
REMARK    1  A    between atoms: C2_2  and  O2_4 
REMARK    2  A    between atoms: O2_4  and  C3_5 
REMARK    3  A    between atoms: C9_11  and  C10_12 
REMARK    4  A    between atoms: C14_21  and  O6_22 
REMARK    5  A    between atoms: C19_28  and  O7_29 
REMARK    6  A    between atoms: O7_29  and  C20_30 
ROOT
HETATM    1  C3  UNL     1      22.905  12.155  22.660  1.00  0.00     0.142 C 
HETATM    2  C4  UNL     1      21.402  12.030  22.705  1.00  0.00     0.039 C 
HETATM    3  C5  UNL     1      20.929  11.853  24.111  1.00  0.00     0.011 C 
HETATM    4  C6  UNL     1      19.417  12.010  24.085  1.00  0.00    -0.020 C 
HETATM    5  C7  UNL     1      18.789  12.062  22.740  1.00  0.00     0.017 C 
HETATM    6  C8  UNL     1      18.742  11.245  25.167  1.00  0.00     0.091 C 
HETATM    7  C9  UNL     1      17.305  10.965  25.032  1.00  0.00     0.116 C 
HETATM    8  N1  UNL     1      16.672  11.764  25.819  1.00  0.00    -0.263 N 
ATOM      9  H1  UNL     1      15.657  11.779  25.917  1.00  0.00     0.194 HD
HETATM   10  O5  UNL     1      17.513  12.589  26.508  1.00  0.00    -0.267 OA
HETATM   11  C11 UNL     1      18.818  12.487  26.021  1.00  0.00     0.109 C 
HETATM   12  C12 UNL     1      19.892  12.390  27.033  1.00  0.00     0.050 C 
HETATM   13  C13 UNL     1      19.644  11.122  27.863  1.00  0.00     0.016 C 
HETATM   14  C14 UNL     1      21.255  12.314  26.477  1.00  0.00     0.136 C 
HETATM   15  C15 UNL     1      21.425  12.898  25.078  1.00  0.00     0.022 C 
HETATM   16  C16 UNL     1      20.447  14.013  24.845  1.00  0.00     0.003 C 
HETATM   17  C17 UNL     1      20.564  15.180  25.733  1.00  0.00     0.011 C 
HETATM   18  C18 UNL     1      19.132  13.321  24.831  1.00  0.00     0.038 C 
HETATM   19  C19 UNL     1      22.848  13.267  24.916  1.00  0.00     0.154 C 
HETATM   20  C22 UNL     1      23.374  13.287  23.516  1.00  0.00     0.007 C 
HETATM   21  C23 UNL     1      23.114  14.601  22.810  1.00  0.00     0.020 C 
HETATM   22  C24 UNL     1      24.899  13.159  23.616  1.00  0.00     0.020 C 
ENDROOT
BRANCH   1  23
HETATM   23  O2  UNL     1      23.238  12.492  21.307  1.00  0.00    -0.315 OA
BRANCH  23  24
HETATM   24  C2  UNL     1      23.426  11.527  20.356  1.00  0.00     0.255 C 
HETATM   25  C1  UNL     1      24.106  10.259  20.767  1.00  0.00     0.126 C 
HETATM   26  O1  UNL     1      23.029  11.735  19.192  1.00  0.00    -0.266 OA
ENDBRANCH  23  24
ENDBRANCH   1  23
BRANCH  19  27
HETATM   27  O7  UNL     1      23.145  14.530  25.466  1.00  0.00    -0.315 OA
BRANCH  27  28
HETATM   28  C20 UNL     1      24.044  14.764  26.462  1.00  0.00     0.255 C 
HETATM   29  C21 UNL     1      25.080  15.808  26.274  1.00  0.00     0.126 C 
HETATM   30  O8  UNL     1      23.986  14.100  27.522  1.00  0.00    -0.266 OA
ENDBRANCH  27  28
ENDBRANCH  19  27
BRANCH  14  31
HETATM   31  O6  UNL     1      21.662  10.969  26.388  1.00  0.00    -0.394 OA
ATOM     32  H6  UNL     1      21.356  10.487  27.148  1.00  0.00     0.210 HD
ENDBRANCH  14  31
BRANCH   7  33
HETATM   33  C10 UNL     1      16.664   9.978  24.182  1.00  0.00     0.225 C 
HETATM   34  O3  UNL     1      16.407   8.847  24.657  1.00  0.00    -0.643 OA
HETATM   35  O4  UNL     1      16.333  10.260  22.865  1.00  0.00    -0.643 OA
ENDBRANCH   7  33
TORSDOF 6
ENDMDL
MODEL 4
REMARK VINA RESULT: -8.161645253      2.591      5.206
REMARK  6 active torsions:
REMARK  status: ('A' for Active; 'I' for Inactive)
REMARK    1  A    between atoms: C2_2  and  O2_4 
REMARK    2  A    between atoms: O2_4  and  C3_5 
REMARK    3  A    between atoms: C9_11  and  C10_12 
REMARK    4  A    between atoms: C14_21  and  O6_22 
REMARK    5  A    between atoms: C19_28  and  O7_29 
REMARK    6  A    between atoms: O7_29  and  C20_30 
ROOT
HETATM    1  C3  UNL     1      18.050  10.423  23.602  1.00  0.00     0.142 C 
HETATM    2  C4  UNL     1      17.697  11.534  24.560  1.00  0.00     0.039 C 
HETATM    3  C5  UNL     1      18.747  11.677  25.613  1.00  0.00     0.011 C 
HETATM    4  C6  UNL     1      18.449  12.972  26.353  1.00  0.00    -0.020 C 
HETATM    5  C7  UNL     1      17.149  13.620  26.038  1.00  0.00     0.017 C 
HETATM    6  C8  UNL     1      18.919  12.949  27.764  1.00  0.00     0.091 C 
HETATM    7  C9  UNL     1      18.357  13.930  28.703  1.00  0.00     0.116 C 
HETATM    8  N1  UNL     1      19.243  14.844  28.896  1.00  0.00    -0.263 N 
ATOM      9  H1  UNL     1      19.105  15.648  29.508  1.00  0.00     0.194 HD
HETATM   10  O5  UNL     1      20.387  14.615  28.189  1.00  0.00    -0.267 OA
HETATM   11  C11 UNL     1      20.212  13.563  27.287  1.00  0.00     0.109 C 
HETATM   12  C12 UNL     1      21.301  12.564  27.222  1.00  0.00     0.050 C 
HETATM   13  C13 UNL     1      21.434  11.922  28.611  1.00  0.00     0.016 C 
HETATM   14  C14 UNL     1      21.090  11.488  26.237  1.00  0.00     0.136 C 
HETATM   15  C15 UNL     1      20.150  11.830  25.086  1.00  0.00     0.022 C 
HETATM   16  C16 UNL     1      20.199  13.299  24.778  1.00  0.00     0.003 C 
HETATM   17  C17 UNL     1      21.500  13.833  24.345  1.00  0.00     0.011 C 
HETATM   18  C18 UNL     1      19.596  13.923  25.984  1.00  0.00     0.038 C 
HETATM   19  C19 UNL     1      20.488  10.941  23.953  1.00  0.00     0.154 C 
HETATM   20  C22 UNL     1      19.388  10.659  22.979  1.00  0.00     0.007 C 
HETATM   21  C23 UNL     1      19.269  11.722  21.907  1.00  0.00     0.020 C 
HETATM   22  C24 UNL     1      19.766   9.366  22.247  1.00  0.00     0.020 C 
ENDROOT
BRANCH   1  23
HETATM   23  O2  UNL     1      17.084  10.483  22.546  1.00  0.00    -0.315 OA
BRANCH  23  24
HETATM   24  C2  UNL     1      16.277   9.417  22.255  1.00  0.00     0.255 C 
HETATM   25  C1  UNL     1      16.297   8.883  20.858  1.00  0.00     0.126 C 
HETATM   26  O1  UNL     1      15.561   8.933  23.154  1.00  0.00    -0.266 OA
ENDBRANCH  23  24
ENDBRANCH   1  23
BRANCH  19  27
HETATM   27  O7  UNL     1      21.573  11.420  23.193  1.00  0.00    -0.315 OA
BRANCH  27  28
HETATM   28  C20 UNL     1      22.722  10.733  22.942  1.00  0.00     0.255 C 
HETATM   29  C21 UNL     1      23.613  11.186  21.845  1.00  0.00     0.126 C 
HETATM   30  O8  UNL     1      23.015   9.733  23.635  1.00  0.00    -0.266 OA
ENDBRANCH  27  28
ENDBRANCH  19  27
BRANCH  14  31
HETATM   31  O6  UNL     1      20.532  10.361  26.871  1.00  0.00    -0.394 OA
ATOM     32  H6  UNL     1      20.015   9.863  26.250  1.00  0.00     0.210 HD
ENDBRANCH  14  31
BRANCH   7  33
HETATM   33  C10 UNL     1      17.047  13.916  29.329  1.00  0.00     0.225 C 
HETATM   34  O3  UNL     1      16.636  12.850  29.846  1.00  0.00    -0.643 OA
HETATM   35  O4  UNL     1      16.249  15.049  29.367  1.00  0.00    -0.643 OA
ENDBRANCH   7  33
TORSDOF 6
ENDMDL
MODEL 5
REMARK VINA RESULT: -8.093330534      2.421      4.092
REMARK  6 active torsions:
REMARK  status: ('A' for Active; 'I' for Inactive)
REMARK    1  A    between atoms: C2_2  and  O2_4 
REMARK    2  A    between atoms: O2_4  and  C3_5 
REMARK    3  A    between atoms: C9_11  and  C10_12 
REMARK    4  A    between atoms: C14_21  and  O6_22 
REMARK    5  A    between atoms: C19_28  and  O7_29 
REMARK    6  A    between atoms: O7_29  and  C20_30 
ROOT
HETATM    1  C3  UNL     1      23.491  12.458  20.694  1.00  0.00     0.142 C 
HETATM    2  C4  UNL     1      24.115  12.779  22.030  1.00  0.00     0.039 C 
HETATM    3  C5  UNL     1      23.060  13.024  23.059  1.00  0.00     0.011 C 
HETATM    4  C6  UNL     1      23.767  13.065  24.405  1.00  0.00    -0.020 C 
HETATM    5  C7  UNL     1      25.252  13.089  24.363  1.00  0.00     0.017 C 
HETATM    6  C8  UNL     1      23.061  13.918  25.398  1.00  0.00     0.091 C 
HETATM    7  C9  UNL     1      23.808  14.382  26.576  1.00  0.00     0.116 C 
HETATM    8  N1  UNL     1      23.430  13.677  27.586  1.00  0.00    -0.263 N 
ATOM      9  H1  UNL     1      23.797  13.796  28.530  1.00  0.00     0.194 HD
HETATM   10  O5  UNL     1      22.485  12.753  27.249  1.00  0.00    -0.267 OA
HETATM   11  C11 UNL     1      22.332  12.681  25.863  1.00  0.00     0.109 C 
HETATM   12  C12 UNL     1      20.943  12.642  25.355  1.00  0.00     0.050 C 
HETATM   13  C13 UNL     1      20.243  13.936  25.798  1.00  0.00     0.016 C 
HETATM   14  C14 UNL     1      20.827  12.536  23.890  1.00  0.00     0.136 C 
HETATM   15  C15 UNL     1      22.032  11.928  23.180  1.00  0.00     0.022 C 
HETATM   16  C16 UNL     1      22.737  10.949  24.073  1.00  0.00     0.003 C 
HETATM   17  C17 UNL     1      21.955   9.781  24.509  1.00  0.00     0.011 C 
HETATM   18  C18 UNL     1      23.299  11.807  25.149  1.00  0.00     0.038 C 
HETATM   19  C19 UNL     1      21.561  11.375  21.892  1.00  0.00     0.154 C 
HETATM   20  C22 UNL     1      22.577  11.279  20.798  1.00  0.00     0.007 C 
HETATM   21  C23 UNL     1      23.395  10.007  20.868  1.00  0.00     0.020 C 
HETATM   22  C24 UNL     1      21.801  11.207  19.478  1.00  0.00     0.020 C 
ENDROOT
BRANCH   1  23
HETATM   23  O2  UNL     1      24.568  12.073  19.831  1.00  0.00    -0.315 OA
BRANCH  23  24
HETATM   24  C2  UNL     1      25.109  12.948  18.929  1.00  0.00     0.255 C 
HETATM   25  C1  UNL     1      26.311  12.507  18.156  1.00  0.00     0.126 C 
HETATM   26  O1  UNL     1      24.586  14.071  18.783  1.00  0.00    -0.266 OA
ENDBRANCH  23  24
ENDBRANCH   1  23
BRANCH  19  27
HETATM   27  O7  UNL     1      21.006  10.087  22.026  1.00  0.00    -0.315 OA
BRANCH  27  28
HETATM   28  C20 UNL     1      19.806   9.689  21.519  1.00  0.00     0.255 C 
HETATM   29  C21 UNL     1      18.585  10.464  21.852  1.00  0.00     0.126 C 
HETATM   30  O8  UNL     1      19.745   8.681  20.779  1.00  0.00    -0.266 OA
ENDBRANCH  27  28
ENDBRANCH  19  27
BRANCH  14  31
HETATM   31  O6  UNL     1      20.652  13.816  23.329  1.00  0.00    -0.394 OA
ATOM     32  H6  UNL     1      20.655  13.758  22.381  1.00  0.00     0.210 HD
ENDBRANCH  14  31
BRANCH   7  33
HETATM   33  C10 UNL     1      24.800  15.441  26.643  1.00  0.00     0.225 C 
HETATM   34  O3  UNL     1      24.423  16.630  26.525  1.00  0.00    -0.643 OA
HETATM   35  O4  UNL     1      26.145  15.163  26.835  1.00  0.00    -0.643 OA
ENDBRANCH   7  33
TORSDOF 6
ENDMDL
