MODEL 1
REMARK VINA RESULT: -7.269347659      0.000      0.000
REMARK  8 active torsions:
REMARK  status: ('A' for Active; 'I' for Inactive)
REMARK    1  A    between atoms: C2_2  and  O2_4 
REMARK    2  A    between atoms: O2_4  and  C3_5 
REMARK    3  A    between atoms: C11_13  and  O3_14 
REMARK    4  A    between atoms: C12_16  and  S1_17 
REMARK    5  A    between atoms: C13_21  and  C14_22 
REMARK    6  A    between atoms: C14_22  and  O7_25 
REMARK    7  A    between atoms: C17_27  and  O8_28 
REMARK    8  A    between atoms: O8_28  and  C18_29 
ROOT
HETATM    1  C3  UNL     1      24.318  12.921  23.422  1.00  0.00     0.147 C 
HETATM    2  C4  UNL     1      23.918  13.648  24.693  1.00  0.00     0.034 C 
HETATM    3  C5  UNL     1      24.743  14.789  25.099  1.00  0.00     0.012 C 
HETATM    4  C6  UNL     1      26.041  14.988  24.387  1.00  0.00    -0.036 C 
HETATM    5  C7  UNL     1      26.312  16.508  24.530  1.00  0.00     0.015 C 
HETATM    6  C8  UNL     1      27.105  14.400  25.328  1.00  0.00     0.015 C 
HETATM    7  C9  UNL     1      26.151  14.524  22.978  1.00  0.00     0.010 C 
HETATM    8  C10 UNL     1      26.244  15.798  22.129  1.00  0.00     0.020 C 
HETATM    9  C11 UNL     1      27.433  13.808  22.760  1.00  0.00     0.176 C 
HETATM   10  C12 UNL     1      27.613  13.501  21.261  1.00  0.00     0.099 C 
HETATM   11  C13 UNL     1      26.583  12.622  20.724  1.00  0.00     0.029 C 
HETATM   12  C17 UNL     1      25.219  13.151  21.057  1.00  0.00     0.079 C 
HETATM   13  C20 UNL     1      24.955  13.805  22.390  1.00  0.00     0.044 C 
HETATM   14  C21 UNL     1      23.838  14.834  22.108  1.00  0.00     0.026 C 
ENDROOT
BRANCH  11  15
HETATM   15  C14 UNL     1      26.775  11.170  20.548  1.00  0.00     0.081 C 
HETATM   16  C15 UNL     1      25.518  10.329  20.463  1.00  0.00     0.051 C 
HETATM   17  C16 UNL     1      27.400  10.811  19.169  1.00  0.00     0.051 C 
BRANCH  15  18
HETATM   18  O7  UNL     1      27.591  10.518  21.456  1.00  0.00    -0.386 OA
ATOM     19  H7  UNL     1      27.826   9.617  21.267  1.00  0.00     0.211 HD
ENDBRANCH  15  18
ENDBRANCH  11  15
BRANCH  10  20
HETATM   20  S1  UNL     1      29.312  13.298  20.980  1.00  0.00     0.137 S 
HETATM   21  O4  UNL     1      29.839  13.748  19.665  1.00  0.00    -0.591 OA
HETATM   22  O5  UNL     1      30.037  14.311  21.933  1.00  0.00    -0.591 OA
HETATM   23  O6  UNL     1      29.971  11.862  21.543  1.00  0.00    -0.591 OA
ENDBRANCH  10  20
BRANCH  12  24
HETATM   24  O8  UNL     1      24.608  13.846  20.000  1.00  0.00    -0.282 OA
BRANCH  24  25
HETATM   25  C18 UNL     1      24.777  13.906  18.693  1.00  0.00     0.259 C 
HETATM   26  C19 UNL     1      25.585  14.969  18.048  1.00  0.00     0.126 C 
HETATM   27  O9  UNL     1      24.226  13.028  18.018  1.00  0.00    -0.265 OA
ENDBRANCH  24  25
ENDBRANCH  12  24
BRANCH   9  28
HETATM   28  O3  UNL     1      27.781  12.728  23.436  1.00  0.00    -0.389 OA
ATOM     29  H3  UNL     1      27.823  11.863  23.047  1.00  0.00     0.210 HD
ENDBRANCH   9  28
BRANCH   1  30
HETATM   30  O2  UNL     1      23.091  12.464  22.789  1.00  0.00    -0.315 OA
BRANCH  30  31
HETATM   31  C2  UNL     1      22.685  11.165  22.786  1.00  0.00     0.255 C 
HETATM   32  C1  UNL     1      22.705  10.254  23.951  1.00  0.00     0.126 C 
HETATM   33  O1  UNL     1      22.256  10.705  21.694  1.00  0.00    -0.266 OA
ENDBRANCH  30  31
ENDBRANCH   1  30
TORSDOF 8
ENDMDL
MODEL 2
REMARK VINA RESULT: -6.954936917      4.092      7.878
REMARK  8 active torsions:
REMARK  status: ('A' for Active; 'I' for Inactive)
REMARK    1  A    between atoms: C2_2  and  O2_4 
REMARK    2  A    between atoms: O2_4  and  C3_5 
REMARK    3  A    between atoms: C11_13  and  O3_14 
REMARK    4  A    between atoms: C12_16  and  S1_17 
REMARK    5  A    between atoms: C13_21  and  C14_22 
REMARK    6  A    between atoms: C14_22  and  O7_25 
REMARK    7  A    between atoms: C17_27  and  O8_28 
REMARK    8  A    between atoms: O8_28  and  C18_29 
ROOT
HETATM    1  C3  UNL     1      23.831  13.516  23.884  1.00  0.00     0.147 C 
HETATM    2  C4  UNL     1      24.201  13.068  22.482  1.00  0.00     0.034 C 
HETATM    3  C5  UNL     1      23.156  12.414  21.691  1.00  0.00     0.012 C 
HETATM    4  C6  UNL     1      21.905  12.012  22.402  1.00  0.00    -0.036 C 
HETATM    5  C7  UNL     1      20.831  11.999  21.283  1.00  0.00     0.015 C 
HETATM    6  C8  UNL     1      22.071  10.509  22.681  1.00  0.00     0.015 C 
HETATM    7  C9  UNL     1      21.479  12.808  23.584  1.00  0.00     0.010 C 
HETATM    8  C10 UNL     1      20.211  13.551  23.148  1.00  0.00     0.020 C 
HETATM    9  C11 UNL     1      21.055  11.915  24.692  1.00  0.00     0.176 C 
HETATM   10  C12 UNL     1      20.443  12.751  25.833  1.00  0.00     0.099 C 
HETATM   11  C13 UNL     1      21.385  13.688  26.431  1.00  0.00     0.029 C 
HETATM   12  C17 UNL     1      22.033  14.526  25.368  1.00  0.00     0.079 C 
HETATM   13  C20 UNL     1      22.395  13.926  24.033  1.00  0.00     0.044 C 
HETATM   14  C21 UNL     1      22.286  15.098  23.034  1.00  0.00     0.026 C 
ENDROOT
BRANCH  11  15
HETATM   15  C14 UNL     1      22.116  13.407  27.681  1.00  0.00     0.081 C 
HETATM   16  C15 UNL     1      23.425  14.145  27.876  1.00  0.00     0.051 C 
HETATM   17  C16 UNL     1      21.361  13.912  28.944  1.00  0.00     0.051 C 
BRANCH  15  18
HETATM   18  O7  UNL     1      22.397  12.084  27.975  1.00  0.00    -0.386 OA
ATOM     19  H7  UNL     1      22.932  11.600  27.357  1.00  0.00     0.211 HD
ENDBRANCH  15  18
ENDBRANCH  11  15
BRANCH  10  20
HETATM   20  S1  UNL     1      19.406  11.698  26.741  1.00  0.00     0.137 S 
HETATM   21  O4  UNL     1      18.344  12.336  27.561  1.00  0.00    -0.591 OA
HETATM   22  O5  UNL     1      18.527  10.937  25.689  1.00  0.00    -0.591 OA
HETATM   23  O6  UNL     1      20.163  10.391  27.471  1.00  0.00    -0.591 OA
ENDBRANCH  10  20
BRANCH  12  24
HETATM   24  O8  UNL     1      21.468  15.805  25.235  1.00  0.00    -0.282 OA
BRANCH  24  25
HETATM   25  C18 UNL     1      20.606  16.529  25.923  1.00  0.00     0.259 C 
HETATM   26  C19 UNL     1      21.017  17.361  27.079  1.00  0.00     0.126 C 
HETATM   27  O9  UNL     1      19.424  16.483  25.561  1.00  0.00    -0.265 OA
ENDBRANCH  24  25
ENDBRANCH  12  24
BRANCH   9  28
HETATM   28  O3  UNL     1      21.849  11.012  25.236  1.00  0.00    -0.389 OA
ATOM     29  H3  UNL     1      21.876  10.105  24.955  1.00  0.00     0.210 HD
ENDBRANCH   9  28
BRANCH   1  30
HETATM   30  O2  UNL     1      24.578  14.735  24.153  1.00  0.00    -0.315 OA
BRANCH  30  31
HETATM   31  C2  UNL     1      25.602  14.809  25.047  1.00  0.00     0.255 C 
HETATM   32  C1  UNL     1      25.936  15.985  25.879  1.00  0.00     0.126 C 
HETATM   33  O1  UNL     1      26.323  13.784  25.172  1.00  0.00    -0.266 OA
ENDBRANCH  30  31
ENDBRANCH   1  30
TORSDOF 8
ENDMDL
MODEL 3
REMARK VINA RESULT: -6.870598359      3.916      7.236
REMARK  8 active torsions:
REMARK  status: ('A' for Active; 'I' for Inactive)
REMARK    1  A    between atoms: C2_2  and  O2_4 
REMARK    2  A    between atoms: O2_4  and  C3_5 
REMARK    3  A    between atoms: C11_13  and  O3_14 
REMARK    4  A    between atoms: C12_16  and  S1_17 
REMARK    5  A    between atoms: C13_21  and  C14_22 
REMARK    6  A    between atoms: C14_22  and  O7_25 
REMARK    7  A    between atoms: C17_27  and  O8_28 
REMARK    8  A    between atoms: O8_28  and  C18_29 
ROOT
HETATM    1  C3  UNL     1      19.860  11.949  21.631  1.00  0.00     0.147 C 
HETATM    2  C4  UNL     1      20.135  11.136  20.379  1.00  0.00     0.034 C 
HETATM    3  C5  UNL     1      21.492  10.611  20.207  1.00  0.00     0.012 C 
HETATM    4  C6  UNL     1      22.550  11.122  21.131  1.00  0.00    -0.036 C 
HETATM    5  C7  UNL     1      23.597   9.978  21.162  1.00  0.00     0.015 C 
HETATM    6  C8  UNL     1      23.297  12.196  20.323  1.00  0.00     0.015 C 
HETATM    7  C9  UNL     1      22.146  11.556  22.494  1.00  0.00     0.010 C 
HETATM    8  C10 UNL     1      22.737  10.516  23.452  1.00  0.00     0.020 C 
HETATM    9  C11 UNL     1      22.800  12.840  22.850  1.00  0.00     0.176 C 
HETATM   10  C12 UNL     1      22.520  13.178  24.328  1.00  0.00     0.099 C 
HETATM   11  C13 UNL     1      21.106  13.371  24.618  1.00  0.00     0.029 C 
HETATM   12  C17 UNL     1      20.306  12.203  24.119  1.00  0.00     0.079 C 
HETATM   13  C20 UNL     1      20.668  11.525  22.822  1.00  0.00     0.044 C 
HETATM   14  C21 UNL     1      20.225  10.057  23.010  1.00  0.00     0.026 C 
ENDROOT
BRANCH  11  15
HETATM   15  C14 UNL     1      20.474  14.702  24.698  1.00  0.00     0.081 C 
HETATM   16  C15 UNL     1      18.971  14.747  24.512  1.00  0.00     0.051 C 
HETATM   17  C16 UNL     1      20.561  15.322  26.123  1.00  0.00     0.051 C 
BRANCH  15  18
HETATM   18  O7  UNL     1      20.974  15.698  23.877  1.00  0.00    -0.386 OA
ATOM     19  H7  UNL     1      21.840  15.570  23.509  1.00  0.00     0.211 HD
ENDBRANCH  15  18
ENDBRANCH  11  15
BRANCH  10  20
HETATM   20  S1  UNL     1      23.779  14.248  24.856  1.00  0.00     0.137 S 
HETATM   21  O4  UNL     1      24.151  14.197  26.294  1.00  0.00    -0.591 OA
HETATM   22  O5  UNL     1      25.104  13.719  24.206  1.00  0.00    -0.591 OA
HETATM   23  O6  UNL     1      23.740  15.790  24.199  1.00  0.00    -0.591 OA
ENDBRANCH  10  20
BRANCH  12  24
HETATM   24  O8  UNL     1      19.971  11.277  25.121  1.00  0.00    -0.282 OA
BRANCH  24  25
HETATM   25  C18 UNL     1      19.493  11.353  26.348  1.00  0.00     0.259 C 
HETATM   26  C19 UNL     1      20.296  10.973  27.536  1.00  0.00     0.126 C 
HETATM   27  O9  UNL     1      18.331  11.759  26.471  1.00  0.00    -0.265 OA
ENDBRANCH  24  25
ENDBRANCH  12  24
BRANCH   9  28
HETATM   28  O3  UNL     1      22.646  13.948  22.149  1.00  0.00    -0.389 OA
ATOM     29  H3  UNL     1      23.088  14.762  22.359  1.00  0.00     0.210 HD
ENDBRANCH   9  28
BRANCH   1  30
HETATM   30  O2  UNL     1      18.485  11.679  22.021  1.00  0.00    -0.315 OA
BRANCH  30  31
HETATM   31  C2  UNL     1      17.516  11.296  21.145  1.00  0.00     0.255 C 
HETATM   32  C1  UNL     1      17.350   9.937  20.584  1.00  0.00     0.126 C 
HETATM   33  O1  UNL     1      16.693  12.178  20.784  1.00  0.00    -0.266 OA
ENDBRANCH  30  31
ENDBRANCH   1  30
TORSDOF 8
ENDMDL
MODEL 4
REMARK VINA RESULT: -6.815505453      2.300      5.431
REMARK  8 active torsions:
REMARK  status: ('A' for Active; 'I' for Inactive)
REMARK    1  A    between atoms: C2_2  and  O2_4 
REMARK    2  A    between atoms: O2_4  and  C3_5 
REMARK    3  A    between atoms: C11_13  and  O3_14 
REMARK    4  A    between atoms: C12_16  and  S1_17 
REMARK    5  A    between atoms: C13_21  and  C14_22 
REMARK    6  A    between atoms: C14_22  and  O7_25 
REMARK    7  A    between atoms: C17_27  and  O8_28 
REMARK    8  A    between atoms: O8_28  and  C18_29 
ROOT
HETATM    1  C3  UNL     1      27.492  15.301  19.908  1.00  0.00     0.147 C 
HETATM    2  C4  UNL     1      27.917  16.489  20.752  1.00  0.00     0.034 C 
HETATM    3  C5  UNL     1      27.622  16.431  22.186  1.00  0.00     0.012 C 
HETATM    4  C6  UNL     1      26.711  15.344  22.657  1.00  0.00    -0.036 C 
HETATM    5  C7  UNL     1      27.119  15.138  24.140  1.00  0.00     0.015 C 
HETATM    6  C8  UNL     1      25.337  16.017  22.811  1.00  0.00     0.015 C 
HETATM    7  C9  UNL     1      26.683  14.068  21.896  1.00  0.00     0.010 C 
HETATM    8  C10 UNL     1      27.330  13.024  22.813  1.00  0.00     0.020 C 
HETATM    9  C11 UNL     1      25.286  13.608  21.694  1.00  0.00     0.176 C 
HETATM   10  C12 UNL     1      25.283  12.199  21.072  1.00  0.00     0.099 C 
HETATM   11  C13 UNL     1      25.900  12.149  19.753  1.00  0.00     0.029 C 
HETATM   12  C17 UNL     1      27.264  12.773  19.791  1.00  0.00     0.079 C 
HETATM   13  C20 UNL     1      27.526  13.991  20.640  1.00  0.00     0.044 C 
HETATM   14  C21 UNL     1      29.014  13.879  21.039  1.00  0.00     0.026 C 
ENDROOT
BRANCH  11  15
HETATM   15  C14 UNL     1      25.123  12.176  18.499  1.00  0.00     0.081 C 
HETATM   16  C15 UNL     1      25.875  12.587  17.249  1.00  0.00     0.051 C 
HETATM   17  C16 UNL     1      24.661  10.760  18.049  1.00  0.00     0.051 C 
BRANCH  15  18
HETATM   18  O7  UNL     1      23.957  12.921  18.485  1.00  0.00    -0.386 OA
ATOM     19  H7  UNL     1      23.971  13.769  18.912  1.00  0.00     0.211 HD
ENDBRANCH  15  18
ENDBRANCH  11  15
BRANCH  10  20
HETATM   20  S1  UNL     1      23.760  11.468  21.464  1.00  0.00     0.137 S 
HETATM   21  O4  UNL     1      23.745   9.994  21.656  1.00  0.00    -0.591 OA
HETATM   22  O5  UNL     1      23.409  11.942  22.917  1.00  0.00    -0.591 OA
HETATM   23  O6  UNL     1      22.432  12.079  20.641  1.00  0.00    -0.591 OA
ENDBRANCH  10  20
BRANCH  12  24
HETATM   24  O8  UNL     1      28.311  11.841  19.871  1.00  0.00    -0.282 OA
BRANCH  24  25
HETATM   25  C18 UNL     1      28.398  10.525  19.888  1.00  0.00     0.259 C 
HETATM   26  C19 UNL     1      28.425   9.750  21.153  1.00  0.00     0.126 C 
HETATM   27  O9  UNL     1      28.457   9.954  18.793  1.00  0.00    -0.265 OA
ENDBRANCH  24  25
ENDBRANCH  12  24
BRANCH   9  28
HETATM   28  O3  UNL     1      24.372  14.326  21.067  1.00  0.00    -0.389 OA
ATOM     29  H3  UNL     1      23.509  14.496  21.425  1.00  0.00     0.210 HD
ENDBRANCH   9  28
BRANCH   1  30
HETATM   30  O2  UNL     1      28.487  15.147  18.858  1.00  0.00    -0.315 OA
BRANCH  30  31
HETATM   31  C2  UNL     1      28.495  15.885  17.715  1.00  0.00     0.255 C 
HETATM   32  C1  UNL     1      27.304  16.251  16.918  1.00  0.00     0.126 C 
HETATM   33  O1  UNL     1      29.616  16.289  17.306  1.00  0.00    -0.266 OA
ENDBRANCH  30  31
ENDBRANCH   1  30
TORSDOF 8
ENDMDL
MODEL 5
REMARK VINA RESULT: -6.800772444      4.498      7.441
REMARK  8 active torsions:
REMARK  status: ('A' for Active; 'I' for Inactive)
REMARK    1  A    between atoms: C2_2  and  O2_4 
REMARK    2  A    between atoms: O2_4  and  C3_5 
REMARK    3  A    between atoms: C11_13  and  O3_14 
REMARK    4  A    between atoms: C12_16  and  S1_17 
REMARK    5  A    between atoms: C13_21  and  C14_22 
REMARK    6  A    between atoms: C14_22  and  O7_25 
REMARK    7  A    between atoms: C17_27  and  O8_28 
REMARK    8  A    between atoms: O8_28  and  C18_29 
ROOT
HETATM    1  C3  UNL     1      22.546  14.116  26.299  1.00  0.00     0.147 C 
HETATM    2  C4  UNL     1      23.960  14.650  26.165  1.00  0.00     0.034 C 
HETATM    3  C5  UNL     1      24.460  14.884  24.808  1.00  0.00     0.012 C 
HETATM    4  C6  UNL     1      23.651  14.346  23.673  1.00  0.00    -0.036 C 
HETATM    5  C7  UNL     1      24.022  15.269  22.484  1.00  0.00     0.015 C 
HETATM    6  C8  UNL     1      24.350  13.037  23.272  1.00  0.00     0.015 C 
HETATM    7  C9  UNL     1      22.180  14.220  23.854  1.00  0.00     0.010 C 
HETATM    8  C10 UNL     1      21.558  15.277  22.934  1.00  0.00     0.020 C 
HETATM    9  C11 UNL     1      21.699  12.913  23.339  1.00  0.00     0.176 C 
HETATM   10  C12 UNL     1      20.158  12.877  23.362  1.00  0.00     0.099 C 
HETATM   11  C13 UNL     1      19.598  12.995  24.702  1.00  0.00     0.029 C 
HETATM   12  C17 UNL     1      20.170  14.193  25.403  1.00  0.00     0.079 C 
HETATM   13  C20 UNL     1      21.616  14.573  25.214  1.00  0.00     0.044 C 
HETATM   14  C21 UNL     1      21.644  16.108  25.387  1.00  0.00     0.026 C 
ENDROOT
BRANCH  11  15
HETATM   15  C14 UNL     1      19.154  11.833  25.494  1.00  0.00     0.081 C 
HETATM   16  C15 UNL     1      18.858  12.089  26.958  1.00  0.00     0.051 C 
HETATM   17  C16 UNL     1      17.759  11.304  25.053  1.00  0.00     0.051 C 
BRANCH  15  18
HETATM   18  O7  UNL     1      19.953  10.703  25.476  1.00  0.00    -0.386 OA
ATOM     19  H7  UNL     1      20.341  10.426  26.297  1.00  0.00     0.211 HD
ENDBRANCH  15  18
ENDBRANCH  11  15
BRANCH  10  20
HETATM   20  S1  UNL     1      19.656  11.696  22.196  1.00  0.00     0.137 S 
HETATM   21  O4  UNL     1      18.326  11.894  21.563  1.00  0.00    -0.591 OA
HETATM   22  O5  UNL     1      20.589  11.888  20.951  1.00  0.00    -0.591 OA
HETATM   23  O6  UNL     1      20.019  10.104  22.577  1.00  0.00    -0.591 OA
ENDBRANCH  10  20
BRANCH  12  24
HETATM   24  O8  UNL     1      19.324  15.314  25.389  1.00  0.00    -0.282 OA
BRANCH  24  25
HETATM   25  C18 UNL     1      18.092  15.557  24.984  1.00  0.00     0.259 C 
HETATM   26  C19 UNL     1      16.907  14.996  25.679  1.00  0.00     0.126 C 
HETATM   27  O9  UNL     1      17.962  16.279  23.989  1.00  0.00    -0.265 OA
ENDBRANCH  24  25
ENDBRANCH  12  24
BRANCH   9  28
HETATM   28  O3  UNL     1      22.135  11.753  23.794  1.00  0.00    -0.389 OA
ATOM     29  H3  UNL     1      22.604  11.660  24.614  1.00  0.00     0.210 HD
ENDBRANCH   9  28
BRANCH   1  30
HETATM   30  O2  UNL     1      21.986  14.692  27.512  1.00  0.00    -0.315 OA
BRANCH  30  31
HETATM   31  C2  UNL     1      21.663  13.960  28.613  1.00  0.00     0.255 C 
HETATM   32  C1  UNL     1      21.792  12.492  28.739  1.00  0.00     0.126 C 
HETATM   33  O1  UNL     1      21.217  14.593  29.607  1.00  0.00    -0.266 OA
ENDBRANCH  30  31
ENDBRANCH   1  30
TORSDOF 8
ENDMDL
