MODEL 1
REMARK VINA RESULT: -8.109367356      0.000      0.000
REMARK  8 active torsions:
REMARK  status: ('A' for Active; 'I' for Inactive)
REMARK    1  A    between atoms: C2_2  and  O2_4 
REMARK    2  A    between atoms: O2_4  and  C3_5 
REMARK    3  A    between atoms: C13_16  and  O4_17 
REMARK    4  A    between atoms: O4_17  and  C14_18 
REMARK    5  A    between atoms: C17_22  and  O6_23 
REMARK    6  A    between atoms: C19_26  and  O7_27 
REMARK    7  A    between atoms: O7_27  and  C20_28 
REMARK    8  A    between atoms: C22_31  and  O9_33 
ROOT
HETATM    1  C3  UNL     1      18.477  13.420  25.230  1.00  0.00     0.166 C 
HETATM    2  C4  UNL     1      18.440  12.856  26.577  1.00  0.00     0.078 C 
HETATM    3  C5  UNL     1      19.625  12.889  27.438  1.00  0.00     0.092 A 
HETATM    4  C6  UNL     1      19.366  13.684  28.747  1.00  0.00     0.049 C 
HETATM    5  O3  UNL     1      20.074  11.550  27.977  1.00  0.00    -0.364 OA
HETATM    6  C7  UNL     1      20.895  12.535  27.178  1.00  0.00     0.089 A 
HETATM    7  C8  UNL     1      22.002  13.156  28.070  1.00  0.00     0.049 C 
HETATM    8  C9  UNL     1      21.497  11.787  26.084  1.00  0.00     0.045 C 
HETATM    9  C10 UNL     1      20.637  11.233  24.995  1.00  0.00     0.041 C 
HETATM   10  C11 UNL     1      20.258  12.259  23.937  1.00  0.00    -0.036 C 
HETATM   11  C12 UNL     1      18.781  12.555  24.034  1.00  0.00    -0.015 C 
HETATM   12  C13 UNL     1      17.823  11.509  23.688  1.00  0.00     0.170 C 
HETATM   13  C16 UNL     1      18.481  10.674  22.600  1.00  0.00     0.058 A 
HETATM   14  C17 UNL     1      17.957  10.422  21.291  1.00  0.00     0.132 A 
HETATM   15  C18 UNL     1      18.677  11.687  21.498  1.00  0.00     0.057 A 
HETATM   16  C19 UNL     1      20.157  11.857  21.384  1.00  0.00     0.177 C 
HETATM   17  C22 UNL     1      20.897  12.131  22.640  1.00  0.00     0.105 C 
HETATM   18  C23 UNL     1      22.037  11.087  22.683  1.00  0.00     0.053 C 
ENDROOT
BRANCH   1  19
HETATM   19  O2  UNL     1      17.354  14.241  24.924  1.00  0.00    -0.312 OA
BRANCH  19  20
HETATM   20  C2  UNL     1      17.404  15.517  24.450  1.00  0.00     0.255 C 
HETATM   21  C1  UNL     1      16.197  16.270  24.066  1.00  0.00     0.126 C 
HETATM   22  O1  UNL     1      18.524  16.064  24.341  1.00  0.00    -0.266 OA
ENDBRANCH  19  20
ENDBRANCH   1  19
BRANCH  12  23
HETATM   23  O4  UNL     1      17.372  10.599  24.600  1.00  0.00    -0.311 OA
BRANCH  23  24
HETATM   24  C14 UNL     1      16.068  10.151  24.593  1.00  0.00     0.255 C 
HETATM   25  C15 UNL     1      15.724   8.736  24.286  1.00  0.00     0.126 C 
HETATM   26  O5  UNL     1      15.176  10.994  24.857  1.00  0.00    -0.266 OA
ENDBRANCH  23  24
ENDBRANCH  12  23
BRANCH  17  27
HETATM   27  O9  UNL     1      21.688  13.289  22.334  1.00  0.00    -0.383 OA
ATOM     28  H9  UNL     1      22.022  13.252  21.445  1.00  0.00     0.211 HD
ENDBRANCH  17  27
BRANCH  16  29
HETATM   29  O7  UNL     1      20.613  10.668  20.713  1.00  0.00    -0.312 OA
BRANCH  29  30
HETATM   30  C20 UNL     1      21.058  10.643  19.411  1.00  0.00     0.255 C 
HETATM   31  C21 UNL     1      22.397  11.039  18.969  1.00  0.00     0.126 C 
HETATM   32  O8  UNL     1      20.240  10.243  18.527  1.00  0.00    -0.266 OA
ENDBRANCH  29  30
ENDBRANCH  16  29
BRANCH  14  33
HETATM   33  O6  UNL     1      16.606  10.468  20.961  1.00  0.00    -0.395 OA
ATOM     34  H6  UNL     1      16.268  10.750  20.118  1.00  0.00     0.210 HD
ENDBRANCH  14  33
TORSDOF 8
ENDMDL
MODEL 2
REMARK VINA RESULT: -7.938282950      5.224      8.972
REMARK  8 active torsions:
REMARK  status: ('A' for Active; 'I' for Inactive)
REMARK    1  A    between atoms: C2_2  and  O2_4 
REMARK    2  A    between atoms: O2_4  and  C3_5 
REMARK    3  A    between atoms: C13_16  and  O4_17 
REMARK    4  A    between atoms: O4_17  and  C14_18 
REMARK    5  A    between atoms: C17_22  and  O6_23 
REMARK    6  A    between atoms: C19_26  and  O7_27 
REMARK    7  A    between atoms: O7_27  and  C20_28 
REMARK    8  A    between atoms: C22_31  and  O9_33 
ROOT
HETATM    1  C3  UNL     1      24.164  12.477  22.354  1.00  0.00     0.166 C 
HETATM    2  C4  UNL     1      23.508  12.850  21.103  1.00  0.00     0.078 C 
HETATM    3  C5  UNL     1      24.101  12.496  19.811  1.00  0.00     0.092 A 
HETATM    4  C6  UNL     1      23.161  11.587  18.974  1.00  0.00     0.049 C 
HETATM    5  O3  UNL     1      24.332  13.651  18.864  1.00  0.00    -0.364 OA
HETATM    6  C7  UNL     1      25.357  12.658  19.360  1.00  0.00     0.089 A 
HETATM    7  C8  UNL     1      25.818  11.739  18.198  1.00  0.00     0.049 C 
HETATM    8  C9  UNL     1      26.483  13.433  19.860  1.00  0.00     0.045 C 
HETATM    9  C10 UNL     1      26.328  14.271  21.087  1.00  0.00     0.041 C 
HETATM   10  C11 UNL     1      26.441  13.480  22.382  1.00  0.00    -0.036 C 
HETATM   11  C12 UNL     1      25.092  13.432  23.059  1.00  0.00    -0.015 C 
HETATM   12  C13 UNL     1      24.524  14.665  23.597  1.00  0.00     0.170 C 
HETATM   13  C16 UNL     1      25.703  15.515  24.047  1.00  0.00     0.058 A 
HETATM   14  C17 UNL     1      25.923  16.029  25.365  1.00  0.00     0.132 A 
HETATM   15  C18 UNL     1      26.336  14.643  25.105  1.00  0.00     0.057 A 
HETATM   16  C19 UNL     1      27.657  14.238  24.535  1.00  0.00     0.177 C 
HETATM   17  C22 UNL     1      27.649  13.671  23.164  1.00  0.00     0.105 C 
HETATM   18  C23 UNL     1      28.699  14.487  22.376  1.00  0.00     0.053 C 
ENDROOT
BRANCH   1  19
HETATM   19  O2  UNL     1      23.278  11.912  23.316  1.00  0.00    -0.312 OA
BRANCH  19  20
HETATM   20  C2  UNL     1      22.823  10.628  23.323  1.00  0.00     0.255 C 
HETATM   21  C1  UNL     1      21.748  10.172  24.222  1.00  0.00     0.126 C 
HETATM   22  O1  UNL     1      23.342   9.811  22.532  1.00  0.00    -0.266 OA
ENDBRANCH  19  20
ENDBRANCH   1  19
BRANCH  12  23
HETATM   23  O4  UNL     1      23.757  15.506  22.844  1.00  0.00    -0.311 OA
BRANCH  23  24
HETATM   24  C14 UNL     1      22.650  16.140  23.366  1.00  0.00     0.255 C 
HETATM   25  C15 UNL     1      21.277  15.590  23.199  1.00  0.00     0.126 C 
HETATM   26  O5  UNL     1      22.849  17.209  23.993  1.00  0.00    -0.266 OA
ENDBRANCH  23  24
ENDBRANCH  12  23
BRANCH  17  27
HETATM   27  O9  UNL     1      28.388  12.447  23.288  1.00  0.00    -0.383 OA
ATOM     28  H9  UNL     1      28.351  12.111  24.176  1.00  0.00     0.211 HD
ENDBRANCH  17  27
BRANCH  16  29
HETATM   29  O7  UNL     1      28.483  15.411  24.652  1.00  0.00    -0.312 OA
BRANCH  29  30
HETATM   30  C20 UNL     1      29.483  15.556  25.586  1.00  0.00     0.255 C 
HETATM   31  C21 UNL     1      30.649  16.431  25.444  1.00  0.00     0.126 C 
HETATM   32  O8  UNL     1      29.383  14.877  26.653  1.00  0.00    -0.266 OA
ENDBRANCH  29  30
ENDBRANCH  16  29
BRANCH  14  33
HETATM   33  O6  UNL     1      24.916  16.262  26.298  1.00  0.00    -0.395 OA
ATOM     34  H6  UNL     1      24.832  15.802  27.125  1.00  0.00     0.210 HD
ENDBRANCH  14  33
TORSDOF 8
ENDMDL
MODEL 3
REMARK VINA RESULT: -7.914747816      4.970      8.657
REMARK  8 active torsions:
REMARK  status: ('A' for Active; 'I' for Inactive)
REMARK    1  A    between atoms: C2_2  and  O2_4 
REMARK    2  A    between atoms: O2_4  and  C3_5 
REMARK    3  A    between atoms: C13_16  and  O4_17 
REMARK    4  A    between atoms: O4_17  and  C14_18 
REMARK    5  A    between atoms: C17_22  and  O6_23 
REMARK    6  A    between atoms: C19_26  and  O7_27 
REMARK    7  A    between atoms: O7_27  and  C20_28 
REMARK    8  A    between atoms: C22_31  and  O9_33 
ROOT
HETATM    1  C3  UNL     1      27.191  12.980  21.897  1.00  0.00     0.166 C 
HETATM    2  C4  UNL     1      27.574  14.351  22.226  1.00  0.00     0.078 C 
HETATM    3  C5  UNL     1      27.170  14.958  23.496  1.00  0.00     0.092 A 
HETATM    4  C6  UNL     1      28.397  15.376  24.353  1.00  0.00     0.049 C 
HETATM    5  O3  UNL     1      26.419  16.265  23.382  1.00  0.00    -0.364 OA
HETATM    6  C7  UNL     1      25.965  15.009  24.089  1.00  0.00     0.089 A 
HETATM    7  C8  UNL     1      25.936  15.239  25.623  1.00  0.00     0.049 C 
HETATM    8  C9  UNL     1      24.624  14.717  23.603  1.00  0.00     0.045 C 
HETATM    9  C10 UNL     1      24.418  14.297  22.184  1.00  0.00     0.041 C 
HETATM   10  C11 UNL     1      24.708  12.824  21.937  1.00  0.00    -0.036 C 
HETATM   11  C12 UNL     1      25.951  12.693  21.091  1.00  0.00    -0.015 C 
HETATM   12  C13 UNL     1      25.917  13.152  19.705  1.00  0.00     0.170 C 
HETATM   13  C16 UNL     1      24.494  12.924  19.217  1.00  0.00     0.058 A 
HETATM   14  C17 UNL     1      24.102  12.136  18.087  1.00  0.00     0.132 A 
HETATM   15  C18 UNL     1      24.350  11.427  19.349  1.00  0.00     0.057 A 
HETATM   16  C19 UNL     1      23.339  11.228  20.431  1.00  0.00     0.177 C 
HETATM   17  C22 UNL     1      23.565  11.961  21.701  1.00  0.00     0.105 C 
HETATM   18  C23 UNL     1      22.239  12.703  21.989  1.00  0.00     0.053 C 
ENDROOT
BRANCH   1  19
HETATM   19  O2  UNL     1      28.262  12.197  21.379  1.00  0.00    -0.312 OA
BRANCH  19  20
HETATM   20  C2  UNL     1      28.705  11.015  21.889  1.00  0.00     0.255 C 
HETATM   21  C1  UNL     1      28.480   9.724  21.215  1.00  0.00     0.126 C 
HETATM   22  O1  UNL     1      29.329  11.035  22.974  1.00  0.00    -0.266 OA
ENDBRANCH  19  20
ENDBRANCH   1  19
BRANCH  12  23
HETATM   23  O4  UNL     1      26.203  14.439  19.353  1.00  0.00    -0.311 OA
BRANCH  23  24
HETATM   24  C14 UNL     1      27.067  14.734  18.320  1.00  0.00     0.255 C 
HETATM   25  C15 UNL     1      28.405  15.340  18.562  1.00  0.00     0.126 C 
HETATM   26  O5  UNL     1      26.675  14.468  17.157  1.00  0.00    -0.266 OA
ENDBRANCH  23  24
ENDBRANCH  12  23
BRANCH  17  27
HETATM   27  O9  UNL     1      23.459  10.948  22.712  1.00  0.00    -0.383 OA
ATOM     28  H9  UNL     1      22.747  10.348  22.526  1.00  0.00     0.211 HD
ENDBRANCH  17  27
BRANCH  16  29
HETATM   29  O7  UNL     1      22.076  11.546  19.817  1.00  0.00    -0.312 OA
BRANCH  29  30
HETATM   30  C20 UNL     1      21.054  10.641  19.649  1.00  0.00     0.255 C 
HETATM   31  C21 UNL     1      20.273  10.467  18.422  1.00  0.00     0.126 C 
HETATM   32  O8  UNL     1      20.768   9.900  20.638  1.00  0.00    -0.266 OA
ENDBRANCH  29  30
ENDBRANCH  16  29
BRANCH  14  33
HETATM   33  O6  UNL     1      24.920  11.863  16.994  1.00  0.00    -0.395 OA
ATOM     34  H6  UNL     1      24.643  11.923  16.087  1.00  0.00     0.210 HD
ENDBRANCH  14  33
TORSDOF 8
ENDMDL
MODEL 4
REMARK VINA RESULT: -7.904016372      1.404      1.672
REMARK  8 active torsions:
REMARK  status: ('A' for Active; 'I' for Inactive)
REMARK    1  A    between atoms: C2_2  and  O2_4 
REMARK    2  A    between atoms: O2_4  and  C3_5 
REMARK    3  A    between atoms: C13_16  and  O4_17 
REMARK    4  A    between atoms: O4_17  and  C14_18 
REMARK    5  A    between atoms: C17_22  and  O6_23 
REMARK    6  A    between atoms: C19_26  and  O7_27 
REMARK    7  A    between atoms: O7_27  and  C20_28 
REMARK    8  A    between atoms: C22_31  and  O9_33 
ROOT
HETATM    1  C3  UNL     1      18.643  13.523  24.134  1.00  0.00     0.166 C 
HETATM    2  C4  UNL     1      18.905  13.280  25.550  1.00  0.00     0.078 C 
HETATM    3  C5  UNL     1      20.275  13.270  26.069  1.00  0.00     0.092 A 
HETATM    4  C6  UNL     1      20.491  14.363  27.151  1.00  0.00     0.049 C 
HETATM    5  O3  UNL     1      20.678  12.019  26.815  1.00  0.00    -0.364 OA
HETATM    6  C7  UNL     1      21.368  12.631  25.618  1.00  0.00     0.089 A 
HETATM    7  C8  UNL     1      22.748  13.206  26.032  1.00  0.00     0.049 C 
HETATM    8  C9  UNL     1      21.544  11.564  24.644  1.00  0.00     0.045 C 
HETATM    9  C10 UNL     1      20.354  10.963  23.970  1.00  0.00     0.041 C 
HETATM   10  C11 UNL     1      19.834  11.790  22.803  1.00  0.00    -0.036 C 
HETATM   11  C12 UNL     1      18.491  12.378  23.165  1.00  0.00    -0.015 C 
HETATM   12  C13 UNL     1      17.348  11.486  23.337  1.00  0.00     0.170 C 
HETATM   13  C16 UNL     1      17.568  10.325  22.378  1.00  0.00     0.058 A 
HETATM   14  C17 UNL     1      16.677   9.902  21.340  1.00  0.00     0.132 A 
HETATM   15  C18 UNL     1      17.582  11.019  21.038  1.00  0.00     0.057 A 
HETATM   16  C19 UNL     1      18.984  10.873  20.539  1.00  0.00     0.177 C 
HETATM   17  C22 UNL     1      20.070  11.265  21.470  1.00  0.00     0.105 C 
HETATM   18  C23 UNL     1      21.032  10.056  21.511  1.00  0.00     0.053 C 
ENDROOT
BRANCH   1  19
HETATM   19  O2  UNL     1      17.595  14.458  23.899  1.00  0.00    -0.312 OA
BRANCH  19  20
HETATM   20  C2  UNL     1      17.382  15.609  24.596  1.00  0.00     0.255 C 
HETATM   21  C1  UNL     1      16.257  15.772  25.535  1.00  0.00     0.126 C 
HETATM   22  O1  UNL     1      18.177  16.559  24.428  1.00  0.00    -0.266 OA
ENDBRANCH  19  20
ENDBRANCH   1  19
BRANCH  12  23
HETATM   23  O4  UNL     1      17.052  10.898  24.532  1.00  0.00    -0.311 OA
BRANCH  23  24
HETATM   24  C14 UNL     1      15.828  10.309  24.766  1.00  0.00     0.255 C 
HETATM   25  C15 UNL     1      15.650   8.831  24.749  1.00  0.00     0.126 C 
HETATM   26  O5  UNL     1      14.861  11.076  24.995  1.00  0.00    -0.266 OA
ENDBRANCH  23  24
ENDBRANCH  12  23
BRANCH  17  27
HETATM   27  O9  UNL     1      20.888  12.155  20.698  1.00  0.00    -0.383 OA
ATOM     28  H9  UNL     1      20.746  13.060  20.950  1.00  0.00     0.211 HD
ENDBRANCH  17  27
BRANCH  16  29
HETATM   29  O7  UNL     1      19.080   9.502  20.110  1.00  0.00    -0.312 OA
BRANCH  29  30
HETATM   30  C20 UNL     1      18.978   9.098  18.799  1.00  0.00     0.255 C 
HETATM   31  C21 UNL     1      18.326   7.870  18.342  1.00  0.00     0.126 C 
HETATM   32  O8  UNL     1      19.492   9.854  17.919  1.00  0.00    -0.266 OA
ENDBRANCH  29  30
ENDBRANCH  16  29
BRANCH  14  33
HETATM   33  O6  UNL     1      15.305  10.134  21.337  1.00  0.00    -0.395 OA
ATOM     34  H6  UNL     1      14.904  10.990  21.234  1.00  0.00     0.210 HD
ENDBRANCH  14  33
TORSDOF 8
ENDMDL
MODEL 5
REMARK VINA RESULT: -7.884869714      1.963      5.823
REMARK  8 active torsions:
REMARK  status: ('A' for Active; 'I' for Inactive)
REMARK    1  A    between atoms: C2_2  and  O2_4 
REMARK    2  A    between atoms: O2_4  and  C3_5 
REMARK    3  A    between atoms: C13_16  and  O4_17 
REMARK    4  A    between atoms: O4_17  and  C14_18 
REMARK    5  A    between atoms: C17_22  and  O6_23 
REMARK    6  A    between atoms: C19_26  and  O7_27 
REMARK    7  A    between atoms: O7_27  and  C20_28 
REMARK    8  A    between atoms: C22_31  and  O9_33 
ROOT
HETATM    1  C3  UNL     1      18.066  10.459  23.324  1.00  0.00     0.166 C 
HETATM    2  C4  UNL     1      17.225  10.664  22.147  1.00  0.00     0.078 C 
HETATM    3  C5  UNL     1      17.605  10.106  20.847  1.00  0.00     0.092 A 
HETATM    4  C6  UNL     1      16.538   9.112  20.312  1.00  0.00     0.049 C 
HETATM    5  O3  UNL     1      17.692  11.101  19.713  1.00  0.00    -0.364 OA
HETATM    6  C7  UNL     1      18.775  10.160  20.189  1.00  0.00     0.089 A 
HETATM    7  C8  UNL     1      19.041   9.067  19.121  1.00  0.00     0.049 C 
HETATM    8  C9  UNL     1      19.971  10.965  20.387  1.00  0.00     0.045 C 
HETATM    9  C10 UNL     1      20.017  11.979  21.483  1.00  0.00     0.041 C 
HETATM   10  C11 UNL     1      20.326  11.384  22.849  1.00  0.00    -0.036 C 
HETATM   11  C12 UNL     1      19.101  11.478  23.726  1.00  0.00    -0.015 C 
HETATM   12  C13 UNL     1      18.633  12.794  24.153  1.00  0.00     0.170 C 
HETATM   13  C16 UNL     1      19.875  13.664  24.283  1.00  0.00     0.058 A 
HETATM   14  C17 UNL     1      20.302  14.359  25.459  1.00  0.00     0.132 A 
HETATM   15  C18 UNL     1      20.659  12.939  25.349  1.00  0.00     0.057 A 
HETATM   16  C19 UNL     1      21.871  12.413  24.650  1.00  0.00     0.177 C 
HETATM   17  C22 UNL     1      21.644  11.652  23.398  1.00  0.00     0.105 C 
HETATM   18  C23 UNL     1      22.562  12.310  22.343  1.00  0.00     0.053 C 
ENDROOT
BRANCH   1  19
HETATM   19  O2  UNL     1      17.338  10.069  24.484  1.00  0.00    -0.312 OA
BRANCH  19  20
HETATM   20  C2  UNL     1      16.016   9.745  24.525  1.00  0.00     0.255 C 
HETATM   21  C1  UNL     1      15.514   8.408  24.163  1.00  0.00     0.126 C 
HETATM   22  O1  UNL     1      15.202  10.623  24.887  1.00  0.00    -0.266 OA
ENDBRANCH  19  20
ENDBRANCH   1  19
BRANCH  12  23
HETATM   23  O4  UNL     1      17.764  13.538  23.410  1.00  0.00    -0.311 OA
BRANCH  23  24
HETATM   24  C14 UNL     1      16.479  13.794  23.838  1.00  0.00     0.255 C 
HETATM   25  C15 UNL     1      16.170  14.098  25.262  1.00  0.00     0.126 C 
HETATM   26  O5  UNL     1      15.572  13.758  22.971  1.00  0.00    -0.266 OA
ENDBRANCH  23  24
ENDBRANCH  12  23
BRANCH  17  27
HETATM   27  O9  UNL     1      22.384  10.437  23.589  1.00  0.00    -0.383 OA
ATOM     28  H9  UNL     1      23.289  10.617  23.815  1.00  0.00     0.211 HD
ENDBRANCH  17  27
BRANCH  16  29
HETATM   29  O7  UNL     1      22.714  13.564  24.461  1.00  0.00    -0.312 OA
BRANCH  29  30
HETATM   30  C20 UNL     1      23.843  13.821  25.205  1.00  0.00     0.255 C 
HETATM   31  C21 UNL     1      23.918  14.756  26.330  1.00  0.00     0.126 C 
HETATM   32  O8  UNL     1      24.901  13.196  24.887  1.00  0.00    -0.266 OA
ENDBRANCH  29  30
ENDBRANCH  16  29
BRANCH  14  33
HETATM   33  O6  UNL     1      19.457  14.759  26.490  1.00  0.00    -0.395 OA
ATOM     34  H6  UNL     1      18.876  14.176  26.966  1.00  0.00     0.210 HD
ENDBRANCH  14  33
TORSDOF 8
ENDMDL
