MODEL 1
REMARK VINA RESULT: -5.556675337      0.000      0.000
REMARK  6 active torsions:
REMARK  status: ('A' for Active; 'I' for Inactive)
REMARK    1  A    between atoms: C2_2  and  O1_3 
REMARK    2  A    between atoms: C2_2  and  C5_6 
REMARK    3  A    between atoms: O1_3  and  C3_4 
REMARK    4  A    between atoms: C6_8  and  C7_9 
REMARK    5  A    between atoms: C10_12  and  O3_14 
REMARK    6  A    between atoms: C13_17  and  O4_18 
ROOT
HETATM    1  C7  UNL     1     -26.669 -17.817  14.146  1.00  0.00    -0.072 C 
HETATM    2  C8  UNL     1     -26.305 -18.514  15.032  1.00  0.00    -0.108 C 
HETATM    3  C9  UNL     1     -25.837 -19.389  16.119  1.00  0.00     0.112 C 
ENDROOT
BRANCH   1   4
HETATM    4  C6  UNL     1     -27.115 -16.976  13.037  1.00  0.00     0.235 C 
HETATM    5  O2  UNL     1     -28.302 -17.454  12.478  1.00  0.00    -0.356 OA
HETATM    6  C5  UNL     1     -28.491 -16.785  11.278  1.00  0.00     0.207 C 
HETATM    7  C13 UNL     1     -28.875 -15.324  11.533  1.00  0.00     0.156 C 
HETATM    8  C12 UNL     1     -27.726 -14.713  12.300  1.00  0.00     0.075 C 
HETATM    9  C10 UNL     1     -27.343 -15.553  13.485  1.00  0.00     0.093 C 
HETATM   10  C11 UNL     1     -26.027 -14.986  14.026  1.00  0.00     0.049 C 
BRANCH   6  11
HETATM   11  C2  UNL     1     -29.537 -17.389  10.439  1.00  0.00     0.068 C 
HETATM   12  C1  UNL     1     -29.490 -17.241   9.135  1.00  0.00     0.049 C 
BRANCH  11  13
HETATM   13  O1  UNL     1     -30.550 -18.097  11.022  1.00  0.00    -0.354 OA
BRANCH  13  14
HETATM   14  C3  UNL     1     -30.666 -19.486  11.055  1.00  0.00     0.171 C 
HETATM   15  C4  UNL     1     -32.159 -19.821  11.013  1.00  0.00     0.034 C 
ENDBRANCH  13  14
ENDBRANCH  11  13
ENDBRANCH   6  11
BRANCH   7  16
HETATM   16  O4  UNL     1     -30.031 -15.299  12.270  1.00  0.00    -0.392 OA
ATOM     17  H4  UNL     1     -29.880 -14.779  13.050  1.00  0.00     0.210 HD
ENDBRANCH   7  16
BRANCH   9  18
HETATM   18  O3  UNL     1     -28.256 -15.470  14.526  1.00  0.00    -0.387 OA
ATOM     19  H3  UNL     1     -28.844 -16.215  14.550  1.00  0.00     0.210 HD
ENDBRANCH   9  18
ENDBRANCH   1   4
TORSDOF 6
ENDMDL
MODEL 2
REMARK VINA RESULT: -5.476838635      2.706      3.253
REMARK  6 active torsions:
REMARK  status: ('A' for Active; 'I' for Inactive)
REMARK    1  A    between atoms: C2_2  and  O1_3 
REMARK    2  A    between atoms: C2_2  and  C5_6 
REMARK    3  A    between atoms: O1_3  and  C3_4 
REMARK    4  A    between atoms: C6_8  and  C7_9 
REMARK    5  A    between atoms: C10_12  and  O3_14 
REMARK    6  A    between atoms: C13_17  and  O4_18 
ROOT
HETATM    1  C7  UNL     1     -25.585 -15.034  10.175  1.00  0.00    -0.072 C 
HETATM    2  C8  UNL     1     -24.420 -15.009   9.963  1.00  0.00    -0.108 C 
HETATM    3  C9  UNL     1     -22.977 -14.977   9.675  1.00  0.00     0.112 C 
ENDROOT
BRANCH   1   4
HETATM    4  C6  UNL     1     -27.025 -15.079  10.418  1.00  0.00     0.235 C 
HETATM    5  O2  UNL     1     -27.502 -16.391  10.425  1.00  0.00    -0.356 OA
HETATM    6  C5  UNL     1     -28.886 -16.328  10.369  1.00  0.00     0.207 C 
HETATM    7  C13 UNL     1     -29.454 -15.820  11.699  1.00  0.00     0.156 C 
HETATM    8  C12 UNL     1     -28.872 -14.442  11.908  1.00  0.00     0.075 C 
HETATM    9  C10 UNL     1     -27.379 -14.440  11.738  1.00  0.00     0.093 C 
HETATM   10  C11 UNL     1     -26.937 -12.974  11.715  1.00  0.00     0.049 C 
BRANCH   6  11
HETATM   11  C2  UNL     1     -29.512 -17.625  10.075  1.00  0.00     0.068 C 
HETATM   12  C1  UNL     1     -29.101 -18.326   9.043  1.00  0.00     0.049 C 
BRANCH  11  13
HETATM   13  O1  UNL     1     -30.517 -18.092  10.876  1.00  0.00    -0.354 OA
BRANCH  13  14
HETATM   14  C3  UNL     1     -30.695 -19.415  11.282  1.00  0.00     0.171 C 
HETATM   15  C4  UNL     1     -32.155 -19.784  11.008  1.00  0.00     0.034 C 
ENDBRANCH  13  14
ENDBRANCH  11  13
ENDBRANCH   6  11
BRANCH   7  16
HETATM   16  O4  UNL     1     -29.064 -16.678  12.695  1.00  0.00    -0.392 OA
ATOM     17  H4  UNL     1     -29.675 -17.405  12.723  1.00  0.00     0.210 HD
ENDBRANCH   7  16
BRANCH   9  18
HETATM   18  O3  UNL     1     -26.712 -15.028  12.802  1.00  0.00    -0.387 OA
ATOM     19  H3  UNL     1     -27.213 -14.986  13.608  1.00  0.00     0.210 HD
ENDBRANCH   9  18
ENDBRANCH   1   4
TORSDOF 6
ENDMDL
MODEL 3
REMARK VINA RESULT: -5.368073053      3.044      4.179
REMARK  6 active torsions:
REMARK  status: ('A' for Active; 'I' for Inactive)
REMARK    1  A    between atoms: C2_2  and  O1_3 
REMARK    2  A    between atoms: C2_2  and  C5_6 
REMARK    3  A    between atoms: O1_3  and  C3_4 
REMARK    4  A    between atoms: C6_8  and  C7_9 
REMARK    5  A    between atoms: C10_12  and  O3_14 
REMARK    6  A    between atoms: C13_17  and  O4_18 
ROOT
HETATM    1  C7  UNL     1     -29.769 -13.512  14.811  1.00  0.00    -0.072 C 
HETATM    2  C8  UNL     1     -30.516 -13.652  15.720  1.00  0.00    -0.108 C 
HETATM    3  C9  UNL     1     -31.426 -13.841  16.860  1.00  0.00     0.112 C 
ENDROOT
BRANCH   1   4
HETATM    4  C6  UNL     1     -28.841 -13.362  13.692  1.00  0.00     0.235 C 
HETATM    5  O2  UNL     1     -29.095 -14.298  12.688  1.00  0.00    -0.356 OA
HETATM    6  C5  UNL     1     -28.012 -14.276  11.821  1.00  0.00     0.207 C 
HETATM    7  C13 UNL     1     -28.009 -12.984  10.998  1.00  0.00     0.156 C 
HETATM    8  C12 UNL     1     -27.909 -11.851  11.992  1.00  0.00     0.075 C 
HETATM    9  C10 UNL     1     -28.931 -11.983  13.086  1.00  0.00     0.093 C 
HETATM   10  C11 UNL     1     -28.574 -10.945  14.155  1.00  0.00     0.049 C 
BRANCH   6  11
HETATM   11  C2  UNL     1     -28.001 -15.410  10.884  1.00  0.00     0.068 C 
HETATM   12  C1  UNL     1     -26.855 -15.921  10.497  1.00  0.00     0.049 C 
BRANCH  11  13
HETATM   13  O1  UNL     1     -29.181 -15.922  10.422  1.00  0.00    -0.354 OA
BRANCH  13  14
HETATM   14  C3  UNL     1     -29.526 -17.273  10.375  1.00  0.00     0.171 C 
HETATM   15  C4  UNL     1     -29.928 -17.590   8.932  1.00  0.00     0.034 C 
ENDBRANCH  13  14
ENDBRANCH  11  13
ENDBRANCH   6  11
BRANCH   7  16
HETATM   16  O4  UNL     1     -29.180 -12.917  10.288  1.00  0.00    -0.392 OA
ATOM     17  H4  UNL     1     -29.307 -12.022   9.998  1.00  0.00     0.210 HD
ENDBRANCH   7  16
BRANCH   9  18
HETATM   18  O3  UNL     1     -30.217 -11.677  12.665  1.00  0.00    -0.387 OA
ATOM     19  H3  UNL     1     -30.762 -12.450  12.580  1.00  0.00     0.210 HD
ENDBRANCH   9  18
ENDBRANCH   1   4
TORSDOF 6
ENDMDL
MODEL 4
REMARK VINA RESULT: -5.329671816      1.554      1.959
REMARK  6 active torsions:
REMARK  status: ('A' for Active; 'I' for Inactive)
REMARK    1  A    between atoms: C2_2  and  O1_3 
REMARK    2  A    between atoms: C2_2  and  C5_6 
REMARK    3  A    between atoms: O1_3  and  C3_4 
REMARK    4  A    between atoms: C6_8  and  C7_9 
REMARK    5  A    between atoms: C10_12  and  O3_14 
REMARK    6  A    between atoms: C13_17  and  O4_18 
ROOT
HETATM    1  C7  UNL     1     -26.516 -18.147  14.750  1.00  0.00    -0.072 C 
HETATM    2  C8  UNL     1     -26.039 -19.032  15.376  1.00  0.00    -0.108 C 
HETATM    3  C9  UNL     1     -25.431 -20.117  16.163  1.00  0.00     0.112 C 
ENDROOT
BRANCH   1   4
HETATM    4  C6  UNL     1     -27.081 -17.046  13.973  1.00  0.00     0.235 C 
HETATM    5  O2  UNL     1     -27.438 -17.457  12.688  1.00  0.00    -0.356 OA
HETATM    6  C5  UNL     1     -27.685 -16.314  11.942  1.00  0.00     0.207 C 
HETATM    7  C13 UNL     1     -28.991 -15.652  12.392  1.00  0.00     0.156 C 
HETATM    8  C12 UNL     1     -28.806 -15.300  13.850  1.00  0.00     0.075 C 
HETATM    9  C10 UNL     1     -28.305 -16.473  14.643  1.00  0.00     0.093 C 
HETATM   10  C11 UNL     1     -27.913 -15.941  16.025  1.00  0.00     0.049 C 
BRANCH   6  11
HETATM   11  C2  UNL     1     -27.784 -16.576  10.499  1.00  0.00     0.068 C 
HETATM   12  C1  UNL     1     -26.699 -16.855   9.813  1.00  0.00     0.049 C 
BRANCH  11  13
HETATM   13  O1  UNL     1     -29.003 -16.528   9.882  1.00  0.00    -0.354 OA
BRANCH  13  14
HETATM   14  C3  UNL     1     -29.468 -17.418   8.914  1.00  0.00     0.171 C 
HETATM   15  C4  UNL     1     -29.718 -18.758   9.610  1.00  0.00     0.034 C 
ENDBRANCH  13  14
ENDBRANCH  11  13
ENDBRANCH   6  11
BRANCH   7  16
HETATM   16  O4  UNL     1     -30.014 -16.549  12.227  1.00  0.00    -0.392 OA
ATOM     17  H4  UNL     1     -30.798 -16.190  12.625  1.00  0.00     0.210 HD
ENDBRANCH   7  16
BRANCH   9  18
HETATM   18  O3  UNL     1     -29.282 -17.434  14.863  1.00  0.00    -0.387 OA
ATOM     19  H3  UNL     1     -29.264 -18.121  14.207  1.00  0.00     0.210 HD
ENDBRANCH   9  18
ENDBRANCH   1   4
TORSDOF 6
ENDMDL
MODEL 5
REMARK VINA RESULT: -5.307098735      2.488      3.822
REMARK  6 active torsions:
REMARK  status: ('A' for Active; 'I' for Inactive)
REMARK    1  A    between atoms: C2_2  and  O1_3 
REMARK    2  A    between atoms: C2_2  and  C5_6 
REMARK    3  A    between atoms: O1_3  and  C3_4 
REMARK    4  A    between atoms: C6_8  and  C7_9 
REMARK    5  A    between atoms: C10_12  and  O3_14 
REMARK    6  A    between atoms: C13_17  and  O4_18 
ROOT
HETATM    1  C7  UNL     1     -29.187 -13.552  13.973  1.00  0.00    -0.072 C 
HETATM    2  C8  UNL     1     -29.867 -13.112  14.837  1.00  0.00    -0.108 C 
HETATM    3  C9  UNL     1     -30.693 -12.566  15.926  1.00  0.00     0.112 C 
ENDROOT
BRANCH   1   4
HETATM    4  C6  UNL     1     -28.338 -14.110  12.923  1.00  0.00     0.235 C 
HETATM    5  O2  UNL     1     -28.909 -15.250  12.355  1.00  0.00    -0.356 OA
HETATM    6  C5  UNL     1     -27.928 -15.867  11.592  1.00  0.00     0.207 C 
HETATM    7  C13 UNL     1     -27.635 -15.048  10.331  1.00  0.00     0.156 C 
HETATM    8  C12 UNL     1     -27.159 -13.696  10.806  1.00  0.00     0.075 C 
HETATM    9  C10 UNL     1     -28.095 -13.105  11.823  1.00  0.00     0.093 C 
HETATM   10  C11 UNL     1     -27.392 -11.880  12.415  1.00  0.00     0.049 C 
BRANCH   6  11
HETATM   11  C2  UNL     1     -28.294 -17.229  11.174  1.00  0.00     0.068 C 
HETATM   12  C1  UNL     1     -28.622 -18.120  12.080  1.00  0.00     0.049 C 
BRANCH  11  13
HETATM   13  O1  UNL     1     -28.288 -17.556   9.847  1.00  0.00    -0.354 OA
BRANCH  13  14
HETATM   14  C3  UNL     1     -29.045 -18.562   9.248  1.00  0.00     0.171 C 
HETATM   15  C4  UNL     1     -30.401 -17.954   8.880  1.00  0.00     0.034 C 
ENDBRANCH  13  14
ENDBRANCH  11  13
ENDBRANCH   6  11
BRANCH   7  16
HETATM   16  O4  UNL     1     -28.792 -14.938   9.604  1.00  0.00    -0.392 OA
ATOM     17  H4  UNL     1     -28.687 -14.236   8.973  1.00  0.00     0.210 HD
ENDBRANCH   7  16
BRANCH   9  18
HETATM   18  O3  UNL     1     -29.276 -12.641  11.265  1.00  0.00    -0.387 OA
ATOM     19  H3  UNL     1     -29.628 -11.895  11.736  1.00  0.00     0.210 HD
ENDBRANCH   9  18
ENDBRANCH   1   4
TORSDOF 6
ENDMDL
