MODEL 1
REMARK VINA RESULT: -5.811569783      0.000      0.000
REMARK  6 active torsions:
REMARK  status: ('A' for Active; 'I' for Inactive)
REMARK    1  A    between atoms: O1_2  and  C2_3 
REMARK    2  A    between atoms: C3_4  and  C4_5 
REMARK    3  A    between atoms: C9_11  and  O3_12 
REMARK    4  A    between atoms: C10_14  and  O4_15 
REMARK    5  A    between atoms: C11_17  and  C12_18 
REMARK    6  A    between atoms: C12_18  and  O5_20 
ROOT
HETATM    1  C2  UNL     1     -27.434 -16.595  12.134  1.00  0.00     0.065 C 
HETATM    2  C3  UNL     1     -26.984 -16.382  13.358  1.00  0.00    -0.044 C 
HETATM    3  C7  UNL     1     -26.810 -14.892  13.577  1.00  0.00     0.070 C 
HETATM    4  C8  UNL     1     -27.846 -14.428  12.671  1.00  0.00     0.149 C 
HETATM    5  O2  UNL     1     -27.875 -13.252  12.052  1.00  0.00    -0.352 OA
HETATM    6  C9  UNL     1     -28.930 -13.498  11.130  1.00  0.00     0.287 C 
HETATM    7  C10 UNL     1     -28.748 -14.963  10.683  1.00  0.00     0.193 C 
HETATM    8  C11 UNL     1     -27.551 -15.334  11.472  1.00  0.00     0.091 C 
ENDROOT
BRANCH   8   9
HETATM    9  C12 UNL     1     -26.248 -14.969  10.815  1.00  0.00     0.134 C 
HETATM   10  C13 UNL     1     -25.769 -16.172  10.026  1.00  0.00     0.040 C 
BRANCH   9  11
HETATM   11  O5  UNL     1     -26.338 -13.843   9.997  1.00  0.00    -0.395 OA
ATOM     12  H5  UNL     1     -25.621 -13.232  10.119  1.00  0.00     0.210 HD
ENDBRANCH   9  11
ENDBRANCH   8   9
BRANCH   1  13
HETATM   13  O1  UNL     1     -27.717 -17.874  11.654  1.00  0.00    -0.359 OA
HETATM   14  C1  UNL     1     -29.000 -18.452  11.626  1.00  0.00     0.209 C 
ENDBRANCH   1  13
BRANCH   7  15
HETATM   15  O4  UNL     1     -28.601 -14.979   9.312  1.00  0.00    -0.389 OA
ATOM     16  H4  UNL     1     -28.806 -15.853   9.002  1.00  0.00     0.210 HD
ENDBRANCH   7  15
BRANCH   2  17
HETATM   17  C4  UNL     1     -26.695 -17.361  14.417  1.00  0.00     0.009 C 
HETATM   18  C5  UNL     1     -25.626 -16.982  15.376  1.00  0.00     0.014 C 
HETATM   19  C6  UNL     1     -27.987 -17.595  15.206  1.00  0.00     0.014 C 
ENDBRANCH   2  17
BRANCH   6  20
HETATM   20  O3  UNL     1     -28.932 -12.620  10.078  1.00  0.00    -0.369 OA
ATOM     21  H3  UNL     1     -28.135 -12.662   9.562  1.00  0.00     0.212 HD
ENDBRANCH   6  20
TORSDOF 6
ENDMDL
MODEL 2
REMARK VINA RESULT: -5.576818475      1.633      2.860
REMARK  6 active torsions:
REMARK  status: ('A' for Active; 'I' for Inactive)
REMARK    1  A    between atoms: O1_2  and  C2_3 
REMARK    2  A    between atoms: C3_4  and  C4_5 
REMARK    3  A    between atoms: C9_11  and  O3_12 
REMARK    4  A    between atoms: C10_14  and  O4_15 
REMARK    5  A    between atoms: C11_17  and  C12_18 
REMARK    6  A    between atoms: C12_18  and  O5_20 
ROOT
HETATM    1  C2  UNL     1     -28.655 -15.404  12.611  1.00  0.00     0.065 C 
HETATM    2  C3  UNL     1     -28.097 -15.932  13.687  1.00  0.00    -0.044 C 
HETATM    3  C7  UNL     1     -26.703 -16.420  13.342  1.00  0.00     0.070 C 
HETATM    4  C8  UNL     1     -26.409 -15.471  12.284  1.00  0.00     0.149 C 
HETATM    5  O2  UNL     1     -25.570 -15.663  11.271  1.00  0.00    -0.352 OA
HETATM    6  C9  UNL     1     -25.920 -14.548  10.460  1.00  0.00     0.287 C 
HETATM    7  C10 UNL     1     -27.449 -14.406  10.599  1.00  0.00     0.193 C 
HETATM    8  C11 UNL     1     -27.737 -15.528  11.523  1.00  0.00     0.091 C 
ENDROOT
BRANCH   8   9
HETATM    9  C12 UNL     1     -27.920 -16.853  10.836  1.00  0.00     0.134 C 
HETATM   10  C13 UNL     1     -29.404 -17.062  10.609  1.00  0.00     0.040 C 
BRANCH   9  11
HETATM   11  O5  UNL     1     -27.214 -16.957   9.637  1.00  0.00    -0.395 OA
ATOM     12  H5  UNL     1     -26.867 -16.127   9.332  1.00  0.00     0.210 HD
ENDBRANCH   9  11
ENDBRANCH   8   9
BRANCH   1  13
HETATM   13  O1  UNL     1     -29.932 -14.845  12.629  1.00  0.00    -0.359 OA
HETATM   14  C1  UNL     1     -30.204 -13.476  12.810  1.00  0.00     0.209 C 
ENDBRANCH   1  13
BRANCH   7  15
HETATM   15  O4  UNL     1     -28.006 -14.498   9.341  1.00  0.00    -0.389 OA
ATOM     16  H4  UNL     1     -28.562 -13.740   9.207  1.00  0.00     0.210 HD
ENDBRANCH   7  15
BRANCH   2  17
HETATM   17  C4  UNL     1     -28.647 -16.050  15.046  1.00  0.00     0.009 C 
HETATM   18  C5  UNL     1     -28.159 -17.204  15.845  1.00  0.00     0.014 C 
HETATM   19  C6  UNL     1     -28.307 -14.763  15.804  1.00  0.00     0.014 C 
ENDBRANCH   2  17
BRANCH   6  20
HETATM   20  O3  UNL     1     -25.518 -14.690   9.158  1.00  0.00    -0.369 OA
ATOM     21  H3  UNL     1     -26.098 -14.255   8.544  1.00  0.00     0.212 HD
ENDBRANCH   6  20
TORSDOF 6
ENDMDL
MODEL 3
REMARK VINA RESULT: -5.371819012      1.821      4.118
REMARK  6 active torsions:
REMARK  status: ('A' for Active; 'I' for Inactive)
REMARK    1  A    between atoms: O1_2  and  C2_3 
REMARK    2  A    between atoms: C3_4  and  C4_5 
REMARK    3  A    between atoms: C9_11  and  O3_12 
REMARK    4  A    between atoms: C10_14  and  O4_15 
REMARK    5  A    between atoms: C11_17  and  C12_18 
REMARK    6  A    between atoms: C12_18  and  O5_20 
ROOT
HETATM    1  C2  UNL     1     -27.084 -14.779  12.416  1.00  0.00     0.065 C 
HETATM    2  C3  UNL     1     -25.908 -14.576  11.848  1.00  0.00    -0.044 C 
HETATM    3  C7  UNL     1     -25.698 -15.598  10.748  1.00  0.00     0.070 C 
HETATM    4  C8  UNL     1     -27.090 -15.805  10.390  1.00  0.00     0.149 C 
HETATM    5  O2  UNL     1     -27.605 -16.904   9.849  1.00  0.00    -0.352 OA
HETATM    6  C9  UNL     1     -28.990 -16.616  10.000  1.00  0.00     0.287 C 
HETATM    7  C10 UNL     1     -29.112 -15.912  11.367  1.00  0.00     0.193 C 
HETATM    8  C11 UNL     1     -27.694 -15.912  11.794  1.00  0.00     0.091 C 
ENDROOT
BRANCH   8   9
HETATM    9  C12 UNL     1     -27.263 -17.178  12.483  1.00  0.00     0.134 C 
HETATM   10  C13 UNL     1     -27.324 -16.942  13.979  1.00  0.00     0.040 C 
BRANCH   9  11
HETATM   11  O5  UNL     1     -28.025 -18.289  12.123  1.00  0.00    -0.395 OA
ATOM     12  H5  UNL     1     -28.670 -18.102  11.452  1.00  0.00     0.210 HD
ENDBRANCH   9  11
ENDBRANCH   8   9
BRANCH   1  13
HETATM   13  O1  UNL     1     -27.566 -13.972  13.447  1.00  0.00    -0.359 OA
HETATM   14  C1  UNL     1     -28.409 -12.860  13.265  1.00  0.00     0.209 C 
ENDBRANCH   1  13
BRANCH   7  15
HETATM   15  O4  UNL     1     -29.982 -16.641  12.150  1.00  0.00    -0.389 OA
ATOM     16  H4  UNL     1     -30.313 -16.072  12.835  1.00  0.00     0.210 HD
ENDBRANCH   7  15
BRANCH   2  17
HETATM   17  C4  UNL     1     -24.908 -13.539  12.145  1.00  0.00     0.009 C 
HETATM   18  C5  UNL     1     -23.487 -13.943  11.986  1.00  0.00     0.014 C 
HETATM   19  C6  UNL     1     -25.176 -12.349  11.219  1.00  0.00     0.014 C 
ENDBRANCH   2  17
BRANCH   6  20
HETATM   20  O3  UNL     1     -29.778 -17.732   9.908  1.00  0.00    -0.369 OA
ATOM     21  H3  UNL     1     -30.622 -17.623  10.330  1.00  0.00     0.212 HD
ENDBRANCH   6  20
TORSDOF 6
ENDMDL
MODEL 4
REMARK VINA RESULT: -5.345203426      1.858      4.237
REMARK  6 active torsions:
REMARK  status: ('A' for Active; 'I' for Inactive)
REMARK    1  A    between atoms: O1_2  and  C2_3 
REMARK    2  A    between atoms: C3_4  and  C4_5 
REMARK    3  A    between atoms: C9_11  and  O3_12 
REMARK    4  A    between atoms: C10_14  and  O4_15 
REMARK    5  A    between atoms: C11_17  and  C12_18 
REMARK    6  A    between atoms: C12_18  and  O5_20 
ROOT
HETATM    1  C2  UNL     1     -27.985 -14.730  12.346  1.00  0.00     0.065 C 
HETATM    2  C3  UNL     1     -26.850 -14.210  11.913  1.00  0.00    -0.044 C 
HETATM    3  C7  UNL     1     -26.170 -15.192  10.980  1.00  0.00     0.070 C 
HETATM    4  C8  UNL     1     -27.360 -15.852  10.474  1.00  0.00     0.149 C 
HETATM    5  O2  UNL     1     -27.426 -17.095  10.007  1.00  0.00    -0.352 OA
HETATM    6  C9  UNL     1     -28.840 -17.248   9.943  1.00  0.00     0.287 C 
HETATM    7  C10 UNL     1     -29.384 -16.519  11.189  1.00  0.00     0.193 C 
HETATM    8  C11 UNL     1     -28.119 -16.040  11.791  1.00  0.00     0.091 C 
ENDROOT
BRANCH   8   9
HETATM    9  C12 UNL     1     -27.442 -17.051  12.676  1.00  0.00     0.134 C 
HETATM   10  C13 UNL     1     -27.805 -16.733  14.113  1.00  0.00     0.040 C 
BRANCH   9  11
HETATM   11  O5  UNL     1     -27.771 -18.369  12.361  1.00  0.00    -0.395 OA
ATOM     12  H5  UNL     1     -28.696 -18.561  12.464  1.00  0.00     0.210 HD
ENDBRANCH   9  11
ENDBRANCH   8   9
BRANCH   1  13
HETATM   13  O1  UNL     1     -28.844 -14.042  13.202  1.00  0.00    -0.359 OA
HETATM   14  C1  UNL     1     -29.971 -13.308  12.785  1.00  0.00     0.209 C 
ENDBRANCH   1  13
BRANCH   7  15
HETATM   15  O4  UNL     1     -30.107 -17.425  11.935  1.00  0.00    -0.389 OA
ATOM     16  H4  UNL     1     -30.036 -18.275  11.519  1.00  0.00     0.210 HD
ENDBRANCH   7  15
BRANCH   2  17
HETATM   17  C4  UNL     1     -26.268 -12.891  12.210  1.00  0.00     0.009 C 
HETATM   18  C5  UNL     1     -24.785 -12.813  12.173  1.00  0.00     0.014 C 
HETATM   19  C6  UNL     1     -26.828 -11.891  11.194  1.00  0.00     0.014 C 
ENDBRANCH   2  17
BRANCH   6  20
HETATM   20  O3  UNL     1     -29.231 -18.559   9.885  1.00  0.00    -0.369 OA
ATOM     21  H3  UNL     1     -30.133 -18.662   9.603  1.00  0.00     0.212 HD
ENDBRANCH   6  20
TORSDOF 6
ENDMDL
MODEL 5
REMARK VINA RESULT: -5.264712913      2.016      3.959
REMARK  6 active torsions:
REMARK  status: ('A' for Active; 'I' for Inactive)
REMARK    1  A    between atoms: O1_2  and  C2_3 
REMARK    2  A    between atoms: C3_4  and  C4_5 
REMARK    3  A    between atoms: C9_11  and  O3_12 
REMARK    4  A    between atoms: C10_14  and  O4_15 
REMARK    5  A    between atoms: C11_17  and  C12_18 
REMARK    6  A    between atoms: C12_18  and  O5_20 
ROOT
HETATM    1  C2  UNL     1     -26.487 -15.350  12.365  1.00  0.00     0.065 C 
HETATM    2  C3  UNL     1     -26.007 -14.940  11.203  1.00  0.00    -0.044 C 
HETATM    3  C7  UNL     1     -27.142 -14.412  10.349  1.00  0.00     0.070 C 
HETATM    4  C8  UNL     1     -28.012 -13.959  11.419  1.00  0.00     0.149 C 
HETATM    5  O2  UNL     1     -29.336 -13.849  11.358  1.00  0.00    -0.352 OA
HETATM    6  C9  UNL     1     -29.619 -13.649  12.738  1.00  0.00     0.287 C 
HETATM    7  C10 UNL     1     -28.632 -14.563  13.494  1.00  0.00     0.193 C 
HETATM    8  C11 UNL     1     -27.904 -15.167  12.354  1.00  0.00     0.091 C 
ENDROOT
BRANCH   8   9
HETATM    9  C12 UNL     1     -28.580 -16.377  11.770  1.00  0.00     0.134 C 
HETATM   10  C13 UNL     1     -27.919 -17.610  12.352  1.00  0.00     0.040 C 
BRANCH   9  11
HETATM   11  O5  UNL     1     -29.957 -16.401  11.989  1.00  0.00    -0.395 OA
ATOM     12  H5  UNL     1     -30.318 -17.279  12.018  1.00  0.00     0.210 HD
ENDBRANCH   9  11
ENDBRANCH   8   9
BRANCH   1  13
HETATM   13  O1  UNL     1     -25.670 -15.863  13.372  1.00  0.00    -0.359 OA
HETATM   14  C1  UNL     1     -25.066 -15.092  14.383  1.00  0.00     0.209 C 
ENDBRANCH   1  13
BRANCH   7  15
HETATM   15  O4  UNL     1     -29.364 -15.431  14.276  1.00  0.00    -0.389 OA
ATOM     16  H4  UNL     1     -29.480 -16.239  13.792  1.00  0.00     0.210 HD
ENDBRANCH   7  15
BRANCH   2  17
HETATM   17  C4  UNL     1     -24.612 -14.932  10.734  1.00  0.00     0.009 C 
HETATM   18  C5  UNL     1     -24.414 -15.206   9.287  1.00  0.00     0.014 C 
HETATM   19  C6  UNL     1     -24.018 -13.556  11.049  1.00  0.00     0.014 C 
ENDBRANCH   2  17
BRANCH   6  20
HETATM   20  O3  UNL     1     -30.926 -13.905  13.055  1.00  0.00    -0.369 OA
ATOM     21  H3  UNL     1     -31.355 -13.169  13.477  1.00  0.00     0.212 HD
ENDBRANCH   6  20
TORSDOF 6
ENDMDL
