MODEL 1
REMARK VINA RESULT: -6.754312043      0.000      0.000
REMARK  5 active torsions:
REMARK  status: ('A' for Active; 'I' for Inactive)
REMARK    1  A    between atoms: C2_2  and  N1_4 
REMARK    2  A    between atoms: N1_4  and  C4_6 
REMARK    3  A    between atoms: C5_9  and  N3_10 
REMARK    4  A    between atoms: N5_16  and  C7_17 
REMARK    5  A    between atoms: C7_17  and  C8_18 
ROOT
HETATM    1  C4  UNL     1     -28.833 -18.238  11.600  1.00  0.00     0.696 A 
HETATM    2  N2  UNL     1     -29.959 -18.985  11.738  1.00  0.00    -0.022 N 
ATOM      3  H2  UNL     1     -30.242 -19.294  12.668  1.00  0.00     0.203 HD
HETATM    4  C5  UNL     1     -30.704 -19.325  10.685  1.00  0.00     0.691 A 
HETATM    5  N4  UNL     1     -30.295 -18.899   9.474  1.00  0.00    -0.187 N 
ATOM      6  H4  UNL     1     -30.845 -19.145   8.652  1.00  0.00     0.185 HD
HETATM    7  C6  UNL     1     -29.182 -18.158   9.320  1.00  0.00     0.218 A 
HETATM    8  N5  UNL     1     -28.431 -17.815  10.389  1.00  0.00    -0.176 N 
ENDROOT
BRANCH   8   9
HETATM    9  C7  UNL     1     -27.269 -17.024  10.199  1.00  0.00     0.181 C 
BRANCH   9  10
HETATM   10  C8  UNL     1     -27.370 -15.581  10.532  1.00  0.00     0.204 C 
HETATM   11  C9  UNL     1     -28.650 -14.899  10.220  1.00  0.00     0.035 C 
HETATM   12  C10 UNL     1     -28.518 -13.454  10.727  1.00  0.00     0.004 C 
HETATM   13  C11 UNL     1     -27.279 -13.261  11.562  1.00  0.00     0.027 C 
HETATM   14  C12 UNL     1     -26.026 -13.685  10.866  1.00  0.00     0.233 C 
HETATM   15  N6  UNL     1     -26.231 -14.829   9.999  1.00  0.00    -0.069 N 
ATOM     16  H62 UNL     1     -25.392 -15.400   9.887  1.00  0.00     0.277 HD
ATOM     17  H61 UNL     1     -26.346 -14.571   9.019  1.00  0.00     0.277 HD
ENDBRANCH   9  10
ENDBRANCH   8   9
BRANCH   1  18
HETATM   18  N1  UNL     1     -28.175 -17.972  12.679  1.00  0.00    -0.221 N 
ATOM     19  H1  UNL     1     -27.166 -18.115  12.651  1.00  0.00     0.178 HD
BRANCH  18  20
HETATM   20  C2  UNL     1     -28.729 -17.496  13.907  1.00  0.00     0.091 C 
HETATM   21  C1  UNL     1     -28.598 -15.970  13.883  1.00  0.00     0.032 C 
HETATM   22  C3  UNL     1     -27.974 -17.959  15.133  1.00  0.00     0.032 C 
ENDBRANCH  18  20
ENDBRANCH   1  18
BRANCH   4  23
HETATM   23  N3  UNL     1     -31.775 -20.037  10.834  1.00  0.00    -0.234 N 
ATOM     24  H32 UNL     1     -32.349 -19.978  11.675  1.00  0.00     0.174 HD
ATOM     25  H31 UNL     1     -32.076 -20.684  10.105  1.00  0.00     0.174 HD
ENDBRANCH   4  23
TORSDOF 5
ENDMDL
MODEL 2
REMARK VINA RESULT: -6.679568004      1.172      1.225
REMARK  5 active torsions:
REMARK  status: ('A' for Active; 'I' for Inactive)
REMARK    1  A    between atoms: C2_2  and  N1_4 
REMARK    2  A    between atoms: N1_4  and  C4_6 
REMARK    3  A    between atoms: C5_9  and  N3_10 
REMARK    4  A    between atoms: N5_16  and  C7_17 
REMARK    5  A    between atoms: C7_17  and  C8_18 
ROOT
HETATM    1  C4  UNL     1     -29.574 -17.794  11.896  1.00  0.00     0.696 A 
HETATM    2  N2  UNL     1     -30.587 -18.699  11.895  1.00  0.00    -0.022 N 
ATOM      3  H2  UNL     1     -31.126 -18.845  12.749  1.00  0.00     0.203 HD
HETATM    4  C5  UNL     1     -30.894 -19.402  10.805  1.00  0.00     0.691 A 
HETATM    5  N4  UNL     1     -30.159 -19.181   9.698  1.00  0.00    -0.187 N 
ATOM      6  H4  UNL     1     -30.371 -19.706   8.850  1.00  0.00     0.185 HD
HETATM    7  C6  UNL     1     -29.152 -18.289   9.681  1.00  0.00     0.218 A 
HETATM    8  N5  UNL     1     -28.844 -17.578  10.788  1.00  0.00    -0.176 N 
ENDROOT
BRANCH   8   9
HETATM    9  C7  UNL     1     -27.785 -16.635  10.738  1.00  0.00     0.181 C 
BRANCH   9  10
HETATM   10  C8  UNL     1     -28.093 -15.247  11.165  1.00  0.00     0.204 C 
HETATM   11  C9  UNL     1     -28.368 -14.254  10.099  1.00  0.00     0.035 C 
HETATM   12  C10 UNL     1     -28.726 -12.934  10.802  1.00  0.00     0.004 C 
HETATM   13  C11 UNL     1     -28.916 -13.121  12.285  1.00  0.00     0.027 C 
HETATM   14  C12 UNL     1     -27.744 -13.766  12.953  1.00  0.00     0.233 C 
HETATM   15  N6  UNL     1     -27.088 -14.743  12.106  1.00  0.00    -0.069 N 
ATOM     16  H62 UNL     1     -26.628 -15.484  12.635  1.00  0.00     0.277 HD
ATOM     17  H61 UNL     1     -26.257 -14.375  11.643  1.00  0.00     0.277 HD
ENDBRANCH   9  10
ENDBRANCH   8   9
BRANCH   1  18
HETATM   18  N1  UNL     1     -29.348 -17.173  13.005  1.00  0.00    -0.221 N 
ATOM     19  H1  UNL     1     -29.679 -16.211  13.071  1.00  0.00     0.178 HD
BRANCH  18  20
HETATM   20  C2  UNL     1     -28.679 -17.708  14.148  1.00  0.00     0.091 C 
HETATM   21  C1  UNL     1     -28.744 -16.631  15.236  1.00  0.00     0.032 C 
HETATM   22  C3  UNL     1     -27.208 -17.979  13.919  1.00  0.00     0.032 C 
ENDBRANCH  18  20
ENDBRANCH   1  18
BRANCH   4  23
HETATM   23  N3  UNL     1     -31.863 -20.260  10.821  1.00  0.00    -0.234 N 
ATOM     24  H32 UNL     1     -32.829 -19.980  10.994  1.00  0.00     0.174 HD
ATOM     25  H31 UNL     1     -31.685 -21.251  10.660  1.00  0.00     0.174 HD
ENDBRANCH   4  23
TORSDOF 5
ENDMDL
MODEL 3
REMARK VINA RESULT: -6.388853834      1.376      1.914
REMARK  5 active torsions:
REMARK  status: ('A' for Active; 'I' for Inactive)
REMARK    1  A    between atoms: C2_2  and  N1_4 
REMARK    2  A    between atoms: N1_4  and  C4_6 
REMARK    3  A    between atoms: C5_9  and  N3_10 
REMARK    4  A    between atoms: N5_16  and  C7_17 
REMARK    5  A    between atoms: C7_17  and  C8_18 
ROOT
HETATM    1  C4  UNL     1     -29.431 -16.578  11.989  1.00  0.00     0.696 A 
HETATM    2  N2  UNL     1     -29.917 -17.819  12.252  1.00  0.00    -0.022 N 
ATOM      3  H2  UNL     1     -30.127 -18.079  13.216  1.00  0.00     0.203 HD
HETATM    4  C5  UNL     1     -30.126 -18.707  11.279  1.00  0.00     0.691 A 
HETATM    5  N4  UNL     1     -29.835 -18.326  10.020  1.00  0.00    -0.187 N 
ATOM      6  H4  UNL     1     -29.984 -18.985   9.257  1.00  0.00     0.185 HD
HETATM    7  C6  UNL     1     -29.353 -17.101   9.742  1.00  0.00     0.218 A 
HETATM    8  N5  UNL     1     -29.143 -16.204  10.731  1.00  0.00    -0.176 N 
ENDROOT
BRANCH   8   9
HETATM    9  C7  UNL     1     -28.645 -14.915  10.408  1.00  0.00     0.181 C 
BRANCH   9  10
HETATM   10  C8  UNL     1     -27.224 -14.636  10.734  1.00  0.00     0.204 C 
HETATM   11  C9  UNL     1     -26.880 -13.252  11.139  1.00  0.00     0.035 C 
HETATM   12  C10 UNL     1     -25.383 -13.251  11.491  1.00  0.00     0.004 C 
HETATM   13  C11 UNL     1     -24.818 -14.646  11.546  1.00  0.00     0.027 C 
HETATM   14  C12 UNL     1     -25.059 -15.431  10.297  1.00  0.00     0.233 C 
HETATM   15  N6  UNL     1     -26.329 -15.112   9.676  1.00  0.00    -0.069 N 
ATOM     16  H62 UNL     1     -26.719 -15.890   9.143  1.00  0.00     0.277 HD
ATOM     17  H61 UNL     1     -26.241 -14.453   8.902  1.00  0.00     0.277 HD
ENDBRANCH   9  10
ENDBRANCH   8   9
BRANCH   1  18
HETATM   18  N1  UNL     1     -29.253 -15.796  13.001  1.00  0.00    -0.221 N 
ATOM     19  H1  UNL     1     -29.825 -14.953  13.039  1.00  0.00     0.178 HD
BRANCH  18  20
HETATM   20  C2  UNL     1     -28.330 -16.002  14.072  1.00  0.00     0.091 C 
HETATM   21  C1  UNL     1     -27.881 -14.613  14.536  1.00  0.00     0.032 C 
HETATM   22  C3  UNL     1     -27.071 -16.730  13.658  1.00  0.00     0.032 C 
ENDBRANCH  18  20
ENDBRANCH   1  18
BRANCH   4  23
HETATM   23  N3  UNL     1     -30.590 -19.885  11.547  1.00  0.00    -0.234 N 
ATOM     24  H32 UNL     1     -31.552 -20.028  11.856  1.00  0.00     0.174 HD
ATOM     25  H31 UNL     1     -30.000 -20.712  11.454  1.00  0.00     0.174 HD
ENDBRANCH   4  23
TORSDOF 5
ENDMDL
MODEL 4
REMARK VINA RESULT: -6.251751209      1.819      2.266
REMARK  5 active torsions:
REMARK  status: ('A' for Active; 'I' for Inactive)
REMARK    1  A    between atoms: C2_2  and  N1_4 
REMARK    2  A    between atoms: N1_4  and  C4_6 
REMARK    3  A    between atoms: C5_9  and  N3_10 
REMARK    4  A    between atoms: N5_16  and  C7_17 
REMARK    5  A    between atoms: C7_17  and  C8_18 
ROOT
HETATM    1  C4  UNL     1     -29.649 -17.512  12.277  1.00  0.00     0.696 A 
HETATM    2  N2  UNL     1     -30.407 -18.618  12.056  1.00  0.00    -0.022 N 
ATOM      3  H2  UNL     1     -30.742 -19.160  12.854  1.00  0.00     0.203 HD
HETATM    4  C5  UNL     1     -30.723 -19.013  10.823  1.00  0.00     0.691 A 
HETATM    5  N4  UNL     1     -30.261 -18.271   9.798  1.00  0.00    -0.187 N 
ATOM      6  H4  UNL     1     -30.487 -18.550   8.844  1.00  0.00     0.185 HD
HETATM    7  C6  UNL     1     -29.509 -17.173   9.998  1.00  0.00     0.218 A 
HETATM    8  N5  UNL     1     -29.191 -16.776  11.250  1.00  0.00    -0.176 N 
ENDROOT
BRANCH   8   9
HETATM    9  C7  UNL     1     -28.407 -15.608  11.432  1.00  0.00     0.181 C 
BRANCH   9  10
HETATM   10  C8  UNL     1     -29.006 -14.507  12.228  1.00  0.00     0.204 C 
HETATM   11  C9  UNL     1     -29.381 -13.270  11.501  1.00  0.00     0.035 C 
HETATM   12  C10 UNL     1     -30.038 -12.333  12.528  1.00  0.00     0.004 C 
HETATM   13  C11 UNL     1     -30.304 -13.031  13.836  1.00  0.00     0.027 C 
HETATM   14  C12 UNL     1     -29.087 -13.673  14.421  1.00  0.00     0.233 C 
HETATM   15  N6  UNL     1     -28.193 -14.197  13.407  1.00  0.00    -0.069 N 
ATOM     16  H62 UNL     1     -27.643 -14.993  13.733  1.00  0.00     0.277 HD
ATOM     17  H61 UNL     1     -27.413 -13.573  13.201  1.00  0.00     0.277 HD
ENDBRANCH   9  10
ENDBRANCH   8   9
BRANCH   1  18
HETATM   18  N1  UNL     1     -29.389 -17.221  13.507  1.00  0.00    -0.221 N 
ATOM     19  H1  UNL     1     -29.885 -16.426  13.908  1.00  0.00     0.178 HD
BRANCH  18  20
HETATM   20  C2  UNL     1     -28.470 -17.908  14.359  1.00  0.00     0.091 C 
HETATM   21  C1  UNL     1     -28.386 -17.096  15.656  1.00  0.00     0.032 C 
HETATM   22  C3  UNL     1     -27.061 -17.966  13.812  1.00  0.00     0.032 C 
ENDBRANCH  18  20
ENDBRANCH   1  18
BRANCH   4  23
HETATM   23  N3  UNL     1     -31.447 -20.069  10.631  1.00  0.00    -0.234 N 
ATOM     24  H32 UNL     1     -31.187 -20.978  11.015  1.00  0.00     0.174 HD
ATOM     25  H31 UNL     1     -32.306 -20.020  10.083  1.00  0.00     0.174 HD
ENDBRANCH   4  23
TORSDOF 5
ENDMDL
MODEL 5
REMARK VINA RESULT: -6.155057867      1.438      1.985
REMARK  5 active torsions:
REMARK  status: ('A' for Active; 'I' for Inactive)
REMARK    1  A    between atoms: C2_2  and  N1_4 
REMARK    2  A    between atoms: N1_4  and  C4_6 
REMARK    3  A    between atoms: C5_9  and  N3_10 
REMARK    4  A    between atoms: N5_16  and  C7_17 
REMARK    5  A    between atoms: C7_17  and  C8_18 
ROOT
HETATM    1  C4  UNL     1     -29.440 -16.638  12.063  1.00  0.00     0.696 A 
HETATM    2  N2  UNL     1     -29.929 -17.889  12.276  1.00  0.00    -0.022 N 
ATOM      3  H2  UNL     1     -30.111 -18.196  13.232  1.00  0.00     0.203 HD
HETATM    4  C5  UNL     1     -30.175 -18.723  11.266  1.00  0.00     0.691 A 
HETATM    5  N4  UNL     1     -29.920 -18.279  10.020  1.00  0.00    -0.187 N 
ATOM      6  H4  UNL     1     -30.098 -18.896   9.228  1.00  0.00     0.185 HD
HETATM    7  C6  UNL     1     -29.436 -17.044   9.791  1.00  0.00     0.218 A 
HETATM    8  N5  UNL     1     -29.189 -16.201  10.818  1.00  0.00    -0.176 N 
ENDROOT
BRANCH   8   9
HETATM    9  C7  UNL     1     -28.690 -14.901  10.546  1.00  0.00     0.181 C 
BRANCH   9  10
HETATM   10  C8  UNL     1     -27.215 -14.738  10.494  1.00  0.00     0.204 C 
HETATM   11  C9  UNL     1     -26.400 -15.970  10.360  1.00  0.00     0.035 C 
HETATM   12  C10 UNL     1     -24.933 -15.523  10.254  1.00  0.00     0.004 C 
HETATM   13  C11 UNL     1     -24.811 -14.032  10.081  1.00  0.00     0.027 C 
HETATM   14  C12 UNL     1     -25.517 -13.253  11.145  1.00  0.00     0.233 C 
HETATM   15  N6  UNL     1     -26.730 -13.905  11.597  1.00  0.00    -0.069 N 
ATOM     16  H62 UNL     1     -27.432 -13.247  11.940  1.00  0.00     0.277 HD
ATOM     17  H61 UNL     1     -26.603 -14.426  12.465  1.00  0.00     0.277 HD
ENDBRANCH   9  10
ENDBRANCH   8   9
BRANCH   1  18
HETATM   18  N1  UNL     1     -29.224 -15.912  13.108  1.00  0.00    -0.221 N 
ATOM     19  H1  UNL     1     -29.629 -14.976  13.112  1.00  0.00     0.178 HD
BRANCH  18  20
HETATM   20  C2  UNL     1     -28.471 -16.296  14.260  1.00  0.00     0.091 C 
HETATM   21  C1  UNL     1     -28.478 -15.092  15.208  1.00  0.00     0.032 C 
HETATM   22  C3  UNL     1     -27.017 -16.587  13.966  1.00  0.00     0.032 C 
ENDBRANCH  18  20
ENDBRANCH   1  18
BRANCH   4  23
HETATM   23  N3  UNL     1     -30.641 -19.910  11.486  1.00  0.00    -0.234 N 
ATOM     24  H32 UNL     1     -30.115 -20.605  12.017  1.00  0.00     0.174 HD
ATOM     25  H31 UNL     1     -31.556 -20.186  11.131  1.00  0.00     0.174 HD
ENDBRANCH   4  23
TORSDOF 5
ENDMDL
