MODEL 1
REMARK VINA RESULT: -6.188038713      0.000      0.000
REMARK  4 active torsions:
REMARK  status: ('A' for Active; 'I' for Inactive)
REMARK    1  A    between atoms: C3_3  and  N1_4 
REMARK    2  A    between atoms: C6_11  and  C7_12 
REMARK    3  A    between atoms: C7_12  and  O1_13 
REMARK    4  A    between atoms: C7_12  and  O2_15 
ROOT
HETATM    1  C1  UNL     1     -22.609 -14.465  10.127  1.00  0.00     0.018 C 
HETATM    2  C2  UNL     1     -23.685 -14.949   9.946  1.00  0.00    -0.072 C 
HETATM    3  C3  UNL     1     -24.979 -15.545   9.749  1.00  0.00     0.162 C 
ENDROOT
BRANCH   3   4
HETATM    4  N1  UNL     1     -25.968 -15.225  10.727  1.00  0.00    -0.316 N 
HETATM    5  S1  UNL     1     -26.233 -13.580  10.920  1.00  0.00    -0.051 SA
HETATM    6  C4  UNL     1     -27.822 -13.004  11.438  1.00  0.00     0.131 C 
HETATM    7  C5  UNL     1     -28.903 -13.813  10.830  1.00  0.00     0.204 C 
HETATM    8  N2  UNL     1     -28.452 -14.574   9.700  1.00  0.00    -0.053 N 
HETATM    9  C8  UNL     1     -29.204 -15.098  11.553  1.00  0.00     0.060 C 
HETATM   10  C6  UNL     1     -28.376 -15.765  10.526  1.00  0.00     0.201 C 
ATOM     11  H22 UNL     1     -29.002 -14.585   8.841  1.00  0.00     0.278 HD
ATOM     12  H21 UNL     1     -27.634 -14.268   9.174  1.00  0.00     0.278 HD
HETATM   13  C12 UNL     1     -27.010 -16.161  10.891  1.00  0.00     0.139 C 
HETATM   14  C11 UNL     1     -26.916 -16.693  12.325  1.00  0.00     0.029 C 
HETATM   15  C10 UNL     1     -27.420 -15.636  13.255  1.00  0.00     0.003 C 
HETATM   16  C9  UNL     1     -28.817 -15.229  12.954  1.00  0.00     0.010 C 
BRANCH  10  17
HETATM   17  C7  UNL     1     -29.166 -16.931   9.905  1.00  0.00     0.292 C 
BRANCH  17  18
HETATM   18  O1  UNL     1     -29.552 -16.641   8.609  1.00  0.00    -0.369 OA
ATOM     19  H1  UNL     1     -28.807 -16.387   8.076  1.00  0.00     0.212 HD
ENDBRANCH  17  18
BRANCH  17  20
HETATM   20  O2  UNL     1     -28.475 -18.119  10.017  1.00  0.00    -0.369 OA
ATOM     21  H2  UNL     1     -28.401 -18.556   9.177  1.00  0.00     0.212 HD
ENDBRANCH  17  20
ENDBRANCH  10  17
ENDBRANCH   3   4
TORSDOF 4
ENDMDL
MODEL 2
REMARK VINA RESULT: -6.002005790      2.618      4.133
REMARK  4 active torsions:
REMARK  status: ('A' for Active; 'I' for Inactive)
REMARK    1  A    between atoms: C3_3  and  N1_4 
REMARK    2  A    between atoms: C6_11  and  C7_12 
REMARK    3  A    between atoms: C7_12  and  O1_13 
REMARK    4  A    between atoms: C7_12  and  O2_15 
ROOT
HETATM    1  C1  UNL     1     -28.936 -18.051   9.037  1.00  0.00     0.018 C 
HETATM    2  C2  UNL     1     -29.383 -17.922  10.136  1.00  0.00    -0.072 C 
HETATM    3  C3  UNL     1     -29.899 -17.777  11.471  1.00  0.00     0.162 C 
ENDROOT
BRANCH   3   4
HETATM    4  N1  UNL     1     -29.199 -16.862  12.313  1.00  0.00    -0.316 N 
HETATM    5  S1  UNL     1     -28.132 -17.594  13.382  1.00  0.00    -0.051 SA
HETATM    6  C4  UNL     1     -26.696 -16.718  13.923  1.00  0.00     0.131 C 
HETATM    7  C5  UNL     1     -26.125 -15.905  12.824  1.00  0.00     0.204 C 
HETATM    8  N2  UNL     1     -26.603 -16.313  11.533  1.00  0.00    -0.053 N 
HETATM    9  C8  UNL     1     -26.788 -14.568  12.627  1.00  0.00     0.060 C 
HETATM   10  C6  UNL     1     -27.538 -15.203  11.523  1.00  0.00     0.201 C 
ATOM     11  H22 UNL     1     -25.946 -16.431  10.762  1.00  0.00     0.278 HD
ATOM     12  H21 UNL     1     -26.941 -17.264  11.393  1.00  0.00     0.278 HD
HETATM   13  C12 UNL     1     -28.934 -15.588  11.769  1.00  0.00     0.139 C 
HETATM   14  C11 UNL     1     -29.682 -14.566  12.632  1.00  0.00     0.029 C 
HETATM   15  C10 UNL     1     -28.947 -14.411  13.924  1.00  0.00     0.003 C 
HETATM   16  C9  UNL     1     -27.538 -13.981  13.733  1.00  0.00     0.010 C 
BRANCH  10  17
HETATM   17  C7  UNL     1     -27.392 -14.356  10.247  1.00  0.00     0.292 C 
BRANCH  17  18
HETATM   18  O1  UNL     1     -26.163 -14.561   9.647  1.00  0.00    -0.369 OA
ATOM     19  H1  UNL     1     -26.164 -14.258   8.747  1.00  0.00     0.212 HD
ENDBRANCH  17  18
BRANCH  17  20
HETATM   20  O2  UNL     1     -28.457 -14.552   9.392  1.00  0.00    -0.369 OA
ATOM     21  H2  UNL     1     -28.394 -15.389   8.948  1.00  0.00     0.212 HD
ENDBRANCH  17  20
ENDBRANCH  10  17
ENDBRANCH   3   4
TORSDOF 4
ENDMDL
MODEL 3
REMARK VINA RESULT: -5.949043964      2.424      4.639
REMARK  4 active torsions:
REMARK  status: ('A' for Active; 'I' for Inactive)
REMARK    1  A    between atoms: C3_3  and  N1_4 
REMARK    2  A    between atoms: C6_11  and  C7_12 
REMARK    3  A    between atoms: C7_12  and  O1_13 
REMARK    4  A    between atoms: C7_12  and  O2_15 
ROOT
HETATM    1  C1  UNL     1     -30.711 -13.046  15.343  1.00  0.00     0.018 C 
HETATM    2  C2  UNL     1     -30.496 -13.058  14.169  1.00  0.00    -0.072 C 
HETATM    3  C3  UNL     1     -30.217 -13.058  12.758  1.00  0.00     0.162 C 
ENDROOT
BRANCH   3   4
HETATM    4  N1  UNL     1     -28.990 -13.673  12.365  1.00  0.00    -0.316 N 
HETATM    5  S1  UNL     1     -27.636 -13.057  13.141  1.00  0.00    -0.051 SA
HETATM    6  C4  UNL     1     -26.228 -14.094  13.400  1.00  0.00     0.131 C 
HETATM    7  C5  UNL     1     -26.642 -15.478  13.725  1.00  0.00     0.204 C 
HETATM    8  N2  UNL     1     -28.015 -15.560  14.137  1.00  0.00    -0.053 N 
HETATM    9  C8  UNL     1     -26.969 -16.330  12.528  1.00  0.00     0.060 C 
HETATM   10  C6  UNL     1     -28.388 -16.032  12.816  1.00  0.00     0.201 C 
ATOM     11  H22 UNL     1     -28.267 -16.104  14.962  1.00  0.00     0.278 HD
ATOM     12  H21 UNL     1     -28.477 -14.742  14.533  1.00  0.00     0.278 HD
HETATM   13  C12 UNL     1     -29.065 -15.029  11.985  1.00  0.00     0.139 C 
HETATM   14  C11 UNL     1     -28.647 -15.107  10.513  1.00  0.00     0.029 C 
HETATM   15  C10 UNL     1     -27.164 -14.937  10.433  1.00  0.00     0.003 C 
HETATM   16  C9  UNL     1     -26.428 -15.956  11.225  1.00  0.00     0.010 C 
BRANCH  10  17
HETATM   17  C7  UNL     1     -29.184 -17.347  12.894  1.00  0.00     0.292 C 
BRANCH  17  18
HETATM   18  O1  UNL     1     -29.626 -17.589  14.182  1.00  0.00    -0.369 OA
ATOM     19  H1  UNL     1     -30.391 -17.064  14.388  1.00  0.00     0.212 HD
ENDBRANCH  17  18
BRANCH  17  20
HETATM   20  O2  UNL     1     -30.193 -17.377  11.954  1.00  0.00    -0.369 OA
ATOM     21  H2  UNL     1     -30.269 -18.236  11.557  1.00  0.00     0.212 HD
ENDBRANCH  17  20
ENDBRANCH  10  17
ENDBRANCH   3   4
TORSDOF 4
ENDMDL
MODEL 4
REMARK VINA RESULT: -5.892633963      2.700      4.039
REMARK  4 active torsions:
REMARK  status: ('A' for Active; 'I' for Inactive)
REMARK    1  A    between atoms: C3_3  and  N1_4 
REMARK    2  A    between atoms: C6_11  and  C7_12 
REMARK    3  A    between atoms: C7_12  and  O1_13 
REMARK    4  A    between atoms: C7_12  and  O2_15 
ROOT
HETATM    1  C1  UNL     1     -30.317 -18.621  11.047  1.00  0.00     0.018 C 
HETATM    2  C2  UNL     1     -29.289 -18.099  10.738  1.00  0.00    -0.072 C 
HETATM    3  C3  UNL     1     -28.063 -17.450  10.356  1.00  0.00     0.162 C 
ENDROOT
BRANCH   3   4
HETATM    4  N1  UNL     1     -27.768 -16.229  11.032  1.00  0.00    -0.316 N 
HETATM    5  S1  UNL     1     -28.440 -14.869  10.313  1.00  0.00    -0.051 SA
HETATM    6  C4  UNL     1     -28.853 -13.467  11.308  1.00  0.00     0.131 C 
HETATM    7  C5  UNL     1     -29.385 -13.889  12.624  1.00  0.00     0.204 C 
HETATM    8  N2  UNL     1     -29.806 -15.262  12.633  1.00  0.00    -0.053 N 
HETATM    9  C8  UNL     1     -28.333 -14.224  13.646  1.00  0.00     0.060 C 
HETATM   10  C6  UNL     1     -28.573 -15.640  13.299  1.00  0.00     0.201 C 
ATOM     11  H22 UNL     1     -30.704 -15.516  13.043  1.00  0.00     0.278 HD
ATOM     12  H21 UNL     1     -30.073 -15.718  11.761  1.00  0.00     0.278 HD
HETATM   13  C12 UNL     1     -27.599 -16.313  12.430  1.00  0.00     0.139 C 
HETATM   14  C11 UNL     1     -26.155 -15.898  12.734  1.00  0.00     0.029 C 
HETATM   15  C10 UNL     1     -26.049 -14.414  12.587  1.00  0.00     0.003 C 
HETATM   16  C9  UNL     1     -26.987 -13.683  13.479  1.00  0.00     0.010 C 
BRANCH  10  17
HETATM   17  C7  UNL     1     -28.851 -16.445  14.581  1.00  0.00     0.292 C 
BRANCH  17  18
HETATM   18  O1  UNL     1     -29.577 -15.701  15.493  1.00  0.00    -0.369 OA
ATOM     19  H1  UNL     1     -29.082 -15.556  16.291  1.00  0.00     0.212 HD
ENDBRANCH  17  18
BRANCH  17  20
HETATM   20  O2  UNL     1     -29.424 -17.666  14.291  1.00  0.00    -0.369 OA
ATOM     21  H2  UNL     1     -30.193 -17.821  14.826  1.00  0.00     0.212 HD
ENDBRANCH  17  20
ENDBRANCH  10  17
ENDBRANCH   3   4
TORSDOF 4
ENDMDL
MODEL 5
REMARK VINA RESULT: -5.885419710      2.427      3.912
REMARK  4 active torsions:
REMARK  status: ('A' for Active; 'I' for Inactive)
REMARK    1  A    between atoms: C3_3  and  N1_4 
REMARK    2  A    between atoms: C6_11  and  C7_12 
REMARK    3  A    between atoms: C7_12  and  O1_13 
REMARK    4  A    between atoms: C7_12  and  O2_15 
ROOT
HETATM    1  C1  UNL     1     -29.490 -18.752  10.050  1.00  0.00     0.018 C 
HETATM    2  C2  UNL     1     -29.363 -17.573   9.916  1.00  0.00    -0.072 C 
HETATM    3  C3  UNL     1     -29.222 -16.148   9.777  1.00  0.00     0.162 C 
ENDROOT
BRANCH   3   4
HETATM    4  N1  UNL     1     -28.414 -15.503  10.761  1.00  0.00    -0.316 N 
HETATM    5  S1  UNL     1     -28.643 -13.843  10.854  1.00  0.00    -0.051 SA
HETATM    6  C4  UNL     1     -28.379 -13.007  12.389  1.00  0.00     0.131 C 
HETATM    7  C5  UNL     1     -28.837 -13.834  13.528  1.00  0.00     0.204 C 
HETATM    8  N2  UNL     1     -29.719 -14.892  13.121  1.00  0.00    -0.053 N 
HETATM    9  C8  UNL     1     -27.844 -14.866  13.992  1.00  0.00     0.060 C 
HETATM   10  C6  UNL     1     -28.626 -15.842  13.205  1.00  0.00     0.201 C 
ATOM     11  H22 UNL     1     -30.582 -15.062  13.638  1.00  0.00     0.278 HD
ATOM     12  H21 UNL     1     -30.253 -14.805  12.256  1.00  0.00     0.278 HD
HETATM   13  C12 UNL     1     -28.092 -16.265  11.903  1.00  0.00     0.139 C 
HETATM   14  C11 UNL     1     -26.569 -16.431  11.919  1.00  0.00     0.029 C 
HETATM   15  C10 UNL     1     -25.956 -15.134  12.339  1.00  0.00     0.003 C 
HETATM   16  C9  UNL     1     -26.432 -14.682  13.672  1.00  0.00     0.010 C 
BRANCH  10  17
HETATM   17  C7  UNL     1     -28.993 -17.044  14.092  1.00  0.00     0.292 C 
BRANCH  17  18
HETATM   18  O1  UNL     1     -29.520 -16.631  15.303  1.00  0.00    -0.369 OA
ATOM     19  H1  UNL     1     -29.646 -17.366  15.892  1.00  0.00     0.212 HD
ENDBRANCH  17  18
BRANCH  17  20
HETATM   20  O2  UNL     1     -29.802 -17.936  13.419  1.00  0.00    -0.369 OA
ATOM     21  H2  UNL     1     -29.288 -18.590  12.961  1.00  0.00     0.212 HD
ENDBRANCH  17  20
ENDBRANCH  10  17
ENDBRANCH   3   4
TORSDOF 4
ENDMDL
