MODEL 1
REMARK VINA RESULT: -2.326268169      0.000      0.000
REMARK  7 active torsions:
REMARK  status: ('A' for Active; 'I' for Inactive)
REMARK    1  A    between atoms: N1_1  and  C1_4 
REMARK    2  A    between atoms: N3_8  and  C3_9 
REMARK    3  A    between atoms: C3_9  and  C4_10 
REMARK    4  A    between atoms: C4_10  and  S1_11 
REMARK    5  A    between atoms: S1_11  and  C5_12 
REMARK    6  A    between atoms: C5_12  and  C6_13 
REMARK    7  A    between atoms: C6_13  and  C7_14 
ROOT
HETATM    1  S1  UNL     1     -25.491   0.714 -16.750  1.00  0.00    -0.167 SA
ENDROOT
BRANCH   1   2
HETATM    2  C4  UNL     1     -26.869   1.760 -16.286  1.00  0.00     0.095 C 
BRANCH   2   3
HETATM    3  C3  UNL     1     -28.210   1.180 -16.689  1.00  0.00     0.160 C 
BRANCH   3   4
HETATM    4  N3  UNL     1     -28.993   1.146 -15.443  1.00  0.00    -0.272 N 
HETATM    5  C2  UNL     1     -28.583   1.674 -14.255  1.00  0.00     0.218 A 
HETATM    6  N2  UNL     1     -29.551   1.460 -13.341  1.00  0.00    -0.185 N 
HETATM    7  C1  UNL     1     -30.556   0.809 -13.947  1.00  0.00     0.691 A 
ATOM      8  H2  UNL     1     -29.525   1.745 -12.362  1.00  0.00     0.185 HD
HETATM    9  N6  UNL     1     -30.176   0.636 -15.226  1.00  0.00    -0.129 N 
ATOM     10  H6  UNL     1     -30.740   0.167 -15.935  1.00  0.00     0.206 HD
BRANCH   7  11
HETATM   11  N1  UNL     1     -31.680   0.402 -13.464  1.00  0.00    -0.233 N 
ATOM     12  H12 UNL     1     -31.765  -0.283 -12.713  1.00  0.00     0.174 HD
ATOM     13  H11 UNL     1     -32.631   0.667 -13.720  1.00  0.00     0.174 HD
ENDBRANCH   7  11
ENDBRANCH   3   4
ENDBRANCH   2   3
ENDBRANCH   1   2
BRANCH   1  14
HETATM   14  C5  UNL     1     -26.066  -0.823 -17.495  1.00  0.00     0.078 C 
BRANCH  14  15
HETATM   15  C6  UNL     1     -25.805  -1.949 -16.502  1.00  0.00     0.052 C 
BRANCH  15  16
HETATM   16  C7  UNL     1     -27.083  -2.234 -15.788  1.00  0.00    -0.014 A 
HETATM   17  C8  UNL     1     -28.088  -2.910 -16.424  1.00  0.00     0.012 A 
HETATM   18  C9  UNL     1     -29.259  -3.143 -15.712  1.00  0.00     0.018 A 
HETATM   19  C10 UNL     1     -29.435  -2.725 -14.413  1.00  0.00     0.089 A 
HETATM   20  N4  UNL     1     -28.412  -2.061 -13.828  1.00  0.00    -0.352 N 
HETATM   21  C11 UNL     1     -27.260  -1.814 -14.486  1.00  0.00     0.104 A 
ATOM     22  H4  UNL     1     -28.515  -1.738 -12.866  1.00  0.00     0.166 HD
HETATM   23  N5  UNL     1     -26.293  -1.174 -13.892  1.00  0.00    -0.385 N 
ATOM     24  H52 UNL     1     -25.422  -0.987 -14.389  1.00  0.00     0.157 HD
ATOM     25  H51 UNL     1     -26.423  -0.864 -12.929  1.00  0.00     0.157 HD
ENDBRANCH  15  16
ENDBRANCH  14  15
ENDBRANCH   1  14
TORSDOF 7
ENDMDL
MODEL 2
REMARK VINA RESULT: -2.232389149      2.518      4.220
REMARK  7 active torsions:
REMARK  status: ('A' for Active; 'I' for Inactive)
REMARK    1  A    between atoms: N1_1  and  C1_4 
REMARK    2  A    between atoms: N3_8  and  C3_9 
REMARK    3  A    between atoms: C3_9  and  C4_10 
REMARK    4  A    between atoms: C4_10  and  S1_11 
REMARK    5  A    between atoms: S1_11  and  C5_12 
REMARK    6  A    between atoms: C5_12  and  C6_13 
REMARK    7  A    between atoms: C6_13  and  C7_14 
ROOT
HETATM    1  S1  UNL     1     -30.311   1.497 -14.784  1.00  0.00    -0.167 SA
ENDROOT
BRANCH   1   2
HETATM    2  C4  UNL     1     -28.569   1.781 -15.089  1.00  0.00     0.095 C 
BRANCH   2   3
HETATM    3  C3  UNL     1     -28.234   1.852 -16.566  1.00  0.00     0.160 C 
BRANCH   3   4
HETATM    4  N3  UNL     1     -27.071   0.964 -16.729  1.00  0.00    -0.272 N 
HETATM    5  C2  UNL     1     -25.789   1.301 -16.416  1.00  0.00     0.218 A 
HETATM    6  N2  UNL     1     -24.995   0.246 -16.694  1.00  0.00    -0.185 N 
HETATM    7  C1  UNL     1     -25.769  -0.739 -17.173  1.00  0.00     0.691 A 
ATOM      8  H2  UNL     1     -23.984   0.205 -16.561  1.00  0.00     0.185 HD
HETATM    9  N6  UNL     1     -27.027  -0.262 -17.180  1.00  0.00    -0.129 N 
ATOM     10  H6  UNL     1     -27.841  -0.789 -17.496  1.00  0.00     0.206 HD
BRANCH   7  11
HETATM   11  N1  UNL     1     -25.442  -1.923 -17.566  1.00  0.00    -0.233 N 
ATOM     12  H12 UNL     1     -24.676  -2.467 -17.168  1.00  0.00     0.174 HD
ATOM     13  H11 UNL     1     -25.856  -2.502 -18.296  1.00  0.00     0.174 HD
ENDBRANCH   7  11
ENDBRANCH   3   4
ENDBRANCH   2   3
ENDBRANCH   1   2
BRANCH   1  14
HETATM   14  C5  UNL     1     -30.565  -0.017 -13.840  1.00  0.00     0.078 C 
BRANCH  14  15
HETATM   15  C6  UNL     1     -30.514  -1.188 -14.813  1.00  0.00     0.052 C 
BRANCH  15  16
HETATM   16  C7  UNL     1     -29.151  -1.787 -14.737  1.00  0.00    -0.014 A 
HETATM   17  C8  UNL     1     -28.183  -1.195 -13.972  1.00  0.00     0.012 A 
HETATM   18  C9  UNL     1     -26.929  -1.794 -13.942  1.00  0.00     0.018 A 
HETATM   19  C10 UNL     1     -26.636  -2.941 -14.642  1.00  0.00     0.089 A 
HETATM   20  N4  UNL     1     -27.627  -3.488 -15.385  1.00  0.00    -0.352 N 
HETATM   21  C11 UNL     1     -28.857  -2.937 -15.440  1.00  0.00     0.104 A 
ATOM     22  H4  UNL     1     -27.438  -4.339 -15.915  1.00  0.00     0.166 HD
HETATM   23  N5  UNL     1     -29.789  -3.491 -16.162  1.00  0.00    -0.385 N 
ATOM     24  H52 UNL     1     -30.719  -3.074 -16.204  1.00  0.00     0.157 HD
ATOM     25  H51 UNL     1     -29.572  -4.342 -16.682  1.00  0.00     0.157 HD
ENDBRANCH  15  16
ENDBRANCH  14  15
ENDBRANCH   1  14
TORSDOF 7
ENDMDL
MODEL 3
REMARK VINA RESULT: -1.575692204      1.944      3.707
REMARK  7 active torsions:
REMARK  status: ('A' for Active; 'I' for Inactive)
REMARK    1  A    between atoms: N1_1  and  C1_4 
REMARK    2  A    between atoms: N3_8  and  C3_9 
REMARK    3  A    between atoms: C3_9  and  C4_10 
REMARK    4  A    between atoms: C4_10  and  S1_11 
REMARK    5  A    between atoms: S1_11  and  C5_12 
REMARK    6  A    between atoms: C5_12  and  C6_13 
REMARK    7  A    between atoms: C6_13  and  C7_14 
ROOT
HETATM    1  S1  UNL     1     -26.843  -3.454 -16.131  1.00  0.00    -0.167 SA
ENDROOT
BRANCH   1   2
HETATM    2  C4  UNL     1     -25.849  -2.110 -16.776  1.00  0.00     0.095 C 
BRANCH   2   3
HETATM    3  C3  UNL     1     -26.611  -1.227 -17.744  1.00  0.00     0.160 C 
BRANCH   3   4
HETATM    4  N3  UNL     1     -26.561   0.116 -17.143  1.00  0.00    -0.272 N 
HETATM    5  C2  UNL     1     -25.438   0.697 -16.635  1.00  0.00     0.218 A 
HETATM    6  N2  UNL     1     -25.767   1.921 -16.175  1.00  0.00    -0.185 N 
HETATM    7  C1  UNL     1     -27.078   2.107 -16.393  1.00  0.00     0.691 A 
ATOM      8  H2  UNL     1     -25.131   2.589 -15.739  1.00  0.00     0.185 HD
HETATM    9  N6  UNL     1     -27.525   0.984 -16.984  1.00  0.00    -0.129 N 
ATOM     10  H6  UNL     1     -28.492   0.830 -17.270  1.00  0.00     0.206 HD
BRANCH   7  11
HETATM   11  N1  UNL     1     -27.820   3.124 -16.117  1.00  0.00    -0.233 N 
ATOM     12  H12 UNL     1     -27.483   3.971 -15.657  1.00  0.00     0.174 HD
ATOM     13  H11 UNL     1     -28.813   3.271 -16.294  1.00  0.00     0.174 HD
ENDBRANCH   7  11
ENDBRANCH   3   4
ENDBRANCH   2   3
ENDBRANCH   1   2
BRANCH   1  14
HETATM   14  C5  UNL     1     -28.591  -3.016 -16.112  1.00  0.00     0.078 C 
BRANCH  14  15
HETATM   15  C6  UNL     1     -29.013  -2.839 -14.659  1.00  0.00     0.052 C 
BRANCH  15  16
HETATM   16  C7  UNL     1     -29.342  -1.400 -14.450  1.00  0.00    -0.014 A 
HETATM   17  C8  UNL     1     -30.618  -0.952 -14.653  1.00  0.00     0.012 A 
HETATM   18  C9  UNL     1     -30.866   0.401 -14.448  1.00  0.00     0.018 A 
HETATM   19  C10 UNL     1     -29.889   1.285 -14.054  1.00  0.00     0.089 A 
HETATM   20  N4  UNL     1     -28.642   0.792 -13.866  1.00  0.00    -0.352 N 
HETATM   21  C11 UNL     1     -28.361  -0.514 -14.055  1.00  0.00     0.104 A 
ATOM     22  H4  UNL     1     -27.897   1.425 -13.574  1.00  0.00     0.166 HD
HETATM   23  N5  UNL     1     -27.151  -0.955 -13.862  1.00  0.00    -0.385 N 
ATOM     24  H52 UNL     1     -26.938  -1.943 -14.005  1.00  0.00     0.157 HD
ATOM     25  H51 UNL     1     -26.426  -0.300 -13.570  1.00  0.00     0.157 HD
ENDBRANCH  15  16
ENDBRANCH  14  15
ENDBRANCH   1  14
TORSDOF 7
ENDMDL
MODEL 4
REMARK VINA RESULT: -1.343230571      1.912      3.448
REMARK  7 active torsions:
REMARK  status: ('A' for Active; 'I' for Inactive)
REMARK    1  A    between atoms: N1_1  and  C1_4 
REMARK    2  A    between atoms: N3_8  and  C3_9 
REMARK    3  A    between atoms: C3_9  and  C4_10 
REMARK    4  A    between atoms: C4_10  and  S1_11 
REMARK    5  A    between atoms: S1_11  and  C5_12 
REMARK    6  A    between atoms: C5_12  and  C6_13 
REMARK    7  A    between atoms: C6_13  and  C7_14 
ROOT
HETATM    1  S1  UNL     1     -29.614  -3.287 -15.355  1.00  0.00    -0.167 SA
ENDROOT
BRANCH   1   2
HETATM    2  C4  UNL     1     -29.684  -1.826 -14.320  1.00  0.00     0.095 C 
BRANCH   2   3
HETATM    3  C3  UNL     1     -30.605  -0.757 -14.872  1.00  0.00     0.160 C 
BRANCH   3   4
HETATM    4  N3  UNL     1     -29.819   0.487 -14.802  1.00  0.00    -0.272 N 
HETATM    5  C2  UNL     1     -29.382   1.062 -13.646  1.00  0.00     0.218 A 
HETATM    6  N2  UNL     1     -28.698   2.181 -13.964  1.00  0.00    -0.185 N 
HETATM    7  C1  UNL     1     -28.705   2.305 -15.300  1.00  0.00     0.691 A 
ATOM      8  H2  UNL     1     -28.254   2.819 -13.304  1.00  0.00     0.185 HD
HETATM    9  N6  UNL     1     -29.398   1.253 -15.773  1.00  0.00    -0.129 N 
ATOM     10  H6  UNL     1     -29.573   1.077 -16.762  1.00  0.00     0.206 HD
BRANCH   7  11
HETATM   11  N1  UNL     1     -28.177   3.216 -16.042  1.00  0.00    -0.233 N 
ATOM     12  H12 UNL     1     -28.040   4.185 -15.750  1.00  0.00     0.174 HD
ATOM     13  H11 UNL     1     -27.819   3.152 -16.995  1.00  0.00     0.174 HD
ENDBRANCH   7  11
ENDBRANCH   3   4
ENDBRANCH   2   3
ENDBRANCH   1   2
BRANCH   1  14
HETATM   14  C5  UNL     1     -28.002  -3.444 -16.144  1.00  0.00     0.078 C 
BRANCH  14  15
HETATM   15  C6  UNL     1     -26.968  -2.809 -15.224  1.00  0.00     0.052 C 
BRANCH  15  16
HETATM   16  C7  UNL     1     -26.514  -1.536 -15.855  1.00  0.00    -0.014 A 
HETATM   17  C8  UNL     1     -26.312  -1.475 -17.206  1.00  0.00     0.012 A 
HETATM   18  C9  UNL     1     -25.885  -0.264 -17.740  1.00  0.00     0.018 A 
HETATM   19  C10 UNL     1     -25.665   0.852 -16.967  1.00  0.00     0.089 A 
HETATM   20  N4  UNL     1     -25.880   0.741 -15.635  1.00  0.00    -0.352 N 
HETATM   21  C11 UNL     1     -26.294  -0.417 -15.079  1.00  0.00     0.104 A 
ATOM     22  H4  UNL     1     -25.724   1.552 -15.037  1.00  0.00     0.166 HD
HETATM   23  N5  UNL     1     -26.494  -0.489 -13.794  1.00  0.00    -0.385 N 
ATOM     24  H52 UNL     1     -26.807  -1.365 -13.374  1.00  0.00     0.157 HD
ATOM     25  H51 UNL     1     -26.331   0.338 -13.221  1.00  0.00     0.157 HD
ENDBRANCH  15  16
ENDBRANCH  14  15
ENDBRANCH   1  14
TORSDOF 7
ENDMDL
MODEL 5
REMARK VINA RESULT: -1.319810002      1.287      1.876
REMARK  7 active torsions:
REMARK  status: ('A' for Active; 'I' for Inactive)
REMARK    1  A    between atoms: N1_1  and  C1_4 
REMARK    2  A    between atoms: N3_8  and  C3_9 
REMARK    3  A    between atoms: C3_9  and  C4_10 
REMARK    4  A    between atoms: C4_10  and  S1_11 
REMARK    5  A    between atoms: S1_11  and  C5_12 
REMARK    6  A    between atoms: C5_12  and  C6_13 
REMARK    7  A    between atoms: C6_13  and  C7_14 
ROOT
HETATM    1  S1  UNL     1     -26.004  -0.155 -17.746  1.00  0.00    -0.167 SA
ENDROOT
BRANCH   1   2
HETATM    2  C4  UNL     1     -26.132   0.857 -16.273  1.00  0.00     0.095 C 
BRANCH   2   3
HETATM    3  C3  UNL     1     -27.154   1.967 -16.408  1.00  0.00     0.160 C 
BRANCH   3   4
HETATM    4  N3  UNL     1     -28.294   1.528 -15.586  1.00  0.00    -0.272 N 
HETATM    5  C2  UNL     1     -28.199   0.693 -14.513  1.00  0.00     0.218 A 
HETATM    6  N2  UNL     1     -29.436   0.515 -14.006  1.00  0.00    -0.185 N 
HETATM    7  C1  UNL     1     -30.295   1.228 -14.750  1.00  0.00     0.691 A 
ATOM      8  H2  UNL     1     -29.676  -0.061 -13.199  1.00  0.00     0.185 HD
HETATM    9  N6  UNL     1     -29.560   1.830 -15.702  1.00  0.00    -0.129 N 
ATOM     10  H6  UNL     1     -29.942   2.442 -16.423  1.00  0.00     0.206 HD
BRANCH   7  11
HETATM   11  N1  UNL     1     -31.573   1.354 -14.634  1.00  0.00    -0.233 N 
ATOM     12  H12 UNL     1     -32.072   2.237 -14.741  1.00  0.00     0.174 HD
ATOM     13  H11 UNL     1     -32.280   0.648 -14.430  1.00  0.00     0.174 HD
ENDBRANCH   7  11
ENDBRANCH   3   4
ENDBRANCH   2   3
ENDBRANCH   1   2
BRANCH   1  14
HETATM   14  C5  UNL     1     -25.604  -1.861 -17.327  1.00  0.00     0.078 C 
BRANCH  14  15
HETATM   15  C6  UNL     1     -26.915  -2.614 -17.139  1.00  0.00     0.052 C 
BRANCH  15  16
HETATM   16  C7  UNL     1     -27.235  -2.618 -15.682  1.00  0.00    -0.014 A 
HETATM   17  C8  UNL     1     -26.243  -2.417 -14.762  1.00  0.00     0.012 A 
HETATM   18  C9  UNL     1     -26.597  -2.436 -13.418  1.00  0.00     0.018 A 
HETATM   19  C10 UNL     1     -27.888  -2.646 -12.992  1.00  0.00     0.089 A 
HETATM   20  N4  UNL     1     -28.834  -2.840 -13.941  1.00  0.00    -0.352 N 
HETATM   21  C11 UNL     1     -28.530  -2.829 -15.256  1.00  0.00     0.104 A 
ATOM     22  H4  UNL     1     -29.800  -2.998 -13.655  1.00  0.00     0.166 HD
HETATM   23  N5  UNL     1     -29.464  -3.017 -16.144  1.00  0.00    -0.385 N 
ATOM     24  H52 UNL     1     -29.235  -3.009 -17.138  1.00  0.00     0.157 HD
ATOM     25  H51 UNL     1     -30.422  -3.172 -15.828  1.00  0.00     0.157 HD
ENDBRANCH  15  16
ENDBRANCH  14  15
ENDBRANCH   1  14
TORSDOF 7
ENDMDL
