MODEL 1
REMARK VINA RESULT: -3.170567194      0.000      0.000
REMARK  7 active torsions:
REMARK  status: ('A' for Active; 'I' for Inactive)
REMARK    1  A    between atoms: N1_1  and  C1_4 
REMARK    2  A    between atoms: C3_8  and  C4_9 
REMARK    3  A    between atoms: C4_9  and  C5_10 
REMARK    4  A    between atoms: C5_10  and  C6_11 
REMARK    5  A    between atoms: C6_11  and  O1_12 
REMARK    6  A    between atoms: O1_12  and  C7_13 
REMARK    7  A    between atoms: C7_13  and  C8_14 
ROOT
HETATM    1  C1  UNL     1     -30.433   0.527 -14.150  1.00  0.00     0.677 A 
HETATM    2  N2  UNL     1     -29.198   0.148 -13.850  1.00  0.00    -0.202 N 
ATOM      3  H2  UNL     1     -29.049  -0.507 -13.083  1.00  0.00     0.183 HD
HETATM    4  C2  UNL     1     -28.129   0.617 -14.545  1.00  0.00     0.117 A 
HETATM    5  C3  UNL     1     -28.328   1.496 -15.571  1.00  0.00     0.002 A 
HETATM    6  C12 UNL     1     -29.595   1.890 -15.885  1.00  0.00     0.122 A 
HETATM    7  N5  UNL     1     -29.839   2.712 -16.846  1.00  0.00    -0.385 N 
ATOM      8  H51 UNL     1     -30.787   3.006 -17.081  1.00  0.00     0.157 HD
ATOM      9  H52 UNL     1     -29.060   3.083 -17.389  1.00  0.00     0.157 HD
HETATM   10  N6  UNL     1     -30.642   1.391 -15.157  1.00  0.00    -0.177 N 
ATOM     11  H6  UNL     1     -31.593   1.680 -15.383  1.00  0.00     0.185 HD
ENDROOT
BRANCH   5  12
HETATM   12  C4  UNL     1     -27.182   2.027 -16.324  1.00  0.00     0.046 C 
BRANCH  12  13
HETATM   13  C5  UNL     1     -26.086   1.000 -16.248  1.00  0.00     0.031 C 
BRANCH  13  14
HETATM   14  C6  UNL     1     -25.970   0.139 -17.488  1.00  0.00     0.168 C 
BRANCH  14  15
HETATM   15  O1  UNL     1     -25.176  -0.939 -17.114  1.00  0.00    -0.385 OA
BRANCH  15  16
HETATM   16  C7  UNL     1     -25.762  -2.167 -17.232  1.00  0.00     0.226 C 
BRANCH  16  17
HETATM   17  C8  UNL     1     -26.696  -2.453 -16.129  1.00  0.00     0.049 A 
HETATM   18  C9  UNL     1     -28.002  -2.769 -16.431  1.00  0.00     0.030 A 
HETATM   19  C10 UNL     1     -28.892  -3.042 -15.409  1.00  0.00     0.021 A 
HETATM   20  C11 UNL     1     -28.490  -3.000 -14.093  1.00  0.00     0.107 A 
HETATM   21  N3  UNL     1     -27.212  -2.687 -13.865  1.00  0.00    -0.312 N 
HETATM   22  N4  UNL     1     -26.344  -2.422 -14.847  1.00  0.00    -0.303 N 
ATOM     23  H3  UNL     1     -26.883  -2.650 -12.900  1.00  0.00     0.186 HD
ATOM     24  H4  UNL     1     -25.381  -2.188 -14.605  1.00  0.00     0.186 HD
ENDBRANCH  16  17
ENDBRANCH  15  16
ENDBRANCH  14  15
ENDBRANCH  13  14
ENDBRANCH  12  13
ENDBRANCH   5  12
BRANCH   1  25
HETATM   25  N1  UNL     1     -31.429   0.050 -13.450  1.00  0.00    -0.234 N 
ATOM     26  H12 UNL     1     -31.539   0.281 -12.463  1.00  0.00     0.174 HD
ATOM     27  H11 UNL     1     -32.102  -0.565 -13.907  1.00  0.00     0.174 HD
ENDBRANCH   1  25
TORSDOF 7
ENDMDL
MODEL 2
REMARK VINA RESULT: -3.076962911      0.893      1.067
REMARK  7 active torsions:
REMARK  status: ('A' for Active; 'I' for Inactive)
REMARK    1  A    between atoms: N1_1  and  C1_4 
REMARK    2  A    between atoms: C3_8  and  C4_9 
REMARK    3  A    between atoms: C4_9  and  C5_10 
REMARK    4  A    between atoms: C5_10  and  C6_11 
REMARK    5  A    between atoms: C6_11  and  O1_12 
REMARK    6  A    between atoms: O1_12  and  C7_13 
REMARK    7  A    between atoms: C7_13  and  C8_14 
ROOT
HETATM    1  C1  UNL     1     -30.434   0.520 -14.152  1.00  0.00     0.677 A 
HETATM    2  N2  UNL     1     -29.199   0.136 -13.861  1.00  0.00    -0.202 N 
ATOM      3  H2  UNL     1     -29.047  -0.522 -13.097  1.00  0.00     0.183 HD
HETATM    4  C2  UNL     1     -28.132   0.603 -14.560  1.00  0.00     0.117 A 
HETATM    5  C3  UNL     1     -28.334   1.486 -15.583  1.00  0.00     0.002 A 
HETATM    6  C12 UNL     1     -29.602   1.885 -15.888  1.00  0.00     0.122 A 
HETATM    7  N5  UNL     1     -29.849   2.710 -16.845  1.00  0.00    -0.385 N 
ATOM      8  H51 UNL     1     -30.797   3.009 -17.073  1.00  0.00     0.157 HD
ATOM      9  H52 UNL     1     -29.071   3.080 -17.392  1.00  0.00     0.157 HD
HETATM   10  N6  UNL     1     -30.646   1.387 -15.155  1.00  0.00    -0.177 N 
ATOM     11  H6  UNL     1     -31.598   1.680 -15.374  1.00  0.00     0.185 HD
ENDROOT
BRANCH   5  12
HETATM   12  C4  UNL     1     -27.191   2.015 -16.341  1.00  0.00     0.046 C 
BRANCH  12  13
HETATM   13  C5  UNL     1     -26.082   1.003 -16.238  1.00  0.00     0.031 C 
BRANCH  13  14
HETATM   14  C6  UNL     1     -25.953   0.114 -17.456  1.00  0.00     0.168 C 
BRANCH  14  15
HETATM   15  O1  UNL     1     -25.192  -0.972 -17.039  1.00  0.00    -0.385 OA
BRANCH  15  16
HETATM   16  C7  UNL     1     -25.763  -2.197 -17.236  1.00  0.00     0.226 C 
BRANCH  16  17
HETATM   17  C8  UNL     1     -26.792  -2.507 -16.227  1.00  0.00     0.049 A 
HETATM   18  C9  UNL     1     -26.438  -2.501 -14.896  1.00  0.00     0.030 A 
HETATM   19  C10 UNL     1     -27.390  -2.789 -13.937  1.00  0.00     0.021 A 
HETATM   20  C11 UNL     1     -28.687  -3.083 -14.294  1.00  0.00     0.107 A 
HETATM   21  N3  UNL     1     -28.967  -3.072 -15.600  1.00  0.00    -0.312 N 
HETATM   22  N4  UNL     1     -28.053  -2.795 -16.535  1.00  0.00    -0.303 N 
ATOM     23  H3  UNL     1     -29.920  -3.285 -15.896  1.00  0.00     0.186 HD
ATOM     24  H4  UNL     1     -28.332  -2.806 -17.516  1.00  0.00     0.186 HD
ENDBRANCH  16  17
ENDBRANCH  15  16
ENDBRANCH  14  15
ENDBRANCH  13  14
ENDBRANCH  12  13
ENDBRANCH   5  12
BRANCH   1  25
HETATM   25  N1  UNL     1     -31.427   0.044 -13.448  1.00  0.00    -0.234 N 
ATOM     26  H12 UNL     1     -31.514   0.248 -12.453  1.00  0.00     0.174 HD
ATOM     27  H11 UNL     1     -32.122  -0.543 -13.909  1.00  0.00     0.174 HD
ENDBRANCH   1  25
TORSDOF 7
ENDMDL
MODEL 3
REMARK VINA RESULT: -2.911802001      0.652      1.580
REMARK  7 active torsions:
REMARK  status: ('A' for Active; 'I' for Inactive)
REMARK    1  A    between atoms: N1_1  and  C1_4 
REMARK    2  A    between atoms: C3_8  and  C4_9 
REMARK    3  A    between atoms: C4_9  and  C5_10 
REMARK    4  A    between atoms: C5_10  and  C6_11 
REMARK    5  A    between atoms: C6_11  and  O1_12 
REMARK    6  A    between atoms: O1_12  and  C7_13 
REMARK    7  A    between atoms: C7_13  and  C8_14 
ROOT
HETATM    1  C1  UNL     1     -30.495   0.730 -14.251  1.00  0.00     0.677 A 
HETATM    2  N2  UNL     1     -30.579   1.542 -15.295  1.00  0.00    -0.202 N 
ATOM      3  H2  UNL     1     -31.494   1.873 -15.599  1.00  0.00     0.183 HD
HETATM    4  C2  UNL     1     -29.468   1.941 -15.968  1.00  0.00     0.117 A 
HETATM    5  C3  UNL     1     -28.242   1.497 -15.562  1.00  0.00     0.002 A 
HETATM    6  C12 UNL     1     -28.148   0.662 -14.489  1.00  0.00     0.122 A 
HETATM    7  N5  UNL     1     -27.018   0.219 -14.061  1.00  0.00    -0.385 N 
ATOM      8  H51 UNL     1     -26.948  -0.406 -13.258  1.00  0.00     0.157 HD
ATOM      9  H52 UNL     1     -26.163   0.499 -14.543  1.00  0.00     0.157 HD
HETATM   10  N6  UNL     1     -29.295   0.287 -13.842  1.00  0.00    -0.177 N 
ATOM     11  H6  UNL     1     -29.237  -0.338 -13.038  1.00  0.00     0.185 HD
ENDROOT
BRANCH   5  12
HETATM   12  C4  UNL     1     -27.030   1.905 -16.288  1.00  0.00     0.046 C 
BRANCH  12  13
HETATM   13  C5  UNL     1     -26.796   0.887 -17.371  1.00  0.00     0.031 C 
BRANCH  13  14
HETATM   14  C6  UNL     1     -25.571   0.026 -17.144  1.00  0.00     0.168 C 
BRANCH  14  15
HETATM   15  O1  UNL     1     -25.843  -1.175 -17.788  1.00  0.00    -0.385 OA
BRANCH  15  16
HETATM   16  C7  UNL     1     -25.617  -2.300 -17.049  1.00  0.00     0.226 C 
BRANCH  16  17
HETATM   17  C8  UNL     1     -26.685  -2.551 -16.065  1.00  0.00     0.049 A 
HETATM   18  C9  UNL     1     -27.975  -2.717 -16.515  1.00  0.00     0.030 A 
HETATM   19  C10 UNL     1     -28.989  -2.954 -15.607  1.00  0.00     0.021 A 
HETATM   20  C11 UNL     1     -28.726  -3.025 -14.257  1.00  0.00     0.107 A 
HETATM   21  N3  UNL     1     -27.455  -2.856 -13.883  1.00  0.00    -0.312 N 
HETATM   22  N4  UNL     1     -26.468  -2.626 -14.755  1.00  0.00    -0.303 N 
ATOM     23  H3  UNL     1     -27.228  -2.904 -12.890  1.00  0.00     0.186 HD
ATOM     24  H4  UNL     1     -25.518  -2.504 -14.403  1.00  0.00     0.186 HD
ENDBRANCH  16  17
ENDBRANCH  15  16
ENDBRANCH  14  15
ENDBRANCH  13  14
ENDBRANCH  12  13
ENDBRANCH   5  12
BRANCH   1  25
HETATM   25  N1  UNL     1     -31.593   0.373 -13.638  1.00  0.00    -0.234 N 
ATOM     26  H12 UNL     1     -32.228   1.067 -13.244  1.00  0.00     0.174 HD
ATOM     27  H11 UNL     1     -31.811  -0.620 -13.555  1.00  0.00     0.174 HD
ENDBRANCH   1  25
TORSDOF 7
ENDMDL
MODEL 4
REMARK VINA RESULT: -2.890087005      1.396      4.393
REMARK  7 active torsions:
REMARK  status: ('A' for Active; 'I' for Inactive)
REMARK    1  A    between atoms: N1_1  and  C1_4 
REMARK    2  A    between atoms: C3_8  and  C4_9 
REMARK    3  A    between atoms: C4_9  and  C5_10 
REMARK    4  A    between atoms: C5_10  and  C6_11 
REMARK    5  A    between atoms: C6_11  and  O1_12 
REMARK    6  A    between atoms: O1_12  and  C7_13 
REMARK    7  A    between atoms: C7_13  and  C8_14 
ROOT
HETATM    1  C1  UNL     1     -29.182  -3.070 -14.871  1.00  0.00     0.677 A 
HETATM    2  N2  UNL     1     -29.001  -3.106 -16.184  1.00  0.00    -0.202 N 
ATOM      3  H2  UNL     1     -29.767  -3.406 -16.787  1.00  0.00     0.183 HD
HETATM    4  C2  UNL     1     -27.814  -2.752 -16.741  1.00  0.00     0.117 A 
HETATM    5  C3  UNL     1     -26.786  -2.351 -15.935  1.00  0.00     0.002 A 
HETATM    6  C12 UNL     1     -26.966  -2.311 -14.584  1.00  0.00     0.122 A 
HETATM    7  N5  UNL     1     -26.034  -1.936 -13.779  1.00  0.00    -0.385 N 
ATOM      8  H51 UNL     1     -26.169  -1.906 -12.768  1.00  0.00     0.157 HD
ATOM      9  H52 UNL     1     -25.129  -1.662 -14.163  1.00  0.00     0.157 HD
HETATM   10  N6  UNL     1     -28.180  -2.678 -14.068  1.00  0.00    -0.177 N 
ATOM     11  H6  UNL     1     -28.325  -2.653 -13.059  1.00  0.00     0.185 HD
ENDROOT
BRANCH   5  12
HETATM   12  C4  UNL     1     -25.489  -1.979 -16.518  1.00  0.00     0.046 C 
BRANCH  12  13
HETATM   13  C5  UNL     1     -25.746  -0.875 -17.508  1.00  0.00     0.031 C 
BRANCH  13  14
HETATM   14  C6  UNL     1     -25.689   0.512 -16.902  1.00  0.00     0.168 C 
BRANCH  14  15
HETATM   15  O1  UNL     1     -26.927   1.082 -17.173  1.00  0.00    -0.385 OA
BRANCH  15  16
HETATM   16  C7  UNL     1     -27.348   2.021 -16.276  1.00  0.00     0.226 C 
BRANCH  16  17
HETATM   17  C8  UNL     1     -28.583   1.620 -15.579  1.00  0.00     0.049 A 
HETATM   18  C9  UNL     1     -28.490   0.753 -14.513  1.00  0.00     0.030 A 
HETATM   19  C10 UNL     1     -29.638   0.367 -13.847  1.00  0.00     0.021 A 
HETATM   20  C11 UNL     1     -30.872   0.836 -14.235  1.00  0.00     0.107 A 
HETATM   21  N3  UNL     1     -30.896   1.674 -15.275  1.00  0.00    -0.312 N 
HETATM   22  N4  UNL     1     -29.792   2.053 -15.926  1.00  0.00    -0.303 N 
ATOM     23  H3  UNL     1     -31.796   2.040 -15.586  1.00  0.00     0.186 HD
ATOM     24  H4  UNL     1     -29.879   2.694 -16.714  1.00  0.00     0.186 HD
ENDBRANCH  16  17
ENDBRANCH  15  16
ENDBRANCH  14  15
ENDBRANCH  13  14
ENDBRANCH  12  13
ENDBRANCH   5  12
BRANCH   1  25
HETATM   25  N1  UNL     1     -30.342  -3.423 -14.383  1.00  0.00    -0.234 N 
ATOM     26  H12 UNL     1     -31.159  -3.526 -14.985  1.00  0.00     0.174 HD
ATOM     27  H11 UNL     1     -30.424  -3.595 -13.381  1.00  0.00     0.174 HD
ENDBRANCH   1  25
TORSDOF 7
ENDMDL
MODEL 5
REMARK VINA RESULT: -2.524040318      1.727      3.750
REMARK  7 active torsions:
REMARK  status: ('A' for Active; 'I' for Inactive)
REMARK    1  A    between atoms: N1_1  and  C1_4 
REMARK    2  A    between atoms: C3_8  and  C4_9 
REMARK    3  A    between atoms: C4_9  and  C5_10 
REMARK    4  A    between atoms: C5_10  and  C6_11 
REMARK    5  A    between atoms: C6_11  and  O1_12 
REMARK    6  A    between atoms: O1_12  and  C7_13 
REMARK    7  A    between atoms: C7_13  and  C8_14 
ROOT
HETATM    1  C1  UNL     1     -30.096   0.595 -14.636  1.00  0.00     0.677 A 
HETATM    2  N2  UNL     1     -28.902   0.850 -14.122  1.00  0.00    -0.202 N 
ATOM      3  H2  UNL     1     -28.636   1.816 -13.930  1.00  0.00     0.183 HD
HETATM    4  C2  UNL     1     -28.025  -0.150 -13.845  1.00  0.00     0.117 A 
HETATM    5  C3  UNL     1     -28.379  -1.444 -14.103  1.00  0.00     0.002 A 
HETATM    6  C12 UNL     1     -29.606  -1.714 -14.632  1.00  0.00     0.122 A 
HETATM    7  N5  UNL     1     -29.992  -2.915 -14.890  1.00  0.00    -0.385 N 
ATOM      8  H51 UNL     1     -30.911  -3.117 -15.286  1.00  0.00     0.157 HD
ATOM      9  H52 UNL     1     -29.359  -3.690 -14.694  1.00  0.00     0.157 HD
HETATM   10  N6  UNL     1     -30.456  -0.673 -14.894  1.00  0.00    -0.177 N 
ATOM     11  H6  UNL     1     -31.376  -0.864 -15.291  1.00  0.00     0.185 HD
ENDROOT
BRANCH   5  12
HETATM   12  C4  UNL     1     -27.437  -2.538 -13.826  1.00  0.00     0.046 C 
BRANCH  12  13
HETATM   13  C5  UNL     1     -26.534  -2.662 -15.024  1.00  0.00     0.031 C 
BRANCH  13  14
HETATM   14  C6  UNL     1     -27.103  -3.525 -16.130  1.00  0.00     0.168 C 
BRANCH  14  15
HETATM   15  O1  UNL     1     -27.013  -2.752 -17.281  1.00  0.00    -0.385 OA
BRANCH  15  16
HETATM   16  C7  UNL     1     -25.913  -1.948 -17.362  1.00  0.00     0.226 C 
BRANCH  16  17
HETATM   17  C8  UNL     1     -26.225  -0.537 -17.075  1.00  0.00     0.049 A 
HETATM   18  C9  UNL     1     -25.243   0.263 -16.537  1.00  0.00     0.030 A 
HETATM   19  C10 UNL     1     -25.517   1.589 -16.262  1.00  0.00     0.021 A 
HETATM   20  C11 UNL     1     -26.761   2.121 -16.518  1.00  0.00     0.107 A 
HETATM   21  N3  UNL     1     -27.671   1.295 -17.041  1.00  0.00    -0.312 N 
HETATM   22  N4  UNL     1     -27.414   0.011 -17.310  1.00  0.00    -0.303 N 
ATOM     23  H3  UNL     1     -28.602   1.659 -17.244  1.00  0.00     0.186 HD
ATOM     24  H4  UNL     1     -28.155  -0.568 -17.707  1.00  0.00     0.186 HD
ENDBRANCH  16  17
ENDBRANCH  15  16
ENDBRANCH  14  15
ENDBRANCH  13  14
ENDBRANCH  12  13
ENDBRANCH   5  12
BRANCH   1  25
HETATM   25  N1  UNL     1     -30.904   1.592 -14.887  1.00  0.00    -0.234 N 
ATOM     26  H12 UNL     1     -31.146   2.269 -14.164  1.00  0.00     0.174 HD
ATOM     27  H11 UNL     1     -31.296   1.686 -15.823  1.00  0.00     0.174 HD
ENDBRANCH   1  25
TORSDOF 7
ENDMDL
