MODEL 1
REMARK VINA RESULT: -1.972806259      0.000      0.000
REMARK  9 active torsions:
REMARK  status: ('A' for Active; 'I' for Inactive)
REMARK    1  A    between atoms: N1_1  and  C1_5 
REMARK    2  A    between atoms: C2_8  and  N3_9 
REMARK    3  A    between atoms: N3_9  and  C3_11 
REMARK    4  A    between atoms: C3_11  and  C4_12 
REMARK    5  A    between atoms: C4_12  and  C5_13 
REMARK    6  A    between atoms: C5_13  and  C6_14 
REMARK    7  A    between atoms: C6_14  and  C7_15 
REMARK    8  A    between atoms: C7_15  and  C8_16 
REMARK    9  A    between atoms: C14_22  and  N4_23 
ROOT
HETATM    1  C1  UNL     1     -30.938   0.890 -14.933  1.00  0.00     0.487 C 
HETATM    2  N2  UNL     1     -30.164   1.822 -15.720  1.00  0.00    -0.327 N 
ATOM      3  H2  UNL     1     -30.558   2.440 -16.430  1.00  0.00     0.164 HD
HETATM    4  C2  UNL     1     -28.927   1.772 -15.415  1.00  0.00     0.135 C 
HETATM    5  C14 UNL     1     -28.779   0.754 -14.350  1.00  0.00     0.451 C 
HETATM    6  N5  UNL     1     -29.965  -0.068 -14.425  1.00  0.00     0.007 N 
ATOM      7  H51 UNL     1     -29.868  -0.926 -14.969  1.00  0.00     0.284 HD
ATOM      8  H52 UNL     1     -30.226  -0.541 -13.560  1.00  0.00     0.284 HD
ENDROOT
BRANCH   4   9
HETATM    9  N3  UNL     1     -27.880   2.557 -15.998  1.00  0.00    -0.377 N 
ATOM     10  H3  UNL     1     -27.833   3.558 -15.807  1.00  0.00     0.160 HD
BRANCH   9  11
HETATM   11  C3  UNL     1     -26.894   1.948 -16.848  1.00  0.00     0.121 C 
BRANCH  11  12
HETATM   12  C4  UNL     1     -25.877   1.183 -15.999  1.00  0.00     0.020 C 
BRANCH  12  13
HETATM   13  C5  UNL     1     -25.187   0.208 -16.940  1.00  0.00     0.002 C 
BRANCH  13  14
HETATM   14  C6  UNL     1     -26.146  -0.745 -17.566  1.00  0.00     0.005 C 
BRANCH  14  15
HETATM   15  C7  UNL     1     -25.969  -2.134 -17.060  1.00  0.00     0.038 C 
BRANCH  15  16
HETATM   16  C8  UNL     1     -26.931  -2.452 -16.003  1.00  0.00    -0.058 A 
HETATM   17  C9  UNL     1     -26.569  -2.308 -14.685  1.00  0.00     0.007 A 
HETATM   18  C10 UNL     1     -27.484  -2.597 -13.711  1.00  0.00     0.001 A 
HETATM   19  C11 UNL     1     -28.735  -3.021 -14.035  1.00  0.00     0.000 A 
HETATM   20  C12 UNL     1     -29.108  -3.169 -15.361  1.00  0.00     0.001 A 
HETATM   21  C13 UNL     1     -28.192  -2.880 -16.340  1.00  0.00     0.007 A 
ENDBRANCH  15  16
ENDBRANCH  14  15
ENDBRANCH  13  14
ENDBRANCH  12  13
ENDBRANCH  11  12
ENDBRANCH   9  11
ENDBRANCH   4   9
BRANCH   5  22
HETATM   22  N4  UNL     1     -28.638   1.363 -13.040  1.00  0.00    -0.043 N 
ATOM     23  H43 UNL     1     -27.663   1.385 -12.743  1.00  0.00     0.277 HD
ATOM     24  H42 UNL     1     -28.816   2.367 -13.075  1.00  0.00     0.277 HD
ATOM     25  H41 UNL     1     -29.228   0.905 -12.344  1.00  0.00     0.277 HD
ENDBRANCH   5  22
BRANCH   1  26
HETATM   26  N1  UNL     1     -31.684   1.539 -13.897  1.00  0.00    -0.033 N 
ATOM     27  H13 UNL     1     -31.193   1.490 -13.005  1.00  0.00     0.278 HD
ATOM     28  H12 UNL     1     -31.689   2.551 -14.027  1.00  0.00     0.278 HD
ATOM     29  H11 UNL     1     -32.633   1.174 -13.815  1.00  0.00     0.278 HD
ENDBRANCH   1  26
TORSDOF 9
ENDMDL
MODEL 2
REMARK VINA RESULT: -1.936698424      0.477      1.200
REMARK  9 active torsions:
REMARK  status: ('A' for Active; 'I' for Inactive)
REMARK    1  A    between atoms: N1_1  and  C1_5 
REMARK    2  A    between atoms: C2_8  and  N3_9 
REMARK    3  A    between atoms: N3_9  and  C3_11 
REMARK    4  A    between atoms: C3_11  and  C4_12 
REMARK    5  A    between atoms: C4_12  and  C5_13 
REMARK    6  A    between atoms: C5_13  and  C6_14 
REMARK    7  A    between atoms: C6_14  and  C7_15 
REMARK    8  A    between atoms: C7_15  and  C8_16 
REMARK    9  A    between atoms: C14_22  and  N4_23 
ROOT
HETATM    1  C1  UNL     1     -30.921   0.900 -14.930  1.00  0.00     0.487 C 
HETATM    2  N2  UNL     1     -30.172   1.848 -15.722  1.00  0.00    -0.327 N 
ATOM      3  H2  UNL     1     -30.585   2.465 -16.421  1.00  0.00     0.164 HD
HETATM    4  C2  UNL     1     -28.931   1.815 -15.435  1.00  0.00     0.135 C 
HETATM    5  C14 UNL     1     -28.752   0.792 -14.379  1.00  0.00     0.451 C 
HETATM    6  N5  UNL     1     -29.926  -0.047 -14.442  1.00  0.00     0.007 N 
ATOM      7  H51 UNL     1     -29.825  -0.899 -14.993  1.00  0.00     0.284 HD
ATOM      8  H52 UNL     1     -30.167  -0.528 -13.576  1.00  0.00     0.284 HD
ENDROOT
BRANCH   4   9
HETATM    9  N3  UNL     1     -27.904   2.619 -16.028  1.00  0.00    -0.377 N 
ATOM     10  H3  UNL     1     -28.065   3.615 -16.177  1.00  0.00     0.160 HD
BRANCH   9  11
HETATM   11  C3  UNL     1     -26.648   2.035 -16.415  1.00  0.00     0.121 C 
BRANCH  11  12
HETATM   12  C4  UNL     1     -26.894   0.737 -17.184  1.00  0.00     0.020 C 
BRANCH  12  13
HETATM   13  C5  UNL     1     -25.564   0.001 -17.208  1.00  0.00     0.002 C 
BRANCH  13  14
HETATM   14  C6  UNL     1     -25.720  -1.434 -17.579  1.00  0.00     0.005 C 
BRANCH  14  15
HETATM   15  C7  UNL     1     -25.519  -2.340 -16.414  1.00  0.00     0.038 C 
BRANCH  15  16
HETATM   16  C8  UNL     1     -26.762  -2.551 -15.671  1.00  0.00    -0.058 A 
HETATM   17  C9  UNL     1     -27.896  -2.950 -16.336  1.00  0.00     0.007 A 
HETATM   18  C10 UNL     1     -29.045  -3.154 -15.625  1.00  0.00     0.001 A 
HETATM   19  C11 UNL     1     -29.073  -2.967 -14.278  1.00  0.00     0.000 A 
HETATM   20  C12 UNL     1     -27.934  -2.564 -13.599  1.00  0.00     0.001 A 
HETATM   21  C13 UNL     1     -26.780  -2.358 -14.310  1.00  0.00     0.007 A 
ENDBRANCH  15  16
ENDBRANCH  14  15
ENDBRANCH  13  14
ENDBRANCH  12  13
ENDBRANCH  11  12
ENDBRANCH   9  11
ENDBRANCH   4   9
BRANCH   5  22
HETATM   22  N4  UNL     1     -28.600   1.396 -13.067  1.00  0.00    -0.043 N 
ATOM     23  H43 UNL     1     -28.788   2.397 -13.094  1.00  0.00     0.277 HD
ATOM     24  H42 UNL     1     -29.350   1.110 -12.437  1.00  0.00     0.277 HD
ATOM     25  H41 UNL     1     -27.682   1.201 -12.666  1.00  0.00     0.277 HD
ENDBRANCH   5  22
BRANCH   1  26
HETATM   26  N1  UNL     1     -31.661   1.532 -13.878  1.00  0.00    -0.033 N 
ATOM     27  H13 UNL     1     -32.020   2.439 -14.175  1.00  0.00     0.278 HD
ATOM     28  H12 UNL     1     -32.546   1.052 -13.712  1.00  0.00     0.278 HD
ATOM     29  H11 UNL     1     -31.120   1.614 -13.018  1.00  0.00     0.278 HD
ENDBRANCH   1  26
TORSDOF 9
ENDMDL
MODEL 3
REMARK VINA RESULT: -1.929865933      1.112      1.684
REMARK  9 active torsions:
REMARK  status: ('A' for Active; 'I' for Inactive)
REMARK    1  A    between atoms: N1_1  and  C1_5 
REMARK    2  A    between atoms: C2_8  and  N3_9 
REMARK    3  A    between atoms: N3_9  and  C3_11 
REMARK    4  A    between atoms: C3_11  and  C4_12 
REMARK    5  A    between atoms: C4_12  and  C5_13 
REMARK    6  A    between atoms: C5_13  and  C6_14 
REMARK    7  A    between atoms: C6_14  and  C7_15 
REMARK    8  A    between atoms: C7_15  and  C8_16 
REMARK    9  A    between atoms: C14_22  and  N4_23 
ROOT
HETATM    1  C1  UNL     1     -30.261  -0.755 -14.035  1.00  0.00     0.487 C 
HETATM    2  N2  UNL     1     -29.068  -0.034 -14.411  1.00  0.00    -0.327 N 
ATOM      3  H2  UNL     1     -28.169  -0.474 -14.613  1.00  0.00     0.164 HD
HETATM    4  C2  UNL     1     -29.280   1.222 -14.459  1.00  0.00     0.135 C 
HETATM    5  C14 UNL     1     -30.700   1.441 -14.101  1.00  0.00     0.451 C 
HETATM    6  N5  UNL     1     -31.120   0.243 -13.410  1.00  0.00     0.007 N 
ATOM      7  H51 UNL     1     -31.073   0.286 -12.392  1.00  0.00     0.284 HD
ATOM      8  H52 UNL     1     -32.120   0.045 -13.446  1.00  0.00     0.284 HD
ENDROOT
BRANCH   4   9
HETATM    9  N3  UNL     1     -28.319   2.230 -14.795  1.00  0.00    -0.377 N 
ATOM     10  H3  UNL     1     -27.941   2.832 -14.063  1.00  0.00     0.160 HD
BRANCH   9  11
HETATM   11  C3  UNL     1     -27.882   2.402 -16.154  1.00  0.00     0.121 C 
BRANCH  11  12
HETATM   12  C4  UNL     1     -26.509   1.756 -16.343  1.00  0.00     0.020 C 
BRANCH  12  13
HETATM   13  C5  UNL     1     -26.749   0.472 -17.123  1.00  0.00     0.002 C 
BRANCH  13  14
HETATM   14  C6  UNL     1     -25.492  -0.297 -17.342  1.00  0.00     0.005 C 
BRANCH  14  15
HETATM   15  C7  UNL     1     -25.742  -1.762 -17.446  1.00  0.00     0.038 C 
BRANCH  15  16
HETATM   16  C8  UNL     1     -26.467  -2.272 -16.281  1.00  0.00    -0.058 A 
HETATM   17  C9  UNL     1     -25.970  -2.053 -15.018  1.00  0.00     0.007 A 
HETATM   18  C10 UNL     1     -26.667  -2.525 -13.940  1.00  0.00     0.001 A 
HETATM   19  C11 UNL     1     -27.834  -3.202 -14.109  1.00  0.00     0.000 A 
HETATM   20  C12 UNL     1     -28.342  -3.427 -15.378  1.00  0.00     0.001 A 
HETATM   21  C13 UNL     1     -27.646  -2.955 -16.460  1.00  0.00     0.007 A 
ENDBRANCH  15  16
ENDBRANCH  14  15
ENDBRANCH  13  14
ENDBRANCH  12  13
ENDBRANCH  11  12
ENDBRANCH   9  11
ENDBRANCH   4   9
BRANCH   5  22
HETATM   22  N4  UNL     1     -31.518   1.692 -15.274  1.00  0.00    -0.043 N 
ATOM     23  H43 UNL     1     -31.208   1.134 -16.070  1.00  0.00     0.277 HD
ATOM     24  H42 UNL     1     -32.455   1.305 -15.164  1.00  0.00     0.277 HD
ATOM     25  H41 UNL     1     -31.549   2.685 -15.506  1.00  0.00     0.277 HD
ENDBRANCH   5  22
BRANCH   1  26
HETATM   26  N1  UNL     1     -30.877  -1.409 -15.151  1.00  0.00    -0.033 N 
ATOM     27  H13 UNL     1     -31.817  -1.049 -15.316  1.00  0.00     0.278 HD
ATOM     28  H12 UNL     1     -30.438  -1.131 -16.029  1.00  0.00     0.278 HD
ATOM     29  H11 UNL     1     -30.885  -2.424 -15.050  1.00  0.00     0.278 HD
ENDBRANCH   1  26
TORSDOF 9
ENDMDL
MODEL 4
REMARK VINA RESULT: -1.922876138      1.111      1.998
REMARK  9 active torsions:
REMARK  status: ('A' for Active; 'I' for Inactive)
REMARK    1  A    between atoms: N1_1  and  C1_5 
REMARK    2  A    between atoms: C2_8  and  N3_9 
REMARK    3  A    between atoms: N3_9  and  C3_11 
REMARK    4  A    between atoms: C3_11  and  C4_12 
REMARK    5  A    between atoms: C4_12  and  C5_13 
REMARK    6  A    between atoms: C5_13  and  C6_14 
REMARK    7  A    between atoms: C6_14  and  C7_15 
REMARK    8  A    between atoms: C7_15  and  C8_16 
REMARK    9  A    between atoms: C14_22  and  N4_23 
ROOT
HETATM    1  C1  UNL     1     -30.244  -0.765 -14.062  1.00  0.00     0.487 C 
HETATM    2  N2  UNL     1     -29.051  -0.045 -14.445  1.00  0.00    -0.327 N 
ATOM      3  H2  UNL     1     -28.160  -0.488 -14.671  1.00  0.00     0.164 HD
HETATM    4  C2  UNL     1     -29.254   1.213 -14.464  1.00  0.00     0.135 C 
HETATM    5  C14 UNL     1     -30.667   1.435 -14.077  1.00  0.00     0.451 C 
HETATM    6  N5  UNL     1     -31.083   0.227 -13.403  1.00  0.00     0.007 N 
ATOM      7  H51 UNL     1     -31.019   0.250 -12.385  1.00  0.00     0.284 HD
ATOM      8  H52 UNL     1     -32.085   0.037 -13.425  1.00  0.00     0.284 HD
ENDROOT
BRANCH   4   9
HETATM    9  N3  UNL     1     -28.292   2.220 -14.798  1.00  0.00    -0.377 N 
ATOM     10  H3  UNL     1     -27.886   2.796 -14.060  1.00  0.00     0.160 HD
BRANCH   9  11
HETATM   11  C3  UNL     1     -27.892   2.428 -16.163  1.00  0.00     0.121 C 
BRANCH  11  12
HETATM   12  C4  UNL     1     -26.500   1.836 -16.391  1.00  0.00     0.020 C 
BRANCH  12  13
HETATM   13  C5  UNL     1     -26.712   0.548 -17.173  1.00  0.00     0.002 C 
BRANCH  13  14
HETATM   14  C6  UNL     1     -25.471  -0.273 -17.252  1.00  0.00     0.005 C 
BRANCH  14  15
HETATM   15  C7  UNL     1     -25.767  -1.724 -17.413  1.00  0.00     0.038 C 
BRANCH  15  16
HETATM   16  C8  UNL     1     -26.506  -2.256 -16.267  1.00  0.00    -0.058 A 
HETATM   17  C9  UNL     1     -27.684  -2.933 -16.470  1.00  0.00     0.007 A 
HETATM   18  C10 UNL     1     -28.355  -3.435 -15.389  1.00  0.00     0.001 A 
HETATM   19  C11 UNL     1     -27.870  -3.268 -14.130  1.00  0.00     0.000 A 
HETATM   20  C12 UNL     1     -26.682  -2.586 -13.916  1.00  0.00     0.001 A 
HETATM   21  C13 UNL     1     -26.008  -2.082 -14.998  1.00  0.00     0.007 A 
ENDBRANCH  15  16
ENDBRANCH  14  15
ENDBRANCH  13  14
ENDBRANCH  12  13
ENDBRANCH  11  12
ENDBRANCH   9  11
ENDBRANCH   4   9
BRANCH   5  22
HETATM   22  N4  UNL     1     -31.502   1.715 -15.231  1.00  0.00    -0.043 N 
ATOM     23  H43 UNL     1     -30.977   2.188 -15.965  1.00  0.00     0.277 HD
ATOM     24  H42 UNL     1     -31.742   0.860 -15.733  1.00  0.00     0.277 HD
ATOM     25  H41 UNL     1     -32.337   2.242 -14.973  1.00  0.00     0.277 HD
ENDBRANCH   5  22
BRANCH   1  26
HETATM   26  N1  UNL     1     -30.884  -1.393 -15.179  1.00  0.00    -0.033 N 
ATOM     27  H13 UNL     1     -30.257  -2.053 -15.639  1.00  0.00     0.278 HD
ATOM     28  H12 UNL     1     -31.608  -2.043 -14.871  1.00  0.00     0.278 HD
ATOM     29  H11 UNL     1     -31.256  -0.716 -15.844  1.00  0.00     0.278 HD
ENDBRANCH   1  26
TORSDOF 9
ENDMDL
MODEL 5
REMARK VINA RESULT: -1.907502437      1.362      3.961
REMARK  9 active torsions:
REMARK  status: ('A' for Active; 'I' for Inactive)
REMARK    1  A    between atoms: N1_1  and  C1_5 
REMARK    2  A    between atoms: C2_8  and  N3_9 
REMARK    3  A    between atoms: N3_9  and  C3_11 
REMARK    4  A    between atoms: C3_11  and  C4_12 
REMARK    5  A    between atoms: C4_12  and  C5_13 
REMARK    6  A    between atoms: C5_13  and  C6_14 
REMARK    7  A    between atoms: C6_14  and  C7_15 
REMARK    8  A    between atoms: C7_15  and  C8_16 
REMARK    9  A    between atoms: C14_22  and  N4_23 
ROOT
HETATM    1  C1  UNL     1     -26.752   0.678 -16.212  1.00  0.00     0.487 C 
HETATM    2  N2  UNL     1     -27.488   0.537 -14.976  1.00  0.00    -0.327 N 
ATOM      3  H2  UNL     1     -27.252  -0.128 -14.240  1.00  0.00     0.164 HD
HETATM    4  C2  UNL     1     -28.470   1.348 -14.925  1.00  0.00     0.135 C 
HETATM    5  C14 UNL     1     -28.460   2.129 -16.185  1.00  0.00     0.451 C 
HETATM    6  N5  UNL     1     -27.670   1.359 -17.117  1.00  0.00     0.007 N 
ATOM      7  H51 UNL     1     -28.199   0.751 -17.742  1.00  0.00     0.284 HD
ATOM      8  H52 UNL     1     -27.230   1.895 -17.865  1.00  0.00     0.284 HD
ENDROOT
BRANCH   4   9
HETATM    9  N3  UNL     1     -29.406   1.477 -13.849  1.00  0.00    -0.377 N 
ATOM     10  H3  UNL     1     -29.087   1.808 -12.938  1.00  0.00     0.160 HD
BRANCH   9  11
HETATM   11  C3  UNL     1     -30.792   1.143 -14.039  1.00  0.00     0.121 C 
BRANCH  11  12
HETATM   12  C4  UNL     1     -31.022  -0.330 -13.699  1.00  0.00     0.020 C 
BRANCH  12  13
HETATM   13  C5  UNL     1     -30.520  -1.124 -14.896  1.00  0.00     0.002 C 
BRANCH  13  14
HETATM   14  C6  UNL     1     -30.164  -2.524 -14.534  1.00  0.00     0.005 C 
BRANCH  14  15
HETATM   15  C7  UNL     1     -29.467  -3.232 -15.644  1.00  0.00     0.038 C 
BRANCH  15  16
HETATM   16  C8  UNL     1     -28.033  -2.937 -15.659  1.00  0.00    -0.058 A 
HETATM   17  C9  UNL     1     -27.392  -2.722 -16.855  1.00  0.00     0.007 A 
HETATM   18  C10 UNL     1     -26.056  -2.435 -16.850  1.00  0.00     0.001 A 
HETATM   19  C11 UNL     1     -25.365  -2.364 -15.681  1.00  0.00     0.000 A 
HETATM   20  C12 UNL     1     -26.003  -2.579 -14.470  1.00  0.00     0.001 A 
HETATM   21  C13 UNL     1     -27.343  -2.867 -14.472  1.00  0.00     0.007 A 
ENDBRANCH  15  16
ENDBRANCH  14  15
ENDBRANCH  13  14
ENDBRANCH  12  13
ENDBRANCH  11  12
ENDBRANCH   9  11
ENDBRANCH   4   9
BRANCH   5  22
HETATM   22  N4  UNL     1     -27.907   3.457 -15.989  1.00  0.00    -0.043 N 
ATOM     23  H43 UNL     1     -28.330   3.922 -15.186  1.00  0.00     0.277 HD
ATOM     24  H42 UNL     1     -26.943   3.413 -15.658  1.00  0.00     0.277 HD
ATOM     25  H41 UNL     1     -27.985   4.026 -16.832  1.00  0.00     0.277 HD
ENDBRANCH   5  22
BRANCH   1  26
HETATM   26  N1  UNL     1     -25.515   1.378 -16.032  1.00  0.00    -0.033 N 
ATOM     27  H13 UNL     1     -24.771   0.956 -16.588  1.00  0.00     0.278 HD
ATOM     28  H12 UNL     1     -25.546   2.298 -16.471  1.00  0.00     0.278 HD
ATOM     29  H11 UNL     1     -25.247   1.447 -15.050  1.00  0.00     0.278 HD
ENDBRANCH   1  26
TORSDOF 9
ENDMDL
