MODEL 1
REMARK VINA RESULT: -5.361373179      0.000      0.000
REMARK  4 active torsions:
REMARK  status: ('A' for Active; 'I' for Inactive)
REMARK    1  A    between atoms: C2_2  and  C3_3 
REMARK    2  A    between atoms: C3_3  and  O1_4 
REMARK    3  A    between atoms: O1_4  and  C4_5 
REMARK    4  A    between atoms: C4_5  and  C5_6 
ROOT
HETATM    1  C5  UNL     1      -8.987 -32.228  15.516  1.00  0.00     0.050 A 
HETATM    2  C6  UNL     1      -9.333 -30.941  15.197  1.00  0.00     0.047 A 
HETATM    3  C7  UNL     1      -8.381 -30.412  14.350  1.00  0.00     0.109 A 
HETATM    4  N1  UNL     1      -7.476 -31.389  14.175  1.00  0.00    -0.312 N 
ATOM      5  H1  UNL     1      -6.639 -31.315  13.597  1.00  0.00     0.186 HD
HETATM    6  N2  UNL     1      -7.835 -32.469  14.867  1.00  0.00    -0.303 N 
ATOM      7  H2  UNL     1      -7.315 -33.345  14.900  1.00  0.00     0.186 HD
ENDROOT
BRANCH   1   8
HETATM    8  C4  UNL     1      -9.759 -33.113  16.396  1.00  0.00     0.226 C 
BRANCH   8   9
HETATM    9  O1  UNL     1      -8.931 -33.781  17.306  1.00  0.00    -0.382 OA
BRANCH   9  10
HETATM   10  C3  UNL     1      -8.653 -32.874  18.326  1.00  0.00     0.194 C 
BRANCH  10  11
HETATM   11  C2  UNL     1      -8.848 -33.440  19.666  1.00  0.00    -0.011 C 
HETATM   12  C1  UNL     1      -9.916 -33.217  20.418  1.00  0.00     0.009 C 
ENDBRANCH  10  11
ENDBRANCH   9  10
ENDBRANCH   8   9
ENDBRANCH   1   8
TORSDOF 4
ENDMDL
MODEL 2
REMARK VINA RESULT: -5.333648070      1.025      1.158
REMARK  4 active torsions:
REMARK  status: ('A' for Active; 'I' for Inactive)
REMARK    1  A    between atoms: C2_2  and  C3_3 
REMARK    2  A    between atoms: C3_3  and  O1_4 
REMARK    3  A    between atoms: O1_4  and  C4_5 
REMARK    4  A    between atoms: C4_5  and  C5_6 
ROOT
HETATM    1  C5  UNL     1      -9.165 -32.183  15.574  1.00  0.00     0.050 A 
HETATM    2  C6  UNL     1      -7.971 -32.492  14.978  1.00  0.00     0.047 A 
HETATM    3  C7  UNL     1      -7.665 -31.522  14.045  1.00  0.00     0.109 A 
HETATM    4  N1  UNL     1      -8.681 -30.645  14.094  1.00  0.00    -0.312 N 
ATOM      5  H1  UNL     1      -8.758 -29.805  13.521  1.00  0.00     0.186 HD
HETATM    6  N2  UNL     1      -9.574 -31.037  15.002  1.00  0.00    -0.303 N 
ATOM      7  H2  UNL     1     -10.437 -30.542  15.229  1.00  0.00     0.186 HD
ENDROOT
BRANCH   1   8
HETATM    8  C4  UNL     1      -9.816 -32.982  16.618  1.00  0.00     0.226 C 
BRANCH   8   9
HETATM    9  O1  UNL     1      -8.879 -33.697  17.375  1.00  0.00    -0.382 OA
BRANCH   9  10
HETATM   10  C3  UNL     1      -8.552 -32.891  18.462  1.00  0.00     0.194 C 
BRANCH  10  11
HETATM   11  C2  UNL     1      -8.885 -33.503  19.753  1.00  0.00    -0.011 C 
HETATM   12  C1  UNL     1      -9.983 -33.232  20.442  1.00  0.00     0.009 C 
ENDBRANCH  10  11
ENDBRANCH   9  10
ENDBRANCH   8   9
ENDBRANCH   1   8
TORSDOF 4
ENDMDL
MODEL 3
REMARK VINA RESULT: -5.297061455      2.237      4.736
REMARK  4 active torsions:
REMARK  status: ('A' for Active; 'I' for Inactive)
REMARK    1  A    between atoms: C2_2  and  C3_3 
REMARK    2  A    between atoms: C3_3  and  O1_4 
REMARK    3  A    between atoms: O1_4  and  C4_5 
REMARK    4  A    between atoms: C4_5  and  C5_6 
ROOT
HETATM    1  C5  UNL     1      -9.709 -32.581  18.023  1.00  0.00     0.050 A 
HETATM    2  C6  UNL     1     -10.238 -32.293  19.253  1.00  0.00     0.047 A 
HETATM    3  C7  UNL     1      -9.707 -33.156  20.190  1.00  0.00     0.109 A 
HETATM    4  N1  UNL     1      -8.867 -33.951  19.507  1.00  0.00    -0.312 N 
ATOM      5  H1  UNL     1      -8.311 -34.702  19.914  1.00  0.00     0.186 HD
HETATM    6  N2  UNL     1      -8.866 -33.610  18.219  1.00  0.00    -0.303 N 
ATOM      7  H2  UNL     1      -8.311 -34.061  17.492  1.00  0.00     0.186 HD
ENDROOT
BRANCH   1   8
HETATM    8  C4  UNL     1     -10.035 -31.873  16.780  1.00  0.00     0.226 C 
BRANCH   8   9
HETATM    9  O1  UNL     1      -9.683 -32.627  15.653  1.00  0.00    -0.382 OA
BRANCH   9  10
HETATM   10  C3  UNL     1      -8.634 -31.951  15.037  1.00  0.00     0.194 C 
BRANCH  10  11
HETATM   11  C2  UNL     1      -8.916 -30.527  14.822  1.00  0.00    -0.011 C 
HETATM   12  C1  UNL     1      -8.092 -29.691  14.208  1.00  0.00     0.009 C 
ENDBRANCH  10  11
ENDBRANCH   9  10
ENDBRANCH   8   9
ENDBRANCH   1   8
TORSDOF 4
ENDMDL
MODEL 4
REMARK VINA RESULT: -5.219547818      0.981      1.026
REMARK  4 active torsions:
REMARK  status: ('A' for Active; 'I' for Inactive)
REMARK    1  A    between atoms: C2_2  and  C3_3 
REMARK    2  A    between atoms: C3_3  and  O1_4 
REMARK    3  A    between atoms: O1_4  and  C4_5 
REMARK    4  A    between atoms: C4_5  and  C5_6 
ROOT
HETATM    1  C5  UNL     1      -9.001 -32.321  15.553  1.00  0.00     0.050 A 
HETATM    2  C6  UNL     1      -9.376 -31.053  15.197  1.00  0.00     0.047 A 
HETATM    3  C7  UNL     1      -8.447 -30.535  14.318  1.00  0.00     0.109 A 
HETATM    4  N1  UNL     1      -7.528 -31.501  14.159  1.00  0.00    -0.312 N 
ATOM      5  H1  UNL     1      -6.702 -31.432  13.566  1.00  0.00     0.186 HD
HETATM    6  N2  UNL     1      -7.855 -32.564  14.893  1.00  0.00    -0.303 N 
ATOM      7  H2  UNL     1      -7.319 -33.429  14.947  1.00  0.00     0.186 HD
ENDROOT
BRANCH   1   8
HETATM    8  C4  UNL     1      -9.743 -33.190  16.474  1.00  0.00     0.226 C 
BRANCH   8   9
HETATM    9  O1  UNL     1      -8.908 -33.713  17.470  1.00  0.00    -0.382 OA
BRANCH   9  10
HETATM   10  C3  UNL     1      -8.679 -32.680  18.376  1.00  0.00     0.194 C 
BRANCH  10  11
HETATM   11  C2  UNL     1      -9.908 -32.186  19.007  1.00  0.00    -0.011 C 
HETATM   12  C1  UNL     1     -10.244 -30.907  19.076  1.00  0.00     0.009 C 
ENDBRANCH  10  11
ENDBRANCH   9  10
ENDBRANCH   8   9
ENDBRANCH   1   8
TORSDOF 4
ENDMDL
MODEL 5
REMARK VINA RESULT: -5.182319640      2.501      4.559
REMARK  4 active torsions:
REMARK  status: ('A' for Active; 'I' for Inactive)
REMARK    1  A    between atoms: C2_2  and  C3_3 
REMARK    2  A    between atoms: C3_3  and  O1_4 
REMARK    3  A    between atoms: O1_4  and  C4_5 
REMARK    4  A    between atoms: C4_5  and  C5_6 
ROOT
HETATM    1  C5  UNL     1      -9.221 -33.089  17.651  1.00  0.00     0.050 A 
HETATM    2  C6  UNL     1     -10.145 -32.137  17.990  1.00  0.00     0.047 A 
HETATM    3  C7  UNL     1     -10.304 -32.125  19.361  1.00  0.00     0.109 A 
HETATM    4  N1  UNL     1      -9.473 -33.073  19.825  1.00  0.00    -0.312 N 
ATOM      5  H1  UNL     1      -9.353 -33.316  20.808  1.00  0.00     0.186 HD
HETATM    6  N2  UNL     1      -8.828 -33.647  18.810  1.00  0.00    -0.303 N 
ATOM      7  H2  UNL     1      -8.141 -34.395  18.898  1.00  0.00     0.186 HD
ENDROOT
BRANCH   1   8
HETATM    8  C4  UNL     1      -8.789 -33.393  16.282  1.00  0.00     0.226 C 
BRANCH   8   9
HETATM    9  O1  UNL     1      -7.650 -32.659  15.929  1.00  0.00    -0.382 OA
BRANCH   9  10
HETATM   10  C3  UNL     1      -7.872 -32.181  14.640  1.00  0.00     0.194 C 
BRANCH  10  11
HETATM   11  C2  UNL     1      -8.704 -30.972  14.611  1.00  0.00    -0.011 C 
HETATM   12  C1  UNL     1      -8.249 -29.765  14.310  1.00  0.00     0.009 C 
ENDBRANCH  10  11
ENDBRANCH   9  10
ENDBRANCH   8   9
ENDBRANCH   1   8
TORSDOF 4
ENDMDL
