MODEL 1
REMARK VINA RESULT: -6.576620528      0.000      0.000
REMARK  4 active torsions:
REMARK  status: ('A' for Active; 'I' for Inactive)
REMARK    1  A    between atoms: N1_1  and  O1_4 
REMARK    2  A    between atoms: O1_4  and  C1_5 
REMARK    3  A    between atoms: C1_5  and  C2_6 
REMARK    4  A    between atoms: C2_6  and  C3_7 
ROOT
HETATM    1  C3  UNL     1      -9.860 -31.698  17.263  1.00  0.00    -0.056 A 
HETATM    2  C4  UNL     1     -10.502 -31.051  18.220  1.00  0.00     0.010 A 
HETATM    3  C5  UNL     1     -10.376 -31.436  19.529  1.00  0.00     0.043 A 
HETATM    4  C6  UNL     1      -9.511 -32.556  19.849  1.00  0.00     0.116 A 
HETATM    5  F1  UNL     1      -9.339 -32.901  21.153  1.00  0.00    -0.206 F 
HETATM    6  C7  UNL     1      -8.864 -33.188  18.816  1.00  0.00     0.043 A 
HETATM    7  C8  UNL     1      -9.018 -32.796  17.531  1.00  0.00     0.010 A 
ENDROOT
BRANCH   1   8
HETATM    8  C2  UNL     1      -9.830 -31.340  15.795  1.00  0.00     0.067 C 
BRANCH   8   9
HETATM    9  C1  UNL     1      -8.586 -31.712  15.075  1.00  0.00     0.205 C 
BRANCH   9  10
HETATM   10  O1  UNL     1      -8.784 -30.943  13.837  1.00  0.00    -0.287 OA
BRANCH  10  11
HETATM   11  N1  UNL     1      -8.345 -29.737  14.075  1.00  0.00    -0.311 N 
ATOM     12  H12 UNL     1      -7.369 -29.443  14.069  1.00  0.00     0.184 HD
ATOM     13  H11 UNL     1      -9.166 -29.162  14.264  1.00  0.00     0.184 HD
ENDBRANCH  10  11
ENDBRANCH   9  10
ENDBRANCH   8   9
ENDBRANCH   1   8
TORSDOF 4
ENDMDL
MODEL 2
REMARK VINA RESULT: -6.548442307      0.752      1.633
REMARK  4 active torsions:
REMARK  status: ('A' for Active; 'I' for Inactive)
REMARK    1  A    between atoms: N1_1  and  O1_4 
REMARK    2  A    between atoms: O1_4  and  C1_5 
REMARK    3  A    between atoms: C1_5  and  C2_6 
REMARK    4  A    between atoms: C2_6  and  C3_7 
ROOT
HETATM    1  C3  UNL     1      -9.720 -31.859  17.217  1.00  0.00    -0.056 A 
HETATM    2  C4  UNL     1      -8.948 -32.868  17.581  1.00  0.00     0.010 A 
HETATM    3  C5  UNL     1      -8.842 -33.227  18.899  1.00  0.00     0.043 A 
HETATM    4  C6  UNL     1      -9.606 -32.490  19.888  1.00  0.00     0.116 A 
HETATM    5  F1  UNL     1      -9.547 -32.883  21.189  1.00  0.00    -0.206 F 
HETATM    6  C7  UNL     1     -10.395 -31.454  19.454  1.00  0.00     0.043 A 
HETATM    7  C8  UNL     1     -10.470 -31.112  18.148  1.00  0.00     0.010 A 
ENDROOT
BRANCH   1   8
HETATM    8  C2  UNL     1     -10.006 -31.404  15.805  1.00  0.00     0.067 C 
BRANCH   8   9
HETATM    9  C1  UNL     1      -9.022 -30.450  15.231  1.00  0.00     0.205 C 
BRANCH   9  10
HETATM   10  O1  UNL     1      -8.903 -31.011  13.877  1.00  0.00    -0.287 OA
BRANCH  10  11
HETATM   11  N1  UNL     1      -7.796 -31.701  13.856  1.00  0.00    -0.311 N 
ATOM     12  H12 UNL     1      -7.718 -32.701  13.675  1.00  0.00     0.184 HD
ATOM     13  H11 UNL     1      -7.041 -31.045  14.055  1.00  0.00     0.184 HD
ENDBRANCH  10  11
ENDBRANCH   9  10
ENDBRANCH   8   9
ENDBRANCH   1   8
TORSDOF 4
ENDMDL
MODEL 3
REMARK VINA RESULT: -6.051329298      1.198      1.532
REMARK  4 active torsions:
REMARK  status: ('A' for Active; 'I' for Inactive)
REMARK    1  A    between atoms: N1_1  and  O1_4 
REMARK    2  A    between atoms: O1_4  and  C1_5 
REMARK    3  A    between atoms: C1_5  and  C2_6 
REMARK    4  A    between atoms: C2_6  and  C3_7 
ROOT
HETATM    1  C3  UNL     1      -8.948 -32.046  16.600  1.00  0.00    -0.056 A 
HETATM    2  C4  UNL     1     -10.235 -31.745  16.604  1.00  0.00     0.010 A 
HETATM    3  C5  UNL     1     -10.907 -31.569  17.785  1.00  0.00     0.043 A 
HETATM    4  C6  UNL     1     -10.177 -31.702  19.032  1.00  0.00     0.116 A 
HETATM    5  F1  UNL     1     -10.831 -31.470  20.202  1.00  0.00    -0.206 F 
HETATM    6  C7  UNL     1      -8.842 -32.011  18.969  1.00  0.00     0.043 A 
HETATM    7  C8  UNL     1      -8.206 -32.193  17.789  1.00  0.00     0.010 A 
ENDROOT
BRANCH   1   8
HETATM    8  C2  UNL     1      -8.056 -32.182  15.388  1.00  0.00     0.067 C 
BRANCH   8   9
HETATM    9  C1  UNL     1      -8.355 -31.252  14.269  1.00  0.00     0.205 C 
BRANCH   9  10
HETATM   10  O1  UNL     1      -7.633 -30.062  14.745  1.00  0.00    -0.287 OA
BRANCH  10  11
HETATM   11  N1  UNL     1      -8.226 -29.030  14.212  1.00  0.00    -0.311 N 
ATOM     12  H12 UNL     1      -8.755 -29.027  13.340  1.00  0.00     0.184 HD
ATOM     13  H11 UNL     1      -8.055 -28.241  14.836  1.00  0.00     0.184 HD
ENDBRANCH  10  11
ENDBRANCH   9  10
ENDBRANCH   8   9
ENDBRANCH   1   8
TORSDOF 4
ENDMDL
MODEL 4
REMARK VINA RESULT: -5.949528363      0.953      1.246
REMARK  4 active torsions:
REMARK  status: ('A' for Active; 'I' for Inactive)
REMARK    1  A    between atoms: N1_1  and  O1_4 
REMARK    2  A    between atoms: O1_4  and  C1_5 
REMARK    3  A    between atoms: C1_5  and  C2_6 
REMARK    4  A    between atoms: C2_6  and  C3_7 
ROOT
HETATM    1  C3  UNL     1      -9.333 -32.564  17.091  1.00  0.00    -0.056 A 
HETATM    2  C4  UNL     1     -10.417 -31.810  17.144  1.00  0.00     0.010 A 
HETATM    3  C5  UNL     1     -10.954 -31.442  18.349  1.00  0.00     0.043 A 
HETATM    4  C6  UNL     1     -10.302 -31.882  19.569  1.00  0.00     0.116 A 
HETATM    5  F1  UNL     1     -10.801 -31.468  20.764  1.00  0.00    -0.206 F 
HETATM    6  C7  UNL     1      -9.176 -32.658  19.455  1.00  0.00     0.043 A 
HETATM    7  C8  UNL     1      -8.675 -33.018  18.252  1.00  0.00     0.010 A 
ENDROOT
BRANCH   1   8
HETATM    8  C2  UNL     1      -8.578 -32.975  15.848  1.00  0.00     0.067 C 
BRANCH   8   9
HETATM    9  C1  UNL     1      -7.757 -31.909  15.220  1.00  0.00     0.205 C 
BRANCH   9  10
HETATM   10  O1  UNL     1      -8.710 -31.436  14.204  1.00  0.00    -0.287 OA
BRANCH  10  11
HETATM   11  N1  UNL     1      -8.437 -30.178  13.995  1.00  0.00    -0.311 N 
ATOM     12  H12 UNL     1      -8.918 -29.383  14.415  1.00  0.00     0.184 HD
ATOM     13  H11 UNL     1      -7.657 -30.155  13.339  1.00  0.00     0.184 HD
ENDBRANCH  10  11
ENDBRANCH   9  10
ENDBRANCH   8   9
ENDBRANCH   1   8
TORSDOF 4
ENDMDL
MODEL 5
REMARK VINA RESULT: -5.693413178      3.830      4.902
REMARK  4 active torsions:
REMARK  status: ('A' for Active; 'I' for Inactive)
REMARK    1  A    between atoms: N1_1  and  O1_4 
REMARK    2  A    between atoms: O1_4  and  C1_5 
REMARK    3  A    between atoms: C1_5  and  C2_6 
REMARK    4  A    between atoms: C2_6  and  C3_7 
ROOT
HETATM    1  C3  UNL     1      -9.800 -31.897  16.953  1.00  0.00    -0.056 A 
HETATM    2  C4  UNL     1      -8.924 -32.883  16.870  1.00  0.00     0.010 A 
HETATM    3  C5  UNL     1      -8.053 -32.957  15.815  1.00  0.00     0.043 A 
HETATM    4  C6  UNL     1      -8.096 -31.923  14.799  1.00  0.00     0.116 A 
HETATM    5  F1  UNL     1      -7.191 -31.964  13.784  1.00  0.00    -0.206 F 
HETATM    6  C7  UNL     1      -9.020 -30.919  14.938  1.00  0.00     0.043 A 
HETATM    7  C8  UNL     1      -9.879 -30.878  15.982  1.00  0.00     0.010 A 
ENDROOT
BRANCH   1   8
HETATM    8  C2  UNL     1     -10.758 -31.633  18.091  1.00  0.00     0.067 C 
BRANCH   8   9
HETATM    9  C1  UNL     1     -10.139 -31.121  19.340  1.00  0.00     0.205 C 
BRANCH   9  10
HETATM   10  O1  UNL     1     -10.207 -32.340  20.160  1.00  0.00    -0.287 OA
BRANCH  10  11
HETATM   11  N1  UNL     1      -8.975 -32.693  20.403  1.00  0.00    -0.311 N 
ATOM     12  H12 UNL     1      -8.184 -32.582  19.770  1.00  0.00     0.184 HD
ATOM     13  H11 UNL     1      -8.967 -33.095  21.341  1.00  0.00     0.184 HD
ENDBRANCH  10  11
ENDBRANCH   9  10
ENDBRANCH   8   9
ENDBRANCH   1   8
TORSDOF 4
ENDMDL
