MODEL 1
REMARK VINA RESULT: -5.898560400      0.000      0.000
REMARK  3 active torsions:
REMARK  status: ('A' for Active; 'I' for Inactive)
REMARK    1  A    between atoms: C1_2  and  C2_3 
REMARK    2  A    between atoms: C2_3  and  C3_4 
REMARK    3  A    between atoms: C3_4  and  C4_5 
ROOT
HETATM    1  C3  UNL     1      -8.638 -31.983  18.074  1.00  0.00     0.138 C 
HETATM    2  C7  UNL     1      -7.490 -31.547  17.248  1.00  0.00     0.041 C 
HETATM    3  C8  UNL     1      -7.818 -32.132  15.863  1.00  0.00     0.030 C 
HETATM    4  C9  UNL     1      -8.794 -33.245  16.114  1.00  0.00     0.233 C 
HETATM    5  N1  UNL     1      -8.984 -33.280  17.525  1.00  0.00    -0.065 N 
ATOM      6  H11 UNL     1      -9.926 -33.576  17.784  1.00  0.00     0.278 HD
ATOM      7  H12 UNL     1      -8.471 -34.042  17.969  1.00  0.00     0.278 HD
ENDROOT
BRANCH   1   8
HETATM    8  C2  UNL     1      -8.450 -32.105  19.536  1.00  0.00     0.071 C 
BRANCH   8   9
HETATM    9  C1  UNL     1      -8.824 -33.358  20.214  1.00  0.00     0.224 C 
HETATM   10  F1  UNL     1      -9.982 -33.334  20.952  1.00  0.00    -0.255 F 
ENDBRANCH   8   9
ENDBRANCH   1   8
BRANCH   1  11
HETATM   11  C4  UNL     1      -9.774 -30.979  17.883  1.00  0.00     0.066 A 
HETATM   12  C5  UNL     1     -11.080 -31.168  18.406  1.00  0.00    -0.019 A 
HETATM   13  C6  UNL     1     -10.206 -30.337  19.155  1.00  0.00    -0.019 A 
ENDBRANCH   1  11
TORSDOF 3
ENDMDL
MODEL 2
REMARK VINA RESULT: -5.452151737      1.855      2.822
REMARK  3 active torsions:
REMARK  status: ('A' for Active; 'I' for Inactive)
REMARK    1  A    between atoms: C1_2  and  C2_3 
REMARK    2  A    between atoms: C2_3  and  C3_4 
REMARK    3  A    between atoms: C3_4  and  C4_5 
ROOT
HETATM    1  C3  UNL     1      -9.197 -32.246  16.841  1.00  0.00     0.138 C 
HETATM    2  C7  UNL     1      -8.433 -33.079  15.886  1.00  0.00     0.041 C 
HETATM    3  C8  UNL     1      -7.532 -32.055  15.175  1.00  0.00     0.030 C 
HETATM    4  C9  UNL     1      -8.192 -30.723  15.382  1.00  0.00     0.233 C 
HETATM    5  N1  UNL     1      -9.368 -30.988  16.139  1.00  0.00    -0.065 N 
ATOM      6  H11 UNL     1      -9.610 -30.221  16.766  1.00  0.00     0.278 HD
ATOM      7  H12 UNL     1     -10.212 -30.973  15.567  1.00  0.00     0.278 HD
ENDROOT
BRANCH   1   8
HETATM    8  C2  UNL     1     -10.514 -32.731  17.306  1.00  0.00     0.071 C 
BRANCH   8   9
HETATM    9  C1  UNL     1     -11.703 -31.877  17.138  1.00  0.00     0.224 C 
HETATM   10  F1  UNL     1     -11.962 -30.981  18.145  1.00  0.00    -0.255 F 
ENDBRANCH   8   9
ENDBRANCH   1   8
BRANCH   1  11
HETATM   11  C4  UNL     1      -8.351 -32.067  18.101  1.00  0.00     0.066 A 
HETATM   12  C5  UNL     1      -8.878 -31.612  19.338  1.00  0.00    -0.019 A 
HETATM   13  C6  UNL     1      -8.717 -33.015  19.190  1.00  0.00    -0.019 A 
ENDBRANCH   1  11
TORSDOF 3
ENDMDL
MODEL 3
REMARK VINA RESULT: -5.434925828      2.284      3.564
REMARK  3 active torsions:
REMARK  status: ('A' for Active; 'I' for Inactive)
REMARK    1  A    between atoms: C1_2  and  C2_3 
REMARK    2  A    between atoms: C2_3  and  C3_4 
REMARK    3  A    between atoms: C3_4  and  C4_5 
ROOT
HETATM    1  C3  UNL     1      -9.267 -32.118  17.660  1.00  0.00     0.138 C 
HETATM    2  C7  UNL     1      -9.944 -30.910  18.181  1.00  0.00     0.041 C 
HETATM    3  C8  UNL     1     -11.436 -31.245  18.003  1.00  0.00     0.030 C 
HETATM    4  C9  UNL     1     -11.487 -32.323  16.960  1.00  0.00     0.233 C 
HETATM    5  N1  UNL     1     -10.134 -32.561  16.584  1.00  0.00    -0.065 N 
ATOM      6  H11 UNL     1      -9.967 -33.533  16.323  1.00  0.00     0.278 HD
ATOM      7  H12 UNL     1      -9.896 -32.133  15.690  1.00  0.00     0.278 HD
ENDROOT
BRANCH   1   8
HETATM    8  C2  UNL     1      -7.884 -31.989  17.152  1.00  0.00     0.071 C 
BRANCH   8   9
HETATM    9  C1  UNL     1      -7.655 -31.799  15.709  1.00  0.00     0.224 C 
HETATM   10  F1  UNL     1      -7.720 -30.508  15.243  1.00  0.00    -0.255 F 
ENDBRANCH   8   9
ENDBRANCH   1   8
BRANCH   1  11
HETATM   11  C4  UNL     1      -9.203 -33.153  18.782  1.00  0.00     0.066 A 
HETATM   12  C5  UNL     1      -8.261 -33.098  19.843  1.00  0.00    -0.019 A 
HETATM   13  C6  UNL     1      -9.559 -32.592  20.115  1.00  0.00    -0.019 A 
ENDBRANCH   1  11
TORSDOF 3
ENDMDL
MODEL 4
REMARK VINA RESULT: -5.329244811      2.093      3.683
REMARK  3 active torsions:
REMARK  status: ('A' for Active; 'I' for Inactive)
REMARK    1  A    between atoms: C1_2  and  C2_3 
REMARK    2  A    between atoms: C2_3  and  C3_4 
REMARK    3  A    between atoms: C3_4  and  C4_5 
ROOT
HETATM    1  C3  UNL     1      -9.247 -32.343  17.723  1.00  0.00     0.138 C 
HETATM    2  C7  UNL     1      -9.447 -31.168  18.601  1.00  0.00     0.041 C 
HETATM    3  C8  UNL     1      -8.548 -31.481  19.810  1.00  0.00     0.030 C 
HETATM    4  C9  UNL     1      -8.336 -32.967  19.782  1.00  0.00     0.233 C 
HETATM    5  N1  UNL     1      -9.065 -33.440  18.654  1.00  0.00    -0.065 N 
ATOM      6  H11 UNL     1      -8.627 -34.253  18.220  1.00  0.00     0.278 HD
ATOM      7  H12 UNL     1      -9.947 -33.880  18.916  1.00  0.00     0.278 HD
ENDROOT
BRANCH   1   8
HETATM    8  C2  UNL     1     -10.311 -32.692  16.757  1.00  0.00     0.071 C 
BRANCH   8   9
HETATM    9  C1  UNL     1     -11.541 -31.883  16.707  1.00  0.00     0.224 C 
HETATM   10  F1  UNL     1     -11.613 -30.939  15.712  1.00  0.00    -0.255 F 
ENDBRANCH   8   9
ENDBRANCH   1   8
BRANCH   1  11
HETATM   11  C4  UNL     1      -7.988 -32.108  16.889  1.00  0.00     0.066 A 
HETATM   12  C5  UNL     1      -7.866 -32.504  15.532  1.00  0.00    -0.019 A 
HETATM   13  C6  UNL     1      -8.198 -31.145  15.774  1.00  0.00    -0.019 A 
ENDBRANCH   1  11
TORSDOF 3
ENDMDL
MODEL 5
REMARK VINA RESULT: -5.246280017      2.396      3.600
REMARK  3 active torsions:
REMARK  status: ('A' for Active; 'I' for Inactive)
REMARK    1  A    between atoms: C1_2  and  C2_3 
REMARK    2  A    between atoms: C2_3  and  C3_4 
REMARK    3  A    between atoms: C3_4  and  C4_5 
ROOT
HETATM    1  C3  UNL     1      -8.910 -32.456  17.666  1.00  0.00     0.138 C 
HETATM    2  C7  UNL     1      -9.360 -33.330  18.773  1.00  0.00     0.041 C 
HETATM    3  C8  UNL     1      -8.915 -32.559  20.027  1.00  0.00     0.030 C 
HETATM    4  C9  UNL     1      -7.833 -31.625  19.566  1.00  0.00     0.233 C 
HETATM    5  N1  UNL     1      -7.684 -31.867  18.170  1.00  0.00    -0.065 N 
ATOM      6  H11 UNL     1      -7.414 -31.028  17.657  1.00  0.00     0.278 HD
ATOM      7  H12 UNL     1      -6.863 -32.432  17.958  1.00  0.00     0.278 HD
ENDROOT
BRANCH   1   8
HETATM    8  C2  UNL     1      -8.652 -33.066  16.345  1.00  0.00     0.071 C 
BRANCH   8   9
HETATM    9  C1  UNL     1      -7.819 -32.349  15.364  1.00  0.00     0.224 C 
HETATM   10  F1  UNL     1      -8.483 -31.697  14.354  1.00  0.00    -0.255 F 
ENDBRANCH   8   9
ENDBRANCH   1   8
BRANCH   1  11
HETATM   11  C4  UNL     1      -9.982 -31.392  17.432  1.00  0.00     0.066 A 
HETATM   12  C5  UNL     1     -11.020 -31.527  16.473  1.00  0.00    -0.019 A 
HETATM   13  C6  UNL     1     -11.347 -31.844  17.818  1.00  0.00    -0.019 A 
ENDBRANCH   1  11
TORSDOF 3
ENDMDL
