MODEL 1
REMARK VINA RESULT: -7.160297379      0.000      0.000
REMARK  3 active torsions:
REMARK  status: ('A' for Active; 'I' for Inactive)
REMARK    1  A    between atoms: C1_2  and  C2_3 
REMARK    2  A    between atoms: C2_3  and  C3_4 
REMARK    3  A    between atoms: C3_4  and  C4_5 
ROOT
HETATM    1  C4  UNL     1      -9.916 -31.861  17.337  1.00  0.00     0.002 A 
HETATM    2  C5  UNL     1     -10.526 -31.166  18.395  1.00  0.00     0.014 A 
HETATM    3  C6  UNL     1     -10.301 -31.500  19.692  1.00  0.00     0.001 A 
HETATM    4  C7  UNL     1      -9.465 -32.538  20.045  1.00  0.00     0.003 A 
HETATM    5  C8  UNL     1      -8.877 -33.204  19.012  1.00  0.00     0.043 A 
HETATM    6  C9  UNL     1      -9.086 -32.882  17.667  1.00  0.00     0.126 A 
HETATM    7  F1  UNL     1      -8.318 -33.585  16.752  1.00  0.00    -0.205 F 
ENDROOT
BRANCH   1   8
HETATM    8  C3  UNL     1     -10.135 -31.368  16.006  1.00  0.00     0.015 C 
BRANCH   8   9
HETATM    9  C2  UNL     1      -9.468 -30.794  15.092  1.00  0.00     0.015 C 
BRANCH   9  10
HETATM   10  C1  UNL     1      -8.316 -30.948  14.237  1.00  0.00     0.100 C 
HETATM   11  N1  UNL     1      -8.416 -31.358  12.897  1.00  0.00    -0.115 NA
ENDBRANCH   9  10
ENDBRANCH   8   9
ENDBRANCH   1   8
TORSDOF 3
ENDMDL
MODEL 2
REMARK VINA RESULT: -6.921666966      1.460      2.015
REMARK  3 active torsions:
REMARK  status: ('A' for Active; 'I' for Inactive)
REMARK    1  A    between atoms: C1_2  and  C2_3 
REMARK    2  A    between atoms: C2_3  and  C3_4 
REMARK    3  A    between atoms: C3_4  and  C4_5 
ROOT
HETATM    1  C4  UNL     1      -9.729 -32.106  17.638  1.00  0.00     0.002 A 
HETATM    2  C5  UNL     1      -8.755 -32.980  18.151  1.00  0.00     0.014 A 
HETATM    3  C6  UNL     1      -8.681 -33.265  19.477  1.00  0.00     0.001 A 
HETATM    4  C7  UNL     1      -9.552 -32.714  20.393  1.00  0.00     0.003 A 
HETATM    5  C8  UNL     1     -10.493 -31.870  19.885  1.00  0.00     0.043 A 
HETATM    6  C9  UNL     1     -10.597 -31.559  18.525  1.00  0.00     0.126 A 
HETATM    7  F1  UNL     1     -11.684 -30.778  18.167  1.00  0.00    -0.205 F 
ENDROOT
BRANCH   1   8
HETATM    8  C3  UNL     1      -9.792 -31.948  16.211  1.00  0.00     0.015 C 
BRANCH   8   9
HETATM    9  C2  UNL     1      -9.554 -31.045  15.351  1.00  0.00     0.015 C 
BRANCH   9  10
HETATM   10  C1  UNL     1      -8.591 -30.620  14.365  1.00  0.00     0.100 C 
HETATM   11  N1  UNL     1      -8.419 -31.284  13.138  1.00  0.00    -0.115 NA
ENDBRANCH   9  10
ENDBRANCH   8   9
ENDBRANCH   1   8
TORSDOF 3
ENDMDL
MODEL 3
REMARK VINA RESULT: -6.683039635      1.369      2.042
REMARK  3 active torsions:
REMARK  status: ('A' for Active; 'I' for Inactive)
REMARK    1  A    between atoms: C1_2  and  C2_3 
REMARK    2  A    between atoms: C2_3  and  C3_4 
REMARK    3  A    between atoms: C3_4  and  C4_5 
ROOT
HETATM    1  C4  UNL     1      -9.168 -32.356  17.419  1.00  0.00     0.002 A 
HETATM    2  C5  UNL     1      -8.658 -32.640  18.697  1.00  0.00     0.014 A 
HETATM    3  C6  UNL     1      -9.283 -32.215  19.825  1.00  0.00     0.001 A 
HETATM    4  C7  UNL     1     -10.450 -31.482  19.782  1.00  0.00     0.003 A 
HETATM    5  C8  UNL     1     -10.938 -31.214  18.538  1.00  0.00     0.043 A 
HETATM    6  C9  UNL     1     -10.318 -31.640  17.358  1.00  0.00     0.126 A 
HETATM    7  F1  UNL     1     -11.012 -31.382  16.187  1.00  0.00    -0.205 F 
ENDROOT
BRANCH   1   8
HETATM    8  C3  UNL     1      -8.492 -32.936  16.291  1.00  0.00     0.015 C 
BRANCH   8   9
HETATM    9  C2  UNL     1      -7.903 -32.539  15.239  1.00  0.00     0.015 C 
BRANCH   9  10
HETATM   10  C1  UNL     1      -7.729 -31.394  14.379  1.00  0.00     0.100 C 
HETATM   11  N1  UNL     1      -8.578 -31.129  13.291  1.00  0.00    -0.115 NA
ENDBRANCH   9  10
ENDBRANCH   8   9
ENDBRANCH   1   8
TORSDOF 3
ENDMDL
MODEL 4
REMARK VINA RESULT: -6.496669131      1.361      1.808
REMARK  3 active torsions:
REMARK  status: ('A' for Active; 'I' for Inactive)
REMARK    1  A    between atoms: C1_2  and  C2_3 
REMARK    2  A    between atoms: C2_3  and  C3_4 
REMARK    3  A    between atoms: C3_4  and  C4_5 
ROOT
HETATM    1  C4  UNL     1      -9.208 -32.302  17.387  1.00  0.00     0.002 A 
HETATM    2  C5  UNL     1     -10.571 -32.020  17.196  1.00  0.00     0.014 A 
HETATM    3  C6  UNL     1     -11.313 -31.403  18.152  1.00  0.00     0.001 A 
HETATM    4  C7  UNL     1     -10.773 -31.020  19.361  1.00  0.00     0.003 A 
HETATM    5  C8  UNL     1      -9.451 -31.295  19.536  1.00  0.00     0.043 A 
HETATM    6  C9  UNL     1      -8.660 -31.927  18.570  1.00  0.00     0.126 A 
HETATM    7  F1  UNL     1      -7.309 -32.023  18.865  1.00  0.00    -0.205 F 
ENDROOT
BRANCH   1   8
HETATM    8  C3  UNL     1      -8.485 -32.863  16.279  1.00  0.00     0.015 C 
BRANCH   8   9
HETATM    9  C2  UNL     1      -7.848 -32.449  15.263  1.00  0.00     0.015 C 
BRANCH   9  10
HETATM   10  C1  UNL     1      -7.732 -31.337  14.351  1.00  0.00     0.100 C 
HETATM   11  N1  UNL     1      -8.580 -31.175  13.243  1.00  0.00    -0.115 NA
ENDBRANCH   9  10
ENDBRANCH   8   9
ENDBRANCH   1   8
TORSDOF 3
ENDMDL
MODEL 5
REMARK VINA RESULT: -6.068558340      2.488      4.323
REMARK  3 active torsions:
REMARK  status: ('A' for Active; 'I' for Inactive)
REMARK    1  A    between atoms: C1_2  and  C2_3 
REMARK    2  A    between atoms: C2_3  and  C3_4 
REMARK    3  A    between atoms: C3_4  and  C4_5 
ROOT
HETATM    1  C4  UNL     1      -9.692 -31.603  16.285  1.00  0.00     0.002 A 
HETATM    2  C5  UNL     1      -9.662 -30.694  15.214  1.00  0.00     0.014 A 
HETATM    3  C6  UNL     1      -8.690 -30.741  14.265  1.00  0.00     0.001 A 
HETATM    4  C7  UNL     1      -7.681 -31.679  14.300  1.00  0.00     0.003 A 
HETATM    5  C8  UNL     1      -7.721 -32.558  15.340  1.00  0.00     0.043 A 
HETATM    6  C9  UNL     1      -8.709 -32.536  16.331  1.00  0.00     0.126 A 
HETATM    7  F1  UNL     1      -8.665 -33.574  17.248  1.00  0.00    -0.205 F 
ENDROOT
BRANCH   1   8
HETATM    8  C3  UNL     1     -10.815 -31.537  17.179  1.00  0.00     0.015 C 
BRANCH   8   9
HETATM    9  C2  UNL     1     -11.024 -31.387  18.421  1.00  0.00     0.015 C 
BRANCH   9  10
HETATM   10  C1  UNL     1     -10.382 -31.447  19.712  1.00  0.00     0.100 C 
HETATM   11  N1  UNL     1      -9.687 -32.583  20.160  1.00  0.00    -0.115 NA
ENDBRANCH   9  10
ENDBRANCH   8   9
ENDBRANCH   1   8
TORSDOF 3
ENDMDL
