MODEL 1
REMARK VINA RESULT: -6.462586863      0.000      0.000
REMARK  4 active torsions:
REMARK  status: ('A' for Active; 'I' for Inactive)
REMARK    1  A    between atoms: O1_2  and  C2_3 
REMARK       I    between atoms: C2_3  and  N1_5 
REMARK    2  A    between atoms: N1_5  and  C3_7 
REMARK       I    between atoms: N2_10  and  C6_11 
REMARK       I    between atoms: C6_11  and  N3_13 
REMARK    3  A    between atoms: N3_13  and  C7_15 
REMARK    4  A    between atoms: N5_19  and  C9_20 
ROOT
HETATM    1  C3  UNL     1      22.872  12.889  19.426  1.00  0.00     0.089 C 
HETATM    2  C4  UNL     1      22.366  11.475  19.376  1.00  0.00     0.045 C 
HETATM    3  C5  UNL     1      22.429  10.772  20.712  1.00  0.00     0.129 C 
HETATM    4  N2  UNL     1      21.639  11.606  21.639  1.00  0.00    -0.334 N 
HETATM    5  C6  UNL     1      20.510  11.053  22.251  1.00  0.00     0.323 C 
HETATM    6  O3  UNL     1      20.212   9.841  21.941  1.00  0.00    -0.247 OA
HETATM    7  N3  UNL     1      19.702  11.738  23.168  1.00  0.00    -0.306 N 
ATOM      8  H3  UNL     1      19.944  12.697  23.416  1.00  0.00     0.171 HD
HETATM    9  C14 UNL     1      22.082  12.936  21.831  1.00  0.00     0.129 C 
HETATM   10  C15 UNL     1      22.347  13.701  20.552  1.00  0.00     0.045 C 
ENDROOT
BRANCH   7  11
HETATM   11  C7  UNL     1      18.564  11.151  23.761  1.00  0.00     0.070 A 
HETATM   12  C8  UNL     1      18.438  11.012  25.151  1.00  0.00     0.138 A 
HETATM   13  N4  UNL     1      17.265  10.442  25.427  1.00  0.00    -0.307 N 
HETATM   14  N5  UNL     1      16.624  10.205  24.307  1.00  0.00    -0.293 N 
ATOM     15  H4  UNL     1      16.920  10.225  26.362  1.00  0.00     0.186 HD
HETATM   16  C13 UNL     1      17.403  10.632  23.263  1.00  0.00     0.142 A 
BRANCH  14  17
HETATM   17  C9  UNL     1      15.318   9.597  24.221  1.00  0.00     0.042 C 
HETATM   18  C10 UNL     1      14.597  10.070  22.985  1.00  0.00     0.039 C 
HETATM   19  C11 UNL     1      15.496   8.099  24.161  1.00  0.00     0.039 C 
HETATM   20  C12 UNL     1      14.526   9.902  25.476  1.00  0.00     0.039 C 
ENDBRANCH  14  17
ENDBRANCH   7  11
BRANCH   1  21
HETATM   21  N1  UNL     1      24.318  12.942  19.393  1.00  0.00    -0.332 N 
HETATM   22  C2  UNL     1      24.931  13.536  18.236  1.00  0.00     0.360 C 
HETATM   23  O2  UNL     1      24.260  13.997  17.291  1.00  0.00    -0.239 OA
ATOM     24  H1  UNL     1      24.879  12.573  20.160  1.00  0.00     0.165 HD
BRANCH  22  25
HETATM   25  O1  UNL     1      26.323  13.617  18.131  1.00  0.00    -0.309 OA
HETATM   26  C1  UNL     1      27.141  12.460  18.227  1.00  0.00     0.215 C 
ENDBRANCH  22  25
ENDBRANCH   1  21
TORSDOF 4
ENDMDL
MODEL 2
REMARK VINA RESULT: -6.240548180      3.897      9.277
REMARK  4 active torsions:
REMARK  status: ('A' for Active; 'I' for Inactive)
REMARK    1  A    between atoms: O1_2  and  C2_3 
REMARK       I    between atoms: C2_3  and  N1_5 
REMARK    2  A    between atoms: N1_5  and  C3_7 
REMARK       I    between atoms: N2_10  and  C6_11 
REMARK       I    between atoms: C6_11  and  N3_13 
REMARK    3  A    between atoms: N3_13  and  C7_15 
REMARK    4  A    between atoms: N5_19  and  C9_20 
ROOT
HETATM    1  C3  UNL     1      20.188  12.736  27.447  1.00  0.00     0.089 C 
HETATM    2  C4  UNL     1      20.684  11.389  27.004  1.00  0.00     0.045 C 
HETATM    3  C5  UNL     1      20.285  11.043  25.588  1.00  0.00     0.129 C 
HETATM    4  N2  UNL     1      20.821  12.131  24.746  1.00  0.00    -0.334 N 
HETATM    5  C6  UNL     1      21.758  11.821  23.756  1.00  0.00     0.323 C 
HETATM    6  O3  UNL     1      22.119  10.590  23.659  1.00  0.00    -0.247 OA
HETATM    7  N3  UNL     1      22.313  12.762  22.880  1.00  0.00    -0.306 N 
ATOM      8  H3  UNL     1      22.019  13.736  22.956  1.00  0.00     0.171 HD
HETATM    9  C14 UNL     1      20.348  13.437  25.019  1.00  0.00     0.129 C 
HETATM   10  C15 UNL     1      20.416  13.836  26.478  1.00  0.00     0.045 C 
ENDROOT
BRANCH   7  11
HETATM   11  C7  UNL     1      23.263  12.415  21.896  1.00  0.00     0.070 A 
HETATM   12  C8  UNL     1      24.639  12.608  22.090  1.00  0.00     0.138 A 
HETATM   13  N4  UNL     1      25.294  12.180  21.011  1.00  0.00    -0.307 N 
HETATM   14  N5  UNL     1      24.433  11.720  20.134  1.00  0.00    -0.293 N 
ATOM     15  H4  UNL     1      26.307  12.204  20.888  1.00  0.00     0.186 HD
HETATM   16  C13 UNL     1      23.171  11.854  20.654  1.00  0.00     0.142 A 
BRANCH  14  17
HETATM   17  C9  UNL     1      24.785  11.172  18.847  1.00  0.00     0.042 C 
HETATM   18  C10 UNL     1      24.587  12.201  17.764  1.00  0.00     0.039 C 
HETATM   19  C11 UNL     1      26.235  10.756  18.890  1.00  0.00     0.039 C 
HETATM   20  C12 UNL     1      23.970   9.922  18.581  1.00  0.00     0.039 C 
ENDBRANCH  14  17
ENDBRANCH   7  11
BRANCH   1  21
HETATM   21  N1  UNL     1      18.797  12.690  27.844  1.00  0.00    -0.332 N 
HETATM   22  C2  UNL     1      18.469  13.163  29.162  1.00  0.00     0.360 C 
HETATM   23  O2  UNL     1      19.335  13.605  29.943  1.00  0.00    -0.239 OA
ATOM     24  H1  UNL     1      18.077  12.336  27.214  1.00  0.00     0.165 HD
BRANCH  22  25
HETATM   25  O1  UNL     1      17.147  13.144  29.616  1.00  0.00    -0.309 OA
HETATM   26  C1  UNL     1      16.266  14.233  29.376  1.00  0.00     0.215 C 
ENDBRANCH  22  25
ENDBRANCH   1  21
TORSDOF 4
ENDMDL
MODEL 3
REMARK VINA RESULT: -6.229928565      3.941      9.171
REMARK  4 active torsions:
REMARK  status: ('A' for Active; 'I' for Inactive)
REMARK    1  A    between atoms: O1_2  and  C2_3 
REMARK       I    between atoms: C2_3  and  N1_5 
REMARK    2  A    between atoms: N1_5  and  C3_7 
REMARK       I    between atoms: N2_10  and  C6_11 
REMARK       I    between atoms: C6_11  and  N3_13 
REMARK    3  A    between atoms: N3_13  and  C7_15 
REMARK    4  A    between atoms: N5_19  and  C9_20 
ROOT
HETATM    1  C3  UNL     1      19.333  12.938  26.925  1.00  0.00     0.089 C 
HETATM    2  C4  UNL     1      19.948  14.051  26.126  1.00  0.00     0.045 C 
HETATM    3  C5  UNL     1      21.402  13.812  25.791  1.00  0.00     0.129 C 
HETATM    4  N2  UNL     1      21.438  12.527  25.064  1.00  0.00    -0.334 N 
HETATM    5  C6  UNL     1      21.913  12.509  23.749  1.00  0.00     0.323 C 
HETATM    6  O3  UNL     1      22.270  13.635  23.240  1.00  0.00    -0.247 OA
HETATM    7  N3  UNL     1      22.020  11.348  22.971  1.00  0.00    -0.306 N 
ATOM      8  H3  UNL     1      21.742  10.456  23.380  1.00  0.00     0.171 HD
HETATM    9  C14 UNL     1      20.964  11.390  25.759  1.00  0.00     0.129 C 
HETATM   10  C15 UNL     1      19.609  11.572  26.411  1.00  0.00     0.045 C 
ENDROOT
BRANCH   7  11
HETATM   11  C7  UNL     1      22.498  11.367  21.644  1.00  0.00     0.070 A 
HETATM   12  C8  UNL     1      21.655  11.629  20.554  1.00  0.00     0.138 A 
HETATM   13  N4  UNL     1      22.373  11.598  19.431  1.00  0.00    -0.307 N 
HETATM   14  N5  UNL     1      23.625  11.334  19.724  1.00  0.00    -0.293 N 
ATOM     15  H4  UNL     1      22.007  11.755  18.492  1.00  0.00     0.186 HD
HETATM   16  C13 UNL     1      23.730  11.186  21.083  1.00  0.00     0.142 A 
BRANCH  14  17
HETATM   17  C9  UNL     1      24.689  11.225  18.756  1.00  0.00     0.042 C 
HETATM   18  C10 UNL     1      26.031  11.315  19.437  1.00  0.00     0.039 C 
HETATM   19  C11 UNL     1      24.564   9.891  18.061  1.00  0.00     0.039 C 
HETATM   20  C12 UNL     1      24.531  12.297  17.697  1.00  0.00     0.039 C 
ENDBRANCH  14  17
ENDBRANCH   7  11
BRANCH   1  21
HETATM   21  N1  UNL     1      19.677  13.031  28.327  1.00  0.00    -0.332 N 
HETATM   22  C2  UNL     1      18.599  13.206  29.262  1.00  0.00     0.360 C 
HETATM   23  O2  UNL     1      17.408  13.270  28.898  1.00  0.00    -0.239 OA
ATOM     24  H1  UNL     1      20.646  12.976  28.640  1.00  0.00     0.165 HD
BRANCH  22  25
HETATM   25  O1  UNL     1      18.855  13.310  30.633  1.00  0.00    -0.309 OA
HETATM   26  C1  UNL     1      20.084  12.867  31.192  1.00  0.00     0.215 C 
ENDBRANCH  22  25
ENDBRANCH   1  21
TORSDOF 4
ENDMDL
MODEL 4
REMARK VINA RESULT: -6.192853249      3.795      9.179
REMARK  4 active torsions:
REMARK  status: ('A' for Active; 'I' for Inactive)
REMARK    1  A    between atoms: O1_2  and  C2_3 
REMARK       I    between atoms: C2_3  and  N1_5 
REMARK    2  A    between atoms: N1_5  and  C3_7 
REMARK       I    between atoms: N2_10  and  C6_11 
REMARK       I    between atoms: C6_11  and  N3_13 
REMARK    3  A    between atoms: N3_13  and  C7_15 
REMARK    4  A    between atoms: N5_19  and  C9_20 
ROOT
HETATM    1  C3  UNL     1      20.643  12.392  27.467  1.00  0.00     0.089 C 
HETATM    2  C4  UNL     1      20.509  11.120  26.679  1.00  0.00     0.045 C 
HETATM    3  C5  UNL     1      19.855  11.319  25.331  1.00  0.00     0.129 C 
HETATM    4  N2  UNL     1      20.686  12.316  24.628  1.00  0.00    -0.334 N 
HETATM    5  C6  UNL     1      21.309  11.953  23.431  1.00  0.00     0.323 C 
HETATM    6  O3  UNL     1      21.136  10.744  23.025  1.00  0.00    -0.247 OA
HETATM    7  N3  UNL     1      22.096  12.821  22.662  1.00  0.00    -0.306 N 
ATOM      8  H3  UNL     1      22.226  13.780  22.984  1.00  0.00     0.171 HD
HETATM    9  C14 UNL     1      20.807  13.586  25.240  1.00  0.00     0.129 C 
HETATM   10  C15 UNL     1      21.186  13.544  26.705  1.00  0.00     0.045 C 
ENDROOT
BRANCH   7  11
HETATM   11  C7  UNL     1      22.717  12.419  21.461  1.00  0.00     0.070 A 
HETATM   12  C8  UNL     1      22.086  12.557  20.215  1.00  0.00     0.138 A 
HETATM   13  N4  UNL     1      22.904  12.112  19.261  1.00  0.00    -0.307 N 
HETATM   14  N5  UNL     1      24.022  11.696  19.808  1.00  0.00    -0.293 N 
ATOM     15  H4  UNL     1      22.694  12.098  18.264  1.00  0.00     0.186 HD
HETATM   16  C13 UNL     1      23.934  11.873  21.165  1.00  0.00     0.142 A 
BRANCH  14  17
HETATM   17  C9  UNL     1      25.140  11.151  19.078  1.00  0.00     0.042 C 
HETATM   18  C10 UNL     1      26.208  10.673  20.028  1.00  0.00     0.039 C 
HETATM   19  C11 UNL     1      24.644   9.990  18.250  1.00  0.00     0.039 C 
HETATM   20  C12 UNL     1      25.679  12.188  18.114  1.00  0.00     0.039 C 
ENDBRANCH  14  17
ENDBRANCH   7  11
BRANCH   1  21
HETATM   21  N1  UNL     1      19.401  12.753  28.116  1.00  0.00    -0.332 N 
HETATM   22  C2  UNL     1      19.482  13.289  29.448  1.00  0.00     0.360 C 
HETATM   23  O2  UNL     1      20.571  13.448  30.034  1.00  0.00    -0.239 OA
ATOM     24  H1  UNL     1      18.503  12.633  27.647  1.00  0.00     0.165 HD
BRANCH  22  25
HETATM   25  O1  UNL     1      18.324  13.655  30.140  1.00  0.00    -0.309 OA
HETATM   26  C1  UNL     1      17.121  13.974  29.454  1.00  0.00     0.215 C 
ENDBRANCH  22  25
ENDBRANCH   1  21
TORSDOF 4
ENDMDL
MODEL 5
REMARK VINA RESULT: -6.179267769      3.589      6.298
REMARK  4 active torsions:
REMARK  status: ('A' for Active; 'I' for Inactive)
REMARK    1  A    between atoms: O1_2  and  C2_3 
REMARK       I    between atoms: C2_3  and  N1_5 
REMARK    2  A    between atoms: N1_5  and  C3_7 
REMARK       I    between atoms: N2_10  and  C6_11 
REMARK       I    between atoms: C6_11  and  N3_13 
REMARK    3  A    between atoms: N3_13  and  C7_15 
REMARK    4  A    between atoms: N5_19  and  C9_20 
ROOT
HETATM    1  C3  UNL     1      29.522  12.554  19.324  1.00  0.00     0.089 C 
HETATM    2  C4  UNL     1      28.282  13.118  18.692  1.00  0.00     0.045 C 
HETATM    3  C5  UNL     1      27.344  12.056  18.167  1.00  0.00     0.129 C 
HETATM    4  N2  UNL     1      27.029  11.195  19.324  1.00  0.00    -0.334 N 
HETATM    5  C6  UNL     1      25.700  11.090  19.746  1.00  0.00     0.323 C 
HETATM    6  O3  UNL     1      24.827  11.784  19.105  1.00  0.00    -0.247 OA
HETATM    7  N3  UNL     1      25.278  10.283  20.811  1.00  0.00    -0.306 N 
ATOM      8  H3  UNL     1      25.972   9.730  21.313  1.00  0.00     0.171 HD
HETATM    9  C14 UNL     1      28.119  10.539  19.943  1.00  0.00     0.129 C 
HETATM   10  C15 UNL     1      29.287  11.442  20.279  1.00  0.00     0.045 C 
ENDROOT
BRANCH   7  11
HETATM   11  C7  UNL     1      23.928  10.207  21.215  1.00  0.00     0.070 A 
HETATM   12  C8  UNL     1      23.016   9.336  20.602  1.00  0.00     0.138 A 
HETATM   13  N4  UNL     1      21.828   9.464  21.192  1.00  0.00    -0.307 N 
HETATM   14  N5  UNL     1      21.912  10.360  22.147  1.00  0.00    -0.293 N 
ATOM     15  H4  UNL     1      20.985   8.946  20.941  1.00  0.00     0.186 HD
HETATM   16  C13 UNL     1      23.198  10.835  22.183  1.00  0.00     0.142 A 
BRANCH  14  17
HETATM   17  C9  UNL     1      20.818  10.756  23.001  1.00  0.00     0.042 C 
HETATM   18  C10 UNL     1      21.061  10.296  24.416  1.00  0.00     0.039 C 
HETATM   19  C11 UNL     1      20.713  12.261  22.969  1.00  0.00     0.039 C 
HETATM   20  C12 UNL     1      19.516  10.205  22.454  1.00  0.00     0.039 C 
ENDBRANCH  14  17
ENDBRANCH   7  11
BRANCH   1  21
HETATM   21  N1  UNL     1      30.503  12.171  18.331  1.00  0.00    -0.332 N 
HETATM   22  C2  UNL     1      31.346  13.208  17.801  1.00  0.00     0.360 C 
HETATM   23  O2  UNL     1      31.255  14.394  18.174  1.00  0.00    -0.239 OA
ATOM     24  H1  UNL     1      30.592  11.204  18.020  1.00  0.00     0.165 HD
BRANCH  22  25
HETATM   25  O1  UNL     1      32.312  12.914  16.834  1.00  0.00    -0.309 OA
HETATM   26  C1  UNL     1      33.564  13.585  16.811  1.00  0.00     0.215 C 
ENDBRANCH  22  25
ENDBRANCH   1  21
TORSDOF 4
ENDMDL
