MODEL 1
REMARK VINA RESULT: -7.012040108      0.000      0.000
REMARK  3 active torsions:
REMARK  status: ('A' for Active; 'I' for Inactive)
REMARK    1  A    between atoms: O1_2  and  C2_3 
REMARK    2  A    between atoms: C8_11  and  O4_12 
REMARK    3  A    between atoms: C15_20  and  C17_22 
ROOT
HETATM    1  C2  UNL     1      21.243  10.694  22.500  1.00  0.00     0.278 C 
HETATM    2  O2  UNL     1      21.877  10.424  21.262  1.00  0.00    -0.353 OA
HETATM    3  C3  UNL     1      23.193  10.435  21.650  1.00  0.00     0.146 C 
HETATM    4  C4  UNL     1      23.264  11.842  22.281  1.00  0.00     0.073 C 
HETATM    5  C5  UNL     1      23.360  12.854  21.264  1.00  0.00     0.065 C 
HETATM    6  C6  UNL     1      24.400  13.907  21.710  1.00  0.00     0.046 C 
HETATM    7  C7  UNL     1      22.157  13.651  20.888  1.00  0.00     0.046 C 
HETATM    8  O3  UNL     1      23.875  12.401  20.024  1.00  0.00    -0.343 OA
HETATM    9  C8  UNL     1      24.840  11.465  20.117  1.00  0.00     0.182 C 
HETATM   10  C9  UNL     1      24.218  10.195  20.631  1.00  0.00     0.101 C 
HETATM   11  C10 UNL     1      23.635   9.522  19.448  1.00  0.00    -0.017 C 
HETATM   12  C11 UNL     1      24.181  10.001  18.356  1.00  0.00    -0.016 C 
HETATM   13  C12 UNL     1      25.173  11.031  18.681  1.00  0.00     0.027 C 
HETATM   14  C13 UNL     1      25.048  12.208  17.732  1.00  0.00     0.025 C 
HETATM   15  C14 UNL     1      26.587  10.519  18.593  1.00  0.00     0.025 C 
HETATM   16  C15 UNL     1      22.144  11.703  23.210  1.00  0.00     0.103 C 
HETATM   17  C16 UNL     1      21.412  12.924  23.635  1.00  0.00     0.033 C 
ENDROOT
BRANCH  16  18
HETATM   18  C17 UNL     1      22.608  11.033  24.447  1.00  0.00     0.187 C 
HETATM   19  O5  UNL     1      23.464  11.581  25.160  1.00  0.00    -0.647 OA
HETATM   20  O6  UNL     1      22.100   9.809  24.812  1.00  0.00    -0.647 OA
ENDBRANCH  16  18
BRANCH   1  21
HETATM   21  O1  UNL     1      19.954  11.127  22.352  1.00  0.00    -0.365 OA
HETATM   22  C1  UNL     1      19.028  10.380  23.078  1.00  0.00     0.204 C 
ENDBRANCH   1  21
BRANCH   9  23
HETATM   23  O4  UNL     1      26.010  11.818  20.727  1.00  0.00    -0.364 OA
ATOM     24  H4  UNL     1      26.341  11.249  21.412  1.00  0.00     0.213 HD
ENDBRANCH   9  23
TORSDOF 3
ENDMDL
MODEL 2
REMARK VINA RESULT: -6.900164038      2.147      4.231
REMARK  3 active torsions:
REMARK  status: ('A' for Active; 'I' for Inactive)
REMARK    1  A    between atoms: O1_2  and  C2_3 
REMARK    2  A    between atoms: C8_11  and  O4_12 
REMARK    3  A    between atoms: C15_20  and  C17_22 
ROOT
HETATM    1  C2  UNL     1      21.659  14.847  23.122  1.00  0.00     0.278 C 
HETATM    2  O2  UNL     1      22.300  14.005  22.181  1.00  0.00    -0.353 OA
HETATM    3  C3  UNL     1      21.316  13.072  21.972  1.00  0.00     0.146 C 
HETATM    4  C4  UNL     1      21.092  12.603  23.426  1.00  0.00     0.073 C 
HETATM    5  C5  UNL     1      22.128  11.693  23.834  1.00  0.00     0.065 C 
HETATM    6  C6  UNL     1      21.483  10.531  24.624  1.00  0.00     0.046 C 
HETATM    7  C7  UNL     1      23.238  12.170  24.708  1.00  0.00     0.046 C 
HETATM    8  O3  UNL     1      22.787  11.030  22.771  1.00  0.00    -0.343 OA
HETATM    9  C8  UNL     1      22.000  10.706  21.726  1.00  0.00     0.182 C 
HETATM   10  C9  UNL     1      21.586  11.978  21.036  1.00  0.00     0.101 C 
HETATM   11  C10 UNL     1      22.702  12.327  20.127  1.00  0.00    -0.017 C 
HETATM   12  C11 UNL     1      23.444  11.267  19.916  1.00  0.00    -0.016 C 
HETATM   13  C12 UNL     1      22.919  10.111  20.648  1.00  0.00     0.027 C 
HETATM   14  C13 UNL     1      24.049   9.330  21.292  1.00  0.00     0.025 C 
HETATM   15  C14 UNL     1      22.155   9.164  19.760  1.00  0.00     0.025 C 
HETATM   16  C15 UNL     1      20.855  13.915  24.026  1.00  0.00     0.103 C 
HETATM   17  C16 UNL     1      21.163  14.107  25.466  1.00  0.00     0.033 C 
ENDROOT
BRANCH  16  18
HETATM   18  C17 UNL     1      19.434  14.293  23.840  1.00  0.00     0.187 C 
HETATM   19  O5  UNL     1      19.132  15.486  23.673  1.00  0.00    -0.647 OA
HETATM   20  O6  UNL     1      18.449  13.336  23.853  1.00  0.00    -0.647 OA
ENDBRANCH  16  18
BRANCH   1  21
HETATM   21  O1  UNL     1      22.536  15.643  23.806  1.00  0.00    -0.365 OA
HETATM   22  C1  UNL     1      23.829  15.622  23.286  1.00  0.00     0.204 C 
ENDBRANCH   1  21
BRANCH   9  23
HETATM   23  O4  UNL     1      20.987   9.817  21.947  1.00  0.00    -0.364 OA
ATOM     24  H4  UNL     1      20.581   9.413  21.188  1.00  0.00     0.213 HD
ENDBRANCH   9  23
TORSDOF 3
ENDMDL
MODEL 3
REMARK VINA RESULT: -6.888866038      2.824      5.979
REMARK  3 active torsions:
REMARK  status: ('A' for Active; 'I' for Inactive)
REMARK    1  A    between atoms: O1_2  and  C2_3 
REMARK    2  A    between atoms: C8_11  and  O4_12 
REMARK    3  A    between atoms: C15_20  and  C17_22 
ROOT
HETATM    1  C2  UNL     1      28.472  13.334  21.554  1.00  0.00     0.278 C 
HETATM    2  O2  UNL     1      27.152  13.808  21.354  1.00  0.00    -0.353 OA
HETATM    3  C3  UNL     1      26.435  12.673  21.635  1.00  0.00     0.146 C 
HETATM    4  C4  UNL     1      27.085  11.701  20.626  1.00  0.00     0.073 C 
HETATM    5  C5  UNL     1      26.573  11.923  19.301  1.00  0.00     0.065 C 
HETATM    6  C6  UNL     1      26.317  10.552  18.635  1.00  0.00     0.046 C 
HETATM    7  C7  UNL     1      27.384  12.679  18.304  1.00  0.00     0.046 C 
HETATM    8  O3  UNL     1      25.302  12.545  19.254  1.00  0.00    -0.343 OA
HETATM    9  C8  UNL     1      24.454  12.182  20.236  1.00  0.00     0.182 C 
HETATM   10  C9  UNL     1      24.975  12.733  21.537  1.00  0.00     0.101 C 
HETATM   11  C10 UNL     1      24.502  14.134  21.602  1.00  0.00    -0.017 C 
HETATM   12  C11 UNL     1      23.498  14.298  20.774  1.00  0.00    -0.016 C 
HETATM   13  C12 UNL     1      23.193  13.046  20.074  1.00  0.00     0.027 C 
HETATM   14  C13 UNL     1      22.922  13.311  18.604  1.00  0.00     0.025 C 
HETATM   15  C14 UNL     1      21.988  12.345  20.643  1.00  0.00     0.025 C 
HETATM   16  C15 UNL     1      28.478  11.902  21.022  1.00  0.00     0.103 C 
HETATM   17  C16 UNL     1      29.547  11.670  20.017  1.00  0.00     0.033 C 
ENDROOT
BRANCH  16  18
HETATM   18  C17 UNL     1      28.791  11.038  22.185  1.00  0.00     0.187 C 
HETATM   19  O5  UNL     1      29.118  11.554  23.266  1.00  0.00    -0.647 OA
HETATM   20  O6  UNL     1      28.724   9.670  22.075  1.00  0.00    -0.647 OA
ENDBRANCH  16  18
BRANCH   1  21
HETATM   21  O1  UNL     1      29.417  14.133  20.972  1.00  0.00    -0.365 OA
HETATM   22  C1  UNL     1      30.228  14.797  21.891  1.00  0.00     0.204 C 
ENDBRANCH   1  21
BRANCH   9  23
HETATM   23  O4  UNL     1      24.059  10.876  20.284  1.00  0.00    -0.364 OA
ATOM     24  H4  UNL     1      23.171  10.693  20.568  1.00  0.00     0.213 HD
ENDBRANCH   9  23
TORSDOF 3
ENDMDL
MODEL 4
REMARK VINA RESULT: -6.857332389      2.234      4.069
REMARK  3 active torsions:
REMARK  status: ('A' for Active; 'I' for Inactive)
REMARK    1  A    between atoms: O1_2  and  C2_3 
REMARK    2  A    between atoms: C8_11  and  O4_12 
REMARK    3  A    between atoms: C15_20  and  C17_22 
ROOT
HETATM    1  C2  UNL     1      23.654  11.538  21.560  1.00  0.00     0.278 C 
HETATM    2  O2  UNL     1      25.064  11.538  21.422  1.00  0.00    -0.353 OA
HETATM    3  C3  UNL     1      25.250  12.736  20.780  1.00  0.00     0.146 C 
HETATM    4  C4  UNL     1      24.337  12.516  19.554  1.00  0.00     0.073 C 
HETATM    5  C5  UNL     1      24.984  11.680  18.579  1.00  0.00     0.065 C 
HETATM    6  C6  UNL     1      24.719  12.263  17.173  1.00  0.00     0.046 C 
HETATM    7  C7  UNL     1      24.609  10.241  18.465  1.00  0.00     0.046 C 
HETATM    8  O3  UNL     1      26.398  11.663  18.658  1.00  0.00    -0.343 OA
HETATM    9  C8  UNL     1      26.963  12.838  18.997  1.00  0.00     0.182 C 
HETATM   10  C9  UNL     1      26.616  13.132  20.432  1.00  0.00     0.101 C 
HETATM   11  C10 UNL     1      27.603  12.386  21.247  1.00  0.00    -0.017 C 
HETATM   12  C11 UNL     1      28.642  12.081  20.509  1.00  0.00    -0.016 C 
HETATM   13  C12 UNL     1      28.471  12.578  19.140  1.00  0.00     0.027 C 
HETATM   14  C13 UNL     1      28.923  11.536  18.134  1.00  0.00     0.025 C 
HETATM   15  C14 UNL     1      29.256  13.837  18.881  1.00  0.00     0.025 C 
HETATM   16  C15 UNL     1      23.115  12.160  20.274  1.00  0.00     0.103 C 
HETATM   17  C16 UNL     1      22.113  11.298  19.596  1.00  0.00     0.033 C 
ENDROOT
BRANCH  16  18
HETATM   18  C17 UNL     1      22.407  13.395  20.685  1.00  0.00     0.187 C 
HETATM   19  O5  UNL     1      21.772  13.415  21.752  1.00  0.00    -0.647 OA
HETATM   20  O6  UNL     1      22.445  14.518  19.894  1.00  0.00    -0.647 OA
ENDBRANCH  16  18
BRANCH   1  21
HETATM   21  O1  UNL     1      23.147  10.294  21.815  1.00  0.00    -0.365 OA
HETATM   22  C1  UNL     1      22.797  10.097  23.150  1.00  0.00     0.204 C 
ENDBRANCH   1  21
BRANCH   9  23
HETATM   23  O4  UNL     1      26.802  13.891  18.141  1.00  0.00    -0.364 OA
ATOM     24  H4  UNL     1      26.371  13.723  17.311  1.00  0.00     0.213 HD
ENDBRANCH   9  23
TORSDOF 3
ENDMDL
MODEL 5
REMARK VINA RESULT: -6.854886198      1.872      3.469
REMARK  3 active torsions:
REMARK  status: ('A' for Active; 'I' for Inactive)
REMARK    1  A    between atoms: O1_2  and  C2_3 
REMARK    2  A    between atoms: C8_11  and  O4_12 
REMARK    3  A    between atoms: C15_20  and  C17_22 
ROOT
HETATM    1  C2  UNL     1      20.355  13.622  23.182  1.00  0.00     0.278 C 
HETATM    2  O2  UNL     1      21.284  13.435  22.128  1.00  0.00    -0.353 OA
HETATM    3  C3  UNL     1      20.998  12.142  21.772  1.00  0.00     0.146 C 
HETATM    4  C4  UNL     1      21.203  11.447  23.136  1.00  0.00     0.073 C 
HETATM    5  C5  UNL     1      22.603  11.262  23.409  1.00  0.00     0.065 C 
HETATM    6  C6  UNL     1      22.807   9.851  24.008  1.00  0.00     0.046 C 
HETATM    7  C7  UNL     1      23.307  12.176  24.354  1.00  0.00     0.046 C 
HETATM    8  O3  UNL     1      23.433  11.245  22.262  1.00  0.00    -0.343 OA
HETATM    9  C8  UNL     1      22.891  10.663  21.175  1.00  0.00     0.182 C 
HETATM   10  C9  UNL     1      21.768  11.537  20.683  1.00  0.00     0.101 C 
HETATM   11  C10 UNL     1      22.404  12.580  19.846  1.00  0.00    -0.017 C 
HETATM   12  C11 UNL     1      23.599  12.183  19.482  1.00  0.00    -0.016 C 
HETATM   13  C12 UNL     1      23.893  10.853  20.025  1.00  0.00     0.027 C 
HETATM   14  C13 UNL     1      25.315  10.796  20.552  1.00  0.00     0.025 C 
HETATM   15  C14 UNL     1      23.740   9.763  18.998  1.00  0.00     0.025 C 
HETATM   16  C15 UNL     1      20.308  12.290  23.927  1.00  0.00     0.103 C 
HETATM   17  C16 UNL     1      20.567  12.438  25.382  1.00  0.00     0.033 C 
ENDROOT
BRANCH  16  18
HETATM   18  C17 UNL     1      18.917  11.797  23.791  1.00  0.00     0.187 C 
HETATM   19  O5  UNL     1      17.985  12.609  23.665  1.00  0.00    -0.647 OA
HETATM   20  O6  UNL     1      18.650  10.450  23.802  1.00  0.00    -0.647 OA
ENDBRANCH  16  18
BRANCH   1  21
HETATM   21  O1  UNL     1      20.671  14.683  23.985  1.00  0.00    -0.365 OA
HETATM   22  C1  UNL     1      21.695  15.482  23.477  1.00  0.00     0.204 C 
ENDBRANCH   1  21
BRANCH   9  23
HETATM   23  O4  UNL     1      22.592   9.333  21.250  1.00  0.00    -0.364 OA
ATOM     24  H4  UNL     1      22.569   8.933  22.111  1.00  0.00     0.213 HD
ENDBRANCH   9  23
TORSDOF 3
ENDMDL
