MODEL 1
REMARK VINA RESULT: -6.779514120      0.000      0.000
REMARK  6 active torsions:
REMARK  status: ('A' for Active; 'I' for Inactive)
REMARK    1  A    between atoms: C5_5  and  C6_6 
REMARK    2  A    between atoms: C6_6  and  O1_7 
REMARK    3  A    between atoms: C6_6  and  N1_9 
REMARK    4  A    between atoms: C9_12  and  N2_13 
REMARK       I    between atoms: N2_13  and  C10_15 
REMARK    5  A    between atoms: C10_15  and  O3_17 
REMARK    6  A    between atoms: O3_17  and  C11_18 
ROOT
HETATM    1  N1  UNL     1      21.205  11.587  24.596  1.00  0.00    -0.383 N 
HETATM    2  C7  UNL     1      20.455  12.782  24.662  1.00  0.00     0.121 C 
HETATM    3  C8  UNL     1      18.955  12.542  24.686  1.00  0.00     0.045 C 
HETATM    4  C9  UNL     1      18.655  11.487  25.690  1.00  0.00     0.089 C 
HETATM    5  C15 UNL     1      19.812  11.034  26.523  1.00  0.00     0.045 C 
HETATM    6  C16 UNL     1      21.042  10.703  25.702  1.00  0.00     0.121 C 
ENDROOT
BRANCH   1   7
HETATM    7  C6  UNL     1      22.504  11.644  24.058  1.00  0.00     0.262 C 
BRANCH   7   8
HETATM    8  C5  UNL     1      22.671  10.860  22.812  1.00  0.00     0.030 C 
HETATM    9  C4  UNL     1      21.564  10.815  21.778  1.00  0.00     0.057 C 
HETATM   10  C3  UNL     1      22.071  11.156  20.406  1.00  0.00     0.011 C 
HETATM   11  C2  UNL     1      23.426  10.571  20.188  1.00  0.00    -0.001 C 
HETATM   12  C1  UNL     1      23.641  10.059  18.787  1.00  0.00     0.011 C 
HETATM   13  C17 UNL     1      23.666   9.471  21.222  1.00  0.00     0.123 C 
HETATM   14  N3  UNL     1      23.705  10.176  22.497  1.00  0.00    -0.393 N 
ATOM     15  H3  UNL     1      24.519  10.127  23.109  1.00  0.00     0.159 HD
ENDBRANCH   7   8
BRANCH   7  16
HETATM   16  O1  UNL     1      23.444  11.113  24.985  1.00  0.00    -0.372 OA
ATOM     17  H1  UNL     1      24.265  11.039  24.513  1.00  0.00     0.212 HD
ENDBRANCH   7  16
ENDBRANCH   1   7
BRANCH   4  18
HETATM   18  N2  UNL     1      17.983  10.386  25.028  1.00  0.00    -0.332 N 
HETATM   19  C10 UNL     1      16.583  10.231  25.001  1.00  0.00     0.361 C 
HETATM   20  O2  UNL     1      15.803  11.045  25.557  1.00  0.00    -0.238 OA
ATOM     21  H2  UNL     1      18.554   9.685  24.556  1.00  0.00     0.165 HD
BRANCH  19  22
HETATM   22  O3  UNL     1      16.001   9.155  24.349  1.00  0.00    -0.294 OA
BRANCH  22  23
HETATM   23  C11 UNL     1      15.529   9.288  23.038  1.00  0.00     0.061 C 
HETATM   24  C12 UNL     1      16.500  10.026  22.142  1.00  0.00     0.046 C 
HETATM   25  C13 UNL     1      15.344   7.866  22.500  1.00  0.00     0.046 C 
HETATM   26  C14 UNL     1      14.205  10.014  23.076  1.00  0.00     0.046 C 
ENDBRANCH  22  23
ENDBRANCH  19  22
ENDBRANCH   4  18
TORSDOF 6
ENDMDL
MODEL 2
REMARK VINA RESULT: -6.746145015      3.687      7.827
REMARK  6 active torsions:
REMARK  status: ('A' for Active; 'I' for Inactive)
REMARK    1  A    between atoms: C5_5  and  C6_6 
REMARK    2  A    between atoms: C6_6  and  O1_7 
REMARK    3  A    between atoms: C6_6  and  N1_9 
REMARK    4  A    between atoms: C9_12  and  N2_13 
REMARK       I    between atoms: N2_13  and  C10_15 
REMARK    5  A    between atoms: C10_15  and  O3_17 
REMARK    6  A    between atoms: O3_17  and  C11_18 
ROOT
HETATM    1  N1  UNL     1      21.564  10.825  23.225  1.00  0.00    -0.383 N 
HETATM    2  C7  UNL     1      20.733  11.929  22.935  1.00  0.00     0.121 C 
HETATM    3  C8  UNL     1      21.311  12.846  21.870  1.00  0.00     0.045 C 
HETATM    4  C9  UNL     1      21.776  12.017  20.726  1.00  0.00     0.089 C 
HETATM    5  C15 UNL     1      21.443  10.561  20.801  1.00  0.00     0.045 C 
HETATM    6  C16 UNL     1      21.801   9.937  22.135  1.00  0.00     0.121 C 
ENDROOT
BRANCH   1   7
HETATM    7  C6  UNL     1      21.443  10.212  24.485  1.00  0.00     0.262 C 
BRANCH   7   8
HETATM    8  C5  UNL     1      21.316  11.169  25.609  1.00  0.00     0.030 C 
HETATM    9  C4  UNL     1      19.957  11.472  26.210  1.00  0.00     0.057 C 
HETATM   10  C3  UNL     1      19.964  11.315  27.704  1.00  0.00     0.011 C 
HETATM   11  C2  UNL     1      21.248  11.813  28.276  1.00  0.00    -0.001 C 
HETATM   12  C1  UNL     1      21.081  12.524  29.595  1.00  0.00     0.011 C 
HETATM   13  C17 UNL     1      21.938  12.709  27.249  1.00  0.00     0.123 C 
HETATM   14  N3  UNL     1      22.280  11.807  26.156  1.00  0.00    -0.393 N 
ATOM     15  H3  UNL     1      23.243  11.690  25.843  1.00  0.00     0.159 HD
ENDBRANCH   7   8
BRANCH   7  16
HETATM   16  O1  UNL     1      22.599   9.430  24.765  1.00  0.00    -0.372 OA
ATOM     17  H1  UNL     1      22.856   9.037  23.939  1.00  0.00     0.212 HD
ENDBRANCH   7  16
ENDBRANCH   1   7
BRANCH   4  18
HETATM   18  N2  UNL     1      23.191  12.253  20.518  1.00  0.00    -0.332 N 
HETATM   19  C10 UNL     1      23.716  12.873  19.366  1.00  0.00     0.361 C 
HETATM   20  O2  UNL     1      22.988  13.270  18.423  1.00  0.00    -0.238 OA
ATOM     21  H2  UNL     1      23.842  11.955  21.244  1.00  0.00     0.165 HD
BRANCH  19  22
HETATM   22  O3  UNL     1      25.081  13.071  19.229  1.00  0.00    -0.294 OA
BRANCH  22  23
HETATM   23  C11 UNL     1      25.924  12.005  18.890  1.00  0.00     0.061 C 
HETATM   24  C12 UNL     1      25.167  10.821  18.327  1.00  0.00     0.046 C 
HETATM   25  C13 UNL     1      26.880  12.536  17.816  1.00  0.00     0.046 C 
HETATM   26  C14 UNL     1      26.693  11.590  20.122  1.00  0.00     0.046 C 
ENDBRANCH  22  23
ENDBRANCH  19  22
ENDBRANCH   4  18
TORSDOF 6
ENDMDL
MODEL 3
REMARK VINA RESULT: -6.735065694      1.264      1.607
REMARK  6 active torsions:
REMARK  status: ('A' for Active; 'I' for Inactive)
REMARK    1  A    between atoms: C5_5  and  C6_6 
REMARK    2  A    between atoms: C6_6  and  O1_7 
REMARK    3  A    between atoms: C6_6  and  N1_9 
REMARK    4  A    between atoms: C9_12  and  N2_13 
REMARK       I    between atoms: N2_13  and  C10_15 
REMARK    5  A    between atoms: C10_15  and  O3_17 
REMARK    6  A    between atoms: O3_17  and  C11_18 
ROOT
HETATM    1  N1  UNL     1      21.459  11.180  24.618  1.00  0.00    -0.383 N 
HETATM    2  C7  UNL     1      21.590  12.583  24.717  1.00  0.00     0.121 C 
HETATM    3  C8  UNL     1      20.266  13.315  24.571  1.00  0.00     0.045 C 
HETATM    4  C9  UNL     1      19.257  12.657  25.441  1.00  0.00     0.089 C 
HETATM    5  C15 UNL     1      19.776  11.581  26.341  1.00  0.00     0.045 C 
HETATM    6  C16 UNL     1      20.646  10.571  25.620  1.00  0.00     0.121 C 
ENDROOT
BRANCH   1   7
HETATM    7  C6  UNL     1      22.581  10.432  24.218  1.00  0.00     0.262 C 
BRANCH   7   8
HETATM    8  C5  UNL     1      22.745  10.335  22.749  1.00  0.00     0.030 C 
HETATM    9  C4  UNL     1      21.535  10.361  21.837  1.00  0.00     0.057 C 
HETATM   10  C3  UNL     1      21.683  11.384  20.747  1.00  0.00     0.011 C 
HETATM   11  C2  UNL     1      23.089  11.420  20.251  1.00  0.00    -0.001 C 
HETATM   12  C1  UNL     1      23.196  11.633  18.762  1.00  0.00     0.011 C 
HETATM   13  C17 UNL     1      23.801  10.137  20.677  1.00  0.00     0.123 C 
HETATM   14  N3  UNL     1      23.860  10.222  22.131  1.00  0.00    -0.393 N 
ATOM     15  H3  UNL     1      24.747  10.194  22.632  1.00  0.00     0.159 HD
ENDBRANCH   7   8
BRANCH   7  16
HETATM   16  O1  UNL     1      22.473   9.093  24.690  1.00  0.00    -0.372 OA
ATOM     17  H1  UNL     1      23.139   8.598  24.228  1.00  0.00     0.212 HD
ENDBRANCH   7  16
ENDBRANCH   1   7
BRANCH   4  18
HETATM   18  N2  UNL     1      18.149  12.208  24.621  1.00  0.00    -0.332 N 
HETATM   19  C10 UNL     1      16.819  12.133  25.082  1.00  0.00     0.361 C 
HETATM   20  O2  UNL     1      16.492  12.451  26.252  1.00  0.00    -0.238 OA
ATOM     21  H2  UNL     1      18.342  11.932  23.658  1.00  0.00     0.165 HD
BRANCH  19  22
HETATM   22  O3  UNL     1      15.804  11.696  24.245  1.00  0.00    -0.294 OA
BRANCH  22  23
HETATM   23  C11 UNL     1      15.667  10.335  23.943  1.00  0.00     0.061 C 
HETATM   24  C12 UNL     1      15.981   9.442  25.125  1.00  0.00     0.046 C 
HETATM   25  C13 UNL     1      14.203  10.128  23.542  1.00  0.00     0.046 C 
HETATM   26  C14 UNL     1      16.582  10.006  22.787  1.00  0.00     0.046 C 
ENDBRANCH  22  23
ENDBRANCH  19  22
ENDBRANCH   4  18
TORSDOF 6
ENDMDL
MODEL 4
REMARK VINA RESULT: -6.621840154      0.965      1.368
REMARK  6 active torsions:
REMARK  status: ('A' for Active; 'I' for Inactive)
REMARK    1  A    between atoms: C5_5  and  C6_6 
REMARK    2  A    between atoms: C6_6  and  O1_7 
REMARK    3  A    between atoms: C6_6  and  N1_9 
REMARK    4  A    between atoms: C9_12  and  N2_13 
REMARK       I    between atoms: N2_13  and  C10_15 
REMARK    5  A    between atoms: C10_15  and  O3_17 
REMARK    6  A    between atoms: O3_17  and  C11_18 
ROOT
HETATM    1  N1  UNL     1      21.457  11.022  24.447  1.00  0.00    -0.383 N 
HETATM    2  C7  UNL     1      20.901  12.296  24.196  1.00  0.00     0.121 C 
HETATM    3  C8  UNL     1      19.390  12.266  24.042  1.00  0.00     0.045 C 
HETATM    4  C9  UNL     1      18.811  11.472  25.158  1.00  0.00     0.089 C 
HETATM    5  C15 UNL     1      19.775  11.039  26.216  1.00  0.00     0.045 C 
HETATM    6  C16 UNL     1      21.026  10.396  25.654  1.00  0.00     0.121 C 
ENDROOT
BRANCH   1   7
HETATM    7  C6  UNL     1      22.802  10.801  24.102  1.00  0.00     0.262 C 
BRANCH   7   8
HETATM    8  C5  UNL     1      23.085  10.961  22.657  1.00  0.00     0.030 C 
HETATM    9  C4  UNL     1      22.209  10.281  21.623  1.00  0.00     0.057 C 
HETATM   10  C3  UNL     1      21.731  11.250  20.579  1.00  0.00     0.011 C 
HETATM   11  C2  UNL     1      22.808  12.223  20.235  1.00  0.00    -0.001 C 
HETATM   12  C1  UNL     1      22.847  12.582  18.771  1.00  0.00     0.011 C 
HETATM   13  C17 UNL     1      24.151  11.666  20.704  1.00  0.00     0.123 C 
HETATM   14  N3  UNL     1      24.045  11.643  22.157  1.00  0.00    -0.393 N 
ATOM     15  H3  UNL     1      24.705  12.148  22.748  1.00  0.00     0.159 HD
ENDBRANCH   7   8
BRANCH   7  16
HETATM   16  O1  UNL     1      23.183   9.471  24.433  1.00  0.00    -0.372 OA
ATOM     17  H1  UNL     1      22.373   8.989  24.556  1.00  0.00     0.212 HD
ENDBRANCH   7  16
ENDBRANCH   1   7
BRANCH   4  18
HETATM   18  N2  UNL     1      18.057  10.364  24.606  1.00  0.00    -0.332 N 
HETATM   19  C10 UNL     1      16.672  10.192  24.797  1.00  0.00     0.361 C 
HETATM   20  O2  UNL     1      15.978  10.995  25.470  1.00  0.00    -0.238 OA
ATOM     21  H2  UNL     1      18.557   9.671  24.048  1.00  0.00     0.165 HD
BRANCH  19  22
HETATM   22  O3  UNL     1      16.009   9.109  24.240  1.00  0.00    -0.294 OA
BRANCH  22  23
HETATM   23  C11 UNL     1      15.468   9.193  22.951  1.00  0.00     0.061 C 
HETATM   24  C12 UNL     1      14.203  10.023  22.904  1.00  0.00     0.046 C 
HETATM   25  C13 UNL     1      16.533   9.866  22.079  1.00  0.00     0.046 C 
HETATM   26  C14 UNL     1      15.188   7.794  22.456  1.00  0.00     0.046 C 
ENDBRANCH  22  23
ENDBRANCH  19  22
ENDBRANCH   4  18
TORSDOF 6
ENDMDL
MODEL 5
REMARK VINA RESULT: -6.531155739      3.724      7.942
REMARK  6 active torsions:
REMARK  status: ('A' for Active; 'I' for Inactive)
REMARK    1  A    between atoms: C5_5  and  C6_6 
REMARK    2  A    between atoms: C6_6  and  O1_7 
REMARK    3  A    between atoms: C6_6  and  N1_9 
REMARK    4  A    between atoms: C9_12  and  N2_13 
REMARK       I    between atoms: N2_13  and  C10_15 
REMARK    5  A    between atoms: C10_15  and  O3_17 
REMARK    6  A    between atoms: O3_17  and  C11_18 
ROOT
HETATM    1  N1  UNL     1      22.206  10.241  22.683  1.00  0.00    -0.383 N 
HETATM    2  C7  UNL     1      21.161  10.234  21.734  1.00  0.00     0.121 C 
HETATM    3  C8  UNL     1      21.483  11.044  20.489  1.00  0.00     0.045 C 
HETATM    4  C9  UNL     1      22.842  10.673  20.015  1.00  0.00     0.089 C 
HETATM    5  C15 UNL     1      23.492   9.533  20.732  1.00  0.00     0.045 C 
HETATM    6  C16 UNL     1      23.435   9.669  22.241  1.00  0.00     0.121 C 
ENDROOT
BRANCH   1   7
HETATM    7  C6  UNL     1      21.884  10.004  24.032  1.00  0.00     0.262 C 
BRANCH   7   8
HETATM    8  C5  UNL     1      21.902  11.221  24.876  1.00  0.00     0.030 C 
HETATM    9  C4  UNL     1      20.607  11.910  25.258  1.00  0.00     0.057 C 
HETATM   10  C3  UNL     1      20.516  12.139  26.739  1.00  0.00     0.011 C 
HETATM   11  C2  UNL     1      21.847  12.522  27.292  1.00  0.00    -0.001 C 
HETATM   12  C1  UNL     1      21.768  13.563  28.380  1.00  0.00     0.011 C 
HETATM   13  C17 UNL     1      22.748  12.986  26.148  1.00  0.00     0.123 C 
HETATM   14  N3  UNL     1      22.950  11.789  25.341  1.00  0.00    -0.393 N 
ATOM     15  H3  UNL     1      23.883  11.422  25.156  1.00  0.00     0.159 HD
ENDBRANCH   7   8
BRANCH   7  16
HETATM   16  O1  UNL     1      22.827   9.110  24.613  1.00  0.00    -0.372 OA
ATOM     17  H1  UNL     1      23.211   9.574  25.347  1.00  0.00     0.212 HD
ENDBRANCH   7  16
ENDBRANCH   1   7
BRANCH   4  18
HETATM   18  N2  UNL     1      23.673  11.861  19.993  1.00  0.00    -0.332 N 
HETATM   19  C10 UNL     1      24.574  12.161  18.952  1.00  0.00     0.361 C 
HETATM   20  O2  UNL     1      24.727  11.412  17.955  1.00  0.00    -0.238 OA
ATOM     21  H2  UNL     1      23.602  12.514  20.773  1.00  0.00     0.165 HD
BRANCH  19  22
HETATM   22  O3  UNL     1      25.341  13.316  18.990  1.00  0.00    -0.294 OA
BRANCH  22  23
HETATM   23  C11 UNL     1      24.833  14.523  18.493  1.00  0.00     0.061 C 
HETATM   24  C12 UNL     1      23.482  14.358  17.833  1.00  0.00     0.046 C 
HETATM   25  C13 UNL     1      24.683  15.456  19.699  1.00  0.00     0.046 C 
HETATM   26  C14 UNL     1      25.826  15.091  17.507  1.00  0.00     0.046 C 
ENDBRANCH  22  23
ENDBRANCH  19  22
ENDBRANCH   4  18
TORSDOF 6
ENDMDL
