MODEL 1
REMARK VINA RESULT: -7.377649401      0.000      0.000
REMARK  8 active torsions:
REMARK  status: ('A' for Active; 'I' for Inactive)
REMARK    1  A    between atoms: C2_2  and  C4_4 
REMARK    2  A    between atoms: C5_7  and  C6_8 
REMARK    3  A    between atoms: C6_8  and  C7_9 
REMARK    4  A    between atoms: C11_13  and  N2_14 
REMARK    5  A    between atoms: N3_17  and  C12_18 
REMARK    6  A    between atoms: C12_18  and  C13_19 
REMARK    7  A    between atoms: C13_19  and  C14_20 
REMARK    8  A    between atoms: C14_20  and  C15_21 
ROOT
HETATM    1  C4  UNL     1      18.555  13.390  14.814  1.00  0.00     0.088 A 
HETATM    2  N1  UNL     1      17.998  14.577  15.172  1.00  0.00    -0.349 N 
ATOM      3  H1  UNL     1      17.232  14.950  14.611  1.00  0.00     0.167 HD
HETATM    4  C5  UNL     1      18.419  15.275  16.231  1.00  0.00     0.014 A 
HETATM    5  C10 UNL     1      19.450  14.760  16.974  1.00  0.00     0.073 A 
HETATM    6  C11 UNL     1      20.020  13.558  16.619  1.00  0.00     0.104 A 
HETATM    7  N3  UNL     1      19.561  12.909  15.557  1.00  0.00    -0.323 N 
ENDROOT
BRANCH   7   8
HETATM    8  C12 UNL     1      20.148  11.661  15.191  1.00  0.00     0.132 C 
BRANCH   8   9
HETATM    9  C13 UNL     1      19.205  10.479  15.346  1.00  0.00     0.026 C 
BRANCH   9  10
HETATM   10  C14 UNL     1      19.507   9.888  16.730  1.00  0.00     0.058 C 
BRANCH  10  11
HETATM   11  C15 UNL     1      18.420  10.181  17.690  1.00  0.00     0.011 A 
HETATM   12  C16 UNL     1      17.281   9.413  17.886  1.00  0.00     0.047 A 
HETATM   13  C17 UNL     1      16.510  10.016  18.864  1.00  0.00     0.046 A 
HETATM   14 BR1  UNL     1      14.841   9.397  19.533  1.00  0.00    -0.048 Br
HETATM   15  C18 UNL     1      17.182  11.137  19.253  1.00  0.00     0.097 A 
HETATM   16 BR2  UNL     1      16.600  12.376  20.585  1.00  0.00    -0.030 Br
HETATM   17  N4  UNL     1      18.332  11.220  18.534  1.00  0.00    -0.353 N 
ATOM     18  H4  UNL     1      19.026  11.963  18.623  1.00  0.00     0.166 HD
ENDBRANCH  10  11
ENDBRANCH   9  10
ENDBRANCH   8   9
ENDBRANCH   7   8
BRANCH   1  19
HETATM   19  C2  UNL     1      17.981  12.750  13.623  1.00  0.00     0.045 C 
HETATM   20  C1  UNL     1      16.449  12.710  13.688  1.00  0.00     0.017 C 
HETATM   21  C3  UNL     1      18.305  13.652  12.431  1.00  0.00     0.017 C 
ENDBRANCH   1  19
BRANCH   6  22
HETATM   22  N2  UNL     1      21.007  13.088  17.352  1.00  0.00    -0.385 N 
ATOM     23  H22 UNL     1      21.218  13.459  18.279  1.00  0.00     0.157 HD
ATOM     24  H21 UNL     1      21.577  12.331  16.975  1.00  0.00     0.157 HD
ENDBRANCH   6  22
BRANCH   4  25
HETATM   25  C6  UNL     1      17.775  16.561  16.571  1.00  0.00     0.061 C 
BRANCH  25  26
HETATM   26  C7  UNL     1      16.707  16.432  17.603  1.00  0.00    -0.009 A 
HETATM   27  C8  UNL     1      15.299  16.670  17.127  1.00  0.00     0.005 A 
HETATM   28  C9  UNL     1      16.010  17.692  17.987  1.00  0.00     0.005 A 
ENDBRANCH  25  26
ENDBRANCH   4  25
TORSDOF 8
ENDMDL
MODEL 2
REMARK VINA RESULT: -7.254582323      3.956      6.672
REMARK  8 active torsions:
REMARK  status: ('A' for Active; 'I' for Inactive)
REMARK    1  A    between atoms: C2_2  and  C4_4 
REMARK    2  A    between atoms: C5_7  and  C6_8 
REMARK    3  A    between atoms: C6_8  and  C7_9 
REMARK    4  A    between atoms: C11_13  and  N2_14 
REMARK    5  A    between atoms: N3_17  and  C12_18 
REMARK    6  A    between atoms: C12_18  and  C13_19 
REMARK    7  A    between atoms: C13_19  and  C14_20 
REMARK    8  A    between atoms: C14_20  and  C15_21 
ROOT
HETATM    1  C4  UNL     1      17.401  15.433  17.251  1.00  0.00     0.088 A 
HETATM    2  N1  UNL     1      16.960  14.624  18.250  1.00  0.00    -0.349 N 
ATOM      3  H1  UNL     1      16.035  14.791  18.646  1.00  0.00     0.167 HD
HETATM    4  C5  UNL     1      17.694  13.617  18.733  1.00  0.00     0.014 A 
HETATM    5  C10 UNL     1      18.935  13.405  18.188  1.00  0.00     0.073 A 
HETATM    6  C11 UNL     1      19.390  14.221  17.176  1.00  0.00     0.104 A 
HETATM    7  N3  UNL     1      18.617  15.205  16.737  1.00  0.00    -0.323 N 
ENDROOT
BRANCH   7   8
HETATM    8  C12 UNL     1      19.086  16.047  15.685  1.00  0.00     0.132 C 
BRANCH   8   9
HETATM    9  C13 UNL     1      18.392  15.800  14.355  1.00  0.00     0.026 C 
BRANCH   9  10
HETATM   10  C14 UNL     1      19.303  16.431  13.292  1.00  0.00     0.058 C 
BRANCH  10  11
HETATM   11  C15 UNL     1      19.784  15.419  12.326  1.00  0.00     0.011 A 
HETATM   12  C16 UNL     1      21.110  15.073  12.105  1.00  0.00     0.047 A 
HETATM   13  C17 UNL     1      21.149  14.092  11.129  1.00  0.00     0.046 A 
HETATM   14 BR1  UNL     1      22.704  13.250  10.433  1.00  0.00    -0.048 Br
HETATM   15  C18 UNL     1      19.856  13.851  10.768  1.00  0.00     0.097 A 
HETATM   16 BR2  UNL     1      19.286  12.588   9.455  1.00  0.00    -0.030 Br
HETATM   17  N4  UNL     1      19.048  14.660  11.501  1.00  0.00    -0.353 N 
ATOM     18  H4  UNL     1      18.030  14.687  11.433  1.00  0.00     0.166 HD
ENDBRANCH  10  11
ENDBRANCH   9  10
ENDBRANCH   8   9
ENDBRANCH   7   8
BRANCH   1  19
HETATM   19  C2  UNL     1      16.476  16.495  16.836  1.00  0.00     0.045 C 
HETATM   20  C1  UNL     1      15.071  15.944  16.560  1.00  0.00     0.017 C 
HETATM   21  C3  UNL     1      16.306  17.434  18.033  1.00  0.00     0.017 C 
ENDBRANCH   1  19
BRANCH   6  22
HETATM   22  N2  UNL     1      20.585  13.992  16.673  1.00  0.00    -0.385 N 
ATOM     23  H22 UNL     1      20.935  13.048  16.514  1.00  0.00     0.157 HD
ATOM     24  H21 UNL     1      21.175  14.790  16.439  1.00  0.00     0.157 HD
ENDBRANCH   6  22
BRANCH   4  25
HETATM   25  C6  UNL     1      17.162  12.770  19.821  1.00  0.00     0.061 C 
BRANCH  25  26
HETATM   26  C7  UNL     1      17.218  11.312  19.515  1.00  0.00    -0.009 A 
HETATM   27  C8  UNL     1      16.414  10.856  18.327  1.00  0.00     0.005 A 
HETATM   28  C9  UNL     1      15.959  10.546  19.737  1.00  0.00     0.005 A 
ENDBRANCH  25  26
ENDBRANCH   4  25
TORSDOF 8
ENDMDL
MODEL 3
REMARK VINA RESULT: -7.159007524      1.326      2.703
REMARK  8 active torsions:
REMARK  status: ('A' for Active; 'I' for Inactive)
REMARK    1  A    between atoms: C2_2  and  C4_4 
REMARK    2  A    between atoms: C5_7  and  C6_8 
REMARK    3  A    between atoms: C6_8  and  C7_9 
REMARK    4  A    between atoms: C11_13  and  N2_14 
REMARK    5  A    between atoms: N3_17  and  C12_18 
REMARK    6  A    between atoms: C12_18  and  C13_19 
REMARK    7  A    between atoms: C13_19  and  C14_20 
REMARK    8  A    between atoms: C14_20  and  C15_21 
ROOT
HETATM    1  C4  UNL     1      19.699  13.795  15.273  1.00  0.00     0.088 A 
HETATM    2  N1  UNL     1      19.376  14.929  15.949  1.00  0.00    -0.349 N 
ATOM      3  H1  UNL     1      20.125  15.493  16.350  1.00  0.00     0.167 HD
HETATM    4  C5  UNL     1      18.112  15.332  16.108  1.00  0.00     0.014 A 
HETATM    5  C10 UNL     1      17.116  14.563  15.562  1.00  0.00     0.073 A 
HETATM    6  C11 UNL     1      17.435  13.412  14.876  1.00  0.00     0.104 A 
HETATM    7  N3  UNL     1      18.708  13.062  14.750  1.00  0.00    -0.323 N 
ENDROOT
BRANCH   7   8
HETATM    8  C12 UNL     1      19.038  11.872  14.035  1.00  0.00     0.132 C 
BRANCH   8   9
HETATM    9  C13 UNL     1      18.494  10.607  14.678  1.00  0.00     0.026 C 
BRANCH   9  10
HETATM   10  C14 UNL     1      19.231  10.474  16.018  1.00  0.00     0.058 C 
BRANCH  10  11
HETATM   11  C15 UNL     1      18.304  10.630  17.160  1.00  0.00     0.011 A 
HETATM   12  C16 UNL     1      18.289  11.689  18.056  1.00  0.00     0.047 A 
HETATM   13  C17 UNL     1      17.280  11.470  18.977  1.00  0.00     0.046 A 
HETATM   14 BR1  UNL     1      16.807  12.599  20.431  1.00  0.00    -0.048 Br
HETATM   15  C18 UNL     1      16.694  10.286  18.636  1.00  0.00     0.097 A 
HETATM   16 BR2  UNL     1      15.232   9.466  19.551  1.00  0.00    -0.030 Br
HETATM   17  N4  UNL     1      17.324   9.795  17.538  1.00  0.00    -0.353 N 
ATOM     18  H4  UNL     1      17.088   8.919  17.070  1.00  0.00     0.166 HD
ENDBRANCH  10  11
ENDBRANCH   9  10
ENDBRANCH   8   9
ENDBRANCH   7   8
BRANCH   1  19
HETATM   19  C2  UNL     1      21.133  13.490  15.190  1.00  0.00     0.045 C 
HETATM   20  C1  UNL     1      21.937  14.691  14.677  1.00  0.00     0.017 C 
HETATM   21  C3  UNL     1      21.626  13.264  16.622  1.00  0.00     0.017 C 
ENDBRANCH   1  19
BRANCH   6  22
HETATM   22  N2  UNL     1      16.458  12.695  14.363  1.00  0.00    -0.385 N 
ATOM     23  H22 UNL     1      15.507  12.733  14.730  1.00  0.00     0.157 HD
ATOM     24  H21 UNL     1      16.665  12.082  13.574  1.00  0.00     0.157 HD
ENDBRANCH   6  22
BRANCH   4  25
HETATM   25  C6  UNL     1      17.821  16.575  16.853  1.00  0.00     0.061 C 
BRANCH  25  26
HETATM   26  C7  UNL     1      16.626  16.468  17.738  1.00  0.00    -0.009 A 
HETATM   27  C8  UNL     1      15.308  16.836  17.112  1.00  0.00     0.005 A 
HETATM   28  C9  UNL     1      15.972  17.752  18.117  1.00  0.00     0.005 A 
ENDBRANCH  25  26
ENDBRANCH   4  25
TORSDOF 8
ENDMDL
MODEL 4
REMARK VINA RESULT: -7.128978890      3.659      6.266
REMARK  8 active torsions:
REMARK  status: ('A' for Active; 'I' for Inactive)
REMARK    1  A    between atoms: C2_2  and  C4_4 
REMARK    2  A    between atoms: C5_7  and  C6_8 
REMARK    3  A    between atoms: C6_8  and  C7_9 
REMARK    4  A    between atoms: C11_13  and  N2_14 
REMARK    5  A    between atoms: N3_17  and  C12_18 
REMARK    6  A    between atoms: C12_18  and  C13_19 
REMARK    7  A    between atoms: C13_19  and  C14_20 
REMARK    8  A    between atoms: C14_20  and  C15_21 
ROOT
HETATM    1  C4  UNL     1      17.441  15.341  17.214  1.00  0.00     0.088 A 
HETATM    2  N1  UNL     1      16.982  14.554  18.223  1.00  0.00    -0.349 N 
ATOM      3  H1  UNL     1      16.055  14.739  18.608  1.00  0.00     0.167 HD
HETATM    4  C5  UNL     1      17.700  13.547  18.729  1.00  0.00     0.014 A 
HETATM    5  C10 UNL     1      18.943  13.312  18.199  1.00  0.00     0.073 A 
HETATM    6  C11 UNL     1      19.415  14.104  17.178  1.00  0.00     0.104 A 
HETATM    7  N3  UNL     1      18.658  15.089  16.715  1.00  0.00    -0.323 N 
ENDROOT
BRANCH   7   8
HETATM    8  C12 UNL     1      19.146  15.908  15.653  1.00  0.00     0.132 C 
BRANCH   8   9
HETATM    9  C13 UNL     1      18.550  15.563  14.298  1.00  0.00     0.026 C 
BRANCH   9  10
HETATM   10  C14 UNL     1      19.744  15.204  13.402  1.00  0.00     0.058 C 
BRANCH  10  11
HETATM   11  C15 UNL     1      19.330  14.339  12.275  1.00  0.00     0.011 A 
HETATM   12  C16 UNL     1      18.275  13.439  12.286  1.00  0.00     0.047 A 
HETATM   13  C17 UNL     1      18.210  12.824  11.049  1.00  0.00     0.046 A 
HETATM   14 BR1  UNL     1      16.957  11.502  10.504  1.00  0.00    -0.048 Br
HETATM   15  C18 UNL     1      19.220  13.352  10.299  1.00  0.00     0.097 A 
HETATM   16 BR2  UNL     1      19.625  12.885   8.492  1.00  0.00    -0.030 Br
HETATM   17  N4  UNL     1      19.884  14.264  11.055  1.00  0.00    -0.353 N 
ATOM     18  H4  UNL     1      20.686  14.812  10.742  1.00  0.00     0.166 HD
ENDBRANCH  10  11
ENDBRANCH   9  10
ENDBRANCH   8   9
ENDBRANCH   7   8
BRANCH   1  19
HETATM   19  C2  UNL     1      16.531  16.406  16.773  1.00  0.00     0.045 C 
HETATM   20  C1  UNL     1      15.137  15.858  16.445  1.00  0.00     0.017 C 
HETATM   21  C3  UNL     1      16.321  17.338  17.969  1.00  0.00     0.017 C 
ENDBRANCH   1  19
BRANCH   6  22
HETATM   22  N2  UNL     1      20.612  13.853  16.689  1.00  0.00    -0.385 N 
ATOM     23  H22 UNL     1      21.248  14.598  16.404  1.00  0.00     0.157 HD
ATOM     24  H21 UNL     1      20.906  12.881  16.595  1.00  0.00     0.157 HD
ENDBRANCH   6  22
BRANCH   4  25
HETATM   25  C6  UNL     1      17.148  12.725  19.827  1.00  0.00     0.061 C 
BRANCH  25  26
HETATM   26  C7  UNL     1      17.196  11.261  19.550  1.00  0.00    -0.009 A 
HETATM   27  C8  UNL     1      16.365  10.782  18.390  1.00  0.00     0.005 A 
HETATM   28  C9  UNL     1      15.943  10.501  19.816  1.00  0.00     0.005 A 
ENDBRANCH  25  26
ENDBRANCH   4  25
TORSDOF 8
ENDMDL
MODEL 5
REMARK VINA RESULT: -7.121368504      3.712      6.210
REMARK  8 active torsions:
REMARK  status: ('A' for Active; 'I' for Inactive)
REMARK    1  A    between atoms: C2_2  and  C4_4 
REMARK    2  A    between atoms: C5_7  and  C6_8 
REMARK    3  A    between atoms: C6_8  and  C7_9 
REMARK    4  A    between atoms: C11_13  and  N2_14 
REMARK    5  A    between atoms: N3_17  and  C12_18 
REMARK    6  A    between atoms: C12_18  and  C13_19 
REMARK    7  A    between atoms: C13_19  and  C14_20 
REMARK    8  A    between atoms: C14_20  and  C15_21 
ROOT
HETATM    1  C4  UNL     1      17.107  14.702  16.088  1.00  0.00     0.088 A 
HETATM    2  N1  UNL     1      16.709  13.786  17.010  1.00  0.00    -0.349 N 
ATOM      3  H1  UNL     1      16.072  14.079  17.751  1.00  0.00     0.167 HD
HETATM    4  C5  UNL     1      17.122  12.516  16.981  1.00  0.00     0.014 A 
HETATM    5  C10 UNL     1      17.977  12.138  15.977  1.00  0.00     0.073 A 
HETATM    6  C11 UNL     1      18.386  13.061  15.040  1.00  0.00     0.104 A 
HETATM    7  N3  UNL     1      17.943  14.308  15.119  1.00  0.00    -0.323 N 
ENDROOT
BRANCH   7   8
HETATM    8  C12 UNL     1      18.363  15.262  14.145  1.00  0.00     0.132 C 
BRANCH   8   9
HETATM    9  C13 UNL     1      19.439  16.210  14.648  1.00  0.00     0.026 C 
BRANCH   9  10
HETATM   10  C14 UNL     1      20.443  16.343  13.494  1.00  0.00     0.058 C 
BRANCH  10  11
HETATM   11  C15 UNL     1      21.373  15.194  13.453  1.00  0.00     0.011 A 
HETATM   12  C16 UNL     1      22.085  14.686  14.531  1.00  0.00     0.047 A 
HETATM   13  C17 UNL     1      22.841  13.614  14.091  1.00  0.00     0.046 A 
HETATM   14 BR1  UNL     1      24.007  12.542  15.142  1.00  0.00    -0.048 Br
HETATM   15  C18 UNL     1      22.585  13.479  12.758  1.00  0.00     0.097 A 
HETATM   16 BR2  UNL     1      23.347  12.159  11.607  1.00  0.00    -0.030 Br
HETATM   17  N4  UNL     1      21.697  14.440  12.391  1.00  0.00    -0.353 N 
ATOM     18  H4  UNL     1      21.331  14.570  11.448  1.00  0.00     0.166 HD
ENDBRANCH  10  11
ENDBRANCH   9  10
ENDBRANCH   8   9
ENDBRANCH   7   8
BRANCH   1  19
HETATM   19  C2  UNL     1      16.566  16.057  16.262  1.00  0.00     0.045 C 
HETATM   20  C1  UNL     1      15.050  16.033  16.490  1.00  0.00     0.017 C 
HETATM   21  C3  UNL     1      17.156  16.611  17.560  1.00  0.00     0.017 C 
ENDBRANCH   1  19
BRANCH   6  22
HETATM   22  N2  UNL     1      19.207  12.668  14.088  1.00  0.00    -0.385 N 
ATOM     23  H22 UNL     1      19.120  11.757  13.638  1.00  0.00     0.157 HD
ATOM     24  H21 UNL     1      19.953  13.300  13.797  1.00  0.00     0.157 HD
ENDBRANCH   6  22
BRANCH   4  25
HETATM   25  C6  UNL     1      16.655  11.563  18.011  1.00  0.00     0.061 C 
BRANCH  25  26
HETATM   26  C7  UNL     1      17.373  11.700  19.310  1.00  0.00    -0.009 A 
HETATM   27  C8  UNL     1      16.561  11.413  20.544  1.00  0.00     0.005 A 
HETATM   28  C9  UNL     1      16.945  12.831  20.181  1.00  0.00     0.005 A 
ENDBRANCH  25  26
ENDBRANCH   4  25
TORSDOF 8
ENDMDL
