MODEL 1
REMARK VINA RESULT: -8.019993154      0.000      0.000
REMARK  8 active torsions:
REMARK  status: ('A' for Active; 'I' for Inactive)
REMARK    1  A    between atoms: N1_10  and  C8_11 
REMARK    2  A    between atoms: C8_11  and  C9_12 
REMARK    3  A    between atoms: C9_12  and  C10_13 
REMARK    4  A    between atoms: C10_13  and  C11_14 
REMARK    5  A    between atoms: C11_14  and  C12_15 
REMARK    6  A    between atoms: C12_15  and  C13_16 
REMARK       I    between atoms: C13_16  and  N2_18 
REMARK    7  A    between atoms: N2_18  and  C14_20 
REMARK    8  A    between atoms: C20_26  and  O2_27 
ROOT
HETATM    1  C9  UNL     1      18.688   9.964  16.285  1.00  0.00     0.020 C 
ENDROOT
BRANCH   1   2
HETATM    2  C8  UNL     1      19.633  11.118  16.220  1.00  0.00     0.126 C 
BRANCH   2   3
HETATM    3  N1  UNL     1      19.359  11.935  15.077  1.00  0.00    -0.346 N 
HETATM    4  C7  UNL     1      20.444  12.583  14.303  1.00  0.00     0.102 C 
HETATM    5  C6  UNL     1      20.695  13.898  14.979  1.00  0.00     0.105 C 
HETATM    6  C23 UNL     1      19.909  12.674  12.918  1.00  0.00    -0.008 C 
HETATM    7  C5  UNL     1      21.536  14.849  14.192  1.00  0.00     0.246 C 
HETATM    8  C4  UNL     1      21.612  14.493  12.726  1.00  0.00     0.088 C 
HETATM    9  F1  UNL     1      22.829  14.949  14.669  1.00  0.00    -0.206 F 
HETATM   10  F2  UNL     1      20.975  16.120  14.296  1.00  0.00    -0.206 F 
HETATM   11  C2  UNL     1      20.276  13.963  12.218  1.00  0.00    -0.033 C 
HETATM   12  C1  UNL     1      20.463  13.710  10.725  1.00  0.00     0.016 C 
HETATM   13  C3  UNL     1      19.211  15.030  12.338  1.00  0.00     0.016 C 
HETATM   14  C22 UNL     1      18.426  12.464  13.034  1.00  0.00     0.115 C 
HETATM   15  C24 UNL     1      20.479  11.472  12.152  1.00  0.00     0.018 C 
HETATM   16  C21 UNL     1      18.137  12.277  14.473  1.00  0.00     0.221 C 
HETATM   17  O3  UNL     1      17.044  12.396  15.044  1.00  0.00    -0.273 OA
ENDBRANCH   2   3
ENDBRANCH   1   2
BRANCH   1  18
HETATM   18  C10 UNL     1      18.156   9.643  17.650  1.00  0.00     0.002 C 
BRANCH  18  19
HETATM   19  C11 UNL     1      16.935  10.439  18.036  1.00  0.00     0.009 C 
BRANCH  19  20
HETATM   20  C12 UNL     1      17.235  11.123  19.351  1.00  0.00     0.103 C 
BRANCH  20  21
HETATM   21  C13 UNL     1      17.243  12.596  19.220  1.00  0.00     0.217 C 
HETATM   22  O1  UNL     1      17.258  13.302  20.243  1.00  0.00    -0.274 OA
HETATM   23  N2  UNL     1      17.235  13.188  17.946  1.00  0.00    -0.354 N 
ATOM     24  H2  UNL     1      17.223  12.593  17.117  1.00  0.00     0.162 HD
BRANCH  23  25
HETATM   25  C14 UNL     1      17.244  14.647  17.787  1.00  0.00     0.113 C 
HETATM   26  C15 UNL     1      18.518  15.121  17.128  1.00  0.00     0.028 C 
HETATM   27  C16 UNL     1      18.767  16.547  17.628  1.00  0.00     0.002 C 
HETATM   28  C17 UNL     1      17.669  17.459  17.074  1.00  0.00     0.000 C 
HETATM   29  C18 UNL     1      16.446  17.378  17.930  1.00  0.00     0.002 C 
HETATM   30  C19 UNL     1      15.444  16.363  17.455  1.00  0.00     0.034 C 
HETATM   31  C20 UNL     1      16.066  15.089  16.962  1.00  0.00     0.140 C 
BRANCH  31  32
HETATM   32  O2  UNL     1      16.367  15.135  15.599  1.00  0.00    -0.394 OA
ATOM     33  H2  UNL     1      16.045  15.929  15.188  1.00  0.00     0.210 HD
ENDBRANCH  31  32
ENDBRANCH  23  25
ENDBRANCH  20  21
ENDBRANCH  19  20
ENDBRANCH  18  19
ENDBRANCH   1  18
TORSDOF 8
ENDMDL
MODEL 2
REMARK VINA RESULT: -7.617555614      2.254      5.119
REMARK  8 active torsions:
REMARK  status: ('A' for Active; 'I' for Inactive)
REMARK    1  A    between atoms: N1_10  and  C8_11 
REMARK    2  A    between atoms: C8_11  and  C9_12 
REMARK    3  A    between atoms: C9_12  and  C10_13 
REMARK    4  A    between atoms: C10_13  and  C11_14 
REMARK    5  A    between atoms: C11_14  and  C12_15 
REMARK    6  A    between atoms: C12_15  and  C13_16 
REMARK       I    between atoms: C13_16  and  N2_18 
REMARK    7  A    between atoms: N2_18  and  C14_20 
REMARK    8  A    between atoms: C20_26  and  O2_27 
ROOT
HETATM    1  C9  UNL     1      16.822  14.442  17.320  1.00  0.00     0.020 C 
ENDROOT
BRANCH   1   2
HETATM    2  C8  UNL     1      16.502  14.729  15.891  1.00  0.00     0.126 C 
BRANCH   2   3
HETATM    3  N1  UNL     1      17.595  14.362  15.042  1.00  0.00    -0.346 N 
HETATM    4  C7  UNL     1      18.865  15.126  15.032  1.00  0.00     0.102 C 
HETATM    5  C6  UNL     1      18.670  16.224  14.029  1.00  0.00     0.105 C 
HETATM    6  C23 UNL     1      19.901  14.120  14.675  1.00  0.00    -0.008 C 
HETATM    7  C5  UNL     1      19.923  16.933  13.633  1.00  0.00     0.246 C 
HETATM    8  C4  UNL     1      21.173  16.153  13.971  1.00  0.00     0.088 C 
HETATM    9  F1  UNL     1      20.040  18.185  14.205  1.00  0.00    -0.206 F 
HETATM   10  F2  UNL     1      19.900  17.127  12.253  1.00  0.00    -0.206 F 
HETATM   11  C2  UNL     1      20.966  14.659  13.748  1.00  0.00    -0.033 C 
HETATM   12  C1  UNL     1      22.307  13.999  14.054  1.00  0.00     0.016 C 
HETATM   13  C3  UNL     1      20.681  14.384  12.288  1.00  0.00     0.016 C 
HETATM   14  C22 UNL     1      19.157  12.946  14.104  1.00  0.00     0.115 C 
HETATM   15  C24 UNL     1      20.531  13.658  15.997  1.00  0.00     0.018 C 
HETATM   16  C21 UNL     1      17.722  13.305  14.125  1.00  0.00     0.221 C 
HETATM   17  O3  UNL     1      16.806  12.787  13.470  1.00  0.00    -0.273 OA
ENDBRANCH   2   3
ENDBRANCH   1   2
BRANCH   1  18
HETATM   18  C10 UNL     1      16.998  12.992  17.662  1.00  0.00     0.002 C 
BRANCH  18  19
HETATM   19  C11 UNL     1      17.616  12.752  19.016  1.00  0.00     0.009 C 
BRANCH  19  20
HETATM   20  C12 UNL     1      17.227  11.358  19.453  1.00  0.00     0.103 C 
BRANCH  20  21
HETATM   21  C13 UNL     1      17.723  10.325  18.518  1.00  0.00     0.217 C 
HETATM   22  O1  UNL     1      16.980   9.381  18.198  1.00  0.00    -0.274 OA
HETATM   23  N2  UNL     1      19.025  10.417  17.998  1.00  0.00    -0.354 N 
ATOM     24  H2  UNL     1      19.621  11.198  18.271  1.00  0.00     0.162 HD
BRANCH  23  25
HETATM   25  C14 UNL     1      19.542   9.406  17.067  1.00  0.00     0.113 C 
HETATM   26  C15 UNL     1      19.053   9.653  15.659  1.00  0.00     0.028 C 
HETATM   27  C16 UNL     1      19.011   8.290  14.963  1.00  0.00     0.002 C 
HETATM   28  C17 UNL     1      20.445   7.777  14.803  1.00  0.00     0.000 C 
HETATM   29  C18 UNL     1      20.903   7.114  16.062  1.00  0.00     0.002 C 
HETATM   30  C19 UNL     1      21.642   8.035  16.993  1.00  0.00     0.034 C 
HETATM   31  C20 UNL     1      21.047   9.410  17.076  1.00  0.00     0.140 C 
BRANCH  31  32
HETATM   32  O2  UNL     1      21.575  10.279  16.119  1.00  0.00    -0.394 OA
ATOM     33  H2  UNL     1      21.951  11.058  16.512  1.00  0.00     0.210 HD
ENDBRANCH  31  32
ENDBRANCH  23  25
ENDBRANCH  20  21
ENDBRANCH  19  20
ENDBRANCH  18  19
ENDBRANCH   1  18
TORSDOF 8
ENDMDL
MODEL 3
REMARK VINA RESULT: -7.455428022      2.160      5.044
REMARK  8 active torsions:
REMARK  status: ('A' for Active; 'I' for Inactive)
REMARK    1  A    between atoms: N1_10  and  C8_11 
REMARK    2  A    between atoms: C8_11  and  C9_12 
REMARK    3  A    between atoms: C9_12  and  C10_13 
REMARK    4  A    between atoms: C10_13  and  C11_14 
REMARK    5  A    between atoms: C11_14  and  C12_15 
REMARK    6  A    between atoms: C12_15  and  C13_16 
REMARK       I    between atoms: C13_16  and  N2_18 
REMARK    7  A    between atoms: N2_18  and  C14_20 
REMARK    8  A    between atoms: C20_26  and  O2_27 
ROOT
HETATM    1  C9  UNL     1      17.146  15.249  17.364  1.00  0.00     0.020 C 
ENDROOT
BRANCH   1   2
HETATM    2  C8  UNL     1      16.619  14.897  16.013  1.00  0.00     0.126 C 
BRANCH   2   3
HETATM    3  N1  UNL     1      17.682  14.485  15.145  1.00  0.00    -0.346 N 
HETATM    4  C7  UNL     1      18.959  15.233  15.068  1.00  0.00     0.102 C 
HETATM    5  C6  UNL     1      18.746  16.296  14.032  1.00  0.00     0.105 C 
HETATM    6  C23 UNL     1      19.972  14.202  14.717  1.00  0.00    -0.008 C 
HETATM    7  C5  UNL     1      19.994  16.974  13.572  1.00  0.00     0.246 C 
HETATM    8  C4  UNL     1      21.244  16.192  13.901  1.00  0.00     0.088 C 
HETATM    9  F1  UNL     1      20.142  18.245  14.094  1.00  0.00    -0.206 F 
HETATM   10  F2  UNL     1      19.931  17.118  12.188  1.00  0.00    -0.206 F 
HETATM   11  C2  UNL     1      21.014  14.694  13.739  1.00  0.00    -0.033 C 
HETATM   12  C1  UNL     1      22.356  14.028  14.028  1.00  0.00     0.016 C 
HETATM   13  C3  UNL     1      20.681  14.369  12.299  1.00  0.00     0.016 C 
HETATM   14  C22 UNL     1      19.197  13.017  14.213  1.00  0.00     0.115 C 
HETATM   15  C24 UNL     1      20.637  13.780  16.035  1.00  0.00     0.018 C 
HETATM   16  C21 UNL     1      17.768  13.395  14.264  1.00  0.00     0.221 C 
HETATM   17  O3  UNL     1      16.827  12.865  13.657  1.00  0.00    -0.273 OA
ENDBRANCH   2   3
ENDBRANCH   1   2
BRANCH   1  18
HETATM   18  C10 UNL     1      16.983  14.191  18.415  1.00  0.00     0.002 C 
BRANCH  18  19
HETATM   19  C11 UNL     1      18.257  13.460  18.753  1.00  0.00     0.009 C 
BRANCH  19  20
HETATM   20  C12 UNL     1      17.931  11.985  18.822  1.00  0.00     0.103 C 
BRANCH  20  21
HETATM   21  C13 UNL     1      18.269  11.283  17.565  1.00  0.00     0.217 C 
HETATM   22  O1  UNL     1      17.403  11.155  16.683  1.00  0.00    -0.274 OA
HETATM   23  N2  UNL     1      19.563  10.768  17.375  1.00  0.00    -0.354 N 
ATOM     24  H2  UNL     1      20.261  10.882  18.110  1.00  0.00     0.162 HD
BRANCH  23  25
HETATM   25  C14 UNL     1      19.925  10.068  16.137  1.00  0.00     0.113 C 
HETATM   26  C15 UNL     1      21.412  10.141  15.879  1.00  0.00     0.028 C 
HETATM   27  C16 UNL     1      21.599  10.059  14.361  1.00  0.00     0.002 C 
HETATM   28  C17 UNL     1      21.181   8.664  13.890  1.00  0.00     0.000 C 
HETATM   29  C18 UNL     1      19.698   8.600  13.706  1.00  0.00     0.002 C 
HETATM   30  C19 UNL     1      18.962   8.098  14.917  1.00  0.00     0.034 C 
HETATM   31  C20 UNL     1      19.507   8.624  16.213  1.00  0.00     0.140 C 
BRANCH  31  32
HETATM   32  O2  UNL     1      20.515   7.812  16.737  1.00  0.00    -0.394 OA
ATOM     33  H2  UNL     1      20.269   7.432  17.572  1.00  0.00     0.210 HD
ENDBRANCH  31  32
ENDBRANCH  23  25
ENDBRANCH  20  21
ENDBRANCH  19  20
ENDBRANCH  18  19
ENDBRANCH   1  18
TORSDOF 8
ENDMDL
MODEL 4
REMARK VINA RESULT: -7.422641180      1.543      2.389
REMARK  8 active torsions:
REMARK  status: ('A' for Active; 'I' for Inactive)
REMARK    1  A    between atoms: N1_10  and  C8_11 
REMARK    2  A    between atoms: C8_11  and  C9_12 
REMARK    3  A    between atoms: C9_12  and  C10_13 
REMARK    4  A    between atoms: C10_13  and  C11_14 
REMARK    5  A    between atoms: C11_14  and  C12_15 
REMARK    6  A    between atoms: C12_15  and  C13_16 
REMARK       I    between atoms: C13_16  and  N2_18 
REMARK    7  A    between atoms: N2_18  and  C14_20 
REMARK    8  A    between atoms: C20_26  and  O2_27 
ROOT
HETATM    1  C9  UNL     1      18.691  10.106  17.180  1.00  0.00     0.020 C 
ENDROOT
BRANCH   1   2
HETATM    2  C8  UNL     1      18.507  10.727  15.835  1.00  0.00     0.126 C 
BRANCH   2   3
HETATM    3  N1  UNL     1      19.770  11.098  15.271  1.00  0.00    -0.346 N 
HETATM    4  C7  UNL     1      20.303  12.476  15.391  1.00  0.00     0.102 C 
HETATM    5  C6  UNL     1      19.744  13.230  14.221  1.00  0.00     0.105 C 
HETATM    6  C23 UNL     1      21.781  12.304  15.385  1.00  0.00    -0.008 C 
HETATM    7  C5  UNL     1      20.389  14.554  13.972  1.00  0.00     0.246 C 
HETATM    8  C4  UNL     1      21.732  14.692  14.649  1.00  0.00     0.088 C 
HETATM    9  F1  UNL     1      19.605  15.621  14.369  1.00  0.00    -0.206 F 
HETATM   10  F2  UNL     1      20.585  14.695  12.599  1.00  0.00    -0.206 F 
HETATM   11  C2  UNL     1      22.506  13.379  14.608  1.00  0.00    -0.033 C 
HETATM   12  C1  UNL     1      23.858  13.666  15.254  1.00  0.00     0.016 C 
HETATM   13  C3  UNL     1      22.795  12.987  13.176  1.00  0.00     0.016 C 
HETATM   14  C22 UNL     1      22.032  10.919  14.859  1.00  0.00     0.115 C 
HETATM   15  C24 UNL     1      22.225  12.318  16.854  1.00  0.00     0.018 C 
HETATM   16  C21 UNL     1      20.708  10.335  14.556  1.00  0.00     0.221 C 
HETATM   17  O3  UNL     1      20.461   9.368  13.821  1.00  0.00    -0.273 OA
ENDBRANCH   2   3
ENDBRANCH   1   2
BRANCH   1  18
HETATM   18  C10 UNL     1      17.473   9.448  17.757  1.00  0.00     0.002 C 
BRANCH  18  19
HETATM   19  C11 UNL     1      16.494  10.410  18.383  1.00  0.00     0.009 C 
BRANCH  19  20
HETATM   20  C12 UNL     1      17.205  11.107  19.521  1.00  0.00     0.103 C 
BRANCH  20  21
HETATM   21  C13 UNL     1      17.224  12.575  19.347  1.00  0.00     0.217 C 
HETATM   22  O1  UNL     1      17.218  13.311  20.348  1.00  0.00    -0.274 OA
HETATM   23  N2  UNL     1      17.250  13.128  18.055  1.00  0.00    -0.354 N 
ATOM     24  H2  UNL     1      17.255  12.509  17.244  1.00  0.00     0.162 HD
BRANCH  23  25
HETATM   25  C14 UNL     1      17.271  14.582  17.853  1.00  0.00     0.113 C 
HETATM   26  C15 UNL     1      18.627  15.054  17.385  1.00  0.00     0.028 C 
HETATM   27  C16 UNL     1      18.783  16.497  17.871  1.00  0.00     0.002 C 
HETATM   28  C17 UNL     1      17.776  17.377  17.125  1.00  0.00     0.000 C 
HETATM   29  C18 UNL     1      16.435  17.305  17.784  1.00  0.00     0.002 C 
HETATM   30  C19 UNL     1      15.528  16.262  17.192  1.00  0.00     0.034 C 
HETATM   31  C20 UNL     1      16.231  14.982  16.842  1.00  0.00     0.140 C 
BRANCH  31  32
HETATM   32  O2  UNL     1      16.740  14.992  15.541  1.00  0.00    -0.394 OA
ATOM     33  H2  UNL     1      17.271  15.761  15.371  1.00  0.00     0.210 HD
ENDBRANCH  31  32
ENDBRANCH  23  25
ENDBRANCH  20  21
ENDBRANCH  19  20
ENDBRANCH  18  19
ENDBRANCH   1  18
TORSDOF 8
ENDMDL
MODEL 5
REMARK VINA RESULT: -7.356469973      1.935      2.628
REMARK  8 active torsions:
REMARK  status: ('A' for Active; 'I' for Inactive)
REMARK    1  A    between atoms: N1_10  and  C8_11 
REMARK    2  A    between atoms: C8_11  and  C9_12 
REMARK    3  A    between atoms: C9_12  and  C10_13 
REMARK    4  A    between atoms: C10_13  and  C11_14 
REMARK    5  A    between atoms: C11_14  and  C12_15 
REMARK    6  A    between atoms: C12_15  and  C13_16 
REMARK       I    between atoms: C13_16  and  N2_18 
REMARK    7  A    between atoms: N2_18  and  C14_20 
REMARK    8  A    between atoms: C20_26  and  O2_27 
ROOT
HETATM    1  C9  UNL     1      19.247   9.951  16.796  1.00  0.00     0.020 C 
ENDROOT
BRANCH   1   2
HETATM    2  C8  UNL     1      19.945  11.267  16.884  1.00  0.00     0.126 C 
BRANCH   2   3
HETATM    3  N1  UNL     1      20.366  11.706  15.587  1.00  0.00    -0.346 N 
HETATM    4  C7  UNL     1      19.547  12.637  14.775  1.00  0.00     0.102 C 
HETATM    5  C6  UNL     1      18.602  11.773  13.996  1.00  0.00     0.105 C 
HETATM    6  C23 UNL     1      20.539  13.388  13.959  1.00  0.00    -0.008 C 
HETATM    7  C5  UNL     1      17.889  12.475  12.887  1.00  0.00     0.246 C 
HETATM    8  C4  UNL     1      18.555  13.772  12.488  1.00  0.00     0.088 C 
HETATM    9  F1  UNL     1      16.568  12.752  13.183  1.00  0.00    -0.206 F 
HETATM   10  F2  UNL     1      17.880  11.639  11.773  1.00  0.00    -0.206 F 
HETATM   11  C2  UNL     1      20.073  13.651  12.545  1.00  0.00    -0.033 C 
HETATM   12  C1  UNL     1      20.620  14.989  12.057  1.00  0.00     0.016 C 
HETATM   13  C3  UNL     1      20.552  12.611  11.556  1.00  0.00     0.016 C 
HETATM   14  C22 UNL     1      21.813  12.594  14.025  1.00  0.00     0.115 C 
HETATM   15  C24 UNL     1      20.791  14.712  14.691  1.00  0.00     0.018 C 
HETATM   16  C21 UNL     1      21.526  11.403  14.855  1.00  0.00     0.221 C 
HETATM   17  O3  UNL     1      22.170  10.346  14.904  1.00  0.00    -0.273 OA
ENDBRANCH   2   3
ENDBRANCH   1   2
BRANCH   1  18
HETATM   18  C10 UNL     1      18.467   9.552  18.014  1.00  0.00     0.002 C 
BRANCH  18  19
HETATM   19  C11 UNL     1      17.146  10.262  18.156  1.00  0.00     0.009 C 
BRANCH  19  20
HETATM   20  C12 UNL     1      17.160  10.990  19.481  1.00  0.00     0.103 C 
BRANCH  20  21
HETATM   21  C13 UNL     1      17.191  12.459  19.307  1.00  0.00     0.217 C 
HETATM   22  O1  UNL     1      17.199  13.194  20.309  1.00  0.00    -0.274 OA
HETATM   23  N2  UNL     1      17.214  13.012  18.016  1.00  0.00    -0.354 N 
ATOM     24  H2  UNL     1      17.207  12.393  17.205  1.00  0.00     0.162 HD
BRANCH  23  25
HETATM   25  C14 UNL     1      17.246  14.466  17.814  1.00  0.00     0.113 C 
HETATM   26  C15 UNL     1      18.631  14.938  17.438  1.00  0.00     0.028 C 
HETATM   27  C16 UNL     1      18.752  16.382  17.932  1.00  0.00     0.002 C 
HETATM   28  C17 UNL     1      17.797  17.260  17.119  1.00  0.00     0.000 C 
HETATM   29  C18 UNL     1      16.415  17.187  17.685  1.00  0.00     0.002 C 
HETATM   30  C19 UNL     1      15.551  16.143  17.034  1.00  0.00     0.034 C 
HETATM   31  C20 UNL     1      16.277  14.864  16.734  1.00  0.00     0.140 C 
BRANCH  31  32
HETATM   32  O2  UNL     1      16.873  14.872  15.471  1.00  0.00    -0.394 OA
ATOM     33  H2  UNL     1      16.357  15.355  14.836  1.00  0.00     0.210 HD
ENDBRANCH  31  32
ENDBRANCH  23  25
ENDBRANCH  20  21
ENDBRANCH  19  20
ENDBRANCH  18  19
ENDBRANCH   1  18
TORSDOF 8
ENDMDL
