MODEL 1
REMARK VINA RESULT: -7.674237079      0.000      0.000
REMARK  8 active torsions:
REMARK  status: ('A' for Active; 'I' for Inactive)
REMARK    1  A    between atoms: C4_4  and  C5_5 
REMARK    2  A    between atoms: C5_5  and  N1_6 
REMARK    3  A    between atoms: C8_9  and  N2_10 
REMARK    4  A    between atoms: N2_10  and  C9_12 
REMARK    5  A    between atoms: C9_12  and  C10_13 
REMARK    6  A    between atoms: C9_12  and  C17_23 
REMARK       I    between atoms: C10_13  and  N3_15 
REMARK    7  A    between atoms: N3_15  and  C11_17 
REMARK    8  A    between atoms: C23_29  and  C24_30 
ROOT
HETATM    1  N1  UNL     1      19.637  11.156  16.052  1.00  0.00     0.092 N 
HETATM    2  C6  UNL     1      20.796  10.610  15.384  1.00  0.00     0.275 C 
HETATM    3  C7  UNL     1      21.192  11.469  14.178  1.00  0.00     0.055 C 
HETATM    4  C8  UNL     1      20.076  11.453  13.187  1.00  0.00     0.080 C 
HETATM    5  C20 UNL     1      18.858  10.748  13.741  1.00  0.00     0.055 C 
HETATM    6  C21 UNL     1      18.572  11.388  15.093  1.00  0.00     0.275 C 
ENDROOT
BRANCH   4   7
HETATM    7  N2  UNL     1      20.384  11.132  11.859  1.00  0.00    -0.405 N 
ATOM      8  H2  UNL     1      20.900  10.284  11.626  1.00  0.00     0.154 HD
BRANCH   7   9
HETATM    9  C9  UNL     1      19.952  12.026  10.855  1.00  0.00     0.173 C 
BRANCH   9  10
HETATM   10  C10 UNL     1      20.889  13.222  11.230  1.00  0.00     0.240 C 
HETATM   11  O1  UNL     1      22.057  13.203  11.021  1.00  0.00    -0.271 OA
HETATM   12  N3  UNL     1      20.195  14.321  11.883  1.00  0.00    -0.355 N 
ATOM     13  H3  UNL     1      19.180  14.301  11.982  1.00  0.00     0.162 HD
BRANCH  12  14
HETATM   14  C11 UNL     1      20.938  15.416  12.377  1.00  0.00     0.084 C 
HETATM   15  C12 UNL     1      20.161  16.727  12.285  1.00  0.00     0.025 C 
HETATM   16  C13 UNL     1      18.760  16.514  12.829  1.00  0.00     0.002 C 
HETATM   17  C14 UNL     1      18.819  15.802  14.140  1.00  0.00     0.000 C 
HETATM   18  C15 UNL     1      20.187  15.763  14.743  1.00  0.00     0.002 C 
HETATM   19  C16 UNL     1      21.275  15.263  13.861  1.00  0.00     0.025 C 
ENDBRANCH  12  14
ENDBRANCH   9  10
BRANCH   9  20
HETATM   20  C17 UNL     1      18.654  12.554  10.584  1.00  0.00     0.009 C 
HETATM   21  C18 UNL     1      18.642  13.139   9.149  1.00  0.00     0.012 C 
HETATM   22  C19 UNL     1      17.473  11.632  10.689  1.00  0.00     0.012 C 
ENDBRANCH   9  20
ENDBRANCH   7   9
ENDBRANCH   4   7
BRANCH   1  23
HETATM   23  C5  UNL     1      20.109  12.453  16.591  1.00  0.00     0.311 C 
BRANCH  23  24
HETATM   24  C4  UNL     1      18.967  12.887  17.472  1.00  0.00    -0.029 A 
HETATM   25  C3  UNL     1      18.457  12.187  18.500  1.00  0.00     0.015 A 
HETATM   26  C2  UNL     1      17.364  12.681  19.218  1.00  0.00    -0.061 A 
HETATM   27  C1  UNL     1      16.813  11.904  20.349  1.00  0.00     0.048 C 
HETATM   28  C26 UNL     1      16.812  13.888  18.869  1.00  0.00     0.020 A 
HETATM   29  C23 UNL     1      17.301  14.651  17.813  1.00  0.00     0.013 A 
HETATM   30  C22 UNL     1      18.391  14.105  17.140  1.00  0.00     0.022 A 
BRANCH  29  31
HETATM   31  C24 UNL     1      16.750  15.941  17.388  1.00  0.00     0.267 C 
HETATM   32  C25 UNL     1      15.782  15.821  16.256  1.00  0.00     0.096 C 
HETATM   33  F1  UNL     1      16.029  16.485  18.457  1.00  0.00    -0.201 F 
HETATM   34  F2  UNL     1      17.788  16.800  17.153  1.00  0.00    -0.201 F 
ENDBRANCH  29  31
ENDBRANCH  23  24
ENDBRANCH   1  23
TORSDOF 8
ENDMDL
MODEL 2
REMARK VINA RESULT: -7.536599856      3.401      7.188
REMARK  8 active torsions:
REMARK  status: ('A' for Active; 'I' for Inactive)
REMARK    1  A    between atoms: C4_4  and  C5_5 
REMARK    2  A    between atoms: C5_5  and  N1_6 
REMARK    3  A    between atoms: C8_9  and  N2_10 
REMARK    4  A    between atoms: N2_10  and  C9_12 
REMARK    5  A    between atoms: C9_12  and  C10_13 
REMARK    6  A    between atoms: C9_12  and  C17_23 
REMARK       I    between atoms: C10_13  and  N3_15 
REMARK    7  A    between atoms: N3_15  and  C11_17 
REMARK    8  A    between atoms: C23_29  and  C24_30 
ROOT
HETATM    1  N1  UNL     1      17.257  15.836  16.113  1.00  0.00     0.092 N 
HETATM    2  C6  UNL     1      16.565  15.486  17.332  1.00  0.00     0.275 C 
HETATM    3  C7  UNL     1      17.195  14.254  17.990  1.00  0.00     0.055 C 
HETATM    4  C8  UNL     1      17.057  13.089  17.067  1.00  0.00     0.080 C 
HETATM    5  C20 UNL     1      16.499  13.514  15.725  1.00  0.00     0.055 C 
HETATM    6  C21 UNL     1      17.366  14.673  15.250  1.00  0.00     0.275 C 
ENDROOT
BRANCH   4   7
HETATM    7  N2  UNL     1      16.509  11.908  17.579  1.00  0.00    -0.405 N 
ATOM      8  H2  UNL     1      15.673  11.490  17.169  1.00  0.00     0.154 HD
BRANCH   7   9
HETATM    9  C9  UNL     1      17.154  11.314  18.686  1.00  0.00     0.173 C 
BRANCH   9  10
HETATM   10  C10 UNL     1      17.689  10.041  17.951  1.00  0.00     0.240 C 
HETATM   11  O1  UNL     1      17.048   9.046  17.858  1.00  0.00    -0.271 OA
HETATM   12  N3  UNL     1      19.041  10.192  17.436  1.00  0.00    -0.355 N 
ATOM     13  H3  UNL     1      19.517  11.092  17.498  1.00  0.00     0.162 HD
BRANCH  12  14
HETATM   14  C11 UNL     1      19.689   9.082  16.849  1.00  0.00     0.084 C 
HETATM   15  C12 UNL     1      19.110   8.735  15.481  1.00  0.00     0.025 C 
HETATM   16  C13 UNL     1      18.988  10.005  14.657  1.00  0.00     0.002 C 
HETATM   17  C14 UNL     1      20.256  10.788  14.725  1.00  0.00     0.000 C 
HETATM   18  C15 UNL     1      21.410  10.019  15.287  1.00  0.00     0.002 C 
HETATM   19  C16 UNL     1      21.173   9.349  16.593  1.00  0.00     0.025 C 
ENDBRANCH  12  14
ENDBRANCH   9  10
BRANCH   9  20
HETATM   20  C17 UNL     1      16.632  10.905  19.950  1.00  0.00     0.009 C 
HETATM   21  C18 UNL     1      16.478  12.153  20.855  1.00  0.00     0.012 C 
HETATM   22  C19 UNL     1      15.315  10.183  19.977  1.00  0.00     0.012 C 
ENDBRANCH   9  20
ENDBRANCH   7   9
ENDBRANCH   4   7
BRANCH   1  23
HETATM   23  C5  UNL     1      18.608  16.242  16.570  1.00  0.00     0.311 C 
BRANCH  23  24
HETATM   24  C4  UNL     1      19.446  16.070  15.331  1.00  0.00    -0.029 A 
HETATM   25  C3  UNL     1      19.231  16.668  14.146  1.00  0.00     0.015 A 
HETATM   26  C2  UNL     1      20.060  16.394  13.055  1.00  0.00    -0.061 A 
HETATM   27  C1  UNL     1      19.816  17.059  11.757  1.00  0.00     0.048 C 
HETATM   28  C26 UNL     1      21.100  15.509  13.198  1.00  0.00     0.020 A 
HETATM   29  C23 UNL     1      21.365  14.863  14.402  1.00  0.00     0.013 A 
HETATM   30  C22 UNL     1      20.505  15.180  15.449  1.00  0.00     0.022 A 
BRANCH  29  31
HETATM   31  C24 UNL     1      22.454  13.903  14.613  1.00  0.00     0.267 C 
HETATM   32  C25 UNL     1      22.775  13.102  13.393  1.00  0.00     0.096 C 
HETATM   33  F1  UNL     1      23.616  14.618  14.924  1.00  0.00    -0.201 F 
HETATM   34  F2  UNL     1      22.161  13.153  15.720  1.00  0.00    -0.201 F 
ENDBRANCH  29  31
ENDBRANCH  23  24
ENDBRANCH   1  23
TORSDOF 8
ENDMDL
MODEL 3
REMARK VINA RESULT: -7.490596498      3.446      7.272
REMARK  8 active torsions:
REMARK  status: ('A' for Active; 'I' for Inactive)
REMARK    1  A    between atoms: C4_4  and  C5_5 
REMARK    2  A    between atoms: C5_5  and  N1_6 
REMARK    3  A    between atoms: C8_9  and  N2_10 
REMARK    4  A    between atoms: N2_10  and  C9_12 
REMARK    5  A    between atoms: C9_12  and  C10_13 
REMARK    6  A    between atoms: C9_12  and  C17_23 
REMARK       I    between atoms: C10_13  and  N3_15 
REMARK    7  A    between atoms: N3_15  and  C11_17 
REMARK    8  A    between atoms: C23_29  and  C24_30 
ROOT
HETATM    1  N1  UNL     1      18.091  15.193  14.773  1.00  0.00     0.092 N 
HETATM    2  C6  UNL     1      17.132  15.359  15.840  1.00  0.00     0.275 C 
HETATM    3  C7  UNL     1      17.514  14.516  17.061  1.00  0.00     0.055 C 
HETATM    4  C8  UNL     1      17.491  13.073  16.680  1.00  0.00     0.080 C 
HETATM    5  C20 UNL     1      17.264  12.901  15.194  1.00  0.00     0.055 C 
HETATM    6  C21 UNL     1      18.296  13.781  14.500  1.00  0.00     0.275 C 
ENDROOT
BRANCH   4   7
HETATM    7  N2  UNL     1      16.760  12.194  17.487  1.00  0.00    -0.405 N 
ATOM      8  H2  UNL     1      15.785  11.973  17.282  1.00  0.00     0.154 HD
BRANCH   7   9
HETATM    9  C9  UNL     1      17.421  11.623  18.597  1.00  0.00     0.173 C 
BRANCH   9  10
HETATM   10  C10 UNL     1      17.804  10.262  17.927  1.00  0.00     0.240 C 
HETATM   11  O1  UNL     1      17.059   9.339  17.895  1.00  0.00    -0.271 OA
HETATM   12  N3  UNL     1      19.157  10.238  17.391  1.00  0.00    -0.355 N 
ATOM     13  H3  UNL     1      19.727  11.084  17.400  1.00  0.00     0.162 HD
BRANCH  12  14
HETATM   14  C11 UNL     1      19.672   9.035  16.860  1.00  0.00     0.084 C 
HETATM   15  C12 UNL     1      19.178   8.775  15.440  1.00  0.00     0.025 C 
HETATM   16  C13 UNL     1      19.339  10.042  14.619  1.00  0.00     0.002 C 
HETATM   17  C14 UNL     1      20.703  10.614  14.813  1.00  0.00     0.000 C 
HETATM   18  C15 UNL     1      21.661   9.676  15.475  1.00  0.00     0.002 C 
HETATM   19  C16 UNL     1      21.198   9.061  16.748  1.00  0.00     0.025 C 
ENDBRANCH  12  14
ENDBRANCH   9  10
BRANCH   9  20
HETATM   20  C17 UNL     1      16.945  11.346  19.914  1.00  0.00     0.009 C 
HETATM   21  C18 UNL     1      16.728  12.687  20.659  1.00  0.00     0.012 C 
HETATM   22  C19 UNL     1      15.677  10.555  20.062  1.00  0.00     0.012 C 
ENDBRANCH   9  20
ENDBRANCH   7   9
ENDBRANCH   4   7
BRANCH   1  23
HETATM   23  C5  UNL     1      19.340  15.778  15.318  1.00  0.00     0.311 C 
BRANCH  23  24
HETATM   24  C4  UNL     1      20.409  15.127  14.479  1.00  0.00    -0.029 A 
HETATM   25  C3  UNL     1      20.426  15.065  13.136  1.00  0.00     0.015 A 
HETATM   26  C2  UNL     1      21.457  14.394  12.473  1.00  0.00    -0.061 A 
HETATM   27  C1  UNL     1      21.468  14.333  10.995  1.00  0.00     0.048 C 
HETATM   28  C26 UNL     1      22.458  13.798  13.201  1.00  0.00     0.020 A 
HETATM   29  C23 UNL     1      22.485  13.833  14.592  1.00  0.00     0.013 A 
HETATM   30  C22 UNL     1      21.432  14.517  15.191  1.00  0.00     0.022 A 
BRANCH  29  31
HETATM   31  C24 UNL     1      23.520  13.209  15.423  1.00  0.00     0.267 C 
HETATM   32  C25 UNL     1      23.035  12.844  16.788  1.00  0.00     0.096 C 
HETATM   33  F1  UNL     1      23.907  12.008  14.817  1.00  0.00    -0.201 F 
HETATM   34  F2  UNL     1      24.627  14.013  15.413  1.00  0.00    -0.201 F 
ENDBRANCH  29  31
ENDBRANCH  23  24
ENDBRANCH   1  23
TORSDOF 8
ENDMDL
MODEL 4
REMARK VINA RESULT: -7.394478763      2.727      6.205
REMARK  8 active torsions:
REMARK  status: ('A' for Active; 'I' for Inactive)
REMARK    1  A    between atoms: C4_4  and  C5_5 
REMARK    2  A    between atoms: C5_5  and  N1_6 
REMARK    3  A    between atoms: C8_9  and  N2_10 
REMARK    4  A    between atoms: N2_10  and  C9_12 
REMARK    5  A    between atoms: C9_12  and  C10_13 
REMARK    6  A    between atoms: C9_12  and  C17_23 
REMARK       I    between atoms: C10_13  and  N3_15 
REMARK    7  A    between atoms: N3_15  and  C11_17 
REMARK    8  A    between atoms: C23_29  and  C24_30 
ROOT
HETATM    1  N1  UNL     1      22.108  13.109  15.192  1.00  0.00     0.092 N 
HETATM    2  C6  UNL     1      22.096  12.052  16.177  1.00  0.00     0.275 C 
HETATM    3  C7  UNL     1      20.699  11.437  16.309  1.00  0.00     0.055 C 
HETATM    4  C8  UNL     1      19.752  12.486  16.790  1.00  0.00     0.080 C 
HETATM    5  C20 UNL     1      20.415  13.845  16.837  1.00  0.00     0.055 C 
HETATM    6  C21 UNL     1      21.046  14.061  15.468  1.00  0.00     0.275 C 
ENDROOT
BRANCH   4   7
HETATM    7  N2  UNL     1      18.952  12.187  17.899  1.00  0.00    -0.405 N 
ATOM      8  H2  UNL     1      19.217  12.486  18.838  1.00  0.00     0.154 HD
BRANCH   7   9
HETATM    9  C9  UNL     1      17.765  11.457  17.671  1.00  0.00     0.173 C 
BRANCH   9  10
HETATM   10  C10 UNL     1      17.215  12.328  16.492  1.00  0.00     0.240 C 
HETATM   11  O1  UNL     1      17.206  11.943  15.370  1.00  0.00    -0.271 OA
HETATM   12  N3  UNL     1      16.759  13.645  16.907  1.00  0.00    -0.355 N 
ATOM     13  H3  UNL     1      16.739  13.894  17.896  1.00  0.00     0.162 HD
BRANCH  12  14
HETATM   14  C11 UNL     1      16.343  14.576  15.930  1.00  0.00     0.084 C 
HETATM   15  C12 UNL     1      15.596  15.758  16.542  1.00  0.00     0.025 C 
HETATM   16  C13 UNL     1      16.381  16.279  17.732  1.00  0.00     0.002 C 
HETATM   17  C14 UNL     1      17.819  16.446  17.368  1.00  0.00     0.000 C 
HETATM   18  C15 UNL     1      18.079  16.383  15.897  1.00  0.00     0.002 C 
HETATM   19  C16 UNL     1      17.525  15.200  15.186  1.00  0.00     0.025 C 
ENDBRANCH  12  14
ENDBRANCH   9  10
BRANCH   9  20
HETATM   20  C17 UNL     1      16.677  11.167  18.547  1.00  0.00     0.009 C 
HETATM   21  C18 UNL     1      16.403   9.642  18.515  1.00  0.00     0.012 C 
HETATM   22  C19 UNL     1      16.801  11.557  19.993  1.00  0.00     0.012 C 
ENDBRANCH   9  20
ENDBRANCH   7   9
ENDBRANCH   4   7
BRANCH   1  23
HETATM   23  C5  UNL     1      21.829  12.413  13.913  1.00  0.00     0.311 C 
BRANCH  23  24
HETATM   24  C4  UNL     1      20.871  13.349  13.224  1.00  0.00    -0.029 A 
HETATM   25  C3  UNL     1      21.004  14.683  13.131  1.00  0.00     0.015 A 
HETATM   26  C2  UNL     1      20.022  15.449  12.498  1.00  0.00    -0.061 A 
HETATM   27  C1  UNL     1      20.180  16.916  12.400  1.00  0.00     0.048 C 
HETATM   28  C26 UNL     1      18.916  14.831  11.968  1.00  0.00     0.020 A 
HETATM   29  C23 UNL     1      18.730  13.455  12.038  1.00  0.00     0.013 A 
HETATM   30  C22 UNL     1      19.744  12.748  12.679  1.00  0.00     0.022 A 
BRANCH  29  31
HETATM   31  C24 UNL     1      17.568  12.740  11.500  1.00  0.00     0.267 C 
HETATM   32  C25 UNL     1      17.876  11.330  11.109  1.00  0.00     0.096 C 
HETATM   33  F1  UNL     1      16.597  12.659  12.504  1.00  0.00    -0.201 F 
HETATM   34  F2  UNL     1      17.019  13.495  10.500  1.00  0.00    -0.201 F 
ENDBRANCH  29  31
ENDBRANCH  23  24
ENDBRANCH   1  23
TORSDOF 8
ENDMDL
MODEL 5
REMARK VINA RESULT: -7.376324923      2.968      7.168
REMARK  8 active torsions:
REMARK  status: ('A' for Active; 'I' for Inactive)
REMARK    1  A    between atoms: C4_4  and  C5_5 
REMARK    2  A    between atoms: C5_5  and  N1_6 
REMARK    3  A    between atoms: C8_9  and  N2_10 
REMARK    4  A    between atoms: N2_10  and  C9_12 
REMARK    5  A    between atoms: C9_12  and  C10_13 
REMARK    6  A    between atoms: C9_12  and  C17_23 
REMARK       I    between atoms: C10_13  and  N3_15 
REMARK    7  A    between atoms: N3_15  and  C11_17 
REMARK    8  A    between atoms: C23_29  and  C24_30 
ROOT
HETATM    1  N1  UNL     1      19.764  14.850  12.243  1.00  0.00     0.092 N 
HETATM    2  C6  UNL     1      18.722  15.830  12.446  1.00  0.00     0.275 C 
HETATM    3  C7  UNL     1      18.543  16.143  13.936  1.00  0.00     0.055 C 
HETATM    4  C8  UNL     1      18.112  14.902  14.643  1.00  0.00     0.080 C 
HETATM    5  C20 UNL     1      18.145  13.703  13.720  1.00  0.00     0.055 C 
HETATM    6  C21 UNL     1      19.531  13.691  13.087  1.00  0.00     0.275 C 
ENDROOT
BRANCH   4   7
HETATM    7  N2  UNL     1      16.980  14.975  15.464  1.00  0.00    -0.405 N 
ATOM      8  H2  UNL     1      16.157  14.399  15.284  1.00  0.00     0.154 HD
BRANCH   7   9
HETATM    9  C9  UNL     1      17.019  15.876  16.551  1.00  0.00     0.173 C 
BRANCH   9  10
HETATM   10  C10 UNL     1      18.048  15.089  17.429  1.00  0.00     0.240 C 
HETATM   11  O1  UNL     1      19.120  15.525  17.693  1.00  0.00    -0.271 OA
HETATM   12  N3  UNL     1      17.573  13.780  17.848  1.00  0.00    -0.355 N 
ATOM     13  H3  UNL     1      16.619  13.487  17.636  1.00  0.00     0.162 HD
BRANCH  12  14
HETATM   14  C11 UNL     1      18.444  12.917  18.550  1.00  0.00     0.084 C 
HETATM   15  C12 UNL     1      17.718  11.696  19.108  1.00  0.00     0.025 C 
HETATM   16  C13 UNL     1      16.847  11.096  18.019  1.00  0.00     0.002 C 
HETATM   17  C14 UNL     1      17.627  10.955  16.754  1.00  0.00     0.000 C 
HETATM   18  C15 UNL     1      19.102  11.118  16.935  1.00  0.00     0.002 C 
HETATM   19  C16 UNL     1      19.541  12.346  17.651  1.00  0.00     0.025 C 
ENDBRANCH  12  14
ENDBRANCH   9  10
BRANCH   9  20
HETATM   20  C17 UNL     1      15.973  16.336  17.407  1.00  0.00     0.009 C 
HETATM   21  C18 UNL     1      16.395  17.691  18.027  1.00  0.00     0.012 C 
HETATM   22  C19 UNL     1      14.605  16.534  16.818  1.00  0.00     0.012 C 
ENDBRANCH   9  20
ENDBRANCH   7   9
ENDBRANCH   4   7
BRANCH   1  23
HETATM   23  C5  UNL     1      20.999  15.542  12.683  1.00  0.00     0.311 C 
BRANCH  23  24
HETATM   24  C4  UNL     1      21.968  14.406  12.877  1.00  0.00    -0.029 A 
HETATM   25  C3  UNL     1      22.494  13.644  11.902  1.00  0.00     0.015 A 
HETATM   26  C2  UNL     1      23.354  12.589  12.216  1.00  0.00    -0.061 A 
HETATM   27  C1  UNL     1      23.929  11.758  11.136  1.00  0.00     0.048 C 
HETATM   28  C26 UNL     1      23.664  12.332  13.529  1.00  0.00     0.020 A 
HETATM   29  C23 UNL     1      23.146  13.089  14.575  1.00  0.00     0.013 A 
HETATM   30  C22 UNL     1      22.297  14.126  14.197  1.00  0.00     0.022 A 
BRANCH  29  31
HETATM   31  C24 UNL     1      23.431  12.859  15.995  1.00  0.00     0.267 C 
HETATM   32  C25 UNL     1      23.589  11.412  16.335  1.00  0.00     0.096 C 
HETATM   33  F1  UNL     1      24.655  13.464  16.302  1.00  0.00    -0.201 F 
HETATM   34  F2  UNL     1      22.487  13.513  16.739  1.00  0.00    -0.201 F 
ENDBRANCH  29  31
ENDBRANCH  23  24
ENDBRANCH   1  23
TORSDOF 8
ENDMDL
