MODEL 1
REMARK VINA RESULT: -9.149490363      0.000      0.000
REMARK  14 active torsions:
REMARK  status: ('A' for Active; 'I' for Inactive)
REMARK    1  A    between atoms: C2_2  and  N1_3 
REMARK       I    between atoms: N1_3  and  C3_5 
REMARK    2  A    between atoms: C3_5  and  C4_7 
REMARK    3  A    between atoms: C6_11  and  C7_12 
REMARK    4  A    between atoms: C7_12  and  O2_13 
REMARK    5  A    between atoms: C7_12  and  N3_15 
REMARK    6  A    between atoms: N3_15  and  C8_17 
REMARK    7  A    between atoms: C8_17  and  C9_18 
REMARK    8  A    between atoms: C9_18  and  N4_19 
REMARK    9  A    between atoms: N5_22  and  C12_23 
REMARK   10  A    between atoms: C14_26  and  N6_27 
REMARK   11  A    between atoms: N6_27  and  C16_29 
REMARK   12  A    between atoms: C16_29  and  C17_30 
REMARK   13  A    between atoms: C24_39  and  N8_40 
REMARK   14  A    between atoms: N8_40  and  C26_42 
ROOT
HETATM    1  C7  UNL     1      17.176  24.395  18.872  1.00  0.00     0.164 C 
ENDROOT
BRANCH   1   2
HETATM    2  C6  UNL     1      16.281  23.527  18.192  1.00  0.00     0.091 A 
HETATM    3  N2  UNL     1      15.747  23.998  17.038  1.00  0.00    -0.361 N 
HETATM    4  C5  UNL     1      14.914  23.348  16.254  1.00  0.00     0.108 A 
ATOM      5  H2  UNL     1      16.013  24.940  16.752  1.00  0.00     0.165 HD
HETATM    6  C4  UNL     1      14.520  22.038  16.614  1.00  0.00     0.074 A 
HETATM    7  C24 UNL     1      15.017  21.501  17.762  1.00  0.00     0.056 A 
HETATM    8  C22 UNL     1      15.895  22.262  18.529  1.00  0.00    -0.003 A 
HETATM    9  C23 UNL     1      16.470  21.647  19.727  1.00  0.00     0.053 C 
BRANCH   6  10
HETATM   10  C3  UNL     1      13.667  21.420  15.627  1.00  0.00     0.255 C 
HETATM   11  N1  UNL     1      12.287  21.514  15.431  1.00  0.00    -0.357 N 
ATOM     12  H1  UNL     1      11.727  22.094  16.056  1.00  0.00     0.162 HD
HETATM   13  O1  UNL     1      14.301  20.650  14.803  1.00  0.00    -0.268 OA
BRANCH  11  14
HETATM   14  C2  UNL     1      11.630  20.780  14.328  1.00  0.00     0.118 C 
HETATM   15  C1  UNL     1      10.172  21.167  14.297  1.00  0.00     0.026 C 
ENDBRANCH  11  14
ENDBRANCH   6  10
BRANCH   7  16
HETATM   16  N8  UNL     1      14.619  20.223  18.209  1.00  0.00    -0.379 N 
HETATM   17  C25 UNL     1      15.419  19.068  17.864  1.00  0.00     0.150 C 
BRANCH  16  18
HETATM   18  C26 UNL     1      13.419  20.002  18.994  1.00  0.00     0.088 C 
HETATM   19  C27 UNL     1      13.563  19.230  20.251  1.00  0.00     0.051 C 
HETATM   20  C28 UNL     1      13.499  17.731  20.121  1.00  0.00     0.169 C 
HETATM   21  O3  UNL     1      12.798  17.284  19.030  1.00  0.00    -0.391 OA
HETATM   22  C29 UNL     1      11.718  18.140  18.859  1.00  0.00     0.169 C 
HETATM   23  C30 UNL     1      12.260  19.438  18.234  1.00  0.00     0.051 C 
ENDBRANCH  16  18
ENDBRANCH   7  16
ENDBRANCH   1   2
BRANCH   1  24
HETATM   24  O2  UNL     1      17.822  25.224  18.097  1.00  0.00    -0.345 OA
ATOM     25  H2  UNL     1      18.242  25.945  18.552  1.00  0.00     0.219 HD
ENDBRANCH   1  24
BRANCH   1  26
HETATM   26  N3  UNL     1      17.511  24.553  20.218  1.00  0.00    -0.368 N 
ATOM     27  H3  UNL     1      16.747  24.622  20.890  1.00  0.00     0.161 HD
BRANCH  26  28
HETATM   28  C8  UNL     1      18.863  24.627  20.731  1.00  0.00     0.142 C 
BRANCH  28  29
HETATM   29  C9  UNL     1      19.533  23.289  20.911  1.00  0.00     0.146 C 
BRANCH  29  30
HETATM   30  N4  UNL     1      20.709  23.252  20.122  1.00  0.00    -0.369 N 
HETATM   31  C10 UNL     1      20.641  23.201  18.733  1.00  0.00     0.083 C 
HETATM   32  C11 UNL     1      21.279  24.473  18.186  1.00  0.00     0.169 C 
HETATM   33  N5  UNL     1      22.640  24.560  18.677  1.00  0.00    -0.357 N 
HETATM   34  C20 UNL     1      23.052  23.860  19.846  1.00  0.00     0.169 C 
HETATM   35  C21 UNL     1      21.850  23.734  20.775  1.00  0.00     0.083 C 
BRANCH  33  36
HETATM   36  C12 UNL     1      23.620  25.385  17.991  1.00  0.00     0.112 A 
HETATM   37  C13 UNL     1      24.969  25.157  18.102  1.00  0.00     0.101 A 
HETATM   38  S1  UNL     1      25.615  26.404  17.127  1.00  0.00    -0.062 SA
HETATM   39  C14 UNL     1      24.150  27.132  16.641  1.00  0.00     0.147 A 
HETATM   40  N7  UNL     1      23.249  26.384  17.249  1.00  0.00    -0.323 N 
ATOM     41  H7  UNL     1      22.257  26.591  17.135  1.00  0.00     0.169 HD
BRANCH  39  42
HETATM   42  N6  UNL     1      23.921  28.276  15.781  1.00  0.00    -0.365 N 
HETATM   43  C15 UNL     1      25.074  28.944  15.224  1.00  0.00     0.151 C 
BRANCH  42  44
HETATM   44  C16 UNL     1      22.578  28.694  15.527  1.00  0.00     0.129 C 
BRANCH  44  45
HETATM   45  C17 UNL     1      21.941  28.071  14.322  1.00  0.00     0.004 A 
HETATM   46  C18 UNL     1      21.214  26.793  14.412  1.00  0.00     0.007 A 
HETATM   47  C19 UNL     1      20.458  28.074  14.304  1.00  0.00     0.007 A 
ENDBRANCH  44  45
ENDBRANCH  42  44
ENDBRANCH  39  42
ENDBRANCH  33  36
ENDBRANCH  29  30
ENDBRANCH  28  29
ENDBRANCH  26  28
ENDBRANCH   1  26
TORSDOF 14
ENDMDL
MODEL 2
REMARK VINA RESULT: -8.869517896      3.823     11.266
REMARK  14 active torsions:
REMARK  status: ('A' for Active; 'I' for Inactive)
REMARK    1  A    between atoms: C2_2  and  N1_3 
REMARK       I    between atoms: N1_3  and  C3_5 
REMARK    2  A    between atoms: C3_5  and  C4_7 
REMARK    3  A    between atoms: C6_11  and  C7_12 
REMARK    4  A    between atoms: C7_12  and  O2_13 
REMARK    5  A    between atoms: C7_12  and  N3_15 
REMARK    6  A    between atoms: N3_15  and  C8_17 
REMARK    7  A    between atoms: C8_17  and  C9_18 
REMARK    8  A    between atoms: C9_18  and  N4_19 
REMARK    9  A    between atoms: N5_22  and  C12_23 
REMARK   10  A    between atoms: C14_26  and  N6_27 
REMARK   11  A    between atoms: N6_27  and  C16_29 
REMARK   12  A    between atoms: C16_29  and  C17_30 
REMARK   13  A    between atoms: C24_39  and  N8_40 
REMARK   14  A    between atoms: N8_40  and  C26_42 
ROOT
HETATM    1  C7  UNL     1      17.143  21.909  19.024  1.00  0.00     0.164 C 
ENDROOT
BRANCH   1   2
HETATM    2  C6  UNL     1      18.161  22.847  18.704  1.00  0.00     0.091 A 
HETATM    3  N2  UNL     1      17.930  23.645  17.632  1.00  0.00    -0.361 N 
HETATM    4  C5  UNL     1      18.734  24.583  17.184  1.00  0.00     0.108 A 
ATOM      5  H2  UNL     1      17.054  23.504  17.129  1.00  0.00     0.165 HD
HETATM    6  C4  UNL     1      19.959  24.810  17.855  1.00  0.00     0.074 A 
HETATM    7  C24 UNL     1      20.258  24.045  18.940  1.00  0.00     0.056 A 
HETATM    8  C22 UNL     1      19.345  23.076  19.345  1.00  0.00    -0.003 A 
HETATM    9  C23 UNL     1      19.652  22.303  20.550  1.00  0.00     0.053 C 
BRANCH   6  10
HETATM   10  C3  UNL     1      20.703  25.916  17.301  1.00  0.00     0.255 C 
HETATM   11  N1  UNL     1      21.823  25.931  16.466  1.00  0.00    -0.357 N 
ATOM     12  H1  UNL     1      22.238  25.050  16.163  1.00  0.00     0.162 HD
HETATM   13  O1  UNL     1      20.249  27.075  17.654  1.00  0.00    -0.268 OA
BRANCH  11  14
HETATM   14  C2  UNL     1      22.413  27.212  16.018  1.00  0.00     0.118 C 
HETATM   15  C1  UNL     1      21.948  27.484  14.609  1.00  0.00     0.026 C 
ENDBRANCH  11  14
ENDBRANCH   6  10
BRANCH   7  16
HETATM   16  N8  UNL     1      21.488  24.180  19.620  1.00  0.00    -0.379 N 
HETATM   17  C25 UNL     1      22.688  23.624  19.033  1.00  0.00     0.150 C 
BRANCH  16  18
HETATM   18  C26 UNL     1      21.608  24.841  20.905  1.00  0.00     0.088 C 
HETATM   19  C27 UNL     1      21.134  26.243  20.994  1.00  0.00     0.051 C 
HETATM   20  C28 UNL     1      22.123  27.306  20.592  1.00  0.00     0.169 C 
HETATM   21  O3  UNL     1      23.437  26.938  20.723  1.00  0.00    -0.391 OA
HETATM   22  C29 UNL     1      23.533  26.161  21.870  1.00  0.00     0.169 C 
HETATM   23  C30 UNL     1      22.968  24.772  21.528  1.00  0.00     0.051 C 
ENDBRANCH  16  18
ENDBRANCH   7  16
ENDBRANCH   1   2
BRANCH   1  24
HETATM   24  O2  UNL     1      17.320  20.721  18.511  1.00  0.00    -0.345 OA
ATOM     25  H2  UNL     1      16.661  20.083  18.757  1.00  0.00     0.219 HD
ENDBRANCH   1  24
BRANCH   1  26
HETATM   26  N3  UNL     1      15.979  21.992  19.789  1.00  0.00    -0.368 N 
ATOM     27  H3  UNL     1      15.932  22.720  20.501  1.00  0.00     0.161 HD
BRANCH  26  28
HETATM   28  C8  UNL     1      14.832  21.120  19.646  1.00  0.00     0.142 C 
BRANCH  28  29
HETATM   29  C9  UNL     1      14.623  20.173  20.800  1.00  0.00     0.146 C 
BRANCH  29  30
HETATM   30  N4  UNL     1      14.073  18.963  20.311  1.00  0.00    -0.369 N 
HETATM   31  C10 UNL     1      12.817  18.525  20.723  1.00  0.00     0.083 C 
HETATM   32  C11 UNL     1      11.907  18.496  19.501  1.00  0.00     0.169 C 
HETATM   33  N5  UNL     1      12.499  17.632  18.499  1.00  0.00    -0.357 N 
HETATM   34  C20 UNL     1      13.893  17.337  18.505  1.00  0.00     0.169 C 
HETATM   35  C21 UNL     1      14.630  18.531  19.102  1.00  0.00     0.083 C 
BRANCH  33  36
HETATM   36  C12 UNL     1      11.682  17.056  17.446  1.00  0.00     0.112 A 
HETATM   37  C13 UNL     1      11.077  15.831  17.582  1.00  0.00     0.101 A 
HETATM   38  S1  UNL     1      10.287  15.663  16.075  1.00  0.00    -0.062 SA
HETATM   39  C14 UNL     1      10.767  17.140  15.369  1.00  0.00     0.147 A 
HETATM   40  N7  UNL     1      11.503  17.681  16.322  1.00  0.00    -0.323 N 
ATOM     41  H7  UNL     1      11.932  18.595  16.175  1.00  0.00     0.169 HD
BRANCH  39  42
HETATM   42  N6  UNL     1      10.461  17.689  14.063  1.00  0.00    -0.365 N 
HETATM   43  C15 UNL     1       9.702  16.871  13.147  1.00  0.00     0.151 C 
BRANCH  42  44
HETATM   44  C16 UNL     1      10.922  19.003  13.739  1.00  0.00     0.129 C 
BRANCH  44  45
HETATM   45  C17 UNL     1       9.911  20.092  13.935  1.00  0.00     0.004 A 
HETATM   46  C18 UNL     1       9.654  20.671  15.265  1.00  0.00     0.007 A 
HETATM   47  C19 UNL     1      10.462  21.429  14.267  1.00  0.00     0.007 A 
ENDBRANCH  44  45
ENDBRANCH  42  44
ENDBRANCH  39  42
ENDBRANCH  33  36
ENDBRANCH  29  30
ENDBRANCH  28  29
ENDBRANCH  26  28
ENDBRANCH   1  26
TORSDOF 14
ENDMDL
MODEL 3
REMARK VINA RESULT: -8.826017585      2.107      4.211
REMARK  14 active torsions:
REMARK  status: ('A' for Active; 'I' for Inactive)
REMARK    1  A    between atoms: C2_2  and  N1_3 
REMARK       I    between atoms: N1_3  and  C3_5 
REMARK    2  A    between atoms: C3_5  and  C4_7 
REMARK    3  A    between atoms: C6_11  and  C7_12 
REMARK    4  A    between atoms: C7_12  and  O2_13 
REMARK    5  A    between atoms: C7_12  and  N3_15 
REMARK    6  A    between atoms: N3_15  and  C8_17 
REMARK    7  A    between atoms: C8_17  and  C9_18 
REMARK    8  A    between atoms: C9_18  and  N4_19 
REMARK    9  A    between atoms: N5_22  and  C12_23 
REMARK   10  A    between atoms: C14_26  and  N6_27 
REMARK   11  A    between atoms: N6_27  and  C16_29 
REMARK   12  A    between atoms: C16_29  and  C17_30 
REMARK   13  A    between atoms: C24_39  and  N8_40 
REMARK   14  A    between atoms: N8_40  and  C26_42 
ROOT
HETATM    1  C7  UNL     1      15.511  22.441  16.009  1.00  0.00     0.164 C 
ENDROOT
BRANCH   1   2
HETATM    2  C6  UNL     1      14.444  21.512  16.129  1.00  0.00     0.091 A 
HETATM    3  N2  UNL     1      14.551  20.597  17.125  1.00  0.00    -0.361 N 
HETATM    4  C5  UNL     1      13.667  19.667  17.414  1.00  0.00     0.108 A 
ATOM      5  H2  UNL     1      15.390  20.635  17.703  1.00  0.00     0.165 HD
HETATM    6  C4  UNL     1      12.488  19.582  16.637  1.00  0.00     0.074 A 
HETATM    7  C24 UNL     1      12.314  20.467  15.618  1.00  0.00     0.056 A 
HETATM    8  C22 UNL     1      13.301  21.420  15.387  1.00  0.00    -0.003 A 
HETATM    9  C23 UNL     1      13.071  22.405  14.328  1.00  0.00     0.053 C 
BRANCH   6  10
HETATM   10  C3  UNL     1      11.579  18.566  17.112  1.00  0.00     0.255 C 
HETATM   11  N1  UNL     1      11.470  17.214  16.778  1.00  0.00    -0.357 N 
ATOM     12  H1  UNL     1      12.104  16.812  16.087  1.00  0.00     0.162 HD
HETATM   13  O1  UNL     1      10.726  19.000  17.982  1.00  0.00    -0.268 OA
BRANCH  11  14
HETATM   14  C2  UNL     1      10.445  16.359  17.415  1.00  0.00     0.118 C 
HETATM   15  C1  UNL     1      10.695  14.928  17.007  1.00  0.00     0.026 C 
ENDBRANCH  11  14
ENDBRANCH   6  10
BRANCH   7  16
HETATM   16  N8  UNL     1      11.189  20.400  14.769  1.00  0.00    -0.379 N 
HETATM   17  C25 UNL     1       9.954  21.036  15.172  1.00  0.00     0.150 C 
BRANCH  16  18
HETATM   18  C26 UNL     1      11.202  19.697  13.499  1.00  0.00     0.088 C 
HETATM   19  C27 UNL     1      10.009  18.885  13.160  1.00  0.00     0.051 C 
HETATM   20  C28 UNL     1       9.988  17.479  13.698  1.00  0.00     0.169 C 
HETATM   21  O3  UNL     1      11.227  16.944  13.941  1.00  0.00    -0.391 OA
HETATM   22  C29 UNL     1      12.072  17.394  12.935  1.00  0.00     0.169 C 
HETATM   23  C30 UNL     1      12.418  18.859  13.251  1.00  0.00     0.051 C 
ENDBRANCH  16  18
ENDBRANCH   7  16
ENDBRANCH   1   2
BRANCH   1  24
HETATM   24  O2  UNL     1      16.518  22.020  15.291  1.00  0.00    -0.345 OA
ATOM     25  H2  UNL     1      17.354  22.412  15.517  1.00  0.00     0.219 HD
ENDBRANCH   1  24
BRANCH   1  26
HETATM   26  N3  UNL     1      15.708  23.733  16.499  1.00  0.00    -0.368 N 
ATOM     27  H3  UNL     1      15.663  24.503  15.832  1.00  0.00     0.161 HD
BRANCH  26  28
HETATM   28  C8  UNL     1      15.972  24.060  17.884  1.00  0.00     0.142 C 
BRANCH  28  29
HETATM   29  C9  UNL     1      16.422  22.892  18.724  1.00  0.00     0.146 C 
BRANCH  29  30
HETATM   30  N4  UNL     1      17.786  23.065  19.063  1.00  0.00    -0.369 N 
HETATM   31  C10 UNL     1      18.799  22.604  18.228  1.00  0.00     0.083 C 
HETATM   32  C11 UNL     1      19.596  23.812  17.748  1.00  0.00     0.169 C 
HETATM   33  N5  UNL     1      20.105  24.524  18.903  1.00  0.00    -0.357 N 
HETATM   34  C20 UNL     1      19.502  24.382  20.186  1.00  0.00     0.169 C 
HETATM   35  C21 UNL     1      18.018  24.093  19.986  1.00  0.00     0.083 C 
BRANCH  33  36
HETATM   36  C12 UNL     1      21.242  25.419  18.776  1.00  0.00     0.112 A 
HETATM   37  C13 UNL     1      22.038  25.742  19.846  1.00  0.00     0.101 A 
HETATM   38  S1  UNL     1      23.167  26.808  19.133  1.00  0.00    -0.062 SA
HETATM   39  C14 UNL     1      22.568  26.782  17.535  1.00  0.00     0.147 A 
HETATM   40  N7  UNL     1      21.540  25.960  17.634  1.00  0.00    -0.323 N 
ATOM     41  H7  UNL     1      20.978  25.750  16.810  1.00  0.00     0.169 HD
BRANCH  39  42
HETATM   42  N6  UNL     1      23.045  27.470  16.352  1.00  0.00    -0.365 N 
HETATM   43  C15 UNL     1      24.336  27.094  15.825  1.00  0.00     0.151 C 
BRANCH  42  44
HETATM   44  C16 UNL     1      22.228  28.485  15.764  1.00  0.00     0.129 C 
BRANCH  44  45
HETATM   45  C17 UNL     1      21.588  28.105  14.463  1.00  0.00     0.004 A 
HETATM   46  C18 UNL     1      21.045  26.754  14.241  1.00  0.00     0.007 A 
HETATM   47  C19 UNL     1      20.121  27.895  14.505  1.00  0.00     0.007 A 
ENDBRANCH  44  45
ENDBRANCH  42  44
ENDBRANCH  39  42
ENDBRANCH  33  36
ENDBRANCH  29  30
ENDBRANCH  28  29
ENDBRANCH  26  28
ENDBRANCH   1  26
TORSDOF 14
ENDMDL
MODEL 4
REMARK VINA RESULT: -8.817716074      4.278     11.432
REMARK  14 active torsions:
REMARK  status: ('A' for Active; 'I' for Inactive)
REMARK    1  A    between atoms: C2_2  and  N1_3 
REMARK       I    between atoms: N1_3  and  C3_5 
REMARK    2  A    between atoms: C3_5  and  C4_7 
REMARK    3  A    between atoms: C6_11  and  C7_12 
REMARK    4  A    between atoms: C7_12  and  O2_13 
REMARK    5  A    between atoms: C7_12  and  N3_15 
REMARK    6  A    between atoms: N3_15  and  C8_17 
REMARK    7  A    between atoms: C8_17  and  C9_18 
REMARK    8  A    between atoms: C9_18  and  N4_19 
REMARK    9  A    between atoms: N5_22  and  C12_23 
REMARK   10  A    between atoms: C14_26  and  N6_27 
REMARK   11  A    between atoms: N6_27  and  C16_29 
REMARK   12  A    between atoms: C16_29  and  C17_30 
REMARK   13  A    between atoms: C24_39  and  N8_40 
REMARK   14  A    between atoms: N8_40  and  C26_42 
ROOT
HETATM    1  C7  UNL     1      16.295  23.936  18.641  1.00  0.00     0.164 C 
ENDROOT
BRANCH   1   2
HETATM    2  C6  UNL     1      17.579  24.478  18.371  1.00  0.00     0.091 A 
HETATM    3  N2  UNL     1      17.666  25.324  17.313  1.00  0.00    -0.361 N 
HETATM    4  C5  UNL     1      18.754  25.942  16.908  1.00  0.00     0.108 A 
ATOM      5  H2  UNL     1      16.811  25.496  16.785  1.00  0.00     0.165 HD
HETATM    6  C4  UNL     1      19.961  25.731  17.616  1.00  0.00     0.074 A 
HETATM    7  C24 UNL     1      19.949  24.894  18.688  1.00  0.00     0.056 A 
HETATM    8  C22 UNL     1      18.750  24.284  19.046  1.00  0.00    -0.003 A 
HETATM    9  C23 UNL     1      18.740  23.435  20.239  1.00  0.00     0.053 C 
BRANCH   6  10
HETATM   10  C3  UNL     1      21.052  26.528  17.108  1.00  0.00     0.255 C 
HETATM   11  N1  UNL     1      21.951  26.282  16.067  1.00  0.00    -0.357 N 
ATOM     12  H1  UNL     1      21.885  25.412  15.538  1.00  0.00     0.162 HD
HETATM   13  O1  UNL     1      21.215  27.645  17.739  1.00  0.00    -0.268 OA
BRANCH  11  14
HETATM   14  C2  UNL     1      22.996  27.270  15.723  1.00  0.00     0.118 C 
HETATM   15  C1  UNL     1      22.477  28.149  14.612  1.00  0.00     0.026 C 
ENDBRANCH  11  14
ENDBRANCH   6  10
BRANCH   7  16
HETATM   16  N8  UNL     1      21.130  24.594  19.401  1.00  0.00    -0.379 N 
HETATM   17  C25 UNL     1      22.183  23.845  18.750  1.00  0.00     0.150 C 
BRANCH  16  18
HETATM   18  C26 UNL     1      21.338  24.989  20.782  1.00  0.00     0.088 C 
HETATM   19  C27 UNL     1      20.979  26.379  21.151  1.00  0.00     0.051 C 
HETATM   20  C28 UNL     1      22.037  27.424  20.914  1.00  0.00     0.169 C 
HETATM   21  O3  UNL     1      23.322  26.944  20.919  1.00  0.00    -0.391 OA
HETATM   22  C29 UNL     1      23.387  25.959  21.895  1.00  0.00     0.169 C 
HETATM   23  C30 UNL     1      22.704  24.705  21.324  1.00  0.00     0.051 C 
ENDBRANCH  16  18
ENDBRANCH   7  16
ENDBRANCH   1   2
BRANCH   1  24
HETATM   24  O2  UNL     1      15.326  24.812  18.642  1.00  0.00    -0.345 OA
ATOM     25  H2  UNL     1      14.459  24.440  18.752  1.00  0.00     0.219 HD
ENDBRANCH   1  24
BRANCH   1  26
HETATM   26  N3  UNL     1      15.845  22.641  18.904  1.00  0.00    -0.368 N 
ATOM     27  H3  UNL     1      15.404  22.469  19.807  1.00  0.00     0.161 HD
BRANCH  26  28
HETATM   28  C8  UNL     1      15.956  21.525  17.989  1.00  0.00     0.142 C 
BRANCH  28  29
HETATM   29  C9  UNL     1      15.670  21.871  16.549  1.00  0.00     0.146 C 
BRANCH  29  30
HETATM   30  N4  UNL     1      14.316  21.572  16.262  1.00  0.00    -0.369 N 
HETATM   31  C10 UNL     1      13.674  22.130  15.161  1.00  0.00     0.083 C 
HETATM   32  C11 UNL     1      13.286  20.995  14.220  1.00  0.00     0.169 C 
HETATM   33  N5  UNL     1      12.448  20.058  14.940  1.00  0.00    -0.357 N 
HETATM   34  C20 UNL     1      12.467  19.988  16.362  1.00  0.00     0.169 C 
HETATM   35  C21 UNL     1      13.860  20.381  16.841  1.00  0.00     0.083 C 
BRANCH  33  36
HETATM   36  C12 UNL     1      11.574  19.147  14.221  1.00  0.00     0.112 A 
HETATM   37  C13 UNL     1      10.357  19.545  13.725  1.00  0.00     0.101 A 
HETATM   38  S1  UNL     1       9.781  18.101  13.016  1.00  0.00    -0.062 SA
HETATM   39  C14 UNL     1      11.103  17.089  13.386  1.00  0.00     0.147 A 
HETATM   40  N7  UNL     1      11.913  17.908  14.030  1.00  0.00    -0.323 N 
ATOM     41  H7  UNL     1      12.808  17.567  14.380  1.00  0.00     0.169 HD
BRANCH  39  42
HETATM   42  N6  UNL     1      11.315  15.687  13.083  1.00  0.00    -0.365 N 
HETATM   43  C15 UNL     1      11.138  14.730  14.150  1.00  0.00     0.151 C 
BRANCH  42  44
HETATM   44  C16 UNL     1      11.692  15.314  11.755  1.00  0.00     0.129 C 
BRANCH  44  45
HETATM   45  C17 UNL     1      12.832  16.100  11.180  1.00  0.00     0.004 A 
HETATM   46  C18 UNL     1      14.227  15.819  11.560  1.00  0.00     0.007 A 
HETATM   47  C19 UNL     1      13.709  15.363  10.238  1.00  0.00     0.007 A 
ENDBRANCH  44  45
ENDBRANCH  42  44
ENDBRANCH  39  42
ENDBRANCH  33  36
ENDBRANCH  29  30
ENDBRANCH  28  29
ENDBRANCH  26  28
ENDBRANCH   1  26
TORSDOF 14
ENDMDL
MODEL 5
REMARK VINA RESULT: -8.769811859      2.250      5.197
REMARK  14 active torsions:
REMARK  status: ('A' for Active; 'I' for Inactive)
REMARK    1  A    between atoms: C2_2  and  N1_3 
REMARK       I    between atoms: N1_3  and  C3_5 
REMARK    2  A    between atoms: C3_5  and  C4_7 
REMARK    3  A    between atoms: C6_11  and  C7_12 
REMARK    4  A    between atoms: C7_12  and  O2_13 
REMARK    5  A    between atoms: C7_12  and  N3_15 
REMARK    6  A    between atoms: N3_15  and  C8_17 
REMARK    7  A    between atoms: C8_17  and  C9_18 
REMARK    8  A    between atoms: C9_18  and  N4_19 
REMARK    9  A    between atoms: N5_22  and  C12_23 
REMARK   10  A    between atoms: C14_26  and  N6_27 
REMARK   11  A    between atoms: N6_27  and  C16_29 
REMARK   12  A    between atoms: C16_29  and  C17_30 
REMARK   13  A    between atoms: C24_39  and  N8_40 
REMARK   14  A    between atoms: N8_40  and  C26_42 
ROOT
HETATM    1  C7  UNL     1      12.462  19.059  18.896  1.00  0.00     0.164 C 
ENDROOT
BRANCH   1   2
HETATM    2  C6  UNL     1      11.948  19.365  17.608  1.00  0.00     0.091 A 
HETATM    3  N2  UNL     1      10.598  19.361  17.482  1.00  0.00    -0.361 N 
HETATM    4  C5  UNL     1       9.927  19.634  16.384  1.00  0.00     0.108 A 
ATOM      5  H2  UNL     1      10.054  19.126  18.312  1.00  0.00     0.165 HD
HETATM    6  C4  UNL     1      10.645  19.966  15.210  1.00  0.00     0.074 A 
HETATM    7  C24 UNL     1      12.004  19.989  15.263  1.00  0.00     0.056 A 
HETATM    8  C22 UNL     1      12.630  19.688  16.470  1.00  0.00    -0.003 A 
HETATM    9  C23 UNL     1      14.090  19.778  16.527  1.00  0.00     0.053 C 
BRANCH   6  10
HETATM   10  C3  UNL     1       9.781  20.313  14.107  1.00  0.00     0.255 C 
HETATM   11  N1  UNL     1       9.299  21.554  13.683  1.00  0.00    -0.357 N 
ATOM     12  H1  UNL     1       9.558  22.397  14.196  1.00  0.00     0.162 HD
HETATM   13  O1  UNL     1       9.391  19.292  13.414  1.00  0.00    -0.268 OA
BRANCH  11  14
HETATM   14  C2  UNL     1       8.417  21.657  12.500  1.00  0.00     0.118 C 
HETATM   15  C1  UNL     1       7.817  23.040  12.471  1.00  0.00     0.026 C 
ENDBRANCH  11  14
ENDBRANCH   6  10
BRANCH   7  16
HETATM   16  N8  UNL     1      12.781  20.254  14.115  1.00  0.00    -0.379 N 
HETATM   17  C25 UNL     1      13.211  19.155  13.278  1.00  0.00     0.150 C 
BRANCH  16  18
HETATM   18  C26 UNL     1      13.192  21.593  13.736  1.00  0.00     0.088 C 
HETATM   19  C27 UNL     1      14.554  21.751  13.173  1.00  0.00     0.051 C 
HETATM   20  C28 UNL     1      15.670  21.919  14.170  1.00  0.00     0.169 C 
HETATM   21  O3  UNL     1      15.280  22.443  15.376  1.00  0.00    -0.391 OA
HETATM   22  C29 UNL     1      14.304  23.394  15.113  1.00  0.00     0.169 C 
HETATM   23  C30 UNL     1      13.004  22.637  14.792  1.00  0.00     0.051 C 
ENDBRANCH  16  18
ENDBRANCH   7  16
ENDBRANCH   1   2
BRANCH   1  24
HETATM   24  O2  UNL     1      11.550  18.850  19.808  1.00  0.00    -0.345 OA
ATOM     25  H2  UNL     1      10.709  19.253  19.624  1.00  0.00     0.219 HD
ENDBRANCH   1  24
BRANCH   1  26
HETATM   26  N3  UNL     1      13.758  18.926  19.398  1.00  0.00    -0.368 N 
ATOM     27  H3  UNL     1      14.288  18.100  19.122  1.00  0.00     0.161 HD
BRANCH  26  28
HETATM   28  C8  UNL     1      14.404  19.874  20.280  1.00  0.00     0.142 C 
BRANCH  28  29
HETATM   29  C9  UNL     1      14.895  21.125  19.597  1.00  0.00     0.146 C 
BRANCH  29  30
HETATM   30  N4  UNL     1      16.302  21.056  19.461  1.00  0.00    -0.369 N 
HETATM   31  C10 UNL     1      16.903  21.009  18.206  1.00  0.00     0.083 C 
HETATM   32  C11 UNL     1      17.755  22.263  18.047  1.00  0.00     0.169 C 
HETATM   33  N5  UNL     1      18.720  22.310  19.127  1.00  0.00    -0.357 N 
HETATM   34  C20 UNL     1      18.509  21.597  20.341  1.00  0.00     0.169 C 
HETATM   35  C21 UNL     1      17.007  21.504  20.585  1.00  0.00     0.083 C 
BRANCH  33  36
HETATM   36  C12 UNL     1      19.928  23.107  19.002  1.00  0.00     0.112 A 
HETATM   37  C13 UNL     1      21.065  22.823  19.716  1.00  0.00     0.101 A 
HETATM   38  S1  UNL     1      22.123  24.061  19.195  1.00  0.00    -0.062 SA
HETATM   39  C14 UNL     1      21.071  24.857  18.114  1.00  0.00     0.147 A 
HETATM   40  N7  UNL     1      19.970  24.135  18.209  1.00  0.00    -0.323 N 
ATOM     41  H7  UNL     1      19.150  24.384  17.657  1.00  0.00     0.169 HD
BRANCH  39  42
HETATM   42  N6  UNL     1      21.297  26.026  17.287  1.00  0.00    -0.365 N 
HETATM   43  C15 UNL     1      22.643  26.544  17.203  1.00  0.00     0.151 C 
BRANCH  42  44
HETATM   44  C16 UNL     1      20.190  26.614  16.600  1.00  0.00     0.129 C 
BRANCH  44  45
HETATM   45  C17 UNL     1      20.207  26.440  15.111  1.00  0.00     0.004 A 
HETATM   46  C18 UNL     1      19.080  26.885  14.274  1.00  0.00     0.007 A 
HETATM   47  C19 UNL     1      20.336  27.688  14.320  1.00  0.00     0.007 A 
ENDBRANCH  44  45
ENDBRANCH  42  44
ENDBRANCH  39  42
ENDBRANCH  33  36
ENDBRANCH  29  30
ENDBRANCH  28  29
ENDBRANCH  26  28
ENDBRANCH   1  26
TORSDOF 14
ENDMDL
