MODEL 1
REMARK VINA RESULT: -7.942012521      0.000      0.000
REMARK  14 active torsions:
REMARK  status: ('A' for Active; 'I' for Inactive)
REMARK    1  A    between atoms: C4_4  and  C5_5 
REMARK    2  A    between atoms: C5_5  and  N1_6 
REMARK    3  A    between atoms: N1_6  and  C7_8 
REMARK    4  A    between atoms: C7_8  and  C8_9 
REMARK    5  A    between atoms: C8_9  and  N2_10 
REMARK    6  A    between atoms: N4_18  and  C15_19 
REMARK    7  A    between atoms: C16_22  and  N6_23 
REMARK    8  A    between atoms: N6_23  and  C17_24 
REMARK    9  A    between atoms: C17_24  and  C18_25 
REMARK   10  A    between atoms: C18_25  and  C19_26 
REMARK   11  A    between atoms: C24_33  and  C25_34 
REMARK   12  A    between atoms: C25_34  and  C26_35 
REMARK   13  A    between atoms: C26_35  and  N8_38 
REMARK   14  A    between atoms: C29_42  and  N9_43 
ROOT
HETATM    1  C15 UNL     1      11.929  19.381  15.903  1.00  0.00     0.128 A 
HETATM    2  N5  UNL     1      12.007  19.343  17.235  1.00  0.00    -0.301 N 
ATOM      3  H5  UNL     1      12.585  20.042  17.703  1.00  0.00     0.171 HD
HETATM    4  C16 UNL     1      11.353  18.417  18.011  1.00  0.00     0.255 A 
HETATM    5  N7  UNL     1      10.593  17.507  17.324  1.00  0.00    -0.316 N 
ATOM      6  H7  UNL     1      10.091  16.803  17.865  1.00  0.00     0.170 HD
HETATM    7  C22 UNL     1      10.465  17.479  15.994  1.00  0.00     0.050 A 
HETATM    8  C23 UNL     1       9.684  16.545  15.369  1.00  0.00     0.040 A 
HETATM    9  C24 UNL     1       9.544  16.517  14.020  1.00  0.00    -0.027 A 
HETATM   10  C29 UNL     1      10.204  17.451  13.257  1.00  0.00     0.037 A 
HETATM   11  C34 UNL     1      11.007  18.406  13.916  1.00  0.00     0.047 A 
HETATM   12  C35 UNL     1      11.143  18.429  15.275  1.00  0.00     0.038 A 
ENDROOT
BRANCH   1  13
HETATM   13  N4  UNL     1      12.643  20.400  15.170  1.00  0.00    -0.311 N 
HETATM   14  C2  UNL     1      12.035  21.402  14.512  1.00  0.00     0.014 A 
HETATM   15  C1  UNL     1      10.552  21.628  14.431  1.00  0.00     0.068 C 
HETATM   16  C3  UNL     1      13.003  22.166  13.920  1.00  0.00     0.035 A 
HETATM   17  C4  UNL     1      14.217  21.613  14.232  1.00  0.00    -0.012 A 
HETATM   18  C14 UNL     1      13.951  20.521  15.007  1.00  0.00     0.107 A 
BRANCH  17  19
HETATM   19  C5  UNL     1      15.569  22.083  13.838  1.00  0.00     0.311 C 
BRANCH  19  20
HETATM   20  N1  UNL     1      16.333  22.704  14.850  1.00  0.00     0.090 N 
HETATM   21  C6  UNL     1      15.547  23.507  15.769  1.00  0.00     0.310 C 
BRANCH  20  22
HETATM   22  C7  UNL     1      17.321  21.914  15.523  1.00  0.00     0.302 C 
BRANCH  22  23
HETATM   23  C8  UNL     1      16.982  21.810  16.974  1.00  0.00     0.302 C 
BRANCH  23  24
HETATM   24  N2  UNL     1      18.073  21.948  17.886  1.00  0.00     0.093 N 
HETATM   25  C9  UNL     1      18.596  23.299  17.907  1.00  0.00     0.302 C 
HETATM   26  C10 UNL     1      18.382  24.074  19.145  1.00  0.00     0.302 C 
HETATM   27  N3  UNL     1      18.434  23.341  20.376  1.00  0.00     0.087 N 
HETATM   28  C11 UNL     1      19.726  22.717  20.579  1.00  0.00     0.310 C 
HETATM   29  C12 UNL     1      17.415  22.290  20.246  1.00  0.00     0.302 C 
HETATM   30  C13 UNL     1      17.941  21.365  19.167  1.00  0.00     0.302 C 
ENDBRANCH  23  24
ENDBRANCH  22  23
ENDBRANCH  20  22
ENDBRANCH  19  20
ENDBRANCH  17  19
ENDBRANCH   1  13
BRANCH   4  31
HETATM   31  N6  UNL     1      11.479  18.451  19.180  1.00  0.00    -0.416 NA
BRANCH  31  32
HETATM   32  C17 UNL     1      11.846  18.489  20.463  1.00  0.00     0.222 C 
BRANCH  32  33
HETATM   33  C18 UNL     1      13.355  18.198  20.682  1.00  0.00     0.037 C 
BRANCH  33  34
HETATM   34  C19 UNL     1      14.065  19.499  20.369  1.00  0.00    -0.020 C 
HETATM   35  C20 UNL     1      14.847  19.329  19.110  1.00  0.00     0.009 C 
HETATM   36  C21 UNL     1      14.894  19.951  21.556  1.00  0.00     0.009 C 
ENDBRANCH  33  34
ENDBRANCH  32  33
ENDBRANCH  31  32
ENDBRANCH   4  31
BRANCH  10  37
HETATM   37  N9  UNL     1      10.127  17.583  11.850  1.00  0.00    -0.376 N 
HETATM   38  C30 UNL     1       9.020  18.246  11.216  1.00  0.00     0.149 C 
HETATM   39  C31 UNL     1       8.853  17.663   9.817  1.00  0.00     0.187 C 
HETATM   40  O1  UNL     1      10.035  17.968   9.148  1.00  0.00    -0.388 OA
HETATM   41  C32 UNL     1      11.100  17.210   9.598  1.00  0.00     0.187 C 
HETATM   42  C33 UNL     1      11.199  17.043  11.070  1.00  0.00     0.149 C 
ENDBRANCH  10  37
BRANCH   9  43
HETATM   43  C25 UNL     1       8.715  15.518  13.349  1.00  0.00     0.078 C 
BRANCH  43  44
HETATM   44  C26 UNL     1       9.319  14.189  13.061  1.00  0.00     0.120 C 
HETATM   45  C27 UNL     1       8.606  13.012  13.654  1.00  0.00     0.046 C 
HETATM   46  C28 UNL     1       9.077  13.998  11.518  1.00  0.00     0.046 C 
BRANCH  44  47
HETATM   47  N8  UNL     1      10.742  14.089  13.216  1.00  0.00    -0.071 N 
ATOM     48  H83 UNL     1      11.195  14.203  12.309  1.00  0.00     0.275 HD
ATOM     49  H82 UNL     1      11.093  14.914  13.703  1.00  0.00     0.275 HD
ATOM     50  H81 UNL     1      11.090  13.246  13.671  1.00  0.00     0.275 HD
ENDBRANCH  44  47
ENDBRANCH  43  44
ENDBRANCH   9  43
TORSDOF 14
ENDMDL
MODEL 2
REMARK VINA RESULT: -7.887014885      4.986     10.132
REMARK  14 active torsions:
REMARK  status: ('A' for Active; 'I' for Inactive)
REMARK    1  A    between atoms: C4_4  and  C5_5 
REMARK    2  A    between atoms: C5_5  and  N1_6 
REMARK    3  A    between atoms: N1_6  and  C7_8 
REMARK    4  A    between atoms: C7_8  and  C8_9 
REMARK    5  A    between atoms: C8_9  and  N2_10 
REMARK    6  A    between atoms: N4_18  and  C15_19 
REMARK    7  A    between atoms: C16_22  and  N6_23 
REMARK    8  A    between atoms: N6_23  and  C17_24 
REMARK    9  A    between atoms: C17_24  and  C18_25 
REMARK   10  A    between atoms: C18_25  and  C19_26 
REMARK   11  A    between atoms: C24_33  and  C25_34 
REMARK   12  A    between atoms: C25_34  and  C26_35 
REMARK   13  A    between atoms: C26_35  and  N8_38 
REMARK   14  A    between atoms: C29_42  and  N9_43 
ROOT
HETATM    1  C15 UNL     1      19.160  24.825  17.398  1.00  0.00     0.128 A 
HETATM    2  N5  UNL     1      19.702  25.819  16.690  1.00  0.00    -0.301 N 
ATOM      3  H5  UNL     1      20.454  26.359  17.117  1.00  0.00     0.171 HD
HETATM    4  C16 UNL     1      19.303  26.155  15.418  1.00  0.00     0.255 A 
HETATM    5  N7  UNL     1      18.290  25.392  14.900  1.00  0.00    -0.316 N 
ATOM      6  H7  UNL     1      17.966  25.610  13.958  1.00  0.00     0.170 HD
HETATM    7  C22 UNL     1      17.697  24.383  15.544  1.00  0.00     0.050 A 
HETATM    8  C23 UNL     1      16.693  23.654  14.966  1.00  0.00     0.040 A 
HETATM    9  C24 UNL     1      16.093  22.623  15.613  1.00  0.00    -0.027 A 
HETATM   10  C29 UNL     1      16.504  22.299  16.884  1.00  0.00     0.037 A 
HETATM   11  C34 UNL     1      17.539  23.060  17.468  1.00  0.00     0.047 A 
HETATM   12  C35 UNL     1      18.139  24.097  16.810  1.00  0.00     0.038 A 
ENDROOT
BRANCH   1  13
HETATM   13  N4  UNL     1      19.653  24.536  18.724  1.00  0.00    -0.311 N 
HETATM   14  C2  UNL     1      18.860  24.440  19.804  1.00  0.00     0.014 A 
HETATM   15  C1  UNL     1      17.367  24.607  19.817  1.00  0.00     0.068 C 
HETATM   16  C3  UNL     1      19.653  24.178  20.888  1.00  0.00     0.035 A 
HETATM   17  C4  UNL     1      20.949  24.113  20.447  1.00  0.00    -0.012 A 
HETATM   18  C14 UNL     1      20.906  24.340  19.102  1.00  0.00     0.107 A 
BRANCH  17  19
HETATM   19  C5  UNL     1      22.175  23.839  21.238  1.00  0.00     0.311 C 
BRANCH  19  20
HETATM   20  N1  UNL     1      23.263  24.712  21.024  1.00  0.00     0.090 N 
HETATM   21  C6  UNL     1      23.335  25.804  21.978  1.00  0.00     0.310 C 
BRANCH  20  22
HETATM   22  C7  UNL     1      24.546  24.131  20.762  1.00  0.00     0.302 C 
BRANCH  22  23
HETATM   23  C8  UNL     1      24.507  23.382  19.471  1.00  0.00     0.302 C 
BRANCH  23  24
HETATM   24  N2  UNL     1      25.252  23.949  18.391  1.00  0.00     0.093 N 
HETATM   25  C9  UNL     1      24.688  25.206  17.944  1.00  0.00     0.302 C 
HETATM   26  C10 UNL     1      25.488  26.420  18.203  1.00  0.00     0.302 C 
HETATM   27  N3  UNL     1      26.911  26.280  18.112  1.00  0.00     0.087 N 
HETATM   28  C11 UNL     1      27.330  25.867  16.788  1.00  0.00     0.310 C 
HETATM   29  C12 UNL     1      27.260  25.222  19.071  1.00  0.00     0.302 C 
HETATM   30  C13 UNL     1      26.661  23.956  18.493  1.00  0.00     0.302 C 
ENDBRANCH  23  24
ENDBRANCH  22  23
ENDBRANCH  20  22
ENDBRANCH  19  20
ENDBRANCH  17  19
ENDBRANCH   1  13
BRANCH   4  31
HETATM   31  N6  UNL     1      19.831  27.049  14.866  1.00  0.00    -0.416 NA
BRANCH  31  32
HETATM   32  C17 UNL     1      20.584  28.050  14.405  1.00  0.00     0.222 C 
BRANCH  32  33
HETATM   33  C18 UNL     1      22.107  27.747  14.448  1.00  0.00     0.037 C 
BRANCH  33  34
HETATM   34  C19 UNL     1      22.652  28.595  15.578  1.00  0.00    -0.020 C 
HETATM   35  C20 UNL     1      24.106  28.833  15.342  1.00  0.00     0.009 C 
HETATM   36  C21 UNL     1      22.340  27.960  16.919  1.00  0.00     0.009 C 
ENDBRANCH  33  34
ENDBRANCH  32  33
ENDBRANCH  31  32
ENDBRANCH   4  31
BRANCH  10  37
HETATM   37  N9  UNL     1      16.013  21.229  17.671  1.00  0.00    -0.376 N 
HETATM   38  C30 UNL     1      16.503  19.888  17.506  1.00  0.00     0.149 C 
HETATM   39  C31 UNL     1      15.400  18.922  17.927  1.00  0.00     0.187 C 
HETATM   40  O1  UNL     1      15.177  19.184  19.276  1.00  0.00    -0.388 OA
HETATM   41  C32 UNL     1      14.530  20.390  19.473  1.00  0.00     0.187 C 
HETATM   42  C33 UNL     1      15.014  21.527  18.652  1.00  0.00     0.149 C 
ENDBRANCH  10  37
BRANCH   9  43
HETATM   43  C25 UNL     1      15.016  21.847  15.000  1.00  0.00     0.078 C 
BRANCH  43  44
HETATM   44  C26 UNL     1      13.634  22.391  15.077  1.00  0.00     0.120 C 
HETATM   45  C27 UNL     1      12.962  22.638  13.760  1.00  0.00     0.046 C 
HETATM   46  C28 UNL     1      12.799  21.199  15.673  1.00  0.00     0.046 C 
BRANCH  44  47
HETATM   47  N8  UNL     1      13.424  23.472  15.997  1.00  0.00    -0.071 N 
ATOM     48  H83 UNL     1      13.380  23.108  16.950  1.00  0.00     0.275 HD
ATOM     49  H82 UNL     1      14.268  24.042  16.055  1.00  0.00     0.275 HD
ATOM     50  H81 UNL     1      12.617  24.068  15.820  1.00  0.00     0.275 HD
ENDBRANCH  44  47
ENDBRANCH  43  44
ENDBRANCH   9  43
TORSDOF 14
ENDMDL
MODEL 3
REMARK VINA RESULT: -7.664028061      2.991      9.930
REMARK  14 active torsions:
REMARK  status: ('A' for Active; 'I' for Inactive)
REMARK    1  A    between atoms: C4_4  and  C5_5 
REMARK    2  A    between atoms: C5_5  and  N1_6 
REMARK    3  A    between atoms: N1_6  and  C7_8 
REMARK    4  A    between atoms: C7_8  and  C8_9 
REMARK    5  A    between atoms: C8_9  and  N2_10 
REMARK    6  A    between atoms: N4_18  and  C15_19 
REMARK    7  A    between atoms: C16_22  and  N6_23 
REMARK    8  A    between atoms: N6_23  and  C17_24 
REMARK    9  A    between atoms: C17_24  and  C18_25 
REMARK   10  A    between atoms: C18_25  and  C19_26 
REMARK   11  A    between atoms: C24_33  and  C25_34 
REMARK   12  A    between atoms: C25_34  and  C26_35 
REMARK   13  A    between atoms: C26_35  and  N8_38 
REMARK   14  A    between atoms: C29_42  and  N9_43 
ROOT
HETATM    1  C15 UNL     1      15.630  23.290  15.490  1.00  0.00     0.128 A 
HETATM    2  N5  UNL     1      16.233  24.353  14.952  1.00  0.00    -0.301 N 
ATOM      3  H5  UNL     1      15.901  24.688  14.047  1.00  0.00     0.171 HD
HETATM    4  C16 UNL     1      17.275  25.021  15.547  1.00  0.00     0.255 A 
HETATM    5  N7  UNL     1      17.675  24.524  16.760  1.00  0.00    -0.316 N 
ATOM      6  H7  UNL     1      18.446  24.993  17.235  1.00  0.00     0.170 HD
HETATM    7  C22 UNL     1      17.123  23.466  17.363  1.00  0.00     0.050 A 
HETATM    8  C23 UNL     1      17.566  23.023  18.580  1.00  0.00     0.040 A 
HETATM    9  C24 UNL     1      17.005  21.955  19.200  1.00  0.00    -0.027 A 
HETATM   10  C29 UNL     1      15.961  21.298  18.592  1.00  0.00     0.037 A 
HETATM   11  C34 UNL     1      15.517  21.765  17.336  1.00  0.00     0.047 A 
HETATM   12  C35 UNL     1      16.087  22.842  16.718  1.00  0.00     0.038 A 
ENDROOT
BRANCH   1  13
HETATM   13  N4  UNL     1      14.532  22.659  14.796  1.00  0.00    -0.311 N 
HETATM   14  C2  UNL     1      14.687  21.909  13.692  1.00  0.00     0.014 A 
HETATM   15  C1  UNL     1      15.992  21.602  13.014  1.00  0.00     0.068 C 
HETATM   16  C3  UNL     1      13.449  21.487  13.291  1.00  0.00     0.035 A 
HETATM   17  C4  UNL     1      12.532  21.994  14.174  1.00  0.00    -0.012 A 
HETATM   18  C14 UNL     1      13.243  22.714  15.090  1.00  0.00     0.107 A 
BRANCH  17  19
HETATM   19  C5  UNL     1      11.059  21.809  14.176  1.00  0.00     0.311 C 
BRANCH  19  20
HETATM   20  N1  UNL     1      10.561  20.774  14.996  1.00  0.00     0.090 N 
HETATM   21  C6  UNL     1       9.317  21.102  15.666  1.00  0.00     0.310 C 
BRANCH  20  22
HETATM   22  C7  UNL     1      10.561  19.443  14.466  1.00  0.00     0.302 C 
BRANCH  22  23
HETATM   23  C8  UNL     1      11.143  18.500  15.468  1.00  0.00     0.302 C 
BRANCH  23  24
HETATM   24  N2  UNL     1      10.263  17.491  15.969  1.00  0.00     0.093 N 
HETATM   25  C9  UNL     1      10.062  16.422  15.012  1.00  0.00     0.302 C 
HETATM   26  C10 UNL     1      10.630  15.105  15.361  1.00  0.00     0.302 C 
HETATM   27  N3  UNL     1      10.606  14.745  16.748  1.00  0.00     0.087 N 
HETATM   28  C11 UNL     1       9.255  14.687  17.268  1.00  0.00     0.310 C 
HETATM   29  C12 UNL     1      11.334  15.818  17.441  1.00  0.00     0.302 C 
HETATM   30  C13 UNL     1      10.458  17.044  17.295  1.00  0.00     0.302 C 
ENDBRANCH  23  24
ENDBRANCH  22  23
ENDBRANCH  20  22
ENDBRANCH  19  20
ENDBRANCH  17  19
ENDBRANCH   1  13
BRANCH   4  31
HETATM   31  N6  UNL     1      17.754  25.947  15.002  1.00  0.00    -0.416 NA
BRANCH  31  32
HETATM   32  C17 UNL     1      18.392  26.843  14.247  1.00  0.00     0.222 C 
BRANCH  32  33
HETATM   33  C18 UNL     1      19.932  26.645  14.223  1.00  0.00     0.037 C 
BRANCH  33  34
HETATM   34  C19 UNL     1      20.487  27.700  15.159  1.00  0.00    -0.020 C 
HETATM   35  C20 UNL     1      21.698  28.307  14.535  1.00  0.00     0.009 C 
HETATM   36  C21 UNL     1      20.729  27.114  16.537  1.00  0.00     0.009 C 
ENDBRANCH  33  34
ENDBRANCH  32  33
ENDBRANCH  31  32
ENDBRANCH   4  31
BRANCH  10  37
HETATM   37  N9  UNL     1      15.243  20.201  19.125  1.00  0.00    -0.376 N 
HETATM   38  C30 UNL     1      15.104  18.969  18.399  1.00  0.00     0.149 C 
HETATM   39  C31 UNL     1      13.810  18.296  18.845  1.00  0.00     0.187 C 
HETATM   40  O1  UNL     1      13.981  18.032  20.201  1.00  0.00    -0.388 OA
HETATM   41  C32 UNL     1      13.931  19.182  20.967  1.00  0.00     0.187 C 
HETATM   42  C33 UNL     1      14.664  20.353  20.426  1.00  0.00     0.149 C 
ENDBRANCH  10  37
BRANCH   9  43
HETATM   43  C25 UNL     1      17.479  21.477  20.497  1.00  0.00     0.078 C 
BRANCH  43  44
HETATM   44  C26 UNL     1      18.903  21.721  20.852  1.00  0.00     0.120 C 
HETATM   45  C27 UNL     1      19.885  21.563  19.731  1.00  0.00     0.046 C 
HETATM   46  C28 UNL     1      18.954  23.266  21.142  1.00  0.00     0.046 C 
BRANCH  44  47
HETATM   47  N8  UNL     1      19.370  21.113  22.065  1.00  0.00    -0.071 N 
ATOM     48  H83 UNL     1      18.607  21.062  22.740  1.00  0.00     0.275 HD
ATOM     49  H82 UNL     1      19.545  20.120  21.907  1.00  0.00     0.275 HD
ATOM     50  H81 UNL     1      20.187  21.541  22.501  1.00  0.00     0.275 HD
ENDBRANCH  44  47
ENDBRANCH  43  44
ENDBRANCH   9  43
TORSDOF 14
ENDMDL
MODEL 4
REMARK VINA RESULT: -7.640710473      3.059     10.082
REMARK  14 active torsions:
REMARK  status: ('A' for Active; 'I' for Inactive)
REMARK    1  A    between atoms: C4_4  and  C5_5 
REMARK    2  A    between atoms: C5_5  and  N1_6 
REMARK    3  A    between atoms: N1_6  and  C7_8 
REMARK    4  A    between atoms: C7_8  and  C8_9 
REMARK    5  A    between atoms: C8_9  and  N2_10 
REMARK    6  A    between atoms: N4_18  and  C15_19 
REMARK    7  A    between atoms: C16_22  and  N6_23 
REMARK    8  A    between atoms: N6_23  and  C17_24 
REMARK    9  A    between atoms: C17_24  and  C18_25 
REMARK   10  A    between atoms: C18_25  and  C19_26 
REMARK   11  A    between atoms: C24_33  and  C25_34 
REMARK   12  A    between atoms: C25_34  and  C26_35 
REMARK   13  A    between atoms: C26_35  and  N8_38 
REMARK   14  A    between atoms: C29_42  and  N9_43 
ROOT
HETATM    1  C15 UNL     1      15.533  23.278  15.488  1.00  0.00     0.128 A 
HETATM    2  N5  UNL     1      16.147  24.290  14.871  1.00  0.00    -0.301 N 
ATOM      3  H5  UNL     1      15.822  24.555  13.941  1.00  0.00     0.171 HD
HETATM    4  C16 UNL     1      17.192  24.995  15.418  1.00  0.00     0.255 A 
HETATM    5  N7  UNL     1      17.581  24.592  16.668  1.00  0.00    -0.316 N 
ATOM      6  H7  UNL     1      18.354  25.091  17.109  1.00  0.00     0.170 HD
HETATM    7  C22 UNL     1      17.018  23.590  17.350  1.00  0.00     0.050 A 
HETATM    8  C23 UNL     1      17.451  23.240  18.601  1.00  0.00     0.040 A 
HETATM    9  C24 UNL     1      16.878  22.229  19.300  1.00  0.00    -0.027 A 
HETATM   10  C29 UNL     1      15.832  21.534  18.739  1.00  0.00     0.037 A 
HETATM   11  C34 UNL     1      15.398  21.904  17.448  1.00  0.00     0.047 A 
HETATM   12  C35 UNL     1      15.980  22.924  16.750  1.00  0.00     0.038 A 
ENDROOT
BRANCH   1  13
HETATM   13  N4  UNL     1      14.434  22.603  14.839  1.00  0.00    -0.311 N 
HETATM   14  C2  UNL     1      14.572  21.859  13.729  1.00  0.00     0.014 A 
HETATM   15  C1  UNL     1      15.859  21.606  12.995  1.00  0.00     0.068 C 
HETATM   16  C3  UNL     1      13.336  21.388  13.379  1.00  0.00     0.035 A 
HETATM   17  C4  UNL     1      12.438  21.857  14.302  1.00  0.00    -0.012 A 
HETATM   18  C14 UNL     1      13.157  22.605  15.188  1.00  0.00     0.107 A 
BRANCH  17  19
HETATM   19  C5  UNL     1      10.975  21.611  14.366  1.00  0.00     0.311 C 
BRANCH  19  20
HETATM   20  N1  UNL     1      10.576  20.310  14.739  1.00  0.00     0.090 N 
HETATM   21  C6  UNL     1       9.853  20.257  15.997  1.00  0.00     0.310 C 
BRANCH  20  22
HETATM   22  C7  UNL     1       9.986  19.477  13.735  1.00  0.00     0.302 C 
BRANCH  22  23
HETATM   23  C8  UNL     1      10.230  18.040  14.063  1.00  0.00     0.302 C 
BRANCH  23  24
HETATM   24  N2  UNL     1      11.484  17.501  13.637  1.00  0.00     0.093 N 
HETATM   25  C9  UNL     1      11.525  16.059  13.763  1.00  0.00     0.302 C 
HETATM   26  C10 UNL     1      11.567  15.285  12.507  1.00  0.00     0.302 C 
HETATM   27  N3  UNL     1      12.307  15.861  11.424  1.00  0.00     0.087 N 
HETATM   28  C11 UNL     1      13.704  16.045  11.762  1.00  0.00     0.310 C 
HETATM   29  C12 UNL     1      11.698  17.179  11.194  1.00  0.00     0.302 C 
HETATM   30  C13 UNL     1      12.036  17.987  12.430  1.00  0.00     0.302 C 
ENDBRANCH  23  24
ENDBRANCH  22  23
ENDBRANCH  20  22
ENDBRANCH  19  20
ENDBRANCH  17  19
ENDBRANCH   1  13
BRANCH   4  31
HETATM   31  N6  UNL     1      17.681  25.871  14.805  1.00  0.00    -0.416 NA
BRANCH  31  32
HETATM   32  C17 UNL     1      18.433  26.788  14.191  1.00  0.00     0.222 C 
BRANCH  32  33
HETATM   33  C18 UNL     1      19.956  26.501  14.289  1.00  0.00     0.037 C 
BRANCH  33  34
HETATM   34  C19 UNL     1      20.551  27.716  14.969  1.00  0.00    -0.020 C 
HETATM   35  C20 UNL     1      21.699  28.210  14.155  1.00  0.00     0.009 C 
HETATM   36  C21 UNL     1      20.906  27.398  16.410  1.00  0.00     0.009 C 
ENDBRANCH  33  34
ENDBRANCH  32  33
ENDBRANCH  31  32
ENDBRANCH   4  31
BRANCH  10  37
HETATM   37  N9  UNL     1      15.102  20.488  19.353  1.00  0.00    -0.376 N 
HETATM   38  C30 UNL     1      14.521  20.643  20.659  1.00  0.00     0.149 C 
HETATM   39  C31 UNL     1      14.430  19.265  21.306  1.00  0.00     0.187 C 
HETATM   40  O1  UNL     1      13.574  18.531  20.490  1.00  0.00    -0.388 OA
HETATM   41  C32 UNL     1      14.164  18.193  19.286  1.00  0.00     0.187 C 
HETATM   42  C33 UNL     1      14.947  19.266  18.625  1.00  0.00     0.149 C 
ENDBRANCH  10  37
BRANCH   9  43
HETATM   43  C25 UNL     1      17.341  21.851  20.633  1.00  0.00     0.078 C 
BRANCH  43  44
HETATM   44  C26 UNL     1      18.809  21.773  20.865  1.00  0.00     0.120 C 
HETATM   45  C27 UNL     1      19.637  21.440  19.662  1.00  0.00     0.046 C 
HETATM   46  C28 UNL     1      19.217  23.263  21.164  1.00  0.00     0.046 C 
BRANCH  44  47
HETATM   47  N8  UNL     1      19.233  21.046  22.027  1.00  0.00    -0.071 N 
ATOM     48  H83 UNL     1      18.436  20.559  22.437  1.00  0.00     0.275 HD
ATOM     49  H82 UNL     1      19.810  20.253  21.745  1.00  0.00     0.275 HD
ATOM     50  H81 UNL     1      19.715  21.583  22.748  1.00  0.00     0.275 HD
ENDBRANCH  44  47
ENDBRANCH  43  44
ENDBRANCH   9  43
TORSDOF 14
ENDMDL
MODEL 5
REMARK VINA RESULT: -7.553480698      3.201     10.432
REMARK  14 active torsions:
REMARK  status: ('A' for Active; 'I' for Inactive)
REMARK    1  A    between atoms: C4_4  and  C5_5 
REMARK    2  A    between atoms: C5_5  and  N1_6 
REMARK    3  A    between atoms: N1_6  and  C7_8 
REMARK    4  A    between atoms: C7_8  and  C8_9 
REMARK    5  A    between atoms: C8_9  and  N2_10 
REMARK    6  A    between atoms: N4_18  and  C15_19 
REMARK    7  A    between atoms: C16_22  and  N6_23 
REMARK    8  A    between atoms: N6_23  and  C17_24 
REMARK    9  A    between atoms: C17_24  and  C18_25 
REMARK   10  A    between atoms: C18_25  and  C19_26 
REMARK   11  A    between atoms: C24_33  and  C25_34 
REMARK   12  A    between atoms: C25_34  and  C26_35 
REMARK   13  A    between atoms: C26_35  and  N8_38 
REMARK   14  A    between atoms: C29_42  and  N9_43 
ROOT
HETATM    1  C15 UNL     1      16.343  22.368  18.006  1.00  0.00     0.128 A 
HETATM    2  N5  UNL     1      15.829  21.572  18.947  1.00  0.00    -0.301 N 
ATOM      3  H5  UNL     1      15.054  20.960  18.688  1.00  0.00     0.171 HD
HETATM    4  C16 UNL     1      16.283  21.531  20.243  1.00  0.00     0.255 A 
HETATM    5  N7  UNL     1      17.324  22.374  20.527  1.00  0.00    -0.316 N 
ATOM      6  H7  UNL     1      17.691  22.373  21.478  1.00  0.00     0.170 HD
HETATM    7  C22 UNL     1      17.893  23.199  19.642  1.00  0.00     0.050 A 
HETATM    8  C23 UNL     1      18.937  24.014  19.989  1.00  0.00     0.040 A 
HETATM    9  C24 UNL     1      19.522  24.848  19.093  1.00  0.00    -0.027 A 
HETATM   10  C29 UNL     1      19.057  24.876  17.800  1.00  0.00     0.037 A 
HETATM   11  C34 UNL     1      17.979  24.033  17.458  1.00  0.00     0.047 A 
HETATM   12  C35 UNL     1      17.394  23.195  18.365  1.00  0.00     0.038 A 
ENDROOT
BRANCH   1  13
HETATM   13  N4  UNL     1      15.808  22.334  16.666  1.00  0.00    -0.311 N 
HETATM   14  C2  UNL     1      16.559  22.111  15.574  1.00  0.00     0.014 A 
HETATM   15  C1  UNL     1      18.041  21.861  15.562  1.00  0.00     0.068 C 
HETATM   16  C3  UNL     1      15.740  22.165  14.479  1.00  0.00     0.035 A 
HETATM   17  C4  UNL     1      14.470  22.423  14.925  1.00  0.00    -0.012 A 
HETATM   18  C14 UNL     1      14.555  22.521  16.283  1.00  0.00     0.107 A 
BRANCH  17  19
HETATM   19  C5  UNL     1      13.227  22.562  14.125  1.00  0.00     0.311 C 
BRANCH  19  20
HETATM   20  N1  UNL     1      12.494  21.377  13.900  1.00  0.00     0.090 N 
HETATM   21  C6  UNL     1      13.311  20.254  13.477  1.00  0.00     0.310 C 
BRANCH  20  22
HETATM   22  C7  UNL     1      11.513  21.002  14.874  1.00  0.00     0.302 C 
BRANCH  22  23
HETATM   23  C8  UNL     1      11.910  19.716  15.522  1.00  0.00     0.302 C 
BRANCH  23  24
HETATM   24  N2  UNL     1      10.873  18.746  15.685  1.00  0.00     0.093 N 
HETATM   25  C9  UNL     1      10.766  17.867  14.538  1.00  0.00     0.302 C 
HETATM   26  C10 UNL     1      11.150  16.457  14.745  1.00  0.00     0.302 C 
HETATM   27  N3  UNL     1      10.841  15.891  16.025  1.00  0.00     0.087 N 
HETATM   28  C11 UNL     1       9.417  15.903  16.292  1.00  0.00     0.310 C 
HETATM   29  C12 UNL     1      11.514  16.755  17.006  1.00  0.00     0.302 C 
HETATM   30  C13 UNL     1      10.782  18.079  16.928  1.00  0.00     0.302 C 
ENDBRANCH  23  24
ENDBRANCH  22  23
ENDBRANCH  20  22
ENDBRANCH  19  20
ENDBRANCH  17  19
ENDBRANCH   1  13
BRANCH   4  31
HETATM   31  N6  UNL     1      15.770  20.803  21.011  1.00  0.00    -0.416 NA
BRANCH  31  32
HETATM   32  C17 UNL     1      15.039  19.937  21.716  1.00  0.00     0.222 C 
BRANCH  32  33
HETATM   33  C18 UNL     1      13.695  19.564  21.033  1.00  0.00     0.037 C 
BRANCH  33  34
HETATM   34  C19 UNL     1      13.954  18.246  20.333  1.00  0.00    -0.020 C 
HETATM   35  C20 UNL     1      14.238  18.513  18.893  1.00  0.00     0.009 C 
HETATM   36  C21 UNL     1      12.803  17.285  20.568  1.00  0.00     0.009 C 
ENDBRANCH  33  34
ENDBRANCH  32  33
ENDBRANCH  31  32
ENDBRANCH   4  31
BRANCH  10  37
HETATM   37  N9  UNL     1      19.586  25.653  16.741  1.00  0.00    -0.376 N 
HETATM   38  C30 UNL     1      20.925  26.173  16.786  1.00  0.00     0.149 C 
HETATM   39  C31 UNL     1      20.973  27.442  15.941  1.00  0.00     0.187 C 
HETATM   40  O1  UNL     1      20.665  27.033  14.646  1.00  0.00    -0.388 OA
HETATM   41  C32 UNL     1      19.330  26.701  14.507  1.00  0.00     0.187 C 
HETATM   42  C33 UNL     1      18.745  25.897  15.609  1.00  0.00     0.149 C 
ENDBRANCH  10  37
BRANCH   9  43
HETATM   43  C25 UNL     1      20.633  25.723  19.463  1.00  0.00     0.078 C 
BRANCH  43  44
HETATM   44  C26 UNL     1      21.871  25.092  19.996  1.00  0.00     0.120 C 
HETATM   45  C27 UNL     1      22.345  23.876  19.260  1.00  0.00     0.046 C 
HETATM   46  C28 UNL     1      22.992  26.148  19.678  1.00  0.00     0.046 C 
BRANCH  44  47
HETATM   47  N8  UNL     1      21.935  24.918  21.419  1.00  0.00    -0.071 N 
ATOM     48  H83 UNL     1      22.904  24.988  21.730  1.00  0.00     0.275 HD
ATOM     49  H82 UNL     1      21.531  25.731  21.883  1.00  0.00     0.275 HD
ATOM     50  H81 UNL     1      21.515  24.066  21.790  1.00  0.00     0.275 HD
ENDBRANCH  44  47
ENDBRANCH  43  44
ENDBRANCH   9  43
TORSDOF 14
ENDMDL
