MODEL 1
REMARK VINA RESULT: -9.372837717      0.000      0.000
REMARK  14 active torsions:
REMARK  status: ('A' for Active; 'I' for Inactive)
REMARK    1  A    between atoms: C2_2  and  N1_3 
REMARK    2  A    between atoms: N1_3  and  C3_4 
REMARK       I    between atoms: N1_3  and  C14_23 
REMARK    3  A    between atoms: C3_4  and  C4_5 
REMARK    4  A    between atoms: C7_8  and  O1_9 
REMARK    5  A    between atoms: C9_13  and  O2_14 
REMARK    6  A    between atoms: N3_18  and  C11_19 
REMARK    7  A    between atoms: C14_23  and  C15_25 
REMARK    8  A    between atoms: C15_25  and  C16_26 
REMARK    9  A    between atoms: C17_27  and  C18_28 
REMARK       I    between atoms: C18_28  and  N4_30 
REMARK   10  A    between atoms: N5_33  and  C21_34 
REMARK   11  A    between atoms: C21_34  and  C22_35 
REMARK   12  A    between atoms: C23_36  and  C25_38 
REMARK   13  A    between atoms: C25_38  and  C26_39 
REMARK   14  A    between atoms: C26_39  and  C27_40 
ROOT
HETATM    1  N1  UNL     1      13.876  20.943  15.077  1.00  0.00    -0.330 N 
HETATM    2  C14 UNL     1      14.957  21.853  15.073  1.00  0.00     0.226 C 
HETATM    3  O5  UNL     1      15.266  22.464  14.031  1.00  0.00    -0.273 OA
ENDROOT
BRANCH   2   4
HETATM    4  C15 UNL     1      15.739  22.096  16.304  1.00  0.00     0.130 C 
BRANCH   4   5
HETATM    5  C16 UNL     1      17.016  21.377  16.245  1.00  0.00    -0.012 C 
HETATM    6  C17 UNL     1      17.976  21.400  17.092  1.00  0.00     0.070 C 
BRANCH   6   7
HETATM    7  C18 UNL     1      18.178  22.077  18.338  1.00  0.00     0.243 C 
HETATM    8  O6  UNL     1      17.856  21.534  19.423  1.00  0.00    -0.268 OA
HETATM    9  N4  UNL     1      18.746  23.385  18.419  1.00  0.00    -0.345 N 
HETATM   10  C19 UNL     1      19.157  24.111  17.225  1.00  0.00     0.146 C 
HETATM   11  C33 UNL     1      18.911  24.028  19.692  1.00  0.00     0.151 C 
HETATM   12  C20 UNL     1      19.601  25.526  17.681  1.00  0.00     0.142 C 
HETATM   13  N5  UNL     1      20.634  25.309  18.609  1.00  0.00    -0.383 N 
HETATM   14  C31 UNL     1      20.182  24.814  19.851  1.00  0.00     0.097 C 
HETATM   15  C32 UNL     1      21.202  23.911  20.534  1.00  0.00     0.034 C 
BRANCH  13  16
HETATM   16  C21 UNL     1      21.740  26.203  18.616  1.00  0.00     0.086 C 
BRANCH  16  17
HETATM   17  C22 UNL     1      21.646  27.335  17.715  1.00  0.00     0.019 C 
HETATM   18  C23 UNL     1      22.613  27.588  16.816  1.00  0.00    -0.082 C 
HETATM   19  C24 UNL     1      23.795  26.677  16.758  1.00  0.00     0.043 C 
BRANCH  18  20
HETATM   20  C25 UNL     1      22.487  28.716  15.877  1.00  0.00     0.037 C 
BRANCH  20  21
HETATM   21  C26 UNL     1      21.999  28.378  14.528  1.00  0.00     0.031 C 
BRANCH  21  22
HETATM   22  C27 UNL     1      20.557  28.107  14.390  1.00  0.00    -0.024 C 
HETATM   23  C28 UNL     1      20.035  26.900  14.272  1.00  0.00    -0.091 C 
HETATM   24  C29 UNL     1      20.864  25.664  14.266  1.00  0.00     0.042 C 
HETATM   25  C30 UNL     1      18.563  26.745  14.141  1.00  0.00     0.042 C 
ENDBRANCH  21  22
ENDBRANCH  20  21
ENDBRANCH  18  20
ENDBRANCH  16  17
ENDBRANCH  13  16
ENDBRANCH   6   7
ENDBRANCH   4   5
ENDBRANCH   2   4
BRANCH   1  26
HETATM   26  C2  UNL     1      13.169  20.813  13.794  1.00  0.00     0.126 C 
HETATM   27  C1  UNL     1      13.382  19.544  13.068  1.00  0.00     0.027 C 
ENDBRANCH   1  26
BRANCH   1  28
HETATM   28  C3  UNL     1      13.569  20.062  16.131  1.00  0.00     0.097 C 
BRANCH  28  29
HETATM   29  C4  UNL     1      12.444  20.213  17.046  1.00  0.00     0.165 C 
HETATM   30  C5  UNL     1      12.993  19.984  18.450  1.00  0.00     0.041 A 
HETATM   31  C6  UNL     1      12.355  18.912  18.955  1.00  0.00     0.096 A 
HETATM   32  C9  UNL     1      13.956  20.395  19.350  1.00  0.00     0.153 A 
HETATM   33  C7  UNL     1      12.958  18.666  20.194  1.00  0.00     0.160 A 
HETATM   34  C10 UNL     1      11.259  18.525  18.069  1.00  0.00     0.260 C 
HETATM   35  N2  UNL     1      13.929  19.571  20.429  1.00  0.00    -0.312 N 
HETATM   36  C8  UNL     1      14.784  19.649  21.612  1.00  0.00     0.160 C 
HETATM   37  O3  UNL     1      10.524  17.530  18.326  1.00  0.00    -0.267 OA
HETATM   38  N3  UNL     1      11.265  19.455  17.000  1.00  0.00    -0.325 N 
BRANCH  33  39
HETATM   39  O1  UNL     1      12.588  17.628  21.042  1.00  0.00    -0.345 OA
ATOM     40  H1  UNL     1      13.157  16.901  21.267  1.00  0.00     0.219 HD
ENDBRANCH  33  39
BRANCH  38  41
HETATM   41  C11 UNL     1      10.124  19.608  16.088  1.00  0.00     0.136 C 
HETATM   42  C12 UNL     1      10.311  18.853  14.771  1.00  0.00     0.195 C 
HETATM   43  O4  UNL     1       9.471  19.840  14.200  1.00  0.00    -0.387 OA
HETATM   44  C13 UNL     1      10.076  20.717  15.139  1.00  0.00     0.195 C 
ENDBRANCH  38  41
BRANCH  32  45
HETATM   45  O2  UNL     1      14.828  21.478  19.198  1.00  0.00    -0.345 OA
ATOM     46  H2  UNL     1      14.584  22.391  19.095  1.00  0.00     0.219 HD
ENDBRANCH  32  45
ENDBRANCH  28  29
ENDBRANCH   1  28
TORSDOF 14
ENDMDL
MODEL 2
REMARK VINA RESULT: -9.348360411      2.350     10.504
REMARK  14 active torsions:
REMARK  status: ('A' for Active; 'I' for Inactive)
REMARK    1  A    between atoms: C2_2  and  N1_3 
REMARK    2  A    between atoms: N1_3  and  C3_4 
REMARK       I    between atoms: N1_3  and  C14_23 
REMARK    3  A    between atoms: C3_4  and  C4_5 
REMARK    4  A    between atoms: C7_8  and  O1_9 
REMARK    5  A    between atoms: C9_13  and  O2_14 
REMARK    6  A    between atoms: N3_18  and  C11_19 
REMARK    7  A    between atoms: C14_23  and  C15_25 
REMARK    8  A    between atoms: C15_25  and  C16_26 
REMARK    9  A    between atoms: C17_27  and  C18_28 
REMARK       I    between atoms: C18_28  and  N4_30 
REMARK   10  A    between atoms: N5_33  and  C21_34 
REMARK   11  A    between atoms: C21_34  and  C22_35 
REMARK   12  A    between atoms: C23_36  and  C25_38 
REMARK   13  A    between atoms: C25_38  and  C26_39 
REMARK   14  A    between atoms: C26_39  and  C27_40 
ROOT
HETATM    1  N1  UNL     1      19.198  23.338  19.748  1.00  0.00    -0.330 N 
HETATM    2  C14 UNL     1      18.834  21.978  19.874  1.00  0.00     0.226 C 
HETATM    3  O5  UNL     1      19.705  21.102  20.039  1.00  0.00    -0.273 OA
ENDROOT
BRANCH   2   4
HETATM    4  C15 UNL     1      17.413  21.573  19.813  1.00  0.00     0.130 C 
BRANCH   4   5
HETATM    5  C16 UNL     1      17.164  20.769  18.612  1.00  0.00    -0.012 C 
HETATM    6  C17 UNL     1      16.050  20.298  18.193  1.00  0.00     0.070 C 
BRANCH   6   7
HETATM    7  C18 UNL     1      14.706  20.357  18.683  1.00  0.00     0.243 C 
HETATM    8  O6  UNL     1      14.212  21.444  19.069  1.00  0.00    -0.268 OA
HETATM    9  N4  UNL     1      13.865  19.205  18.760  1.00  0.00    -0.345 N 
HETATM   10  C19 UNL     1      14.332  17.892  18.339  1.00  0.00     0.146 C 
HETATM   11  C33 UNL     1      12.529  19.315  19.276  1.00  0.00     0.151 C 
HETATM   12  C20 UNL     1      13.210  16.876  18.682  1.00  0.00     0.142 C 
HETATM   13  N5  UNL     1      12.073  17.333  17.992  1.00  0.00    -0.383 N 
HETATM   14  C31 UNL     1      11.497  18.490  18.559  1.00  0.00     0.097 C 
HETATM   15  C32 UNL     1      10.828  19.384  17.523  1.00  0.00     0.034 C 
BRANCH  13  16
HETATM   16  C21 UNL     1      11.198  16.372  17.414  1.00  0.00     0.086 C 
BRANCH  16  17
HETATM   17  C22 UNL     1      11.157  16.341  15.966  1.00  0.00     0.019 C 
HETATM   18  C23 UNL     1      10.073  15.886  15.313  1.00  0.00    -0.082 C 
HETATM   19  C24 UNL     1       8.903  15.410  16.109  1.00  0.00     0.043 C 
BRANCH  18  20
HETATM   20  C25 UNL     1      10.026  15.899  13.841  1.00  0.00     0.037 C 
BRANCH  20  21
HETATM   21  C26 UNL     1      10.597  17.091  13.189  1.00  0.00     0.031 C 
BRANCH  21  22
HETATM   22  C27 UNL     1       9.881  18.365  13.385  1.00  0.00    -0.024 C 
HETATM   23  C28 UNL     1      10.453  19.486  13.782  1.00  0.00    -0.091 C 
HETATM   24  C29 UNL     1      11.908  19.585  14.080  1.00  0.00     0.042 C 
HETATM   25  C30 UNL     1       9.630  20.713  13.943  1.00  0.00     0.042 C 
ENDBRANCH  21  22
ENDBRANCH  20  21
ENDBRANCH  18  20
ENDBRANCH  16  17
ENDBRANCH  13  16
ENDBRANCH   6   7
ENDBRANCH   4   5
ENDBRANCH   2   4
BRANCH   1  26
HETATM   26  C2  UNL     1      20.641  23.606  19.851  1.00  0.00     0.126 C 
HETATM   27  C1  UNL     1      21.041  24.574  20.893  1.00  0.00     0.027 C 
ENDBRANCH   1  26
BRANCH   1  28
HETATM   28  C3  UNL     1      18.325  24.373  19.367  1.00  0.00     0.097 C 
BRANCH  28  29
HETATM   29  C4  UNL     1      18.281  24.987  18.044  1.00  0.00     0.165 C 
HETATM   30  C5  UNL     1      17.142  24.311  17.290  1.00  0.00     0.041 A 
HETATM   31  C6  UNL     1      17.682  23.701  16.220  1.00  0.00     0.096 A 
HETATM   32  C9  UNL     1      15.796  24.010  17.344  1.00  0.00     0.153 A 
HETATM   33  C7  UNL     1      16.629  23.004  15.614  1.00  0.00     0.160 A 
HETATM   34  C10 UNL     1      19.084  24.092  16.080  1.00  0.00     0.260 C 
HETATM   35  N2  UNL     1      15.486  23.196  16.301  1.00  0.00    -0.312 N 
HETATM   36  C8  UNL     1      14.172  22.639  15.985  1.00  0.00     0.160 C 
HETATM   37  O3  UNL     1      19.807  23.632  15.153  1.00  0.00    -0.267 OA
HETATM   38  N3  UNL     1      19.347  25.003  17.133  1.00  0.00    -0.325 N 
BRANCH  33  39
HETATM   39  O1  UNL     1      16.772  22.230  14.468  1.00  0.00    -0.345 OA
ATOM     40  H1  UNL     1      16.142  22.217  13.757  1.00  0.00     0.219 HD
ENDBRANCH  33  39
BRANCH  38  41
HETATM   41  C11 UNL     1      20.532  25.871  17.140  1.00  0.00     0.136 C 
HETATM   42  C12 UNL     1      20.481  26.939  18.232  1.00  0.00     0.195 C 
HETATM   43  O4  UNL     1      21.291  27.720  17.370  1.00  0.00    -0.387 OA
HETATM   44  C13 UNL     1      20.570  27.082  16.325  1.00  0.00     0.195 C 
ENDBRANCH  38  41
BRANCH  32  45
HETATM   45  O2  UNL     1      14.881  24.455  18.304  1.00  0.00    -0.345 OA
ATOM     46  H2  UNL     1      13.941  24.537  18.194  1.00  0.00     0.219 HD
ENDBRANCH  32  45
ENDBRANCH  28  29
ENDBRANCH   1  28
TORSDOF 14
ENDMDL
MODEL 3
REMARK VINA RESULT: -9.321046639      2.826     10.711
REMARK  14 active torsions:
REMARK  status: ('A' for Active; 'I' for Inactive)
REMARK    1  A    between atoms: C2_2  and  N1_3 
REMARK    2  A    between atoms: N1_3  and  C3_4 
REMARK       I    between atoms: N1_3  and  C14_23 
REMARK    3  A    between atoms: C3_4  and  C4_5 
REMARK    4  A    between atoms: C7_8  and  O1_9 
REMARK    5  A    between atoms: C9_13  and  O2_14 
REMARK    6  A    between atoms: N3_18  and  C11_19 
REMARK    7  A    between atoms: C14_23  and  C15_25 
REMARK    8  A    between atoms: C15_25  and  C16_26 
REMARK    9  A    between atoms: C17_27  and  C18_28 
REMARK       I    between atoms: C18_28  and  N4_30 
REMARK   10  A    between atoms: N5_33  and  C21_34 
REMARK   11  A    between atoms: C21_34  and  C22_35 
REMARK   12  A    between atoms: C23_36  and  C25_38 
REMARK   13  A    between atoms: C25_38  and  C26_39 
REMARK   14  A    between atoms: C26_39  and  C27_40 
ROOT
HETATM    1  N1  UNL     1      19.154  23.332  19.707  1.00  0.00    -0.330 N 
HETATM    2  C14 UNL     1      18.711  21.992  19.775  1.00  0.00     0.226 C 
HETATM    3  O5  UNL     1      19.528  21.063  19.935  1.00  0.00    -0.273 OA
ENDROOT
BRANCH   2   4
HETATM    4  C15 UNL     1      17.273  21.669  19.660  1.00  0.00     0.130 C 
BRANCH   4   5
HETATM    5  C16 UNL     1      17.063  20.645  18.632  1.00  0.00    -0.012 C 
HETATM    6  C17 UNL     1      15.961  20.102  18.269  1.00  0.00     0.070 C 
BRANCH   6   7
HETATM    7  C18 UNL     1      14.599  20.260  18.683  1.00  0.00     0.243 C 
HETATM    8  O6  UNL     1      14.164  21.381  19.043  1.00  0.00    -0.268 OA
HETATM    9  N4  UNL     1      13.675  19.172  18.714  1.00  0.00    -0.345 N 
HETATM   10  C19 UNL     1      14.069  17.827  18.318  1.00  0.00     0.146 C 
HETATM   11  C33 UNL     1      12.324  19.380  19.155  1.00  0.00     0.151 C 
HETATM   12  C20 UNL     1      12.859  16.895  18.598  1.00  0.00     0.142 C 
HETATM   13  N5  UNL     1      11.798  17.430  17.847  1.00  0.00    -0.383 N 
HETATM   14  C31 UNL     1      11.276  18.628  18.381  1.00  0.00     0.097 C 
HETATM   15  C32 UNL     1      10.732  19.565  17.309  1.00  0.00     0.034 C 
BRANCH  13  16
HETATM   16  C21 UNL     1      10.889  16.533  17.221  1.00  0.00     0.086 C 
BRANCH  16  17
HETATM   17  C22 UNL     1      11.192  16.179  15.848  1.00  0.00     0.019 C 
HETATM   18  C23 UNL     1      11.018  14.922  15.402  1.00  0.00    -0.082 C 
HETATM   19  C24 UNL     1      10.503  13.889  16.350  1.00  0.00     0.043 C 
BRANCH  18  20
HETATM   20  C25 UNL     1      11.288  14.583  13.994  1.00  0.00     0.037 C 
BRANCH  20  21
HETATM   21  C26 UNL     1      11.953  15.629  13.197  1.00  0.00     0.031 C 
BRANCH  21  22
HETATM   22  C27 UNL     1      11.921  15.470  11.732  1.00  0.00    -0.024 C 
HETATM   23  C28 UNL     1      12.980  15.564  10.950  1.00  0.00    -0.091 C 
HETATM   24  C29 UNL     1      14.344  15.845  11.476  1.00  0.00     0.042 C 
HETATM   25  C30 UNL     1      12.829  15.384   9.483  1.00  0.00     0.042 C 
ENDBRANCH  21  22
ENDBRANCH  20  21
ENDBRANCH  18  20
ENDBRANCH  16  17
ENDBRANCH  13  16
ENDBRANCH   6   7
ENDBRANCH   4   5
ENDBRANCH   2   4
BRANCH   1  26
HETATM   26  C2  UNL     1      20.604  23.517  19.860  1.00  0.00     0.126 C 
HETATM   27  C1  UNL     1      21.021  24.626  20.743  1.00  0.00     0.027 C 
ENDBRANCH   1  26
BRANCH   1  28
HETATM   28  C3  UNL     1      18.350  24.427  19.336  1.00  0.00     0.097 C 
BRANCH  28  29
HETATM   29  C4  UNL     1      18.301  25.014  18.002  1.00  0.00     0.165 C 
HETATM   30  C5  UNL     1      17.155  24.329  17.268  1.00  0.00     0.041 A 
HETATM   31  C6  UNL     1      17.686  23.696  16.207  1.00  0.00     0.096 A 
HETATM   32  C9  UNL     1      15.808  24.034  17.336  1.00  0.00     0.153 A 
HETATM   33  C7  UNL     1      16.627  22.991  15.621  1.00  0.00     0.160 A 
HETATM   34  C10 UNL     1      19.088  24.079  16.051  1.00  0.00     0.260 C 
HETATM   35  N2  UNL     1      15.488  23.201  16.311  1.00  0.00    -0.312 N 
HETATM   36  C8  UNL     1      14.170  22.643  16.014  1.00  0.00     0.160 C 
HETATM   37  O3  UNL     1      19.804  23.598  15.129  1.00  0.00    -0.267 OA
HETATM   38  N3  UNL     1      19.361  25.009  17.084  1.00  0.00    -0.325 N 
BRANCH  33  39
HETATM   39  O1  UNL     1      16.759  22.195  14.489  1.00  0.00    -0.345 OA
ATOM     40  H1  UNL     1      16.067  22.063  13.852  1.00  0.00     0.219 HD
ENDBRANCH  33  39
BRANCH  38  41
HETATM   41  C11 UNL     1      20.550  25.872  17.067  1.00  0.00     0.136 C 
HETATM   42  C12 UNL     1      20.482  26.997  18.100  1.00  0.00     0.195 C 
HETATM   43  O4  UNL     1      21.312  27.728  17.213  1.00  0.00    -0.387 OA
HETATM   44  C13 UNL     1      20.608  27.038  16.190  1.00  0.00     0.195 C 
ENDBRANCH  38  41
BRANCH  32  45
HETATM   45  O2  UNL     1      14.900  24.501  18.293  1.00  0.00    -0.345 OA
ATOM     46  H2  UNL     1      15.074  25.144  18.971  1.00  0.00     0.219 HD
ENDBRANCH  32  45
ENDBRANCH  28  29
ENDBRANCH   1  28
TORSDOF 14
ENDMDL
MODEL 4
REMARK VINA RESULT: -9.315146774      1.584      4.340
REMARK  14 active torsions:
REMARK  status: ('A' for Active; 'I' for Inactive)
REMARK    1  A    between atoms: C2_2  and  N1_3 
REMARK    2  A    between atoms: N1_3  and  C3_4 
REMARK       I    between atoms: N1_3  and  C14_23 
REMARK    3  A    between atoms: C3_4  and  C4_5 
REMARK    4  A    between atoms: C7_8  and  O1_9 
REMARK    5  A    between atoms: C9_13  and  O2_14 
REMARK    6  A    between atoms: N3_18  and  C11_19 
REMARK    7  A    between atoms: C14_23  and  C15_25 
REMARK    8  A    between atoms: C15_25  and  C16_26 
REMARK    9  A    between atoms: C17_27  and  C18_28 
REMARK       I    between atoms: C18_28  and  N4_30 
REMARK   10  A    between atoms: N5_33  and  C21_34 
REMARK   11  A    between atoms: C21_34  and  C22_35 
REMARK   12  A    between atoms: C23_36  and  C25_38 
REMARK   13  A    between atoms: C25_38  and  C26_39 
REMARK   14  A    between atoms: C26_39  and  C27_40 
ROOT
HETATM    1  N1  UNL     1      15.015  20.137  18.839  1.00  0.00    -0.330 N 
HETATM    2  C14 UNL     1      15.611  21.055  19.734  1.00  0.00     0.226 C 
HETATM    3  O5  UNL     1      15.293  21.062  20.939  1.00  0.00    -0.273 OA
ENDROOT
BRANCH   2   4
HETATM    4  C15 UNL     1      16.622  22.022  19.255  1.00  0.00     0.130 C 
BRANCH   4   5
HETATM    5  C16 UNL     1      17.896  21.341  19.001  1.00  0.00    -0.012 C 
HETATM    6  C17 UNL     1      19.053  21.631  19.465  1.00  0.00     0.070 C 
BRANCH   6   7
HETATM    7  C18 UNL     1      19.537  22.649  20.348  1.00  0.00     0.243 C 
HETATM    8  O6  UNL     1      19.534  22.475  21.591  1.00  0.00    -0.268 OA
HETATM    9  N4  UNL     1      20.040  23.900  19.876  1.00  0.00    -0.345 N 
HETATM   10  C19 UNL     1      20.092  24.211  18.454  1.00  0.00     0.146 C 
HETATM   11  C33 UNL     1      20.497  24.895  20.804  1.00  0.00     0.151 C 
HETATM   12  C20 UNL     1      20.568  25.683  18.326  1.00  0.00     0.142 C 
HETATM   13  N5  UNL     1      21.816  25.726  18.972  1.00  0.00    -0.383 N 
HETATM   14  C31 UNL     1      21.726  25.650  20.378  1.00  0.00     0.097 C 
HETATM   15  C32 UNL     1      22.932  24.966  21.011  1.00  0.00     0.034 C 
BRANCH  13  16
HETATM   16  C21 UNL     1      22.840  26.542  18.416  1.00  0.00     0.086 C 
BRANCH  16  17
HETATM   17  C22 UNL     1      22.401  27.572  17.495  1.00  0.00     0.019 C 
HETATM   18  C23 UNL     1      23.028  27.765  16.321  1.00  0.00    -0.082 C 
HETATM   19  C24 UNL     1      24.192  26.894  15.978  1.00  0.00     0.043 C 
BRANCH  18  20
HETATM   20  C25 UNL     1      22.547  28.785  15.374  1.00  0.00     0.037 C 
BRANCH  20  21
HETATM   21  C26 UNL     1      21.949  28.275  14.128  1.00  0.00     0.031 C 
BRANCH  21  22
HETATM   22  C27 UNL     1      20.494  28.036  14.137  1.00  0.00    -0.024 C 
HETATM   23  C28 UNL     1      19.936  26.851  14.304  1.00  0.00    -0.091 C 
HETATM   24  C29 UNL     1      20.732  25.610  14.505  1.00  0.00     0.042 C 
HETATM   25  C30 UNL     1      18.456  26.729  14.298  1.00  0.00     0.042 C 
ENDBRANCH  21  22
ENDBRANCH  20  21
ENDBRANCH  18  20
ENDBRANCH  16  17
ENDBRANCH  13  16
ENDBRANCH   6   7
ENDBRANCH   4   5
ENDBRANCH   2   4
BRANCH   1  26
HETATM   26  C2  UNL     1      14.045  19.216  19.449  1.00  0.00     0.126 C 
HETATM   27  C1  UNL     1      14.162  17.800  19.044  1.00  0.00     0.027 C 
ENDBRANCH   1  26
BRANCH   1  28
HETATM   28  C3  UNL     1      15.153  20.174  17.439  1.00  0.00     0.097 C 
BRANCH  28  29
HETATM   29  C4  UNL     1      14.493  21.130  16.558  1.00  0.00     0.165 C 
HETATM   30  C5  UNL     1      13.167  20.500  16.149  1.00  0.00     0.041 A 
HETATM   31  C6  UNL     1      13.195  20.351  14.812  1.00  0.00     0.096 A 
HETATM   32  C9  UNL     1      12.004  19.939  16.637  1.00  0.00     0.153 A 
HETATM   33  C7  UNL     1      12.014  19.674  14.485  1.00  0.00     0.160 A 
HETATM   34  C10 UNL     1      14.365  21.033  14.261  1.00  0.00     0.260 C 
HETATM   35  N2  UNL     1      11.294  19.426  15.598  1.00  0.00    -0.312 N 
HETATM   36  C8  UNL     1      10.005  18.742  15.670  1.00  0.00     0.160 C 
HETATM   37  O3  UNL     1      14.614  21.018  13.023  1.00  0.00    -0.267 OA
HETATM   38  N3  UNL     1      15.033  21.624  15.362  1.00  0.00    -0.325 N 
BRANCH  33  39
HETATM   39  O1  UNL     1      11.659  19.318  13.189  1.00  0.00    -0.345 OA
ATOM     40  H1  UNL     1      10.819  18.943  12.955  1.00  0.00     0.219 HD
ENDBRANCH  33  39
BRANCH  38  41
HETATM   41  C11 UNL     1      16.055  22.665  15.190  1.00  0.00     0.136 C 
HETATM   42  C12 UNL     1      17.448  22.208  15.625  1.00  0.00     0.195 C 
HETATM   43  O4  UNL     1      17.701  23.574  15.907  1.00  0.00    -0.387 OA
HETATM   44  C13 UNL     1      16.325  23.623  16.259  1.00  0.00     0.195 C 
ENDBRANCH  38  41
BRANCH  32  45
HETATM   45  O2  UNL     1      11.600  19.892  17.975  1.00  0.00    -0.345 OA
ATOM     46  H2  UNL     1      10.749  20.141  18.318  1.00  0.00     0.219 HD
ENDBRANCH  32  45
ENDBRANCH  28  29
ENDBRANCH   1  28
TORSDOF 14
ENDMDL
MODEL 5
REMARK VINA RESULT: -9.114982529      2.058      3.866
REMARK  14 active torsions:
REMARK  status: ('A' for Active; 'I' for Inactive)
REMARK    1  A    between atoms: C2_2  and  N1_3 
REMARK    2  A    between atoms: N1_3  and  C3_4 
REMARK       I    between atoms: N1_3  and  C14_23 
REMARK    3  A    between atoms: C3_4  and  C4_5 
REMARK    4  A    between atoms: C7_8  and  O1_9 
REMARK    5  A    between atoms: C9_13  and  O2_14 
REMARK    6  A    between atoms: N3_18  and  C11_19 
REMARK    7  A    between atoms: C14_23  and  C15_25 
REMARK    8  A    between atoms: C15_25  and  C16_26 
REMARK    9  A    between atoms: C17_27  and  C18_28 
REMARK       I    between atoms: C18_28  and  N4_30 
REMARK   10  A    between atoms: N5_33  and  C21_34 
REMARK   11  A    between atoms: C21_34  and  C22_35 
REMARK   12  A    between atoms: C23_36  and  C25_38 
REMARK   13  A    between atoms: C25_38  and  C26_39 
REMARK   14  A    between atoms: C26_39  and  C27_40 
ROOT
HETATM    1  N1  UNL     1      13.860  20.623  14.643  1.00  0.00    -0.330 N 
HETATM    2  C14 UNL     1      14.962  21.443  14.311  1.00  0.00     0.226 C 
HETATM    3  O5  UNL     1      15.152  21.802  13.132  1.00  0.00    -0.273 OA
ENDROOT
BRANCH   2   4
HETATM    4  C15 UNL     1      15.907  21.891  15.357  1.00  0.00     0.130 C 
BRANCH   4   5
HETATM    5  C16 UNL     1      16.597  23.112  14.928  1.00  0.00    -0.012 C 
HETATM    6  C17 UNL     1      17.146  24.008  15.661  1.00  0.00     0.070 C 
BRANCH   6   7
HETATM    7  C18 UNL     1      17.298  24.171  17.075  1.00  0.00     0.243 C 
HETATM    8  O6  UNL     1      16.300  24.143  17.835  1.00  0.00    -0.268 OA
HETATM    9  N4  UNL     1      18.570  24.373  17.693  1.00  0.00    -0.345 N 
HETATM   10  C19 UNL     1      19.797  24.423  16.910  1.00  0.00     0.146 C 
HETATM   11  C33 UNL     1      18.666  24.549  19.115  1.00  0.00     0.151 C 
HETATM   12  C20 UNL     1      20.948  24.781  17.887  1.00  0.00     0.142 C 
HETATM   13  N5  UNL     1      20.929  23.772  18.866  1.00  0.00    -0.383 N 
HETATM   14  C31 UNL     1      19.845  23.878  19.763  1.00  0.00     0.097 C 
HETATM   15  C32 UNL     1      19.376  22.524  20.285  1.00  0.00     0.034 C 
BRANCH  13  16
HETATM   16  C21 UNL     1      22.169  23.300  19.379  1.00  0.00     0.086 C 
BRANCH  16  17
HETATM   17  C22 UNL     1      22.559  23.820  20.674  1.00  0.00     0.019 C 
HETATM   18  C23 UNL     1      23.855  23.988  20.992  1.00  0.00    -0.082 C 
HETATM   19  C24 UNL     1      24.894  23.630  19.981  1.00  0.00     0.043 C 
BRANCH  18  20
HETATM   20  C25 UNL     1      24.239  24.557  22.295  1.00  0.00     0.037 C 
BRANCH  20  21
HETATM   21  C26 UNL     1      23.988  26.000  22.466  1.00  0.00     0.031 C 
BRANCH  21  22
HETATM   22  C27 UNL     1      23.241  26.408  23.670  1.00  0.00    -0.024 C 
HETATM   23  C28 UNL     1      22.067  27.011  23.648  1.00  0.00    -0.091 C 
HETATM   24  C29 UNL     1      21.362  27.348  22.382  1.00  0.00     0.042 C 
HETATM   25  C30 UNL     1      21.404  27.375  24.926  1.00  0.00     0.042 C 
ENDBRANCH  21  22
ENDBRANCH  20  21
ENDBRANCH  18  20
ENDBRANCH  16  17
ENDBRANCH  13  16
ENDBRANCH   6   7
ENDBRANCH   4   5
ENDBRANCH   2   4
BRANCH   1  26
HETATM   26  C2  UNL     1      12.986  20.270  13.514  1.00  0.00     0.126 C 
HETATM   27  C1  UNL     1      13.068  18.869  13.052  1.00  0.00     0.027 C 
ENDBRANCH   1  26
BRANCH   1  28
HETATM   28  C3  UNL     1      13.665  20.004  15.892  1.00  0.00     0.097 C 
BRANCH  28  29
HETATM   29  C4  UNL     1      12.658  20.396  16.871  1.00  0.00     0.165 C 
HETATM   30  C5  UNL     1      13.329  20.321  18.237  1.00  0.00     0.041 A 
HETATM   31  C6  UNL     1      12.661  19.402  18.957  1.00  0.00     0.096 A 
HETATM   32  C9  UNL     1      14.412  20.762  18.972  1.00  0.00     0.153 A 
HETATM   33  C7  UNL     1      13.367  19.281  20.160  1.00  0.00     0.160 A 
HETATM   34  C10 UNL     1      11.449  18.999  18.245  1.00  0.00     0.260 C 
HETATM   35  N2  UNL     1      14.429  20.110  20.163  1.00  0.00    -0.312 N 
HETATM   36  C8  UNL     1      15.406  20.275  21.238  1.00  0.00     0.160 C 
HETATM   37  O3  UNL     1      10.665  18.130  18.718  1.00  0.00    -0.267 OA
HETATM   38  N3  UNL     1      11.422  19.759  17.049  1.00  0.00    -0.325 N 
BRANCH  33  39
HETATM   39  O1  UNL     1      13.002  18.419  21.188  1.00  0.00    -0.345 OA
ATOM     40  H1  UNL     1      12.791  18.705  22.069  1.00  0.00     0.219 HD
ENDBRANCH  33  39
BRANCH  38  41
HETATM   41  C11 UNL     1      10.208  19.888  16.231  1.00  0.00     0.136 C 
HETATM   42  C12 UNL     1      10.228  18.992  14.992  1.00  0.00     0.195 C 
HETATM   43  O4  UNL     1       9.390  19.967  14.395  1.00  0.00    -0.387 OA
HETATM   44  C13 UNL     1      10.129  20.896  15.177  1.00  0.00     0.195 C 
ENDBRANCH  38  41
BRANCH  32  45
HETATM   45  O2  UNL     1      15.351  21.721  18.576  1.00  0.00    -0.345 OA
ATOM     46  H2  UNL     1      15.197  22.457  17.996  1.00  0.00     0.219 HD
ENDBRANCH  32  45
ENDBRANCH  28  29
ENDBRANCH   1  28
TORSDOF 14
ENDMDL
