MODEL 1
REMARK VINA RESULT: -8.693779377      0.000      0.000
REMARK  16 active torsions:
REMARK  status: ('A' for Active; 'I' for Inactive)
REMARK    1  A    between atoms: N1_6  and  C6_7 
REMARK    2  A    between atoms: C6_7  and  O1_8 
REMARK    3  A    between atoms: C6_7  and  C7_10 
REMARK    4  A    between atoms: C10_13  and  C11_14 
REMARK    5  A    between atoms: C11_14  and  N2_15 
REMARK    6  A    between atoms: C12_16  and  C13_17 
REMARK    7  A    between atoms: C13_17  and  C14_18 
REMARK    8  A    between atoms: C18_24  and  C19_25 
REMARK    9  A    between atoms: C19_25  and  O3_27 
REMARK   10  A    between atoms: O3_27  and  C20_28 
REMARK   11  A    between atoms: C20_28  and  C21_29 
REMARK       I    between atoms: C21_29  and  N4_31 
REMARK   12  A    between atoms: C25_40  and  N7_41 
REMARK   13  A    between atoms: N7_41  and  C26_43 
REMARK   14  A    between atoms: C26_43  and  C27_44 
REMARK   15  A    between atoms: C27_44  and  C28_45 
REMARK   16  A    between atoms: C28_45  and  O5_46 
ROOT
HETATM    1  N2  UNL     1      14.300  21.407  18.420  1.00  0.00    -0.317 N 
HETATM    2  C12 UNL     1      14.915  21.190  19.579  1.00  0.00     0.085 A 
HETATM    3  N3  UNL     1      14.549  20.068  20.281  1.00  0.00    -0.348 N 
ATOM      4  H3  UNL     1      14.997  19.870  21.175  1.00  0.00     0.167 HD
HETATM    5  C16 UNL     1      13.618  19.232  19.815  1.00  0.00     0.026 A 
HETATM    6  C17 UNL     1      13.219  17.999  20.594  1.00  0.00     0.069 C 
HETATM    7  C18 UNL     1      12.979  19.426  18.634  1.00  0.00     0.105 A 
HETATM    8  C25 UNL     1      13.339  20.588  17.881  1.00  0.00     0.123 A 
ENDROOT
BRANCH   1   9
HETATM    9  C11 UNL     1      14.596  22.625  17.696  1.00  0.00     0.178 C 
BRANCH   9  10
HETATM   10  C10 UNL     1      16.019  22.692  17.228  1.00  0.00     0.002 A 
HETATM   11  C9  UNL     1      16.833  21.809  16.610  1.00  0.00     0.018 A 
HETATM   12  C8  UNL     1      18.112  22.185  16.349  1.00  0.00     0.024 A 
HETATM   13  C7  UNL     1      18.497  23.435  16.728  1.00  0.00     0.056 A 
HETATM   14  S1  UNL     1      17.025  24.041  17.447  1.00  0.00    -0.089 SA
BRANCH  13  15
HETATM   15  C6  UNL     1      19.745  24.175  16.611  1.00  0.00     0.155 C 
BRANCH  15  16
HETATM   16  N1  UNL     1      20.537  24.744  17.593  1.00  0.00    -0.357 N 
HETATM   17  C5  UNL     1      21.055  23.932  18.720  1.00  0.00     0.125 C 
HETATM   18  C4  UNL     1      20.505  24.497  20.032  1.00  0.00     0.024 C 
HETATM   19  C3  UNL     1      20.996  25.919  20.185  1.00  0.00     0.036 C 
HETATM   20  C2  UNL     1      21.608  26.394  18.934  1.00  0.00    -0.071 C 
HETATM   21  C1  UNL     1      22.747  27.043  18.946  1.00  0.00     0.016 C 
HETATM   22  C30 UNL     1      20.903  26.127  17.630  1.00  0.00     0.158 C 
ENDBRANCH  15  16
BRANCH  15  23
HETATM   23  O1  UNL     1      20.177  24.320  15.393  1.00  0.00    -0.345 OA
ATOM     24  H1  UNL     1      19.656  23.893  14.723  1.00  0.00     0.219 HD
ENDBRANCH  15  23
ENDBRANCH  13  15
ENDBRANCH   9  10
ENDBRANCH   1   9
BRANCH   2  25
HETATM   25  C13 UNL     1      16.033  21.985  20.159  1.00  0.00     0.076 C 
BRANCH  25  26
HETATM   26  C14 UNL     1      17.208  21.131  20.562  1.00  0.00     0.003 C 
HETATM   27  C15 UNL     1      18.521  21.452  19.969  1.00  0.00     0.005 C 
ENDBRANCH  25  26
ENDBRANCH   2  25
BRANCH   8  28
HETATM   28  N7  UNL     1      12.763  20.710  16.803  1.00  0.00    -0.375 N 
ATOM     29  H7  UNL     1      12.109  21.463  17.015  1.00  0.00     0.161 HD
BRANCH  28  30
HETATM   30  C26 UNL     1      12.462  20.463  15.512  1.00  0.00     0.123 C 
BRANCH  30  31
HETATM   31  C27 UNL     1      12.113  21.728  14.682  1.00  0.00     0.046 C 
BRANCH  31  32
HETATM   32  C28 UNL     1      13.358  22.354  14.144  1.00  0.00     0.168 C 
BRANCH  32  33
HETATM   33  O5  UNL     1      14.448  21.527  14.207  1.00  0.00    -0.396 OA
HETATM   34  C29 UNL     1      15.270  21.534  13.104  1.00  0.00     0.201 C 
ENDBRANCH  32  33
ENDBRANCH  31  32
ENDBRANCH  30  31
ENDBRANCH  28  30
ENDBRANCH   8  28
BRANCH   7  35
HETATM   35  C19 UNL     1      11.955  18.536  18.103  1.00  0.00     0.299 C 
HETATM   36  O2  UNL     1      10.756  18.830  18.305  1.00  0.00    -0.259 OA
BRANCH  35  37
HETATM   37  O3  UNL     1      12.241  17.386  17.394  1.00  0.00    -0.308 OA
BRANCH  37  38
HETATM   38  C20 UNL     1      11.459  16.210  17.601  1.00  0.00     0.282 C 
BRANCH  38  39
HETATM   39  C21 UNL     1      10.903  15.698  16.344  1.00  0.00     0.260 C 
HETATM   40  O4  UNL     1      11.123  14.480  16.007  1.00  0.00    -0.270 OA
HETATM   41  N4  UNL     1      10.124  16.460  15.447  1.00  0.00    -0.158 N 
HETATM   42  C22 UNL     1      10.616  17.028  14.427  1.00  0.00     0.684 A 
ATOM     43  H4  UNL     1       9.125  16.557  15.627  1.00  0.00     0.187 HD
HETATM   44  N5  UNL     1       9.890  17.770  13.543  1.00  0.00    -0.200 N 
HETATM   45  N6  UNL     1      11.880  17.027  14.019  1.00  0.00    -0.200 N 
HETATM   46  C23 UNL     1      10.717  18.228  12.584  1.00  0.00     0.123 A 
ATOM     47  H5  UNL     1       8.888  17.948  13.599  1.00  0.00     0.183 HD
HETATM   48  C24 UNL     1      11.983  17.763  12.875  1.00  0.00     0.123 A 
ATOM     49  H6  UNL     1      12.651  16.551  14.487  1.00  0.00     0.183 HD
ENDBRANCH  38  39
ENDBRANCH  37  38
ENDBRANCH  35  37
ENDBRANCH   7  35
TORSDOF 16
ENDMDL
MODEL 2
REMARK VINA RESULT: -8.687116397      2.081      2.720
REMARK  16 active torsions:
REMARK  status: ('A' for Active; 'I' for Inactive)
REMARK    1  A    between atoms: N1_6  and  C6_7 
REMARK    2  A    between atoms: C6_7  and  O1_8 
REMARK    3  A    between atoms: C6_7  and  C7_10 
REMARK    4  A    between atoms: C10_13  and  C11_14 
REMARK    5  A    between atoms: C11_14  and  N2_15 
REMARK    6  A    between atoms: C12_16  and  C13_17 
REMARK    7  A    between atoms: C13_17  and  C14_18 
REMARK    8  A    between atoms: C18_24  and  C19_25 
REMARK    9  A    between atoms: C19_25  and  O3_27 
REMARK   10  A    between atoms: O3_27  and  C20_28 
REMARK   11  A    between atoms: C20_28  and  C21_29 
REMARK       I    between atoms: C21_29  and  N4_31 
REMARK   12  A    between atoms: C25_40  and  N7_41 
REMARK   13  A    between atoms: N7_41  and  C26_43 
REMARK   14  A    between atoms: C26_43  and  C27_44 
REMARK   15  A    between atoms: C27_44  and  C28_45 
REMARK   16  A    between atoms: C28_45  and  O5_46 
ROOT
HETATM    1  N2  UNL     1      16.733  20.802  18.192  1.00  0.00    -0.317 N 
HETATM    2  C12 UNL     1      17.296  21.080  19.365  1.00  0.00     0.085 A 
HETATM    3  N3  UNL     1      16.548  20.839  20.491  1.00  0.00    -0.348 N 
ATOM      4  H3  UNL     1      16.945  21.041  21.408  1.00  0.00     0.167 HD
HETATM    5  C16 UNL     1      15.310  20.343  20.408  1.00  0.00     0.026 A 
HETATM    6  C17 UNL     1      14.491  20.082  21.651  1.00  0.00     0.069 C 
HETATM    7  C18 UNL     1      14.714  20.047  19.226  1.00  0.00     0.105 A 
HETATM    8  C25 UNL     1      15.469  20.289  18.036  1.00  0.00     0.123 A 
ENDROOT
BRANCH   1   9
HETATM    9  C11 UNL     1      17.458  21.127  16.983  1.00  0.00     0.178 C 
BRANCH   9  10
HETATM   10  C10 UNL     1      17.523  22.602  16.722  1.00  0.00     0.002 A 
HETATM   11  C9  UNL     1      16.760  23.646  17.112  1.00  0.00     0.018 A 
HETATM   12  C8  UNL     1      17.082  24.885  16.658  1.00  0.00     0.024 A 
HETATM   13  C7  UNL     1      18.161  24.999  15.834  1.00  0.00     0.056 A 
HETATM   14  S1  UNL     1      18.685  23.336  15.728  1.00  0.00    -0.089 SA
BRANCH  13  15
HETATM   15  C6  UNL     1      18.800  26.129  15.176  1.00  0.00     0.155 C 
BRANCH  15  16
HETATM   16  N1  UNL     1      19.968  26.800  15.495  1.00  0.00    -0.357 N 
HETATM   17  C5  UNL     1      20.277  28.119  14.892  1.00  0.00     0.125 C 
HETATM   18  C4  UNL     1      21.571  28.003  14.083  1.00  0.00     0.024 C 
HETATM   19  C3  UNL     1      22.691  27.617  15.022  1.00  0.00     0.036 C 
HETATM   20  C2  UNL     1      22.156  27.221  16.334  1.00  0.00    -0.071 C 
HETATM   21  C1  UNL     1      22.701  27.658  17.443  1.00  0.00     0.016 C 
HETATM   22  C30 UNL     1      20.967  26.297  16.387  1.00  0.00     0.158 C 
ENDBRANCH  15  16
BRANCH  15  23
HETATM   23  O1  UNL     1      18.173  26.570  14.126  1.00  0.00    -0.345 OA
ATOM     24  H1  UNL     1      18.582  26.367  13.292  1.00  0.00     0.219 HD
ENDBRANCH  15  23
ENDBRANCH  13  15
ENDBRANCH   9  10
ENDBRANCH   1   9
BRANCH   2  25
HETATM   25  C13 UNL     1      18.694  21.538  19.599  1.00  0.00     0.076 C 
BRANCH  25  26
HETATM   26  C14 UNL     1      18.800  22.538  20.721  1.00  0.00     0.003 C 
HETATM   27  C15 UNL     1      18.529  23.954  20.402  1.00  0.00     0.005 C 
ENDBRANCH  25  26
ENDBRANCH   2  25
BRANCH   8  28
HETATM   28  N7  UNL     1      14.908  19.976  16.988  1.00  0.00    -0.375 N 
ATOM     29  H7  UNL     1      15.100  18.974  16.956  1.00  0.00     0.161 HD
BRANCH  28  30
HETATM   30  C26 UNL     1      14.196  20.139  15.856  1.00  0.00     0.123 C 
BRANCH  30  31
HETATM   31  C27 UNL     1      13.624  21.569  15.659  1.00  0.00     0.046 C 
BRANCH  31  32
HETATM   32  C28 UNL     1      14.481  22.343  14.711  1.00  0.00     0.168 C 
BRANCH  32  33
HETATM   33  O5  UNL     1      15.441  21.579  14.105  1.00  0.00    -0.396 OA
HETATM   34  C29 UNL     1      15.408  21.553  12.730  1.00  0.00     0.201 C 
ENDBRANCH  32  33
ENDBRANCH  31  32
ENDBRANCH  30  31
ENDBRANCH  28  30
ENDBRANCH   8  28
BRANCH   7  35
HETATM   35  C19 UNL     1      13.364  19.513  19.103  1.00  0.00     0.299 C 
HETATM   36  O2  UNL     1      12.465  20.275  18.685  1.00  0.00    -0.259 OA
BRANCH  35  37
HETATM   37  O3  UNL     1      13.028  18.213  19.428  1.00  0.00    -0.308 OA
BRANCH  37  38
HETATM   38  C20 UNL     1      13.147  17.182  18.448  1.00  0.00     0.282 C 
BRANCH  38  39
HETATM   39  C21 UNL     1      11.859  16.884  17.813  1.00  0.00     0.260 C 
HETATM   40  O4  UNL     1      11.565  15.670  17.522  1.00  0.00    -0.270 OA
HETATM   41  N4  UNL     1      10.888  17.854  17.483  1.00  0.00    -0.158 N 
HETATM   42  C22 UNL     1      10.787  18.354  16.323  1.00  0.00     0.684 A 
ATOM     43  H4  UNL     1      10.242  18.166  18.209  1.00  0.00     0.187 HD
HETATM   44  N5  UNL     1       9.861  19.292  15.975  1.00  0.00    -0.200 N 
HETATM   45  N6  UNL     1      11.524  18.089  15.250  1.00  0.00    -0.200 N 
HETATM   46  C23 UNL     1      10.032  19.605  14.676  1.00  0.00     0.123 A 
ATOM     47  H5  UNL     1       9.157  19.690  16.594  1.00  0.00     0.183 HD
HETATM   48  C24 UNL     1      11.085  18.847  14.205  1.00  0.00     0.123 A 
ATOM     49  H6  UNL     1      12.296  17.423  15.214  1.00  0.00     0.183 HD
ENDBRANCH  38  39
ENDBRANCH  37  38
ENDBRANCH  35  37
ENDBRANCH   7  35
TORSDOF 16
ENDMDL
MODEL 3
REMARK VINA RESULT: -8.630029451      3.080     11.450
REMARK  16 active torsions:
REMARK  status: ('A' for Active; 'I' for Inactive)
REMARK    1  A    between atoms: N1_6  and  C6_7 
REMARK    2  A    between atoms: C6_7  and  O1_8 
REMARK    3  A    between atoms: C6_7  and  C7_10 
REMARK    4  A    between atoms: C10_13  and  C11_14 
REMARK    5  A    between atoms: C11_14  and  N2_15 
REMARK    6  A    between atoms: C12_16  and  C13_17 
REMARK    7  A    between atoms: C13_17  and  C14_18 
REMARK    8  A    between atoms: C18_24  and  C19_25 
REMARK    9  A    between atoms: C19_25  and  O3_27 
REMARK   10  A    between atoms: O3_27  and  C20_28 
REMARK   11  A    between atoms: C20_28  and  C21_29 
REMARK       I    between atoms: C21_29  and  N4_31 
REMARK   12  A    between atoms: C25_40  and  N7_41 
REMARK   13  A    between atoms: N7_41  and  C26_43 
REMARK   14  A    between atoms: C26_43  and  C27_44 
REMARK   15  A    between atoms: C27_44  and  C28_45 
REMARK   16  A    between atoms: C28_45  and  O5_46 
ROOT
HETATM    1  N2  UNL     1      19.589  23.473  17.968  1.00  0.00    -0.317 N 
HETATM    2  C12 UNL     1      19.557  23.006  19.213  1.00  0.00     0.085 A 
HETATM    3  N3  UNL     1      20.179  23.757  20.180  1.00  0.00    -0.348 N 
ATOM      4  H3  UNL     1      20.177  23.430  21.145  1.00  0.00     0.167 HD
HETATM    5  C16 UNL     1      20.786  24.908  19.879  1.00  0.00     0.026 A 
HETATM    6  C17 UNL     1      21.471  25.729  20.948  1.00  0.00     0.069 C 
HETATM    7  C18 UNL     1      20.830  25.410  18.619  1.00  0.00     0.105 A 
HETATM    8  C25 UNL     1      20.191  24.648  17.591  1.00  0.00     0.123 A 
ENDROOT
BRANCH   1   9
HETATM    9  C11 UNL     1      19.021  22.664  16.911  1.00  0.00     0.178 C 
BRANCH   9  10
HETATM   10  C10 UNL     1      17.522  22.707  16.887  1.00  0.00     0.002 A 
HETATM   11  C9  UNL     1      16.618  23.658  17.206  1.00  0.00     0.018 A 
HETATM   12  C8  UNL     1      15.298  23.354  17.100  1.00  0.00     0.024 A 
HETATM   13  C7  UNL     1      14.967  22.103  16.675  1.00  0.00     0.056 A 
HETATM   14  S1  UNL     1      16.546  21.394  16.440  1.00  0.00    -0.089 SA
BRANCH  13  15
HETATM   15  C6  UNL     1      13.697  21.433  16.434  1.00  0.00     0.155 C 
BRANCH  15  16
HETATM   16  N1  UNL     1      13.198  20.255  16.962  1.00  0.00    -0.357 N 
HETATM   17  C5  UNL     1      12.085  19.534  16.298  1.00  0.00     0.125 C 
HETATM   18  C4  UNL     1      10.894  19.472  17.257  1.00  0.00     0.024 C 
HETATM   19  C3  UNL     1      11.311  18.703  18.491  1.00  0.00     0.036 C 
HETATM   20  C2  UNL     1      12.767  18.493  18.504  1.00  0.00    -0.071 C 
HETATM   21  C1  UNL     1      13.276  17.323  18.806  1.00  0.00     0.016 C 
HETATM   22  C30 UNL     1      13.673  19.649  18.168  1.00  0.00     0.158 C 
ENDBRANCH  15  16
BRANCH  15  23
HETATM   23  O1  UNL     1      12.915  22.041  15.592  1.00  0.00    -0.345 OA
ATOM     24  H1  UNL     1      13.346  22.648  15.001  1.00  0.00     0.219 HD
ENDBRANCH  15  23
ENDBRANCH  13  15
ENDBRANCH   9  10
ENDBRANCH   1   9
BRANCH   2  25
HETATM   25  C13 UNL     1      18.833  21.797  19.695  1.00  0.00     0.076 C 
BRANCH  25  26
HETATM   26  C14 UNL     1      17.618  22.135  20.521  1.00  0.00     0.003 C 
HETATM   27  C15 UNL     1      16.388  21.356  20.277  1.00  0.00     0.005 C 
ENDBRANCH  25  26
ENDBRANCH   2  25
BRANCH   8  28
HETATM   28  N7  UNL     1      20.223  25.152  16.471  1.00  0.00    -0.375 N 
ATOM     29  H7  UNL     1      21.221  25.337  16.370  1.00  0.00     0.161 HD
BRANCH  28  30
HETATM   30  C26 UNL     1      19.754  25.612  15.294  1.00  0.00     0.123 C 
BRANCH  30  31
HETATM   31  C27 UNL     1      20.670  26.659  14.604  1.00  0.00     0.046 C 
BRANCH  31  32
HETATM   32  C28 UNL     1      20.188  28.042  14.898  1.00  0.00     0.168 C 
BRANCH  32  33
HETATM   33  O5  UNL     1      21.186  28.884  15.308  1.00  0.00    -0.396 OA
HETATM   34  C29 UNL     1      22.452  28.573  14.868  1.00  0.00     0.201 C 
ENDBRANCH  32  33
ENDBRANCH  31  32
ENDBRANCH  30  31
ENDBRANCH  28  30
ENDBRANCH   8  28
BRANCH   7  35
HETATM   35  C19 UNL     1      21.491  26.657  18.259  1.00  0.00     0.299 C 
HETATM   36  O2  UNL     1      20.862  27.726  18.424  1.00  0.00    -0.259 OA
BRANCH  35  37
HETATM   37  O3  UNL     1      22.771  26.719  17.744  1.00  0.00    -0.308 OA
BRANCH  37  38
HETATM   38  C20 UNL     1      23.688  25.653  17.989  1.00  0.00     0.282 C 
BRANCH  38  39
HETATM   39  C21 UNL     1      25.080  26.085  17.830  1.00  0.00     0.260 C 
HETATM   40  O4  UNL     1      25.874  26.041  18.837  1.00  0.00    -0.270 OA
HETATM   41  N4  UNL     1      25.635  26.562  16.622  1.00  0.00    -0.158 N 
HETATM   42  C22 UNL     1      25.737  27.797  16.358  1.00  0.00     0.684 A 
ATOM     43  H4  UNL     1      25.966  25.885  15.935  1.00  0.00     0.187 HD
HETATM   44  N5  UNL     1      26.266  28.289  15.202  1.00  0.00    -0.200 N 
HETATM   45  N6  UNL     1      25.367  28.829  17.109  1.00  0.00    -0.200 N 
HETATM   46  C23 UNL     1      26.221  29.634  15.245  1.00  0.00     0.123 A 
ATOM     47  H5  UNL     1      26.636  27.730  14.433  1.00  0.00     0.183 HD
HETATM   48  C24 UNL     1      25.652  29.989  16.450  1.00  0.00     0.123 A 
ATOM     49  H6  UNL     1      24.937  28.763  18.032  1.00  0.00     0.183 HD
ENDBRANCH  38  39
ENDBRANCH  37  38
ENDBRANCH  35  37
ENDBRANCH   7  35
TORSDOF 16
ENDMDL
MODEL 4
REMARK VINA RESULT: -8.623348467      3.420     11.279
REMARK  16 active torsions:
REMARK  status: ('A' for Active; 'I' for Inactive)
REMARK    1  A    between atoms: N1_6  and  C6_7 
REMARK    2  A    between atoms: C6_7  and  O1_8 
REMARK    3  A    between atoms: C6_7  and  C7_10 
REMARK    4  A    between atoms: C10_13  and  C11_14 
REMARK    5  A    between atoms: C11_14  and  N2_15 
REMARK    6  A    between atoms: C12_16  and  C13_17 
REMARK    7  A    between atoms: C13_17  and  C14_18 
REMARK    8  A    between atoms: C18_24  and  C19_25 
REMARK    9  A    between atoms: C19_25  and  O3_27 
REMARK   10  A    between atoms: O3_27  and  C20_28 
REMARK   11  A    between atoms: C20_28  and  C21_29 
REMARK       I    between atoms: C21_29  and  N4_31 
REMARK   12  A    between atoms: C25_40  and  N7_41 
REMARK   13  A    between atoms: N7_41  and  C26_43 
REMARK   14  A    between atoms: C26_43  and  C27_44 
REMARK   15  A    between atoms: C27_44  and  C28_45 
REMARK   16  A    between atoms: C28_45  and  O5_46 
ROOT
HETATM    1  N2  UNL     1      18.668  23.364  16.368  1.00  0.00    -0.317 N 
HETATM    2  C12 UNL     1      17.622  23.444  15.551  1.00  0.00     0.085 A 
HETATM    3  N3  UNL     1      17.460  24.617  14.854  1.00  0.00    -0.348 N 
ATOM      4  H3  UNL     1      16.669  24.716  14.219  1.00  0.00     0.167 HD
HETATM    5  C16 UNL     1      18.320  25.629  14.993  1.00  0.00     0.026 A 
HETATM    6  C17 UNL     1      18.134  26.919  14.225  1.00  0.00     0.069 C 
HETATM    7  C18 UNL     1      19.397  25.573  15.816  1.00  0.00     0.105 A 
HETATM    8  C25 UNL     1      19.591  24.364  16.555  1.00  0.00     0.123 A 
ENDROOT
BRANCH   1   9
HETATM    9  C11 UNL     1      18.820  22.178  17.184  1.00  0.00     0.178 C 
BRANCH   9  10
HETATM   10  C10 UNL     1      17.713  22.013  18.181  1.00  0.00     0.002 A 
HETATM   11  C9  UNL     1      17.218  22.806  19.156  1.00  0.00     0.018 A 
HETATM   12  C8  UNL     1      16.205  22.328  19.924  1.00  0.00     0.024 A 
HETATM   13  C7  UNL     1      15.748  21.071  19.663  1.00  0.00     0.056 A 
HETATM   14  S1  UNL     1      16.776  20.606  18.329  1.00  0.00    -0.089 SA
BRANCH  13  15
HETATM   15  C6  UNL     1      14.701  20.247  20.248  1.00  0.00     0.155 C 
BRANCH  15  16
HETATM   16  N1  UNL     1      13.595  19.660  19.656  1.00  0.00    -0.357 N 
HETATM   17  C5  UNL     1      12.776  18.666  20.391  1.00  0.00     0.125 C 
HETATM   18  C4  UNL     1      12.823  17.334  19.640  1.00  0.00     0.024 C 
HETATM   19  C3  UNL     1      12.231  17.537  18.264  1.00  0.00     0.036 C 
HETATM   20  C2  UNL     1      12.048  18.970  17.984  1.00  0.00    -0.071 C 
HETATM   21  C1  UNL     1      10.936  19.414  17.450  1.00  0.00     0.016 C 
HETATM   22  C30 UNL     1      13.162  19.926  18.319  1.00  0.00     0.158 C 
ENDBRANCH  15  16
BRANCH  15  23
HETATM   23  O1  UNL     1      14.830  20.032  21.524  1.00  0.00    -0.345 OA
ATOM     24  H1  UNL     1      14.106  19.574  21.935  1.00  0.00     0.219 HD
ENDBRANCH  15  23
ENDBRANCH  13  15
ENDBRANCH   9  10
ENDBRANCH   1   9
BRANCH   2  25
HETATM   25  C13 UNL     1      16.653  22.359  15.232  1.00  0.00     0.076 C 
BRANCH  25  26
HETATM   26  C14 UNL     1      15.226  22.843  15.198  1.00  0.00     0.003 C 
HETATM   27  C15 UNL     1      14.534  23.019  16.490  1.00  0.00     0.005 C 
ENDBRANCH  25  26
ENDBRANCH   2  25
BRANCH   8  28
HETATM   28  N7  UNL     1      20.595  24.339  17.262  1.00  0.00    -0.375 N 
ATOM     29  H7  UNL     1      21.310  24.093  16.577  1.00  0.00     0.161 HD
BRANCH  28  30
HETATM   30  C26 UNL     1      21.336  24.437  18.384  1.00  0.00     0.123 C 
BRANCH  30  31
HETATM   31  C27 UNL     1      20.524  24.297  19.701  1.00  0.00     0.046 C 
BRANCH  31  32
HETATM   32  C28 UNL     1      20.942  25.345  20.681  1.00  0.00     0.168 C 
BRANCH  32  33
HETATM   33  O5  UNL     1      21.268  26.536  20.090  1.00  0.00    -0.396 OA
HETATM   34  C29 UNL     1      21.438  27.602  20.943  1.00  0.00     0.201 C 
ENDBRANCH  32  33
ENDBRANCH  31  32
ENDBRANCH  30  31
ENDBRANCH  28  30
ENDBRANCH   8  28
BRANCH   7  35
HETATM   35  C19 UNL     1      20.347  26.663  15.993  1.00  0.00     0.299 C 
HETATM   36  O2  UNL     1      20.212  27.407  16.990  1.00  0.00    -0.259 OA
BRANCH  35  37
HETATM   37  O3  UNL     1      21.385  26.918  15.117  1.00  0.00    -0.308 OA
BRANCH  37  38
HETATM   38  C20 UNL     1      21.798  28.262  14.876  1.00  0.00     0.282 C 
BRANCH  38  39
HETATM   39  C21 UNL     1      23.057  28.575  15.559  1.00  0.00     0.260 C 
HETATM   40  O4  UNL     1      24.042  29.043  14.883  1.00  0.00    -0.270 OA
HETATM   41  N4  UNL     1      23.282  28.396  16.941  1.00  0.00    -0.158 N 
HETATM   42  C22 UNL     1      23.851  27.368  17.414  1.00  0.00     0.684 A 
ATOM     43  H4  UNL     1      22.973  29.124  17.585  1.00  0.00     0.187 HD
HETATM   44  N5  UNL     1      24.081  27.166  18.742  1.00  0.00    -0.200 N 
HETATM   45  N6  UNL     1      24.321  26.315  16.753  1.00  0.00    -0.200 N 
HETATM   46  C23 UNL     1      24.698  25.979  18.897  1.00  0.00     0.123 A 
ATOM     47  H5  UNL     1      23.829  27.807  19.493  1.00  0.00     0.183 HD
HETATM   48  C24 UNL     1      24.856  25.430  17.642  1.00  0.00     0.123 A 
ATOM     49  H6  UNL     1      24.287  26.190  15.741  1.00  0.00     0.183 HD
ENDBRANCH  38  39
ENDBRANCH  37  38
ENDBRANCH  35  37
ENDBRANCH   7  35
TORSDOF 16
ENDMDL
MODEL 5
REMARK VINA RESULT: -8.573338483      1.183      1.725
REMARK  16 active torsions:
REMARK  status: ('A' for Active; 'I' for Inactive)
REMARK    1  A    between atoms: N1_6  and  C6_7 
REMARK    2  A    between atoms: C6_7  and  O1_8 
REMARK    3  A    between atoms: C6_7  and  C7_10 
REMARK    4  A    between atoms: C10_13  and  C11_14 
REMARK    5  A    between atoms: C11_14  and  N2_15 
REMARK    6  A    between atoms: C12_16  and  C13_17 
REMARK    7  A    between atoms: C13_17  and  C14_18 
REMARK    8  A    between atoms: C18_24  and  C19_25 
REMARK    9  A    between atoms: C19_25  and  O3_27 
REMARK   10  A    between atoms: O3_27  and  C20_28 
REMARK   11  A    between atoms: C20_28  and  C21_29 
REMARK       I    between atoms: C21_29  and  N4_31 
REMARK   12  A    between atoms: C25_40  and  N7_41 
REMARK   13  A    between atoms: N7_41  and  C26_43 
REMARK   14  A    between atoms: C26_43  and  C27_44 
REMARK   15  A    between atoms: C27_44  and  C28_45 
REMARK   16  A    between atoms: C28_45  and  O5_46 
ROOT
HETATM    1  N2  UNL     1      14.254  21.319  18.385  1.00  0.00    -0.317 N 
HETATM    2  C12 UNL     1      14.850  21.131  19.559  1.00  0.00     0.085 A 
HETATM    3  N3  UNL     1      14.478  20.024  20.281  1.00  0.00    -0.348 N 
ATOM      4  H3  UNL     1      14.912  19.847  21.186  1.00  0.00     0.167 HD
HETATM    5  C16 UNL     1      13.557  19.174  19.819  1.00  0.00     0.026 A 
HETATM    6  C17 UNL     1      13.149  17.958  20.620  1.00  0.00     0.069 C 
HETATM    7  C18 UNL     1      12.936  19.338  18.624  1.00  0.00     0.105 A 
HETATM    8  C25 UNL     1      13.304  20.483  17.851  1.00  0.00     0.123 A 
ENDROOT
BRANCH   1   9
HETATM    9  C11 UNL     1      14.557  22.521  17.639  1.00  0.00     0.178 C 
BRANCH   9  10
HETATM   10  C10 UNL     1      15.993  22.592  17.210  1.00  0.00     0.002 A 
HETATM   11  C9  UNL     1      16.836  21.701  16.645  1.00  0.00     0.018 A 
HETATM   12  C8  UNL     1      18.117  22.086  16.410  1.00  0.00     0.024 A 
HETATM   13  C7  UNL     1      18.475  23.353  16.759  1.00  0.00     0.056 A 
HETATM   14  S1  UNL     1      16.974  23.961  17.415  1.00  0.00    -0.089 SA
BRANCH  13  15
HETATM   15  C6  UNL     1      19.715  24.106  16.655  1.00  0.00     0.155 C 
BRANCH  15  16
HETATM   16  N1  UNL     1      20.504  24.663  17.647  1.00  0.00    -0.357 N 
HETATM   17  C5  UNL     1      20.795  26.117  17.662  1.00  0.00     0.125 C 
HETATM   18  C4  UNL     1      22.305  26.322  17.529  1.00  0.00     0.024 C 
HETATM   19  C3  UNL     1      22.984  25.673  18.715  1.00  0.00     0.036 C 
HETATM   20  C2  UNL     1      22.032  24.838  19.465  1.00  0.00    -0.071 C 
HETATM   21  C1  UNL     1      21.980  24.888  20.773  1.00  0.00     0.016 C 
HETATM   22  C30 UNL     1      21.115  23.917  18.704  1.00  0.00     0.158 C 
ENDBRANCH  15  16
BRANCH  15  23
HETATM   23  O1  UNL     1      20.145  24.278  15.440  1.00  0.00    -0.345 OA
ATOM     24  H1  UNL     1      20.819  23.671  15.157  1.00  0.00     0.219 HD
ENDBRANCH  15  23
ENDBRANCH  13  15
ENDBRANCH   9  10
ENDBRANCH   1   9
BRANCH   2  25
HETATM   25  C13 UNL     1      15.957  21.942  20.139  1.00  0.00     0.076 C 
BRANCH  25  26
HETATM   26  C14 UNL     1      17.162  21.112  20.500  1.00  0.00     0.003 C 
HETATM   27  C15 UNL     1      18.491  21.644  20.137  1.00  0.00     0.005 C 
ENDBRANCH  25  26
ENDBRANCH   2  25
BRANCH   8  28
HETATM   28  N7  UNL     1      12.745  20.579  16.761  1.00  0.00    -0.375 N 
ATOM     29  H7  UNL     1      11.858  21.002  17.033  1.00  0.00     0.161 HD
BRANCH  28  30
HETATM   30  C26 UNL     1      12.580  20.469  15.427  1.00  0.00     0.123 C 
BRANCH  30  31
HETATM   31  C27 UNL     1      11.336  21.213  14.872  1.00  0.00     0.046 C 
BRANCH  31  32
HETATM   32  C28 UNL     1      10.086  20.645  15.463  1.00  0.00     0.168 C 
BRANCH  32  33
HETATM   33  O5  UNL     1       9.057  20.558  14.564  1.00  0.00    -0.396 OA
HETATM   34  C29 UNL     1       9.063  21.490  13.553  1.00  0.00     0.201 C 
ENDBRANCH  32  33
ENDBRANCH  31  32
ENDBRANCH  30  31
ENDBRANCH  28  30
ENDBRANCH   8  28
BRANCH   7  35
HETATM   35  C19 UNL     1      11.923  18.432  18.098  1.00  0.00     0.299 C 
HETATM   36  O2  UNL     1      10.722  18.699  18.319  1.00  0.00    -0.259 OA
BRANCH  35  37
HETATM   37  O3  UNL     1      12.224  17.296  17.372  1.00  0.00    -0.308 OA
BRANCH  37  38
HETATM   38  C20 UNL     1      11.440  16.116  17.543  1.00  0.00     0.282 C 
BRANCH  38  39
HETATM   39  C21 UNL     1      10.914  15.623  16.266  1.00  0.00     0.260 C 
HETATM   40  O4  UNL     1      11.163  14.417  15.904  1.00  0.00    -0.270 OA
HETATM   41  N4  UNL     1      10.133  16.390  15.374  1.00  0.00    -0.158 N 
HETATM   42  C22 UNL     1      10.629  16.991  14.375  1.00  0.00     0.684 A 
ATOM     43  H4  UNL     1       9.130  16.463  15.541  1.00  0.00     0.187 HD
HETATM   44  N5  UNL     1       9.903  17.740  13.497  1.00  0.00    -0.200 N 
HETATM   45  N6  UNL     1      11.899  17.025  13.987  1.00  0.00    -0.200 N 
HETATM   46  C23 UNL     1      10.735  18.236  12.562  1.00  0.00     0.123 A 
ATOM     47  H5  UNL     1       8.896  17.897  13.541  1.00  0.00     0.183 HD
HETATM   48  C24 UNL     1      12.005  17.789  12.862  1.00  0.00     0.123 A 
ATOM     49  H6  UNL     1      12.673  16.553  14.456  1.00  0.00     0.183 HD
ENDBRANCH  38  39
ENDBRANCH  37  38
ENDBRANCH  35  37
ENDBRANCH   7  35
TORSDOF 16
ENDMDL
