MODEL 1
REMARK VINA RESULT: -9.104501936      0.000      0.000
REMARK  16 active torsions:
REMARK  status: ('A' for Active; 'I' for Inactive)
REMARK    1  A    between atoms: C2_2  and  C3_3 
REMARK    2  A    between atoms: C3_3  and  N1_4 
REMARK    3  A    between atoms: N1_4  and  C4_6 
REMARK    4  A    between atoms: C5_9  and  N3_10 
REMARK    5  A    between atoms: N3_10  and  C6_12 
REMARK    6  A    between atoms: C6_12  and  C7_13 
REMARK    7  A    between atoms: C7_13  and  O1_14 
REMARK    8  A    between atoms: O1_14  and  C8_15 
REMARK    9  A    between atoms: C8_15  and  C9_16 
REMARK   10  A    between atoms: C9_16  and  N4_17 
REMARK       I    between atoms: N5_20  and  C12_21 
REMARK   11  A    between atoms: C12_21  and  C13_23 
REMARK   12  A    between atoms: C13_23  and  C14_24 
REMARK   13  A    between atoms: N7_34  and  C22_35 
REMARK   14  A    between atoms: C26_39  and  O3_40 
REMARK   15  A    between atoms: O3_40  and  C27_41 
REMARK   16  A    between atoms: C27_41  and  C28_43 
ROOT
HETATM    1  C4  UNL     1      16.132  21.400  17.721  1.00  0.00     0.681 A 
HETATM    2  N2  UNL     1      16.515  22.710  17.661  1.00  0.00    -0.175 N 
ATOM      3  H2  UNL     1      17.292  23.034  18.238  1.00  0.00     0.186 HD
HETATM    4  C5  UNL     1      15.881  23.578  16.850  1.00  0.00     0.147 A 
HETATM    5  C20 UNL     1      14.832  23.179  16.059  1.00  0.00     0.123 A 
HETATM    6  N6  UNL     1      14.022  23.755  15.187  1.00  0.00    -0.346 N 
ATOM      7  H6  UNL     1      14.046  24.738  14.914  1.00  0.00     0.167 HD
HETATM    8  C21 UNL     1      13.181  22.850  14.729  1.00  0.00     0.185 A 
HETATM    9  N7  UNL     1      13.403  21.616  15.288  1.00  0.00    -0.322 N 
HETATM   10  C32 UNL     1      14.449  21.829  16.129  1.00  0.00     0.155 A 
HETATM   11  N8  UNL     1      15.107  20.982  16.955  1.00  0.00    -0.174 N 
ATOM     12  H8  UNL     1      14.820  20.004  16.997  1.00  0.00     0.186 HD
ENDROOT
BRANCH   4  13
HETATM   13  N3  UNL     1      16.274  24.791  16.832  1.00  0.00    -0.372 N 
ATOM     14  H3  UNL     1      15.564  25.523  16.831  1.00  0.00     0.161 HD
BRANCH  13  15
HETATM   15  C6  UNL     1      17.656  25.195  16.813  1.00  0.00     0.147 C 
BRANCH  15  16
HETATM   16  C7  UNL     1      18.053  25.564  15.379  1.00  0.00     0.187 C 
BRANCH  16  17
HETATM   17  O1  UNL     1      19.259  26.204  15.301  1.00  0.00    -0.388 OA
BRANCH  17  18
HETATM   18  C8  UNL     1      19.954  26.327  16.493  1.00  0.00     0.198 C 
BRANCH  18  19
HETATM   19  C9  UNL     1      21.346  26.818  16.152  1.00  0.00     0.298 C 
BRANCH  19  20
HETATM   20  N4  UNL     1      22.007  27.425  17.263  1.00  0.00     0.093 N 
HETATM   21  C10 UNL     1      23.385  27.042  17.336  1.00  0.00     0.292 C 
HETATM   22  C11 UNL     1      23.631  25.677  17.920  1.00  0.00     0.156 C 
HETATM   23  N5  UNL     1      22.728  25.509  19.063  1.00  0.00    -0.349 N 
HETATM   24  C12 UNL     1      22.425  24.215  19.549  1.00  0.00     0.220 C 
HETATM   25  C18 UNL     1      22.201  26.745  19.616  1.00  0.00     0.156 C 
HETATM   26  O2  UNL     1      22.977  23.232  18.964  1.00  0.00    -0.273 OA
HETATM   27  C19 UNL     1      21.303  27.313  18.502  1.00  0.00     0.292 C 
BRANCH  24  28
HETATM   28  C13 UNL     1      21.517  23.964  20.677  1.00  0.00     0.111 C 
BRANCH  28  29
HETATM   29  C14 UNL     1      20.158  23.470  20.250  1.00  0.00    -0.043 C 
HETATM   30  C15 UNL     1      19.075  24.449  20.728  1.00  0.00     0.015 C 
HETATM   31  C16 UNL     1      20.023  23.425  18.744  1.00  0.00     0.015 C 
HETATM   32  C17 UNL     1      19.849  22.102  20.808  1.00  0.00     0.015 C 
ENDBRANCH  28  29
ENDBRANCH  24  28
ENDBRANCH  19  20
ENDBRANCH  18  19
ENDBRANCH  17  18
ENDBRANCH  16  17
ENDBRANCH  15  16
ENDBRANCH  13  15
ENDBRANCH   4  13
BRANCH   1  33
HETATM   33  N1  UNL     1      16.745  20.595  18.498  1.00  0.00    -0.223 N 
ATOM     34  H1  UNL     1      17.158  19.761  18.078  1.00  0.00     0.178 HD
BRANCH  33  35
HETATM   35  C3  UNL     1      16.898  20.765  19.893  1.00  0.00     0.164 C 
BRANCH  35  36
HETATM   36  C2  UNL     1      15.607  21.020  20.592  1.00  0.00    -0.017 C 
HETATM   37  C1  UNL     1      15.161  20.206  21.522  1.00  0.00     0.008 C 
ENDBRANCH  35  36
ENDBRANCH  33  35
ENDBRANCH   1  33
BRANCH   9  38
HETATM   38  C22 UNL     1      12.654  20.409  15.004  1.00  0.00     0.095 C 
HETATM   39  C23 UNL     1      11.454  20.694  14.196  1.00  0.00     0.026 C 
HETATM   40  C24 UNL     1      10.209  19.906  14.494  1.00  0.00     0.004 C 
HETATM   41  C25 UNL     1      10.011  19.527  15.927  1.00  0.00     0.033 C 
HETATM   42  C26 UNL     1      11.278  18.726  16.299  1.00  0.00     0.134 C 
HETATM   43  C31 UNL     1      12.369  19.751  16.334  1.00  0.00     0.058 C 
BRANCH  42  44
HETATM   44  O3  UNL     1      11.126  18.232  17.621  1.00  0.00    -0.316 OA
BRANCH  44  45
HETATM   45  C27 UNL     1      11.968  17.214  18.098  1.00  0.00     0.262 C 
HETATM   46  O4  UNL     1      11.898  16.126  17.477  1.00  0.00    -0.265 OA
BRANCH  45  47
HETATM   47  C28 UNL     1      12.881  17.415  19.257  1.00  0.00     0.077 C 
HETATM   48  C29 UNL     1      14.285  17.746  18.863  1.00  0.00     0.020 C 
HETATM   49  C30 UNL     1      12.336  18.430  20.234  1.00  0.00     0.020 C 
ENDBRANCH  45  47
ENDBRANCH  44  45
ENDBRANCH  42  44
ENDBRANCH   9  38
TORSDOF 16
ENDMDL
MODEL 2
REMARK VINA RESULT: -8.963184966      1.300      1.988
REMARK  16 active torsions:
REMARK  status: ('A' for Active; 'I' for Inactive)
REMARK    1  A    between atoms: C2_2  and  C3_3 
REMARK    2  A    between atoms: C3_3  and  N1_4 
REMARK    3  A    between atoms: N1_4  and  C4_6 
REMARK    4  A    between atoms: C5_9  and  N3_10 
REMARK    5  A    between atoms: N3_10  and  C6_12 
REMARK    6  A    between atoms: C6_12  and  C7_13 
REMARK    7  A    between atoms: C7_13  and  O1_14 
REMARK    8  A    between atoms: O1_14  and  C8_15 
REMARK    9  A    between atoms: C8_15  and  C9_16 
REMARK   10  A    between atoms: C9_16  and  N4_17 
REMARK       I    between atoms: N5_20  and  C12_21 
REMARK   11  A    between atoms: C12_21  and  C13_23 
REMARK   12  A    between atoms: C13_23  and  C14_24 
REMARK   13  A    between atoms: N7_34  and  C22_35 
REMARK   14  A    between atoms: C26_39  and  O3_40 
REMARK   15  A    between atoms: O3_40  and  C27_41 
REMARK   16  A    between atoms: C27_41  and  C28_43 
ROOT
HETATM    1  C4  UNL     1      15.079  21.652  18.957  1.00  0.00     0.681 A 
HETATM    2  N2  UNL     1      15.612  22.908  18.911  1.00  0.00    -0.175 N 
ATOM      3  H2  UNL     1      16.162  23.251  19.699  1.00  0.00     0.186 HD
HETATM    4  C5  UNL     1      15.421  23.701  17.839  1.00  0.00     0.147 A 
HETATM    5  C20 UNL     1      14.686  23.274  16.760  1.00  0.00     0.123 A 
HETATM    6  N6  UNL     1      14.319  23.783  15.596  1.00  0.00    -0.346 N 
ATOM      7  H6  UNL     1      14.557  24.714  15.253  1.00  0.00     0.167 HD
HETATM    8  C21 UNL     1      13.596  22.889  14.952  1.00  0.00     0.185 A 
HETATM    9  N7  UNL     1      13.453  21.731  15.676  1.00  0.00    -0.322 N 
HETATM   10  C32 UNL     1      14.144  21.980  16.819  1.00  0.00     0.155 A 
HETATM   11  N8  UNL     1      14.355  21.209  17.912  1.00  0.00    -0.174 N 
ATOM     12  H8  UNL     1      13.957  20.271  17.944  1.00  0.00     0.186 HD
ENDROOT
BRANCH   4  13
HETATM   13  N3  UNL     1      15.937  24.866  17.845  1.00  0.00    -0.372 N 
ATOM     14  H3  UNL     1      15.330  25.655  18.070  1.00  0.00     0.161 HD
BRANCH  13  15
HETATM   15  C6  UNL     1      17.320  25.143  17.556  1.00  0.00     0.147 C 
BRANCH  15  16
HETATM   16  C7  UNL     1      17.479  25.400  16.053  1.00  0.00     0.187 C 
BRANCH  16  17
HETATM   17  O1  UNL     1      18.468  24.651  15.479  1.00  0.00    -0.388 OA
BRANCH  17  18
HETATM   18  C8  UNL     1      19.746  24.864  15.969  1.00  0.00     0.198 C 
BRANCH  18  19
HETATM   19  C9  UNL     1      20.418  25.864  15.050  1.00  0.00     0.298 C 
BRANCH  19  20
HETATM   20  N4  UNL     1      20.704  27.105  15.695  1.00  0.00     0.093 N 
HETATM   21  C10 UNL     1      21.893  27.712  15.177  1.00  0.00     0.292 C 
HETATM   22  C11 UNL     1      23.178  27.131  15.701  1.00  0.00     0.156 C 
HETATM   23  N5  UNL     1      23.007  26.885  17.136  1.00  0.00    -0.349 N 
HETATM   24  C12 UNL     1      23.859  25.979  17.811  1.00  0.00     0.220 C 
HETATM   25  C18 UNL     1      21.926  27.627  17.762  1.00  0.00     0.156 C 
HETATM   26  O2  UNL     1      24.768  25.416  17.125  1.00  0.00    -0.273 OA
HETATM   27  C19 UNL     1      20.648  27.056  17.123  1.00  0.00     0.292 C 
BRANCH  24  28
HETATM   28  C13 UNL     1      23.740  25.665  19.242  1.00  0.00     0.111 C 
BRANCH  28  29
HETATM   29  C14 UNL     1      23.181  24.291  19.507  1.00  0.00    -0.043 C 
HETATM   30  C15 UNL     1      24.230  23.225  19.154  1.00  0.00     0.015 C 
HETATM   31  C16 UNL     1      22.873  24.081  20.974  1.00  0.00     0.015 C 
HETATM   32  C17 UNL     1      21.932  24.020  18.704  1.00  0.00     0.015 C 
ENDBRANCH  28  29
ENDBRANCH  24  28
ENDBRANCH  19  20
ENDBRANCH  18  19
ENDBRANCH  17  18
ENDBRANCH  16  17
ENDBRANCH  15  16
ENDBRANCH  13  15
ENDBRANCH   4  13
BRANCH   1  33
HETATM   33  N1  UNL     1      15.270  20.919  19.983  1.00  0.00    -0.223 N 
ATOM     34  H1  UNL     1      14.604  20.164  20.151  1.00  0.00     0.178 HD
BRANCH  33  35
HETATM   35  C3  UNL     1      16.330  21.068  20.907  1.00  0.00     0.164 C 
BRANCH  35  36
HETATM   36  C2  UNL     1      17.667  21.123  20.252  1.00  0.00    -0.017 C 
HETATM   37  C1  UNL     1      18.732  21.532  20.905  1.00  0.00     0.008 C 
ENDBRANCH  35  36
ENDBRANCH  33  35
ENDBRANCH   1  33
BRANCH   9  38
HETATM   38  C22 UNL     1      12.717  20.555  15.258  1.00  0.00     0.095 C 
HETATM   39  C23 UNL     1      11.555  20.912  14.423  1.00  0.00     0.026 C 
HETATM   40  C24 UNL     1      10.298  20.108  14.597  1.00  0.00     0.004 C 
HETATM   41  C25 UNL     1      10.033  19.612  15.983  1.00  0.00     0.033 C 
HETATM   42  C26 UNL     1      11.281  18.777  16.345  1.00  0.00     0.134 C 
HETATM   43  C31 UNL     1      12.370  19.790  16.514  1.00  0.00     0.058 C 
BRANCH  42  44
HETATM   44  O3  UNL     1      11.068  18.175  17.612  1.00  0.00    -0.316 OA
BRANCH  44  45
HETATM   45  C27 UNL     1      11.947  17.187  18.084  1.00  0.00     0.262 C 
HETATM   46  O4  UNL     1      11.923  16.102  17.452  1.00  0.00    -0.265 OA
BRANCH  45  47
HETATM   47  C28 UNL     1      12.845  17.411  19.250  1.00  0.00     0.077 C 
HETATM   48  C29 UNL     1      14.278  17.613  18.872  1.00  0.00     0.020 C 
HETATM   49  C30 UNL     1      12.352  18.533  20.133  1.00  0.00     0.020 C 
ENDBRANCH  45  47
ENDBRANCH  44  45
ENDBRANCH  42  44
ENDBRANCH   9  38
TORSDOF 16
ENDMDL
MODEL 3
REMARK VINA RESULT: -8.858406403      2.030     10.280
REMARK  16 active torsions:
REMARK  status: ('A' for Active; 'I' for Inactive)
REMARK    1  A    between atoms: C2_2  and  C3_3 
REMARK    2  A    between atoms: C3_3  and  N1_4 
REMARK    3  A    between atoms: N1_4  and  C4_6 
REMARK    4  A    between atoms: C5_9  and  N3_10 
REMARK    5  A    between atoms: N3_10  and  C6_12 
REMARK    6  A    between atoms: C6_12  and  C7_13 
REMARK    7  A    between atoms: C7_13  and  O1_14 
REMARK    8  A    between atoms: O1_14  and  C8_15 
REMARK    9  A    between atoms: C8_15  and  C9_16 
REMARK   10  A    between atoms: C9_16  and  N4_17 
REMARK       I    between atoms: N5_20  and  C12_21 
REMARK   11  A    between atoms: C12_21  and  C13_23 
REMARK   12  A    between atoms: C13_23  and  C14_24 
REMARK   13  A    between atoms: N7_34  and  C22_35 
REMARK   14  A    between atoms: C26_39  and  O3_40 
REMARK   15  A    between atoms: O3_40  and  C27_41 
REMARK   16  A    between atoms: C27_41  and  C28_43 
ROOT
HETATM    1  C4  UNL     1      17.545  24.581  18.599  1.00  0.00     0.681 A 
HETATM    2  N2  UNL     1      16.646  23.994  17.755  1.00  0.00    -0.175 N 
ATOM      3  H2  UNL     1      15.926  23.379  18.134  1.00  0.00     0.186 HD
HETATM    4  C5  UNL     1      16.698  24.218  16.427  1.00  0.00     0.147 A 
HETATM    5  C20 UNL     1      17.652  25.040  15.880  1.00  0.00     0.123 A 
HETATM    6  N6  UNL     1      17.971  25.454  14.666  1.00  0.00    -0.346 N 
ATOM      7  H6  UNL     1      17.489  25.195  13.805  1.00  0.00     0.167 HD
HETATM    8  C21 UNL     1      19.013  26.256  14.752  1.00  0.00     0.185 A 
HETATM    9  N7  UNL     1      19.434  26.410  16.050  1.00  0.00    -0.322 N 
HETATM   10  C32 UNL     1      18.570  25.638  16.760  1.00  0.00     0.155 A 
HETATM   11  N8  UNL     1      18.490  25.392  18.089  1.00  0.00    -0.174 N 
ATOM     12  H8  UNL     1      19.161  25.832  18.718  1.00  0.00     0.186 HD
ENDROOT
BRANCH   4  13
HETATM   13  N3  UNL     1      15.838  23.645  15.680  1.00  0.00    -0.372 N 
ATOM     14  H3  UNL     1      14.955  24.128  15.514  1.00  0.00     0.161 HD
BRANCH  13  15
HETATM   15  C6  UNL     1      16.031  22.362  15.057  1.00  0.00     0.147 C 
BRANCH  15  16
HETATM   16  C7  UNL     1      15.581  21.260  16.022  1.00  0.00     0.187 C 
BRANCH  16  17
HETATM   17  O1  UNL     1      16.593  20.783  16.807  1.00  0.00    -0.388 OA
BRANCH  17  18
HETATM   18  C8  UNL     1      16.222  20.334  18.064  1.00  0.00     0.198 C 
BRANCH  18  19
HETATM   19  C9  UNL     1      15.245  19.195  17.862  1.00  0.00     0.298 C 
BRANCH  19  20
HETATM   20  N4  UNL     1      14.227  19.153  18.864  1.00  0.00     0.093 N 
HETATM   21  C10 UNL     1      13.864  17.809  19.197  1.00  0.00     0.292 C 
HETATM   22  C11 UNL     1      12.940  17.142  18.214  1.00  0.00     0.156 C 
HETATM   23  N5  UNL     1      11.935  18.128  17.804  1.00  0.00    -0.349 N 
HETATM   24  C12 UNL     1      11.202  17.945  16.607  1.00  0.00     0.220 C 
HETATM   25  C18 UNL     1      11.778  19.257  18.706  1.00  0.00     0.156 C 
HETATM   26  O2  UNL     1      11.446  16.898  15.932  1.00  0.00    -0.273 OA
HETATM   27  C19 UNL     1      13.114  20.014  18.610  1.00  0.00     0.292 C 
BRANCH  24  28
HETATM   28  C13 UNL     1      10.192  18.896  16.120  1.00  0.00     0.111 C 
BRANCH  28  29
HETATM   29  C14 UNL     1      10.652  19.696  14.928  1.00  0.00    -0.043 C 
HETATM   30  C15 UNL     1       9.924  21.049  14.897  1.00  0.00     0.015 C 
HETATM   31  C16 UNL     1      12.125  20.034  15.010  1.00  0.00     0.015 C 
HETATM   32  C17 UNL     1      10.389  18.979  13.627  1.00  0.00     0.015 C 
ENDBRANCH  28  29
ENDBRANCH  24  28
ENDBRANCH  19  20
ENDBRANCH  18  19
ENDBRANCH  17  18
ENDBRANCH  16  17
ENDBRANCH  15  16
ENDBRANCH  13  15
ENDBRANCH   4  13
BRANCH   1  33
HETATM   33  N1  UNL     1      17.479  24.352  19.853  1.00  0.00    -0.223 N 
ATOM     34  H1  UNL     1      16.646  24.677  20.345  1.00  0.00     0.178 HD
BRANCH  33  35
HETATM   35  C3  UNL     1      18.467  23.686  20.614  1.00  0.00     0.164 C 
BRANCH  35  36
HETATM   36  C2  UNL     1      18.350  22.202  20.545  1.00  0.00    -0.017 C 
HETATM   37  C1  UNL     1      19.359  21.454  20.161  1.00  0.00     0.008 C 
ENDBRANCH  35  36
ENDBRANCH  33  35
ENDBRANCH   1  33
BRANCH   9  38
HETATM   38  C22 UNL     1      20.552  27.220  16.489  1.00  0.00     0.095 C 
HETATM   39  C23 UNL     1      21.135  27.988  15.374  1.00  0.00     0.026 C 
HETATM   40  C24 UNL     1      22.627  28.161  15.350  1.00  0.00     0.004 C 
HETATM   41  C25 UNL     1      23.420  27.016  15.897  1.00  0.00     0.033 C 
HETATM   42  C26 UNL     1      22.903  26.837  17.342  1.00  0.00     0.134 C 
HETATM   43  C31 UNL     1      21.521  26.287  17.177  1.00  0.00     0.058 C 
BRANCH  42  44
HETATM   44  O3  UNL     1      23.681  25.834  17.977  1.00  0.00    -0.316 OA
BRANCH  44  45
HETATM   45  C27 UNL     1      23.706  25.738  19.377  1.00  0.00     0.262 C 
HETATM   46  O4  UNL     1      24.120  26.760  19.978  1.00  0.00    -0.265 OA
BRANCH  45  47
HETATM   47  C28 UNL     1      23.271  24.511  20.099  1.00  0.00     0.077 C 
HETATM   48  C29 UNL     1      22.071  24.722  20.968  1.00  0.00     0.020 C 
HETATM   49  C30 UNL     1      23.063  23.348  19.158  1.00  0.00     0.020 C 
ENDBRANCH  45  47
ENDBRANCH  44  45
ENDBRANCH  42  44
ENDBRANCH   9  38
TORSDOF 16
ENDMDL
MODEL 4
REMARK VINA RESULT: -8.854696496      2.139     10.815
REMARK  16 active torsions:
REMARK  status: ('A' for Active; 'I' for Inactive)
REMARK    1  A    between atoms: C2_2  and  C3_3 
REMARK    2  A    between atoms: C3_3  and  N1_4 
REMARK    3  A    between atoms: N1_4  and  C4_6 
REMARK    4  A    between atoms: C5_9  and  N3_10 
REMARK    5  A    between atoms: N3_10  and  C6_12 
REMARK    6  A    between atoms: C6_12  and  C7_13 
REMARK    7  A    between atoms: C7_13  and  O1_14 
REMARK    8  A    between atoms: O1_14  and  C8_15 
REMARK    9  A    between atoms: C8_15  and  C9_16 
REMARK   10  A    between atoms: C9_16  and  N4_17 
REMARK       I    between atoms: N5_20  and  C12_21 
REMARK   11  A    between atoms: C12_21  and  C13_23 
REMARK   12  A    between atoms: C13_23  and  C14_24 
REMARK   13  A    between atoms: N7_34  and  C22_35 
REMARK   14  A    between atoms: C26_39  and  O3_40 
REMARK   15  A    between atoms: O3_40  and  C27_41 
REMARK   16  A    between atoms: C27_41  and  C28_43 
ROOT
HETATM    1  C4  UNL     1      17.583  21.977  17.072  1.00  0.00     0.681 A 
HETATM    2  N2  UNL     1      16.729  21.454  17.999  1.00  0.00    -0.175 N 
ATOM      3  H2  UNL     1      15.875  20.988  17.691  1.00  0.00     0.186 HD
HETATM    4  C5  UNL     1      16.999  21.544  19.316  1.00  0.00     0.147 A 
HETATM    5  C20 UNL     1      18.138  22.162  19.769  1.00  0.00     0.123 A 
HETATM    6  N6  UNL     1      18.681  22.415  20.947  1.00  0.00    -0.346 N 
ATOM      7  H6  UNL     1      18.288  22.152  21.851  1.00  0.00     0.167 HD
HETATM    8  C21 UNL     1      19.814  23.062  20.761  1.00  0.00     0.185 A 
HETATM    9  N7  UNL     1      20.073  23.267  19.428  1.00  0.00    -0.322 N 
HETATM   10  C32 UNL     1      19.009  22.696  18.804  1.00  0.00     0.155 A 
HETATM   11  N8  UNL     1      18.708  22.589  17.489  1.00  0.00    -0.174 N 
ATOM     12  H8  UNL     1      19.348  22.980  16.798  1.00  0.00     0.186 HD
ENDROOT
BRANCH   4  13
HETATM   13  N3  UNL     1      16.169  21.041  20.142  1.00  0.00    -0.372 N 
ATOM     14  H3  UNL     1      16.482  20.891  21.101  1.00  0.00     0.161 HD
BRANCH  13  15
HETATM   15  C6  UNL     1      14.818  20.670  19.811  1.00  0.00     0.147 C 
BRANCH  15  16
HETATM   16  C7  UNL     1      14.372  19.523  20.726  1.00  0.00     0.187 C 
BRANCH  16  17
HETATM   17  O1  UNL     1      13.949  18.419  20.039  1.00  0.00    -0.388 OA
BRANCH  17  18
HETATM   18  C8  UNL     1      13.728  18.600  18.684  1.00  0.00     0.198 C 
BRANCH  18  19
HETATM   19  C9  UNL     1      12.747  17.533  18.242  1.00  0.00     0.298 C 
BRANCH  19  20
HETATM   20  N4  UNL     1      11.415  18.029  18.103  1.00  0.00     0.093 N 
HETATM   21  C10 UNL     1      10.650  17.247  17.179  1.00  0.00     0.292 C 
HETATM   22  C11 UNL     1      10.923  17.538  15.728  1.00  0.00     0.156 C 
HETATM   23  N5  UNL     1      11.050  18.991  15.580  1.00  0.00    -0.349 N 
HETATM   24  C12 UNL     1      11.706  19.539  14.451  1.00  0.00     0.220 C 
HETATM   25  C18 UNL     1      10.466  19.773  16.656  1.00  0.00     0.156 C 
HETATM   26  O2  UNL     1      12.154  18.722  13.588  1.00  0.00    -0.273 OA
HETATM   27  C19 UNL     1      11.330  19.439  17.886  1.00  0.00     0.292 C 
BRANCH  24  28
HETATM   28  C13 UNL     1      11.889  20.982  14.240  1.00  0.00     0.111 C 
BRANCH  28  29
HETATM   29  C14 UNL     1      13.310  21.439  14.449  1.00  0.00    -0.043 C 
HETATM   30  C15 UNL     1      13.325  22.921  14.859  1.00  0.00     0.015 C 
HETATM   31  C16 UNL     1      13.979  20.701  15.588  1.00  0.00     0.015 C 
HETATM   32  C17 UNL     1      14.149  21.278  13.205  1.00  0.00     0.015 C 
ENDBRANCH  28  29
ENDBRANCH  24  28
ENDBRANCH  19  20
ENDBRANCH  18  19
ENDBRANCH  17  18
ENDBRANCH  16  17
ENDBRANCH  15  16
ENDBRANCH  13  15
ENDBRANCH   4  13
BRANCH   1  33
HETATM   33  N1  UNL     1      17.306  21.884  15.830  1.00  0.00    -0.223 N 
ATOM     34  H1  UNL     1      17.233  20.946  15.436  1.00  0.00     0.178 HD
BRANCH  33  35
HETATM   35  C3  UNL     1      17.094  22.976  14.956  1.00  0.00     0.164 C 
BRANCH  35  36
HETATM   36  C2  UNL     1      16.678  24.216  15.668  1.00  0.00    -0.017 C 
HETATM   37  C1  UNL     1      17.346  25.339  15.533  1.00  0.00     0.008 C 
ENDBRANCH  35  36
ENDBRANCH  33  35
ENDBRANCH   1  33
BRANCH   9  38
HETATM   38  C22 UNL     1      21.231  23.946  18.884  1.00  0.00     0.095 C 
HETATM   39  C23 UNL     1      22.261  24.171  19.914  1.00  0.00     0.026 C 
HETATM   40  C24 UNL     1      23.032  25.459  19.860  1.00  0.00     0.004 C 
HETATM   41  C25 UNL     1      22.273  26.648  19.365  1.00  0.00     0.033 C 
HETATM   42  C26 UNL     1      21.777  26.238  17.960  1.00  0.00     0.134 C 
HETATM   43  C31 UNL     1      20.724  25.208  18.224  1.00  0.00     0.058 C 
BRANCH  42  44
HETATM   44  O3  UNL     1      21.132  27.354  17.367  1.00  0.00    -0.316 OA
BRANCH  44  45
HETATM   45  C27 UNL     1      21.619  27.899  16.168  1.00  0.00     0.262 C 
HETATM   46  O4  UNL     1      22.686  28.552  16.269  1.00  0.00    -0.265 OA
BRANCH  45  47
HETATM   47  C28 UNL     1      20.918  27.713  14.867  1.00  0.00     0.077 C 
HETATM   48  C29 UNL     1      21.578  28.421  13.726  1.00  0.00     0.020 C 
HETATM   49  C30 UNL     1      20.701  26.253  14.547  1.00  0.00     0.020 C 
ENDBRANCH  45  47
ENDBRANCH  44  45
ENDBRANCH  42  44
ENDBRANCH   9  38
TORSDOF 16
ENDMDL
MODEL 5
REMARK VINA RESULT: -8.849798458      1.133      3.643
REMARK  16 active torsions:
REMARK  status: ('A' for Active; 'I' for Inactive)
REMARK    1  A    between atoms: C2_2  and  C3_3 
REMARK    2  A    between atoms: C3_3  and  N1_4 
REMARK    3  A    between atoms: N1_4  and  C4_6 
REMARK    4  A    between atoms: C5_9  and  N3_10 
REMARK    5  A    between atoms: N3_10  and  C6_12 
REMARK    6  A    between atoms: C6_12  and  C7_13 
REMARK    7  A    between atoms: C7_13  and  O1_14 
REMARK    8  A    between atoms: O1_14  and  C8_15 
REMARK    9  A    between atoms: C8_15  and  C9_16 
REMARK   10  A    between atoms: C9_16  and  N4_17 
REMARK       I    between atoms: N5_20  and  C12_21 
REMARK   11  A    between atoms: C12_21  and  C13_23 
REMARK   12  A    between atoms: C13_23  and  C14_24 
REMARK   13  A    between atoms: N7_34  and  C22_35 
REMARK   14  A    between atoms: C26_39  and  O3_40 
REMARK   15  A    between atoms: O3_40  and  C27_41 
REMARK   16  A    between atoms: C27_41  and  C28_43 
ROOT
HETATM    1  C4  UNL     1      14.188  23.152  15.944  1.00  0.00     0.681 A 
HETATM    2  N2  UNL     1      15.424  23.729  15.872  1.00  0.00    -0.175 N 
ATOM      3  H2  UNL     1      15.624  24.400  15.130  1.00  0.00     0.186 HD
HETATM    4  C5  UNL     1      16.381  23.425  16.770  1.00  0.00     0.147 A 
HETATM    5  C20 UNL     1      16.149  22.527  17.783  1.00  0.00     0.123 A 
HETATM    6  N6  UNL     1      16.844  22.024  18.788  1.00  0.00    -0.346 N 
ATOM      7  H6  UNL     1      17.812  22.253  19.014  1.00  0.00     0.167 HD
HETATM    8  C21 UNL     1      16.080  21.178  19.450  1.00  0.00     0.185 A 
HETATM    9  N7  UNL     1      14.825  21.086  18.901  1.00  0.00    -0.322 N 
HETATM   10  C32 UNL     1      14.873  21.941  17.846  1.00  0.00     0.155 A 
HETATM   11  N8  UNL     1      13.934  22.269  16.928  1.00  0.00    -0.174 N 
ATOM     12  H8  UNL     1      13.012  21.838  16.984  1.00  0.00     0.186 HD
ENDROOT
BRANCH   4  13
HETATM   13  N3  UNL     1      17.519  23.989  16.659  1.00  0.00    -0.372 N 
ATOM     14  H3  UNL     1      18.346  23.392  16.631  1.00  0.00     0.161 HD
BRANCH  13  15
HETATM   15  C6  UNL     1      17.714  25.413  16.572  1.00  0.00     0.147 C 
BRANCH  15  16
HETATM   16  C7  UNL     1      18.323  25.755  15.207  1.00  0.00     0.187 C 
BRANCH  16  17
HETATM   17  O1  UNL     1      19.670  25.984  15.259  1.00  0.00    -0.388 OA
BRANCH  17  18
HETATM   18  C8  UNL     1      20.136  26.569  16.425  1.00  0.00     0.198 C 
BRANCH  18  19
HETATM   19  C9  UNL     1      21.622  26.806  16.245  1.00  0.00     0.298 C 
BRANCH  19  20
HETATM   20  N4  UNL     1      22.234  27.387  17.397  1.00  0.00     0.093 N 
HETATM   21  C10 UNL     1      23.616  27.030  17.502  1.00  0.00     0.292 C 
HETATM   22  C11 UNL     1      23.872  25.651  18.047  1.00  0.00     0.156 C 
HETATM   23  N5  UNL     1      22.937  25.427  19.154  1.00  0.00    -0.349 N 
HETATM   24  C12 UNL     1      22.646  24.111  19.587  1.00  0.00     0.220 C 
HETATM   25  C18 UNL     1      22.367  26.632  19.731  1.00  0.00     0.156 C 
HETATM   26  O2  UNL     1      23.237  23.160  18.988  1.00  0.00    -0.273 OA
HETATM   27  C19 UNL     1      21.493  27.219  18.607  1.00  0.00     0.292 C 
BRANCH  24  28
HETATM   28  C13 UNL     1      21.707  23.804  20.675  1.00  0.00     0.111 C 
BRANCH  28  29
HETATM   29  C14 UNL     1      20.298  23.562  20.197  1.00  0.00    -0.043 C 
HETATM   30  C15 UNL     1      19.814  22.185  20.680  1.00  0.00     0.015 C 
HETATM   31  C16 UNL     1      19.325  24.559  20.786  1.00  0.00     0.015 C 
HETATM   32  C17 UNL     1      20.192  23.607  18.693  1.00  0.00     0.015 C 
ENDBRANCH  28  29
ENDBRANCH  24  28
ENDBRANCH  19  20
ENDBRANCH  18  19
ENDBRANCH  17  18
ENDBRANCH  16  17
ENDBRANCH  15  16
ENDBRANCH  13  15
ENDBRANCH   4  13
BRANCH   1  33
HETATM   33  N1  UNL     1      13.297  23.452  15.082  1.00  0.00    -0.223 N 
ATOM     34  H1  UNL     1      12.975  24.420  15.059  1.00  0.00     0.178 HD
BRANCH  33  35
HETATM   35  C3  UNL     1      12.721  22.552  14.156  1.00  0.00     0.164 C 
BRANCH  35  36
HETATM   36  C2  UNL     1      13.736  21.765  13.402  1.00  0.00    -0.017 C 
HETATM   37  C1  UNL     1      13.714  20.451  13.393  1.00  0.00     0.008 C 
ENDBRANCH  35  36
ENDBRANCH  33  35
ENDBRANCH   1  33
BRANCH   9  38
HETATM   38  C22 UNL     1      13.747  20.247  19.383  1.00  0.00     0.095 C 
HETATM   39  C23 UNL     1      14.162  19.453  20.554  1.00  0.00     0.026 C 
HETATM   40  C24 UNL     1      13.638  18.050  20.668  1.00  0.00     0.004 C 
HETATM   41  C25 UNL     1      13.436  17.328  19.374  1.00  0.00     0.033 C 
HETATM   42  C26 UNL     1      12.463  18.222  18.574  1.00  0.00     0.134 C 
HETATM   43  C31 UNL     1      13.278  19.422  18.207  1.00  0.00     0.058 C 
BRANCH  42  44
HETATM   44  O3  UNL     1      12.130  17.556  17.366  1.00  0.00    -0.316 OA
BRANCH  44  45
HETATM   45  C27 UNL     1      10.792  17.475  16.948  1.00  0.00     0.262 C 
HETATM   46  O4  UNL     1      10.072  16.683  17.604  1.00  0.00    -0.265 OA
BRANCH  45  47
HETATM   47  C28 UNL     1      10.264  18.273  15.807  1.00  0.00     0.077 C 
HETATM   48  C29 UNL     1      10.181  19.740  16.091  1.00  0.00     0.020 C 
HETATM   49  C30 UNL     1      11.031  18.009  14.532  1.00  0.00     0.020 C 
ENDBRANCH  45  47
ENDBRANCH  44  45
ENDBRANCH  42  44
ENDBRANCH   9  38
TORSDOF 16
ENDMDL
