MODEL 1
REMARK VINA RESULT: -9.662741774      0.000      0.000
REMARK  13 active torsions:
REMARK  status: ('A' for Active; 'I' for Inactive)
REMARK    1  A    between atoms: C2_2  and  C3_3 
REMARK    2  A    between atoms: C3_3  and  N1_4 
REMARK    3  A    between atoms: C6_7  and  N2_8 
REMARK    4  A    between atoms: N2_8  and  C8_10 
REMARK    5  A    between atoms: C10_12  and  O1_13 
REMARK    6  A    between atoms: C12_15  and  N3_16 
REMARK    7  A    between atoms: N3_16  and  C13_18 
REMARK    8  A    between atoms: N6_25  and  C16_27 
REMARK    9  A    between atoms: C16_27  and  C17_28 
REMARK   10  A    between atoms: C17_28  and  C18_29 
REMARK   11  A    between atoms: C18_29  and  N7_30 
REMARK   12  A    between atoms: C29_44  and  O2_45 
REMARK   13  A    between atoms: O2_45  and  C30_46 
ROOT
HETATM    1  C13 UNL     1      12.940 -18.904 -16.203  1.00  0.00     0.684 A 
HETATM    2  N4  UNL     1      14.229 -19.186 -16.356  1.00  0.00    -0.175 N 
ATOM      3  H4  UNL     1      14.767 -18.585 -16.980  1.00  0.00     0.186 HD
HETATM    4  C14 UNL     1      14.879 -20.188 -15.762  1.00  0.00     0.134 A 
HETATM    5  N5  UNL     1      16.168 -20.443 -15.915  1.00  0.00    -0.327 N 
ATOM      6  H5  UNL     1      16.700 -19.839 -16.541  1.00  0.00     0.169 HD
HETATM    7  C15 UNL     1      16.836 -21.459 -15.294  1.00  0.00     0.106 A 
HETATM    8  N6  UNL     1      18.050 -21.576 -15.532  1.00  0.00    -0.356 N 
ATOM      9  H6  UNL     1      18.348 -20.851 -16.186  1.00  0.00     0.166 HD
HETATM   10  C24 UNL     1      16.146 -22.295 -14.441  1.00  0.00     0.049 A 
HETATM   11  C25 UNL     1      14.801 -22.063 -14.255  1.00  0.00     0.020 A 
HETATM   12  C26 UNL     1      14.171 -21.027 -14.902  1.00  0.00     0.025 A 
HETATM   13  C27 UNL     1      12.816 -20.745 -14.734  1.00  0.00     0.121 A 
HETATM   14  N9  UNL     1      12.241 -19.717 -15.369  1.00  0.00    -0.201 N 
ATOM     15  H9  UNL     1      11.247 -19.537 -15.222  1.00  0.00     0.183 HD
ENDROOT
BRANCH   1  16
HETATM   16  N3  UNL     1      12.300 -17.939 -16.739  1.00  0.00    -0.189 N 
ATOM     17  H3  UNL     1      12.748 -17.024 -16.698  1.00  0.00     0.184 HD
BRANCH  16  18
HETATM   18  C12 UNL     1      11.040 -17.990 -17.381  1.00  0.00     0.085 A 
HETATM   19  C10 UNL     1       9.916 -17.332 -16.937  1.00  0.00     0.097 A 
HETATM   20  C9  UNL     1       8.709 -17.421 -17.595  1.00  0.00     0.071 A 
HETATM   21  C8  UNL     1       8.561 -18.179 -18.738  1.00  0.00     0.067 A 
HETATM   22  C29 UNL     1       9.688 -18.851 -19.202  1.00  0.00     0.098 A 
HETATM   23  C28 UNL     1      10.893 -18.760 -18.545  1.00  0.00     0.072 A 
BRANCH  19  24
HETATM   24  O1  UNL     1      10.014 -16.556 -15.783  1.00  0.00    -0.354 OA
HETATM   25  C11 UNL     1       9.152 -16.636 -14.687  1.00  0.00     0.210 C 
ENDBRANCH  19  24
BRANCH  21  26
HETATM   26  N2  UNL     1       7.290 -18.275 -19.403  1.00  0.00    -0.376 N 
HETATM   27  C7  UNL     1       6.315 -19.271 -19.002  1.00  0.00     0.150 C 
BRANCH  26  28
HETATM   28  C6  UNL     1       6.966 -17.380 -20.481  1.00  0.00     0.107 C 
HETATM   29  C5  UNL     1       7.759 -16.089 -20.400  1.00  0.00     0.071 C 
HETATM   30  C4  UNL     1       7.994 -15.711 -21.844  1.00  0.00     0.065 C 
HETATM   31  N1  UNL     1       7.616 -16.772 -22.671  1.00  0.00    -0.372 N 
HETATM   32  C33 UNL     1       7.196 -17.892 -21.850  1.00  0.00     0.152 C 
BRANCH  31  33
HETATM   33  C3  UNL     1       6.875 -16.574 -23.844  1.00  0.00     0.062 C 
BRANCH  33  34
HETATM   34  C2  UNL     1       7.527 -15.965 -25.027  1.00  0.00     0.040 C 
HETATM   35  C1  UNL     1       8.165 -16.910 -26.006  1.00  0.00     0.010 C 
ENDBRANCH  33  34
ENDBRANCH  31  33
ENDBRANCH  26  28
ENDBRANCH  21  26
BRANCH  22  36
HETATM   36  O2  UNL     1       9.569 -19.607 -20.335  1.00  0.00    -0.344 OA
BRANCH  36  37
HETATM   37  C30 UNL     1       9.505 -20.989 -20.442  1.00  0.00     0.129 A 
HETATM   38  C31 UNL     1       9.691 -21.583 -21.795  1.00  0.00     0.035 A 
HETATM   39  C32 UNL     1      10.750 -21.765 -20.746  1.00  0.00     0.035 A 
ENDBRANCH  36  37
ENDBRANCH  22  36
ENDBRANCH  16  18
ENDBRANCH   1  16
BRANCH   8  40
HETATM   40  C16 UNL     1      19.121 -22.371 -15.194  1.00  0.00     0.064 C 
BRANCH  40  41
HETATM   41  C17 UNL     1      19.548 -23.493 -16.082  1.00  0.00     0.064 C 
BRANCH  41  42
HETATM   42  C18 UNL     1      18.522 -24.600 -16.213  1.00  0.00     0.122 C 
BRANCH  42  43
HETATM   43  N7  UNL     1      18.268 -24.853 -17.582  1.00  0.00    -0.409 N 
HETATM   44  C19 UNL     1      18.115 -26.198 -17.982  1.00  0.00     0.147 C 
HETATM   45  C20 UNL     1      17.803 -26.387 -19.443  1.00  0.00     0.291 C 
HETATM   46  N8  UNL     1      16.749 -25.491 -19.828  1.00  0.00     0.087 N 
HETATM   47  C21 UNL     1      15.538 -25.720 -19.095  1.00  0.00     0.310 C 
HETATM   48  C22 UNL     1      17.272 -24.148 -19.716  1.00  0.00     0.291 C 
HETATM   49  C23 UNL     1      17.570 -23.852 -18.289  1.00  0.00     0.147 C 
ENDBRANCH  42  43
ENDBRANCH  41  42
ENDBRANCH  40  41
ENDBRANCH   8  40
TORSDOF 13
ENDMDL
MODEL 2
REMARK VINA RESULT: -9.556875938      1.604      3.248
REMARK  13 active torsions:
REMARK  status: ('A' for Active; 'I' for Inactive)
REMARK    1  A    between atoms: C2_2  and  C3_3 
REMARK    2  A    between atoms: C3_3  and  N1_4 
REMARK    3  A    between atoms: C6_7  and  N2_8 
REMARK    4  A    between atoms: N2_8  and  C8_10 
REMARK    5  A    between atoms: C10_12  and  O1_13 
REMARK    6  A    between atoms: C12_15  and  N3_16 
REMARK    7  A    between atoms: N3_16  and  C13_18 
REMARK    8  A    between atoms: N6_25  and  C16_27 
REMARK    9  A    between atoms: C16_27  and  C17_28 
REMARK   10  A    between atoms: C17_28  and  C18_29 
REMARK   11  A    between atoms: C18_29  and  N7_30 
REMARK   12  A    between atoms: C29_44  and  O2_45 
REMARK   13  A    between atoms: O2_45  and  C30_46 
ROOT
HETATM    1  C13 UNL     1      12.558 -18.825 -16.743  1.00  0.00     0.684 A 
HETATM    2  N4  UNL     1      13.857 -19.097 -16.773  1.00  0.00    -0.175 N 
ATOM      3  H4  UNL     1      14.435 -18.545 -17.407  1.00  0.00     0.186 HD
HETATM    4  C14 UNL     1      14.472 -20.031 -16.045  1.00  0.00     0.134 A 
HETATM    5  N5  UNL     1      15.771 -20.276 -16.078  1.00  0.00    -0.327 N 
ATOM      6  H5  UNL     1      16.342 -19.721 -16.716  1.00  0.00     0.169 HD
HETATM    7  C15 UNL     1      16.401 -21.221 -15.321  1.00  0.00     0.106 A 
HETATM    8  N6  UNL     1      17.631 -21.337 -15.457  1.00  0.00    -0.356 N 
ATOM      9  H6  UNL     1      17.969 -20.669 -16.149  1.00  0.00     0.166 HD
HETATM   10  C24 UNL     1      15.658 -21.990 -14.450  1.00  0.00     0.049 A 
HETATM   11  C25 UNL     1      14.300 -21.766 -14.386  1.00  0.00     0.020 A 
HETATM   12  C26 UNL     1      13.710 -20.802 -15.168  1.00  0.00     0.025 A 
HETATM   13  C27 UNL     1      12.343 -20.529 -15.127  1.00  0.00     0.121 A 
HETATM   14  N9  UNL     1      11.807 -19.572 -15.892  1.00  0.00    -0.201 N 
ATOM     15  H9  UNL     1      10.803 -19.398 -15.836  1.00  0.00     0.183 HD
ENDROOT
BRANCH   1  16
HETATM   16  N3  UNL     1      11.949 -17.923 -17.409  1.00  0.00    -0.189 N 
ATOM     17  H3  UNL     1      12.474 -17.068 -17.593  1.00  0.00     0.184 HD
BRANCH  16  18
HETATM   18  C12 UNL     1      10.631 -17.969 -17.922  1.00  0.00     0.085 A 
HETATM   19  C10 UNL     1       9.558 -17.315 -17.362  1.00  0.00     0.097 A 
HETATM   20  C9  UNL     1       8.290 -17.399 -17.895  1.00  0.00     0.071 A 
HETATM   21  C8  UNL     1       8.028 -18.149 -19.023  1.00  0.00     0.067 A 
HETATM   22  C29 UNL     1       9.102 -18.817 -19.603  1.00  0.00     0.098 A 
HETATM   23  C28 UNL     1      10.367 -18.731 -19.070  1.00  0.00     0.072 A 
BRANCH  19  24
HETATM   24  O1  UNL     1       9.773 -16.547 -16.217  1.00  0.00    -0.354 OA
HETATM   25  C11 UNL     1       9.272 -16.843 -14.947  1.00  0.00     0.210 C 
ENDBRANCH  19  24
BRANCH  21  26
HETATM   26  N2  UNL     1       6.697 -18.240 -19.557  1.00  0.00    -0.376 N 
HETATM   27  C7  UNL     1       6.283 -17.406 -20.669  1.00  0.00     0.150 C 
BRANCH  26  28
HETATM   28  C6  UNL     1       5.751 -19.165 -18.993  1.00  0.00     0.107 C 
HETATM   29  C5  UNL     1       4.725 -18.461 -18.124  1.00  0.00     0.071 C 
HETATM   30  C4  UNL     1       3.458 -19.259 -18.331  1.00  0.00     0.065 C 
HETATM   31  N1  UNL     1       3.642 -20.159 -19.385  1.00  0.00    -0.372 N 
HETATM   32  C33 UNL     1       4.961 -19.964 -19.956  1.00  0.00     0.152 C 
BRANCH  31  33
HETATM   33  C3  UNL     1       3.209 -21.490 -19.310  1.00  0.00     0.062 C 
BRANCH  33  34
HETATM   34  C2  UNL     1       3.766 -22.382 -18.266  1.00  0.00     0.040 C 
HETATM   35  C1  UNL     1       3.413 -23.839 -18.365  1.00  0.00     0.010 C 
ENDBRANCH  33  34
ENDBRANCH  31  33
ENDBRANCH  26  28
ENDBRANCH  21  26
BRANCH  22  36
HETATM   36  O2  UNL     1       8.869 -19.565 -20.723  1.00  0.00    -0.344 OA
BRANCH  36  37
HETATM   37  C30 UNL     1       8.758 -20.945 -20.827  1.00  0.00     0.129 A 
HETATM   38  C31 UNL     1       9.588 -21.625 -21.860  1.00  0.00     0.035 A 
HETATM   39  C32 UNL     1       9.903 -21.812 -20.403  1.00  0.00     0.035 A 
ENDBRANCH  36  37
ENDBRANCH  22  36
ENDBRANCH  16  18
ENDBRANCH   1  16
BRANCH   8  40
HETATM   40  C16 UNL     1      18.682 -22.080 -14.970  1.00  0.00     0.064 C 
BRANCH  40  41
HETATM   41  C17 UNL     1      19.164 -23.289 -15.702  1.00  0.00     0.064 C 
BRANCH  41  42
HETATM   42  C18 UNL     1      19.097 -23.166 -17.210  1.00  0.00     0.122 C 
BRANCH  42  43
HETATM   43  N7  UNL     1      18.080 -24.011 -17.712  1.00  0.00    -0.409 N 
HETATM   44  C19 UNL     1      16.987 -23.404 -18.366  1.00  0.00     0.147 C 
HETATM   45  C20 UNL     1      15.967 -24.368 -18.912  1.00  0.00     0.291 C 
HETATM   46  N8  UNL     1      16.634 -25.412 -19.638  1.00  0.00     0.087 N 
HETATM   47  C21 UNL     1      17.393 -24.912 -20.747  1.00  0.00     0.310 C 
HETATM   48  C22 UNL     1      17.405 -26.169 -18.678  1.00  0.00     0.291 C 
HETATM   49  C23 UNL     1      18.476 -25.305 -18.112  1.00  0.00     0.147 C 
ENDBRANCH  42  43
ENDBRANCH  41  42
ENDBRANCH  40  41
ENDBRANCH   8  40
TORSDOF 13
ENDMDL
MODEL 3
REMARK VINA RESULT: -9.535115800      1.637      3.065
REMARK  13 active torsions:
REMARK  status: ('A' for Active; 'I' for Inactive)
REMARK    1  A    between atoms: C2_2  and  C3_3 
REMARK    2  A    between atoms: C3_3  and  N1_4 
REMARK    3  A    between atoms: C6_7  and  N2_8 
REMARK    4  A    between atoms: N2_8  and  C8_10 
REMARK    5  A    between atoms: C10_12  and  O1_13 
REMARK    6  A    between atoms: C12_15  and  N3_16 
REMARK    7  A    between atoms: N3_16  and  C13_18 
REMARK    8  A    between atoms: N6_25  and  C16_27 
REMARK    9  A    between atoms: C16_27  and  C17_28 
REMARK   10  A    between atoms: C17_28  and  C18_29 
REMARK   11  A    between atoms: C18_29  and  N7_30 
REMARK   12  A    between atoms: C29_44  and  O2_45 
REMARK   13  A    between atoms: O2_45  and  C30_46 
ROOT
HETATM    1  C13 UNL     1      13.418 -19.255 -16.179  1.00  0.00     0.684 A 
HETATM    2  N4  UNL     1      14.536 -19.799 -16.646  1.00  0.00    -0.175 N 
ATOM      3  H4  UNL     1      14.941 -19.385 -17.486  1.00  0.00     0.186 HD
HETATM    4  C14 UNL     1      15.174 -20.841 -16.111  1.00  0.00     0.134 A 
HETATM    5  N5  UNL     1      16.296 -21.360 -16.583  1.00  0.00    -0.327 N 
ATOM      6  H5  UNL     1      16.695 -20.941 -17.423  1.00  0.00     0.169 HD
HETATM    7  C15 UNL     1      16.956 -22.416 -16.026  1.00  0.00     0.106 A 
HETATM    8  N6  UNL     1      18.003 -22.793 -16.578  1.00  0.00    -0.356 N 
ATOM      9  H6  UNL     1      18.192 -22.214 -17.397  1.00  0.00     0.166 HD
HETATM   10  C24 UNL     1      16.443 -23.006 -14.889  1.00  0.00     0.049 A 
HETATM   11  C25 UNL     1      15.276 -22.496 -14.366  1.00  0.00     0.020 A 
HETATM   12  C26 UNL     1      14.646 -21.430 -14.962  1.00  0.00     0.025 A 
HETATM   13  C27 UNL     1      13.471 -20.870 -14.461  1.00  0.00     0.121 A 
HETATM   14  N9  UNL     1      12.895 -19.822 -15.061  1.00  0.00    -0.201 N 
ATOM     15  H9  UNL     1      12.036 -19.436 -14.666  1.00  0.00     0.183 HD
ENDROOT
BRANCH   1  16
HETATM   16  N3  UNL     1      12.802 -18.245 -16.656  1.00  0.00    -0.189 N 
ATOM     17  H3  UNL     1      13.257 -17.340 -16.531  1.00  0.00     0.184 HD
BRANCH  16  18
HETATM   18  C12 UNL     1      11.561 -18.232 -17.336  1.00  0.00     0.085 A 
HETATM   19  C10 UNL     1      10.412 -17.657 -16.844  1.00  0.00     0.097 A 
HETATM   20  C9  UNL     1       9.226 -17.679 -17.543  1.00  0.00     0.071 A 
HETATM   21  C8  UNL     1       9.124 -18.284 -18.779  1.00  0.00     0.067 A 
HETATM   22  C29 UNL     1      10.277 -18.871 -19.292  1.00  0.00     0.098 A 
HETATM   23  C28 UNL     1      11.462 -18.846 -18.594  1.00  0.00     0.072 A 
BRANCH  19  24
HETATM   24  O1  UNL     1      10.464 -17.036 -15.596  1.00  0.00    -0.354 OA
HETATM   25  C11 UNL     1       9.468 -16.210 -15.070  1.00  0.00     0.210 C 
ENDBRANCH  19  24
BRANCH  21  26
HETATM   26  N2  UNL     1       7.874 -18.314 -19.487  1.00  0.00    -0.376 N 
HETATM   27  C7  UNL     1       7.751 -17.715 -20.803  1.00  0.00     0.150 C 
BRANCH  26  28
HETATM   28  C6  UNL     1       6.721 -18.940 -18.899  1.00  0.00     0.107 C 
HETATM   29  C5  UNL     1       5.536 -17.994 -18.837  1.00  0.00     0.071 C 
HETATM   30  C4  UNL     1       4.338 -18.891 -19.048  1.00  0.00     0.065 C 
HETATM   31  N1  UNL     1       4.770 -20.161 -19.442  1.00  0.00    -0.372 N 
HETATM   32  C33 UNL     1       6.215 -20.153 -19.579  1.00  0.00     0.152 C 
BRANCH  31  33
HETATM   33  C3  UNL     1       4.223 -21.333 -18.905  1.00  0.00     0.062 C 
BRANCH  33  34
HETATM   34  C2  UNL     1       2.849 -21.738 -19.282  1.00  0.00     0.040 C 
HETATM   35  C1  UNL     1       2.561 -23.213 -19.301  1.00  0.00     0.010 C 
ENDBRANCH  33  34
ENDBRANCH  31  33
ENDBRANCH  26  28
ENDBRANCH  21  26
BRANCH  22  36
HETATM   36  O2  UNL     1      10.204 -19.474 -20.517  1.00  0.00    -0.344 OA
BRANCH  36  37
HETATM   37  C30 UNL     1      10.460 -20.801 -20.837  1.00  0.00     0.129 A 
HETATM   38  C31 UNL     1       9.479 -21.821 -20.370  1.00  0.00     0.035 A 
HETATM   39  C32 UNL     1       9.589 -21.501 -21.834  1.00  0.00     0.035 A 
ENDBRANCH  36  37
ENDBRANCH  22  36
ENDBRANCH  16  18
ENDBRANCH   1  16
BRANCH   8  40
HETATM   40  C16 UNL     1      18.988 -23.743 -16.438  1.00  0.00     0.064 C 
BRANCH  40  41
HETATM   41  C17 UNL     1      18.727 -25.171 -16.791  1.00  0.00     0.064 C 
BRANCH  41  42
HETATM   42  C18 UNL     1      19.113 -25.537 -18.209  1.00  0.00     0.122 C 
BRANCH  42  43
HETATM   43  N7  UNL     1      17.956 -25.568 -19.023  1.00  0.00    -0.409 N 
HETATM   44  C19 UNL     1      16.707 -25.711 -18.382  1.00  0.00     0.147 C 
HETATM   45  C20 UNL     1      15.520 -25.690 -19.308  1.00  0.00     0.291 C 
HETATM   46  N8  UNL     1      15.638 -24.584 -20.216  1.00  0.00     0.087 N 
HETATM   47  C21 UNL     1      15.681 -23.320 -19.540  1.00  0.00     0.310 C 
HETATM   48  C22 UNL     1      16.781 -24.850 -21.060  1.00  0.00     0.291 C 
HETATM   49  C23 UNL     1      18.018 -24.846 -20.234  1.00  0.00     0.147 C 
ENDBRANCH  42  43
ENDBRANCH  41  42
ENDBRANCH  40  41
ENDBRANCH   8  40
TORSDOF 13
ENDMDL
MODEL 4
REMARK VINA RESULT: -9.521212586      1.500      3.045
REMARK  13 active torsions:
REMARK  status: ('A' for Active; 'I' for Inactive)
REMARK    1  A    between atoms: C2_2  and  C3_3 
REMARK    2  A    between atoms: C3_3  and  N1_4 
REMARK    3  A    between atoms: C6_7  and  N2_8 
REMARK    4  A    between atoms: N2_8  and  C8_10 
REMARK    5  A    between atoms: C10_12  and  O1_13 
REMARK    6  A    between atoms: C12_15  and  N3_16 
REMARK    7  A    between atoms: N3_16  and  C13_18 
REMARK    8  A    between atoms: N6_25  and  C16_27 
REMARK    9  A    between atoms: C16_27  and  C17_28 
REMARK   10  A    between atoms: C17_28  and  C18_29 
REMARK   11  A    between atoms: C18_29  and  N7_30 
REMARK   12  A    between atoms: C29_44  and  O2_45 
REMARK   13  A    between atoms: O2_45  and  C30_46 
ROOT
HETATM    1  C13 UNL     1      12.897 -18.882 -16.355  1.00  0.00     0.684 A 
HETATM    2  N4  UNL     1      14.183 -19.180 -16.498  1.00  0.00    -0.175 N 
ATOM      3  H4  UNL     1      14.720 -18.622 -17.161  1.00  0.00     0.186 HD
HETATM    4  C14 UNL     1      14.831 -20.148 -15.848  1.00  0.00     0.134 A 
HETATM    5  N5  UNL     1      16.118 -20.420 -15.993  1.00  0.00    -0.327 N 
ATOM      6  H5  UNL     1      16.649 -19.857 -16.659  1.00  0.00     0.169 HD
HETATM    7  C15 UNL     1      16.784 -21.399 -15.316  1.00  0.00     0.106 A 
HETATM    8  N6  UNL     1      17.996 -21.537 -15.554  1.00  0.00    -0.356 N 
ATOM      9  H6  UNL     1      18.293 -20.855 -16.252  1.00  0.00     0.166 HD
HETATM   10  C24 UNL     1      16.095 -22.178 -14.410  1.00  0.00     0.049 A 
HETATM   11  C25 UNL     1      14.753 -21.927 -14.230  1.00  0.00     0.020 A 
HETATM   12  C26 UNL     1      14.124 -20.929 -14.935  1.00  0.00     0.025 A 
HETATM   13  C27 UNL     1      12.772 -20.629 -14.776  1.00  0.00     0.121 A 
HETATM   14  N9  UNL     1      12.198 -19.638 -15.469  1.00  0.00    -0.201 N 
ATOM     15  H9  UNL     1      11.206 -19.444 -15.327  1.00  0.00     0.183 HD
ENDROOT
BRANCH   1  16
HETATM   16  N3  UNL     1      12.258 -17.947 -16.945  1.00  0.00    -0.189 N 
ATOM     17  H3  UNL     1      12.735 -17.049 -17.010  1.00  0.00     0.184 HD
BRANCH  16  18
HETATM   18  C12 UNL     1      10.965 -18.012 -17.517  1.00  0.00     0.085 A 
HETATM   19  C10 UNL     1       9.864 -17.352 -17.022  1.00  0.00     0.097 A 
HETATM   20  C9  UNL     1       8.623 -17.455 -17.611  1.00  0.00     0.071 A 
HETATM   21  C8  UNL     1       8.416 -18.231 -18.733  1.00  0.00     0.067 A 
HETATM   22  C29 UNL     1       9.520 -18.906 -19.248  1.00  0.00     0.098 A 
HETATM   23  C28 UNL     1      10.758 -18.801 -18.659  1.00  0.00     0.072 A 
BRANCH  19  24
HETATM   24  O1  UNL     1      10.022 -16.558 -15.886  1.00  0.00    -0.354 OA
HETATM   25  C11 UNL     1       9.294 -16.698 -14.702  1.00  0.00     0.210 C 
ENDBRANCH  19  24
BRANCH  21  26
HETATM   26  N2  UNL     1       7.112 -18.342 -19.326  1.00  0.00    -0.376 N 
HETATM   27  C7  UNL     1       6.797 -17.653 -20.563  1.00  0.00     0.150 C 
BRANCH  26  28
HETATM   28  C6  UNL     1       6.095 -19.141 -18.698  1.00  0.00     0.107 C 
HETATM   29  C5  UNL     1       4.878 -18.314 -18.326  1.00  0.00     0.071 C 
HETATM   30  C4  UNL     1       3.717 -19.262 -18.517  1.00  0.00     0.065 C 
HETATM   31  N1  UNL     1       4.161 -20.418 -19.166  1.00  0.00    -0.372 N 
HETATM   32  C33 UNL     1       5.567 -20.274 -19.491  1.00  0.00     0.152 C 
BRANCH  31  33
HETATM   33  C3  UNL     1       3.767 -21.699 -18.756  1.00  0.00     0.062 C 
BRANCH  33  34
HETATM   34  C2  UNL     1       2.615 -22.356 -19.419  1.00  0.00     0.040 C 
HETATM   35  C1  UNL     1       2.498 -23.844 -19.248  1.00  0.00     0.010 C 
ENDBRANCH  33  34
ENDBRANCH  31  33
ENDBRANCH  26  28
ENDBRANCH  21  26
BRANCH  22  36
HETATM   36  O2  UNL     1       9.342 -19.680 -20.361  1.00  0.00    -0.344 OA
BRANCH  36  37
HETATM   37  C30 UNL     1       9.383 -21.064 -20.460  1.00  0.00     0.129 A 
HETATM   38  C31 UNL     1       9.621 -21.649 -21.809  1.00  0.00     0.035 A 
HETATM   39  C32 UNL     1      10.684 -21.745 -20.753  1.00  0.00     0.035 A 
ENDBRANCH  36  37
ENDBRANCH  22  36
ENDBRANCH  16  18
ENDBRANCH   1  16
BRANCH   8  40
HETATM   40  C16 UNL     1      19.065 -22.316 -15.175  1.00  0.00     0.064 C 
BRANCH  40  41
HETATM   41  C17 UNL     1      19.492 -23.481 -16.005  1.00  0.00     0.064 C 
BRANCH  41  42
HETATM   42  C18 UNL     1      18.449 -24.573 -16.121  1.00  0.00     0.122 C 
BRANCH  42  43
HETATM   43  N7  UNL     1      18.193 -24.844 -17.486  1.00  0.00    -0.409 N 
HETATM   44  C19 UNL     1      18.017 -26.192 -17.864  1.00  0.00     0.147 C 
HETATM   45  C20 UNL     1      17.704 -26.399 -19.323  1.00  0.00     0.291 C 
HETATM   46  N8  UNL     1      16.667 -25.491 -19.725  1.00  0.00     0.087 N 
HETATM   47  C21 UNL     1      15.451 -25.686 -18.991  1.00  0.00     0.310 C 
HETATM   48  C22 UNL     1      17.214 -24.156 -19.634  1.00  0.00     0.291 C 
HETATM   49  C23 UNL     1      17.515 -23.842 -18.211  1.00  0.00     0.147 C 
ENDBRANCH  42  43
ENDBRANCH  41  42
ENDBRANCH  40  41
ENDBRANCH   8  40
TORSDOF 13
ENDMDL
MODEL 5
REMARK VINA RESULT: -9.466300853      1.082      2.968
REMARK  13 active torsions:
REMARK  status: ('A' for Active; 'I' for Inactive)
REMARK    1  A    between atoms: C2_2  and  C3_3 
REMARK    2  A    between atoms: C3_3  and  N1_4 
REMARK    3  A    between atoms: C6_7  and  N2_8 
REMARK    4  A    between atoms: N2_8  and  C8_10 
REMARK    5  A    between atoms: C10_12  and  O1_13 
REMARK    6  A    between atoms: C12_15  and  N3_16 
REMARK    7  A    between atoms: N3_16  and  C13_18 
REMARK    8  A    between atoms: N6_25  and  C16_27 
REMARK    9  A    between atoms: C16_27  and  C17_28 
REMARK   10  A    between atoms: C17_28  and  C18_29 
REMARK   11  A    between atoms: C18_29  and  N7_30 
REMARK   12  A    between atoms: C29_44  and  O2_45 
REMARK   13  A    between atoms: O2_45  and  C30_46 
ROOT
HETATM    1  C13 UNL     1      12.896 -18.875 -16.185  1.00  0.00     0.684 A 
HETATM    2  N4  UNL     1      14.187 -19.158 -16.314  1.00  0.00    -0.175 N 
ATOM      3  H4  UNL     1      14.737 -18.558 -16.929  1.00  0.00     0.186 HD
HETATM    4  C14 UNL     1      14.827 -20.159 -15.706  1.00  0.00     0.134 A 
HETATM    5  N5  UNL     1      16.118 -20.415 -15.836  1.00  0.00    -0.327 N 
ATOM      6  H5  UNL     1      16.662 -19.811 -16.453  1.00  0.00     0.169 HD
HETATM    7  C15 UNL     1      16.774 -21.430 -15.202  1.00  0.00     0.106 A 
HETATM    8  N6  UNL     1      17.993 -21.547 -15.417  1.00  0.00    -0.356 N 
ATOM      9  H6  UNL     1      18.302 -20.824 -16.066  1.00  0.00     0.166 HD
HETATM   10  C24 UNL     1      16.068 -22.265 -14.360  1.00  0.00     0.049 A 
HETATM   11  C25 UNL     1      14.720 -22.032 -14.199  1.00  0.00     0.020 A 
HETATM   12  C26 UNL     1      14.103 -20.997 -14.859  1.00  0.00     0.025 A 
HETATM   13  C27 UNL     1      12.745 -20.714 -14.716  1.00  0.00     0.121 A 
HETATM   14  N9  UNL     1      12.182 -19.687 -15.362  1.00  0.00    -0.201 N 
ATOM     15  H9  UNL     1      11.186 -19.507 -15.234  1.00  0.00     0.183 HD
ENDROOT
BRANCH   1  16
HETATM   16  N3  UNL     1      12.266 -17.911 -16.734  1.00  0.00    -0.189 N 
ATOM     17  H3  UNL     1      12.723 -17.000 -16.703  1.00  0.00     0.184 HD
BRANCH  16  18
HETATM   18  C12 UNL     1      11.007 -17.958 -17.379  1.00  0.00     0.085 A 
HETATM   19  C10 UNL     1      10.747 -18.682 -18.520  1.00  0.00     0.097 A 
HETATM   20  C9  UNL     1       9.505 -18.688 -19.115  1.00  0.00     0.071 A 
HETATM   21  C8  UNL     1       8.451 -17.963 -18.599  1.00  0.00     0.067 A 
HETATM   22  C29 UNL     1       8.696 -17.225 -17.445  1.00  0.00     0.098 A 
HETATM   23  C28 UNL     1       9.937 -17.221 -16.851  1.00  0.00     0.072 A 
BRANCH  19  24
HETATM   24  O1  UNL     1      11.783 -19.429 -19.082  1.00  0.00    -0.354 OA
HETATM   25  C11 UNL     1      11.802 -20.822 -19.185  1.00  0.00     0.210 C 
ENDBRANCH  19  24
BRANCH  21  26
HETATM   26  N2  UNL     1       7.166 -17.966 -19.242  1.00  0.00    -0.376 N 
HETATM   27  C7  UNL     1       6.093 -18.813 -18.756  1.00  0.00     0.150 C 
BRANCH  26  28
HETATM   28  C6  UNL     1       6.923 -17.125 -20.383  1.00  0.00     0.107 C 
HETATM   29  C5  UNL     1       7.771 -15.867 -20.347  1.00  0.00     0.071 C 
HETATM   30  C4  UNL     1       8.078 -15.588 -21.800  1.00  0.00     0.065 C 
HETATM   31  N1  UNL     1       7.683 -16.681 -22.578  1.00  0.00    -0.372 N 
HETATM   32  C33 UNL     1       7.181 -17.729 -21.709  1.00  0.00     0.152 C 
BRANCH  31  33
HETATM   33  C3  UNL     1       6.996 -16.523 -23.789  1.00  0.00     0.062 C 
BRANCH  33  34
HETATM   34  C2  UNL     1       7.703 -15.955 -24.961  1.00  0.00     0.040 C 
HETATM   35  C1  UNL     1       7.857 -16.853 -26.156  1.00  0.00     0.010 C 
ENDBRANCH  33  34
ENDBRANCH  31  33
ENDBRANCH  26  28
ENDBRANCH  21  26
BRANCH  22  36
HETATM   36  O2  UNL     1       7.668 -16.499 -16.911  1.00  0.00    -0.344 OA
BRANCH  36  37
HETATM   37  C30 UNL     1       7.737 -15.322 -16.179  1.00  0.00     0.129 A 
HETATM   38  C31 UNL     1       6.450 -14.670 -15.804  1.00  0.00     0.035 A 
HETATM   39  C32 UNL     1       7.299 -15.317 -14.746  1.00  0.00     0.035 A 
ENDBRANCH  36  37
ENDBRANCH  22  36
ENDBRANCH  16  18
ENDBRANCH   1  16
BRANCH   8  40
HETATM   40  C16 UNL     1      19.057 -22.342 -15.058  1.00  0.00     0.064 C 
BRANCH  40  41
HETATM   41  C17 UNL     1      19.490 -23.475 -15.929  1.00  0.00     0.064 C 
BRANCH  41  42
HETATM   42  C18 UNL     1      19.125 -23.306 -17.390  1.00  0.00     0.122 C 
BRANCH  42  43
HETATM   43  N7  UNL     1      18.091 -24.210 -17.729  1.00  0.00    -0.409 N 
HETATM   44  C19 UNL     1      16.966 -23.694 -18.405  1.00  0.00     0.147 C 
HETATM   45  C20 UNL     1      15.928 -24.722 -18.773  1.00  0.00     0.291 C 
HETATM   46  N8  UNL     1      16.568 -25.851 -19.387  1.00  0.00     0.087 N 
HETATM   47  C21 UNL     1      17.272 -25.500 -20.585  1.00  0.00     0.310 C 
HETATM   48  C22 UNL     1      17.387 -26.476 -18.373  1.00  0.00     0.291 C 
HETATM   49  C23 UNL     1      18.477 -25.545 -17.975  1.00  0.00     0.147 C 
ENDBRANCH  42  43
ENDBRANCH  41  42
ENDBRANCH  40  41
ENDBRANCH   8  40
TORSDOF 13
ENDMDL
