MODEL 1
REMARK VINA RESULT: -8.789814001      0.000      0.000
REMARK  14 active torsions:
REMARK  status: ('A' for Active; 'I' for Inactive)
REMARK    1  A    between atoms: C2_2  and  C3_3 
REMARK    2  A    between atoms: C3_3  and  C4_4 
REMARK    3  A    between atoms: C3_3  and  N2_14 
REMARK       I    between atoms: C4_4  and  N1_6 
REMARK    4  A    between atoms: N1_6  and  C5_8 
REMARK    5  A    between atoms: N2_14  and  C11_15 
REMARK    6  A    between atoms: N2_14  and  C13_17 
REMARK    7  A    between atoms: C13_17  and  O2_18 
REMARK    8  A    between atoms: C13_17  and  C14_20 
REMARK    9  A    between atoms: C14_20  and  N3_21 
REMARK   10  A    between atoms: N4_24  and  C16_25 
REMARK   11  A    between atoms: C16_25  and  C17_26 
REMARK   12  A    between atoms: C17_26  and  C18_27 
REMARK       I    between atoms: C18_27  and  N5_29 
REMARK   13  A    between atoms: N5_29  and  C19_31 
REMARK   14  A    between atoms: N7_44  and  C29_45 
ROOT
HETATM    1  N3  UNL     1      10.010 -19.136 -17.775  1.00  0.00    -0.253 N 
HETATM    2  C15 UNL     1      10.846 -19.895 -18.570  1.00  0.00     0.337 A 
HETATM    3  O3  UNL     1      10.360 -20.556 -19.534  1.00  0.00    -0.246 OA
HETATM    4  N4  UNL     1      12.186 -20.005 -18.411  1.00  0.00    -0.260 N 
HETATM    5  C25 UNL     1      12.788 -19.357 -17.435  1.00  0.00     0.282 A 
HETATM    6  O5  UNL     1      14.004 -19.398 -17.194  1.00  0.00    -0.265 OA
HETATM    7  C26 UNL     1      11.995 -18.563 -16.594  1.00  0.00     0.148 A 
HETATM    8  N6  UNL     1      12.377 -17.769 -15.589  1.00  0.00    -0.339 N 
ATOM      9  H6  UNL     1      13.322 -17.637 -15.226  1.00  0.00     0.167 HD
HETATM   10  C27 UNL     1      11.227 -17.171 -15.153  1.00  0.00     0.082 A 
HETATM   11  C28 UNL     1      11.271 -16.175 -14.062  1.00  0.00     0.089 C 
HETATM   12  N7  UNL     1      10.171 -17.588 -15.867  1.00  0.00    -0.316 N 
HETATM   13  C32 UNL     1      10.631 -18.473 -16.787  1.00  0.00     0.152 A 
ENDROOT
BRANCH   1  14
HETATM   14  C14 UNL     1       8.691 -19.125 -18.144  1.00  0.00     0.159 C 
BRANCH  14  15
HETATM   15  C13 UNL     1       8.159 -18.332 -19.233  1.00  0.00     0.155 C 
BRANCH  15  16
HETATM   16  N2  UNL     1       7.079 -18.430 -20.096  1.00  0.00    -0.348 N 
BRANCH  16  17
HETATM   17  C3  UNL     1       6.636 -17.217 -20.826  1.00  0.00     0.178 C 
BRANCH  17  18
HETATM   18  C2  UNL     1       6.650 -17.202 -22.276  1.00  0.00     0.030 C 
HETATM   19  C1  UNL     1       7.609 -16.231 -22.891  1.00  0.00     0.007 C 
ENDBRANCH  17  18
BRANCH  17  20
HETATM   20  C4  UNL     1       5.269 -16.933 -20.251  1.00  0.00     0.240 C 
HETATM   21  O1  UNL     1       4.246 -16.939 -20.972  1.00  0.00    -0.271 OA
HETATM   22  N1  UNL     1       5.133 -16.653 -18.866  1.00  0.00    -0.355 N 
ATOM     23  H1  UNL     1       5.951 -16.641 -18.257  1.00  0.00     0.162 HD
BRANCH  22  24
HETATM   24  C5  UNL     1       3.817 -16.384 -18.333  1.00  0.00     0.084 C 
HETATM   25  C6  UNL     1       3.832 -15.005 -17.725  1.00  0.00     0.025 C 
HETATM   26  C7  UNL     1       4.786 -14.916 -16.560  1.00  0.00     0.002 C 
HETATM   27  C8  UNL     1       4.582 -16.091 -15.655  1.00  0.00     0.000 C 
HETATM   28  C9  UNL     1       3.265 -16.773 -15.951  1.00  0.00     0.002 C 
HETATM   29  C10 UNL     1       3.411 -17.435 -17.312  1.00  0.00     0.025 C 
ENDBRANCH  22  24
ENDBRANCH  17  20
ENDBRANCH  16  17
BRANCH  16  30
HETATM   30  C11 UNL     1       6.321 -19.602 -20.468  1.00  0.00     0.121 C 
HETATM   31  C12 UNL     1       5.522 -20.280 -19.429  1.00  0.00     0.026 C 
ENDBRANCH  16  30
ENDBRANCH  15  16
BRANCH  15  32
HETATM   32  O2  UNL     1       8.870 -17.222 -19.497  1.00  0.00    -0.345 OA
ATOM     33  H2  UNL     1       9.790 -17.435 -19.605  1.00  0.00     0.219 HD
ENDBRANCH  15  32
ENDBRANCH  14  15
ENDBRANCH   1  14
BRANCH   4  34
HETATM   34  C16 UNL     1      12.923 -20.910 -19.277  1.00  0.00     0.170 C 
BRANCH  34  35
HETATM   35  C17 UNL     1      13.179 -22.226 -18.661  1.00  0.00     0.067 C 
BRANCH  35  36
HETATM   36  C18 UNL     1      14.491 -22.835 -18.639  1.00  0.00     0.239 C 
HETATM   37  O4  UNL     1      15.462 -22.563 -17.921  1.00  0.00    -0.269 OA
HETATM   38  N5  UNL     1      14.744 -23.930 -19.581  1.00  0.00    -0.353 N 
ATOM     39  H5  UNL     1      14.016 -24.241 -20.224  1.00  0.00     0.163 HD
BRANCH  38  40
HETATM   40  C19 UNL     1      16.021 -24.549 -19.583  1.00  0.00     0.084 C 
HETATM   41  C20 UNL     1      15.992 -25.913 -18.893  1.00  0.00     0.025 C 
HETATM   42  C21 UNL     1      17.429 -26.255 -18.565  1.00  0.00     0.002 C 
HETATM   43  C22 UNL     1      18.367 -25.895 -19.681  1.00  0.00     0.000 C 
HETATM   44  C23 UNL     1      17.664 -25.788 -21.014  1.00  0.00     0.002 C 
HETATM   45  C24 UNL     1      16.530 -24.796 -20.987  1.00  0.00     0.025 C 
ENDBRANCH  38  40
ENDBRANCH  35  36
ENDBRANCH  34  35
ENDBRANCH   4  34
BRANCH  12  46
HETATM   46  C29 UNL     1       8.813 -17.149 -15.761  1.00  0.00     0.093 A 
HETATM   47  C30 UNL     1       8.457 -15.765 -16.310  1.00  0.00     0.028 A 
HETATM   48  C31 UNL     1       8.262 -16.130 -14.888  1.00  0.00     0.028 A 
ENDBRANCH  12  46
TORSDOF 14
ENDMDL
MODEL 2
REMARK VINA RESULT: -8.776666615      2.507     11.259
REMARK  14 active torsions:
REMARK  status: ('A' for Active; 'I' for Inactive)
REMARK    1  A    between atoms: C2_2  and  C3_3 
REMARK    2  A    between atoms: C3_3  and  C4_4 
REMARK    3  A    between atoms: C3_3  and  N2_14 
REMARK       I    between atoms: C4_4  and  N1_6 
REMARK    4  A    between atoms: N1_6  and  C5_8 
REMARK    5  A    between atoms: N2_14  and  C11_15 
REMARK    6  A    between atoms: N2_14  and  C13_17 
REMARK    7  A    between atoms: C13_17  and  O2_18 
REMARK    8  A    between atoms: C13_17  and  C14_20 
REMARK    9  A    between atoms: C14_20  and  N3_21 
REMARK   10  A    between atoms: N4_24  and  C16_25 
REMARK   11  A    between atoms: C16_25  and  C17_26 
REMARK   12  A    between atoms: C17_26  and  C18_27 
REMARK       I    between atoms: C18_27  and  N5_29 
REMARK   13  A    between atoms: N5_29  and  C19_31 
REMARK   14  A    between atoms: N7_44  and  C29_45 
ROOT
HETATM    1  N3  UNL     1      11.793 -19.116 -16.762  1.00  0.00    -0.253 N 
HETATM    2  C15 UNL     1      11.372 -18.017 -16.040  1.00  0.00     0.337 A 
HETATM    3  O3  UNL     1      12.086 -17.583 -15.090  1.00  0.00    -0.246 OA
HETATM    4  N4  UNL     1      10.225 -17.334 -16.260  1.00  0.00    -0.260 N 
HETATM    5  C25 UNL     1       9.411 -17.706 -17.225  1.00  0.00     0.282 A 
HETATM    6  O5  UNL     1       8.332 -17.160 -17.502  1.00  0.00    -0.265 OA
HETATM    7  C26 UNL     1       9.784 -18.814 -18.000  1.00  0.00     0.148 A 
HETATM    8  N6  UNL     1       9.165 -19.337 -19.063  1.00  0.00    -0.339 N 
ATOM      9  H6  UNL     1       8.279 -19.043 -19.473  1.00  0.00     0.167 HD
HETATM   10  C27 UNL     1       9.980 -20.352 -19.483  1.00  0.00     0.082 A 
HETATM   11  C28 UNL     1       9.635 -21.139 -20.686  1.00  0.00     0.089 C 
HETATM   12  N7  UNL     1      11.063 -20.451 -18.698  1.00  0.00    -0.316 N 
HETATM   13  C32 UNL     1      10.962 -19.488 -17.748  1.00  0.00     0.152 A 
ENDROOT
BRANCH   1  14
HETATM   14  C14 UNL     1      13.013 -19.628 -16.405  1.00  0.00     0.159 C 
BRANCH  14  15
HETATM   15  C13 UNL     1      13.191 -20.864 -15.671  1.00  0.00     0.155 C 
BRANCH  15  16
HETATM   16  N2  UNL     1      14.274 -21.594 -15.205  1.00  0.00    -0.348 N 
BRANCH  16  17
HETATM   17  C3  UNL     1      15.449 -21.772 -16.093  1.00  0.00     0.178 C 
BRANCH  17  18
HETATM   18  C2  UNL     1      16.751 -22.054 -15.520  1.00  0.00     0.030 C 
HETATM   19  C1  UNL     1      17.391 -20.906 -14.804  1.00  0.00     0.007 C 
ENDBRANCH  17  18
BRANCH  17  20
HETATM   20  C4  UNL     1      14.999 -22.829 -17.073  1.00  0.00     0.240 C 
HETATM   21  O1  UNL     1      13.867 -23.358 -16.985  1.00  0.00    -0.271 OA
HETATM   22  N1  UNL     1      15.870 -23.237 -18.117  1.00  0.00    -0.355 N 
ATOM     23  H1  UNL     1      16.797 -22.822 -18.210  1.00  0.00     0.162 HD
BRANCH  22  24
HETATM   24  C5  UNL     1      15.423 -24.251 -19.045  1.00  0.00     0.084 C 
HETATM   25  C6  UNL     1      16.051 -25.561 -18.644  1.00  0.00     0.025 C 
HETATM   26  C7  UNL     1      17.554 -25.519 -18.756  1.00  0.00     0.002 C 
HETATM   27  C8  UNL     1      17.943 -24.916 -20.070  1.00  0.00     0.000 C 
HETATM   28  C9  UNL     1      16.766 -24.900 -21.021  1.00  0.00     0.002 C 
HETATM   29  C10 UNL     1      15.777 -23.881 -20.477  1.00  0.00     0.025 C 
ENDBRANCH  22  24
ENDBRANCH  17  20
ENDBRANCH  16  17
BRANCH  16  30
HETATM   30  C11 UNL     1      14.478 -22.179 -13.900  1.00  0.00     0.121 C 
HETATM   31  C12 UNL     1      14.261 -21.333 -12.711  1.00  0.00     0.026 C 
ENDBRANCH  16  30
ENDBRANCH  15  16
BRANCH  15  32
HETATM   32  O2  UNL     1      12.039 -21.478 -15.351  1.00  0.00    -0.345 OA
ATOM     33  H2  UNL     1      11.927 -22.264 -15.872  1.00  0.00     0.219 HD
ENDBRANCH  15  32
ENDBRANCH  14  15
ENDBRANCH   1  14
BRANCH   4  34
HETATM   34  C16 UNL     1       9.875 -16.244 -15.362  1.00  0.00     0.170 C 
BRANCH  34  35
HETATM   35  C17 UNL     1       8.811 -16.600 -14.404  1.00  0.00     0.067 C 
BRANCH  35  36
HETATM   36  C18 UNL     1       7.514 -15.960 -14.404  1.00  0.00     0.239 C 
HETATM   37  O4  UNL     1       7.102 -15.039 -13.685  1.00  0.00    -0.269 OA
HETATM   38  N5  UNL     1       6.523 -16.437 -15.374  1.00  0.00    -0.353 N 
ATOM     39  H5  UNL     1       6.751 -17.194 -16.018  1.00  0.00     0.163 HD
BRANCH  38  40
HETATM   40  C19 UNL     1       5.242 -15.828 -15.399  1.00  0.00     0.084 C 
HETATM   41  C20 UNL     1       5.229 -14.571 -16.269  1.00  0.00     0.025 C 
HETATM   42  C21 UNL     1       3.994 -13.791 -15.870  1.00  0.00     0.002 C 
HETATM   43  C22 UNL     1       2.804 -14.681 -15.658  1.00  0.00     0.000 C 
HETATM   44  C23 UNL     1       2.939 -16.005 -16.373  1.00  0.00     0.002 C 
HETATM   45  C24 UNL     1       4.187 -16.749 -15.972  1.00  0.00     0.025 C 
ENDBRANCH  38  40
ENDBRANCH  35  36
ENDBRANCH  34  35
ENDBRANCH   4  34
BRANCH  12  46
HETATM   46  C29 UNL     1      12.176 -21.339 -18.848  1.00  0.00     0.093 A 
HETATM   47  C30 UNL     1      13.427 -20.815 -19.556  1.00  0.00     0.028 A 
HETATM   48  C31 UNL     1      12.661 -21.979 -20.056  1.00  0.00     0.028 A 
ENDBRANCH  12  46
TORSDOF 14
ENDMDL
MODEL 3
REMARK VINA RESULT: -8.740874282      1.549      2.282
REMARK  14 active torsions:
REMARK  status: ('A' for Active; 'I' for Inactive)
REMARK    1  A    between atoms: C2_2  and  C3_3 
REMARK    2  A    between atoms: C3_3  and  C4_4 
REMARK    3  A    between atoms: C3_3  and  N2_14 
REMARK       I    between atoms: C4_4  and  N1_6 
REMARK    4  A    between atoms: N1_6  and  C5_8 
REMARK    5  A    between atoms: N2_14  and  C11_15 
REMARK    6  A    between atoms: N2_14  and  C13_17 
REMARK    7  A    between atoms: C13_17  and  O2_18 
REMARK    8  A    between atoms: C13_17  and  C14_20 
REMARK    9  A    between atoms: C14_20  and  N3_21 
REMARK   10  A    between atoms: N4_24  and  C16_25 
REMARK   11  A    between atoms: C16_25  and  C17_26 
REMARK   12  A    between atoms: C17_26  and  C18_27 
REMARK       I    between atoms: C18_27  and  N5_29 
REMARK   13  A    between atoms: N5_29  and  C19_31 
REMARK   14  A    between atoms: N7_44  and  C29_45 
ROOT
HETATM    1  N3  UNL     1       9.797 -19.188 -17.730  1.00  0.00    -0.253 N 
HETATM    2  C15 UNL     1      10.759 -20.173 -17.836  1.00  0.00     0.337 A 
HETATM    3  O3  UNL     1      10.684 -21.021 -18.772  1.00  0.00    -0.246 OA
HETATM    4  N4  UNL     1      11.815 -20.324 -17.002  1.00  0.00    -0.260 N 
HETATM    5  C25 UNL     1      11.982 -19.492 -15.995  1.00  0.00     0.282 A 
HETATM    6  O5  UNL     1      12.904 -19.548 -15.167  1.00  0.00    -0.265 OA
HETATM    7  C26 UNL     1      11.041 -18.465 -15.835  1.00  0.00     0.148 A 
HETATM    8  N6  UNL     1      11.031 -17.472 -14.941  1.00  0.00    -0.339 N 
ATOM      9  H6  UNL     1      11.693 -17.314 -14.181  1.00  0.00     0.167 HD
HETATM   10  C27 UNL     1       9.941 -16.713 -15.266  1.00  0.00     0.082 A 
HETATM   11  C28 UNL     1       9.636 -15.481 -14.510  1.00  0.00     0.089 C 
HETATM   12  N7  UNL     1       9.300 -17.227 -16.326  1.00  0.00    -0.316 N 
HETATM   13  C32 UNL     1       9.976 -18.340 -16.705  1.00  0.00     0.152 A 
ENDROOT
BRANCH   1  14
HETATM   14  C14 UNL     1       8.840 -19.186 -18.711  1.00  0.00     0.159 C 
BRANCH  14  15
HETATM   15  C13 UNL     1       9.043 -18.645 -20.040  1.00  0.00     0.155 C 
BRANCH  15  16
HETATM   16  N2  UNL     1       8.304 -18.592 -21.212  1.00  0.00    -0.348 N 
BRANCH  16  17
HETATM   17  C3  UNL     1       7.655 -19.832 -21.703  1.00  0.00     0.178 C 
BRANCH  17  18
HETATM   18  C2  UNL     1       8.071 -21.120 -21.181  1.00  0.00     0.030 C 
HETATM   19  C1  UNL     1       9.302 -21.691 -21.813  1.00  0.00     0.007 C 
ENDBRANCH  17  18
BRANCH  17  20
HETATM   20  C4  UNL     1       6.182 -19.568 -21.500  1.00  0.00     0.240 C 
HETATM   21  O1  UNL     1       5.390 -19.521 -22.468  1.00  0.00    -0.271 OA
HETATM   22  N1  UNL     1       5.678 -19.366 -20.188  1.00  0.00    -0.355 N 
ATOM     23  H1  UNL     1       6.302 -19.399 -19.382  1.00  0.00     0.162 HD
BRANCH  22  24
HETATM   24  C5  UNL     1       4.265 -19.114 -20.013  1.00  0.00     0.084 C 
HETATM   25  C6  UNL     1       4.053 -17.622 -20.014  1.00  0.00     0.025 C 
HETATM   26  C7  UNL     1       4.750 -16.956 -18.853  1.00  0.00     0.002 C 
HETATM   27  C8  UNL     1       4.462 -17.714 -17.595  1.00  0.00     0.000 C 
HETATM   28  C9  UNL     1       3.286 -18.646 -17.788  1.00  0.00     0.002 C 
HETATM   29  C10 UNL     1       3.748 -19.746 -18.730  1.00  0.00     0.025 C 
ENDBRANCH  22  24
ENDBRANCH  17  20
ENDBRANCH  16  17
BRANCH  16  30
HETATM   30  C11 UNL     1       7.995 -17.447 -22.036  1.00  0.00     0.121 C 
HETATM   31  C12 UNL     1       7.481 -16.229 -21.379  1.00  0.00     0.026 C 
ENDBRANCH  16  30
ENDBRANCH  15  16
BRANCH  15  32
HETATM   32  O2  UNL     1      10.233 -18.044 -20.208  1.00  0.00    -0.345 OA
ATOM     33  H2  UNL     1      10.891 -18.450 -19.656  1.00  0.00     0.219 HD
ENDBRANCH  15  32
ENDBRANCH  14  15
ENDBRANCH   1  14
BRANCH   4  34
HETATM   34  C16 UNL     1      12.701 -21.461 -17.192  1.00  0.00     0.170 C 
BRANCH  34  35
HETATM   35  C17 UNL     1      13.894 -21.141 -17.998  1.00  0.00     0.067 C 
BRANCH  35  36
HETATM   36  C18 UNL     1      14.978 -22.078 -18.192  1.00  0.00     0.239 C 
HETATM   37  O4  UNL     1      16.049 -22.166 -17.577  1.00  0.00    -0.269 OA
HETATM   38  N5  UNL     1      14.827 -23.078 -19.255  1.00  0.00    -0.353 N 
ATOM     39  H5  UNL     1      13.985 -23.101 -19.829  1.00  0.00     0.163 HD
BRANCH  38  40
HETATM   40  C19 UNL     1      15.874 -24.011 -19.469  1.00  0.00     0.084 C 
HETATM   41  C20 UNL     1      15.498 -25.409 -18.977  1.00  0.00     0.025 C 
HETATM   42  C21 UNL     1      16.796 -26.177 -18.844  1.00  0.00     0.002 C 
HETATM   43  C22 UNL     1      17.733 -25.910 -19.986  1.00  0.00     0.000 C 
HETATM   44  C23 UNL     1      17.015 -25.402 -21.215  1.00  0.00     0.002 C 
HETATM   45  C24 UNL     1      16.212 -24.158 -20.937  1.00  0.00     0.025 C 
ENDBRANCH  38  40
ENDBRANCH  35  36
ENDBRANCH  34  35
ENDBRANCH   4  34
BRANCH  12  46
HETATM   46  C29 UNL     1       8.161 -16.691 -17.007  1.00  0.00     0.093 A 
HETATM   47  C30 UNL     1       8.387 -15.557 -18.010  1.00  0.00     0.028 A 
HETATM   48  C31 UNL     1       7.524 -15.401 -16.817  1.00  0.00     0.028 A 
ENDBRANCH  12  46
TORSDOF 14
ENDMDL
MODEL 4
REMARK VINA RESULT: -8.694398634      2.177     11.045
REMARK  14 active torsions:
REMARK  status: ('A' for Active; 'I' for Inactive)
REMARK    1  A    between atoms: C2_2  and  C3_3 
REMARK    2  A    between atoms: C3_3  and  C4_4 
REMARK    3  A    between atoms: C3_3  and  N2_14 
REMARK       I    between atoms: C4_4  and  N1_6 
REMARK    4  A    between atoms: N1_6  and  C5_8 
REMARK    5  A    between atoms: N2_14  and  C11_15 
REMARK    6  A    between atoms: N2_14  and  C13_17 
REMARK    7  A    between atoms: C13_17  and  O2_18 
REMARK    8  A    between atoms: C13_17  and  C14_20 
REMARK    9  A    between atoms: C14_20  and  N3_21 
REMARK   10  A    between atoms: N4_24  and  C16_25 
REMARK   11  A    between atoms: C16_25  and  C17_26 
REMARK   12  A    between atoms: C17_26  and  C18_27 
REMARK       I    between atoms: C18_27  and  N5_29 
REMARK   13  A    between atoms: N5_29  and  C19_31 
REMARK   14  A    between atoms: N7_44  and  C29_45 
ROOT
HETATM    1  N3  UNL     1      10.490 -18.335 -16.684  1.00  0.00    -0.253 N 
HETATM    2  C15 UNL     1      10.292 -17.267 -15.830  1.00  0.00     0.337 A 
HETATM    3  O3  UNL     1      10.865 -17.256 -14.702  1.00  0.00    -0.246 OA
HETATM    4  N4  UNL     1       9.514 -16.192 -16.095  1.00  0.00    -0.260 N 
HETATM    5  C25 UNL     1       8.873 -16.110 -17.242  1.00  0.00     0.282 A 
HETATM    6  O5  UNL     1       8.127 -15.177 -17.579  1.00  0.00    -0.265 OA
HETATM    7  C26 UNL     1       9.037 -17.160 -18.156  1.00  0.00     0.148 A 
HETATM    8  N6  UNL     1       8.549 -17.273 -19.396  1.00  0.00    -0.339 N 
ATOM      9  H6  UNL     1       7.928 -16.625 -19.881  1.00  0.00     0.167 HD
HETATM   10  C27 UNL     1       9.065 -18.447 -19.873  1.00  0.00     0.082 A 
HETATM   11  C28 UNL     1       8.775 -18.882 -21.256  1.00  0.00     0.089 C 
HETATM   12  N7  UNL     1       9.842 -19.037 -18.953  1.00  0.00    -0.316 N 
HETATM   13  C32 UNL     1       9.839 -18.242 -17.854  1.00  0.00     0.152 A 
ENDROOT
BRANCH   1  14
HETATM   14  C14 UNL     1      11.359 -19.296 -16.239  1.00  0.00     0.159 C 
BRANCH  14  15
HETATM   15  C13 UNL     1      12.777 -19.309 -16.537  1.00  0.00     0.155 C 
BRANCH  15  16
HETATM   16  N2  UNL     1      13.863 -20.081 -16.156  1.00  0.00    -0.348 N 
BRANCH  16  17
HETATM   17  C3  UNL     1      13.848 -21.533 -16.456  1.00  0.00     0.178 C 
BRANCH  17  18
HETATM   18  C2  UNL     1      12.590 -22.198 -16.739  1.00  0.00     0.030 C 
HETATM   19  C1  UNL     1      12.618 -23.140 -17.901  1.00  0.00     0.007 C 
ENDBRANCH  17  18
BRANCH  17  20
HETATM   20  C4  UNL     1      14.850 -21.677 -17.577  1.00  0.00     0.240 C 
HETATM   21  O1  UNL     1      14.984 -20.788 -18.448  1.00  0.00    -0.271 OA
HETATM   22  N1  UNL     1      15.660 -22.841 -17.651  1.00  0.00    -0.355 N 
ATOM     23  H1  UNL     1      15.570 -23.580 -16.954  1.00  0.00     0.162 HD
BRANCH  22  24
HETATM   24  C5  UNL     1      16.613 -22.961 -18.730  1.00  0.00     0.084 C 
HETATM   25  C6  UNL     1      15.962 -23.740 -19.844  1.00  0.00     0.025 C 
HETATM   26  C7  UNL     1      15.623 -25.147 -19.420  1.00  0.00     0.002 C 
HETATM   27  C8  UNL     1      16.796 -25.756 -18.718  1.00  0.00     0.000 C 
HETATM   28  C9  UNL     1      18.053 -24.959 -18.987  1.00  0.00     0.002 C 
HETATM   29  C10 UNL     1      17.895 -23.632 -18.260  1.00  0.00     0.025 C 
ENDBRANCH  22  24
ENDBRANCH  17  20
ENDBRANCH  16  17
BRANCH  16  30
HETATM   30  C11 UNL     1      15.102 -19.660 -15.543  1.00  0.00     0.121 C 
HETATM   31  C12 UNL     1      15.628 -20.449 -14.412  1.00  0.00     0.026 C 
ENDBRANCH  16  30
ENDBRANCH  15  16
BRANCH  15  32
HETATM   32  O2  UNL     1      13.163 -18.345 -17.390  1.00  0.00    -0.345 OA
ATOM     33  H2  UNL     1      12.498 -17.669 -17.449  1.00  0.00     0.219 HD
ENDBRANCH  15  32
ENDBRANCH  14  15
ENDBRANCH   1  14
BRANCH   4  34
HETATM   34  C16 UNL     1       9.336 -15.184 -15.062  1.00  0.00     0.170 C 
BRANCH  34  35
HETATM   35  C17 UNL     1       8.195 -15.461 -14.170  1.00  0.00     0.067 C 
BRANCH  35  36
HETATM   36  C18 UNL     1       6.913 -15.916 -14.661  1.00  0.00     0.239 C 
HETATM   37  O4  UNL     1       6.493 -17.075 -14.777  1.00  0.00    -0.269 OA
HETATM   38  N5  UNL     1       5.951 -14.896 -15.090  1.00  0.00    -0.353 N 
ATOM     39  H5  UNL     1       6.188 -13.905 -15.040  1.00  0.00     0.163 HD
BRANCH  38  40
HETATM   40  C19 UNL     1       4.684 -15.312 -15.576  1.00  0.00     0.084 C 
HETATM   41  C20 UNL     1       3.541 -14.557 -14.897  1.00  0.00     0.025 C 
HETATM   42  C21 UNL     1       2.287 -15.368 -15.149  1.00  0.00     0.002 C 
HETATM   43  C22 UNL     1       2.229 -15.904 -16.550  1.00  0.00     0.000 C 
HETATM   44  C23 UNL     1       3.096 -15.117 -17.505  1.00  0.00     0.002 C 
HETATM   45  C24 UNL     1       4.535 -15.060 -17.060  1.00  0.00     0.025 C 
ENDBRANCH  38  40
ENDBRANCH  35  36
ENDBRANCH  34  35
ENDBRANCH   4  34
BRANCH  12  46
HETATM   46  C29 UNL     1      10.608 -20.237 -19.093  1.00  0.00     0.093 A 
HETATM   47  C30 UNL     1      11.826 -20.213 -20.019  1.00  0.00     0.028 A 
HETATM   48  C31 UNL     1      10.684 -21.130 -20.234  1.00  0.00     0.028 A 
ENDBRANCH  12  46
TORSDOF 14
ENDMDL
MODEL 5
REMARK VINA RESULT: -8.690616832      2.823     10.818
REMARK  14 active torsions:
REMARK  status: ('A' for Active; 'I' for Inactive)
REMARK    1  A    between atoms: C2_2  and  C3_3 
REMARK    2  A    between atoms: C3_3  and  C4_4 
REMARK    3  A    between atoms: C3_3  and  N2_14 
REMARK       I    between atoms: C4_4  and  N1_6 
REMARK    4  A    between atoms: N1_6  and  C5_8 
REMARK    5  A    between atoms: N2_14  and  C11_15 
REMARK    6  A    between atoms: N2_14  and  C13_17 
REMARK    7  A    between atoms: C13_17  and  O2_18 
REMARK    8  A    between atoms: C13_17  and  C14_20 
REMARK    9  A    between atoms: C14_20  and  N3_21 
REMARK   10  A    between atoms: N4_24  and  C16_25 
REMARK   11  A    between atoms: C16_25  and  C17_26 
REMARK   12  A    between atoms: C17_26  and  C18_27 
REMARK       I    between atoms: C18_27  and  N5_29 
REMARK   13  A    between atoms: N5_29  and  C19_31 
REMARK   14  A    between atoms: N7_44  and  C29_45 
ROOT
HETATM    1  N3  UNL     1       9.823 -18.490 -16.868  1.00  0.00    -0.253 N 
HETATM    2  C15 UNL     1       9.537 -17.379 -16.099  1.00  0.00     0.337 A 
HETATM    3  O3  UNL     1       9.851 -17.372 -14.873  1.00  0.00    -0.246 OA
HETATM    4  N4  UNL     1       8.930 -16.256 -16.548  1.00  0.00    -0.260 N 
HETATM    5  C25 UNL     1       8.562 -16.165 -17.809  1.00  0.00     0.282 A 
HETATM    6  O5  UNL     1       7.989 -15.190 -18.318  1.00  0.00    -0.265 OA
HETATM    7  C26 UNL     1       8.829 -17.258 -18.645  1.00  0.00     0.148 A 
HETATM    8  N6  UNL     1       8.614 -17.378 -19.959  1.00  0.00    -0.339 N 
ATOM      9  H6  UNL     1       8.171 -16.701 -20.580  1.00  0.00     0.167 HD
HETATM   10  C27 UNL     1       9.119 -18.606 -20.290  1.00  0.00     0.082 A 
HETATM   11  C28 UNL     1       9.099 -19.067 -21.694  1.00  0.00     0.089 C 
HETATM   12  N7  UNL     1       9.624 -19.221 -19.211  1.00  0.00    -0.316 N 
HETATM   13  C32 UNL     1       9.452 -18.389 -18.154  1.00  0.00     0.152 A 
ENDROOT
BRANCH   1  14
HETATM   14  C14 UNL     1      10.489 -19.500 -16.226  1.00  0.00     0.159 C 
BRANCH  14  15
HETATM   15  C13 UNL     1      11.930 -19.558 -16.080  1.00  0.00     0.155 C 
BRANCH  15  16
HETATM   16  N2  UNL     1      12.982 -20.068 -16.824  1.00  0.00    -0.348 N 
BRANCH  16  17
HETATM   17  C3  UNL     1      13.299 -21.513 -16.713  1.00  0.00     0.178 C 
BRANCH  17  18
HETATM   18  C2  UNL     1      13.986 -22.187 -17.798  1.00  0.00     0.030 C 
HETATM   19  C1  UNL     1      13.582 -23.611 -18.017  1.00  0.00     0.007 C 
ENDBRANCH  17  18
BRANCH  17  20
HETATM   20  C4  UNL     1      14.036 -21.617 -15.399  1.00  0.00     0.240 C 
HETATM   21  O1  UNL     1      13.434 -21.523 -14.305  1.00  0.00    -0.271 OA
HETATM   22  N1  UNL     1      15.441 -21.825 -15.396  1.00  0.00    -0.355 N 
ATOM     23  H1  UNL     1      15.955 -21.905 -16.272  1.00  0.00     0.162 HD
BRANCH  22  24
HETATM   24  C5  UNL     1      16.130 -21.922 -14.129  1.00  0.00     0.084 C 
HETATM   25  C6  UNL     1      17.534 -21.408 -14.320  1.00  0.00     0.025 C 
HETATM   26  C7  UNL     1      18.313 -22.258 -15.293  1.00  0.00     0.002 C 
HETATM   27  C8  UNL     1      18.125 -23.705 -14.958  1.00  0.00     0.000 C 
HETATM   28  C9  UNL     1      17.560 -23.862 -13.563  1.00  0.00     0.002 C 
HETATM   29  C10 UNL     1      16.128 -23.351 -13.609  1.00  0.00     0.025 C 
ENDBRANCH  22  24
ENDBRANCH  17  20
ENDBRANCH  16  17
BRANCH  16  30
HETATM   30  C11 UNL     1      13.817 -19.395 -17.791  1.00  0.00     0.121 C 
HETATM   31  C12 UNL     1      13.274 -18.210 -18.483  1.00  0.00     0.026 C 
ENDBRANCH  16  30
ENDBRANCH  15  16
BRANCH  15  32
HETATM   32  O2  UNL     1      12.386 -18.985 -14.953  1.00  0.00    -0.345 OA
ATOM     33  H2  UNL     1      11.923 -18.173 -14.783  1.00  0.00     0.219 HD
ENDBRANCH  15  32
ENDBRANCH  14  15
ENDBRANCH   1  14
BRANCH   4  34
HETATM   34  C16 UNL     1       8.619 -15.200 -15.597  1.00  0.00     0.170 C 
BRANCH  34  35
HETATM   35  C17 UNL     1       7.319 -15.386 -14.925  1.00  0.00     0.067 C 
BRANCH  35  36
HETATM   36  C18 UNL     1       6.060 -15.328 -15.633  1.00  0.00     0.239 C 
HETATM   37  O4  UNL     1       5.461 -14.338 -16.075  1.00  0.00    -0.269 OA
HETATM   38  N5  UNL     1       5.364 -16.595 -15.881  1.00  0.00    -0.353 N 
ATOM     39  H5  UNL     1       5.762 -17.477 -15.561  1.00  0.00     0.163 HD
BRANCH  38  40
HETATM   40  C19 UNL     1       4.125 -16.570 -16.574  1.00  0.00     0.084 C 
HETATM   41  C20 UNL     1       3.982 -17.763 -17.521  1.00  0.00     0.025 C 
HETATM   42  C21 UNL     1       2.881 -17.402 -18.495  1.00  0.00     0.002 C 
HETATM   43  C22 UNL     1       1.727 -16.718 -17.820  1.00  0.00     0.000 C 
HETATM   44  C23 UNL     1       1.669 -17.011 -16.339  1.00  0.00     0.002 C 
HETATM   45  C24 UNL     1       2.945 -16.637 -15.630  1.00  0.00     0.025 C 
ENDBRANCH  38  40
ENDBRANCH  35  36
ENDBRANCH  34  35
ENDBRANCH   4  34
BRANCH  12  46
HETATM   46  C29 UNL     1      10.297 -20.483 -19.157  1.00  0.00     0.093 A 
HETATM   47  C30 UNL     1      11.427 -20.742 -20.157  1.00  0.00     0.028 A 
HETATM   48  C31 UNL     1      10.213 -21.589 -20.092  1.00  0.00     0.028 A 
ENDBRANCH  12  46
TORSDOF 14
ENDMDL
