MODEL 1
REMARK VINA RESULT: -9.010676794      0.000      0.000
REMARK  15 active torsions:
REMARK  status: ('A' for Active; 'I' for Inactive)
REMARK    1  A    between atoms: C2_2  and  C3_3 
REMARK    2  A    between atoms: C3_3  and  C4_4 
REMARK    3  A    between atoms: C4_4  and  C5_5 
REMARK    4  A    between atoms: C5_5  and  O1_6 
REMARK    5  A    between atoms: O1_6  and  C6_7 
REMARK       I    between atoms: C6_7  and  N1_9 
REMARK    6  A    between atoms: N2_12  and  C9_13 
REMARK    7  A    between atoms: C9_13  and  O3_14 
REMARK    8  A    between atoms: C9_13  and  C10_16 
REMARK    9  A    between atoms: C10_16  and  C11_17 
REMARK   10  A    between atoms: C10_16  and  N3_22 
REMARK   11  A    between atoms: C11_17  and  C12_18 
REMARK   12  A    between atoms: C12_18  and  C13_19 
REMARK       I    between atoms: N3_22  and  C14_24 
REMARK   13  A    between atoms: C14_24  and  C15_26 
REMARK   14  A    between atoms: C16_29  and  N5_30 
REMARK   15  A    between atoms: C22_36  and  N6_37 
ROOT
HETATM    1  N3  UNL     1      -8.273  17.743 -17.093  1.00  0.00    -0.342 N 
ATOM      2  H3  UNL     1      -7.835  18.392 -16.439  1.00  0.00     0.163 HD
HETATM    3  C14 UNL     1      -7.417  17.121 -18.011  1.00  0.00     0.286 C 
HETATM    4  O6  UNL     1      -7.809  16.312 -18.846  1.00  0.00    -0.264 OA
ENDROOT
BRANCH   1   5
HETATM    5  C10 UNL     1      -9.698  17.574 -16.962  1.00  0.00     0.160 C 
BRANCH   5   6
HETATM    6  C9  UNL     1     -10.475  18.392 -17.900  1.00  0.00     0.137 C 
BRANCH   6   7
HETATM    7  N2  UNL     1     -11.515  19.244 -17.530  1.00  0.00    -0.361 N 
HETATM    8  C8  UNL     1     -11.213  20.671 -17.338  1.00  0.00     0.144 C 
HETATM    9  C7  UNL     1     -11.991  21.412 -18.378  1.00  0.00     0.148 C 
HETATM   10  N1  UNL     1     -13.386  21.088 -18.272  1.00  0.00    -0.325 N 
HETATM   11  C6  UNL     1     -14.364  22.137 -18.258  1.00  0.00     0.362 C 
HETATM   12  C30 UNL     1     -13.817  19.726 -18.181  1.00  0.00     0.148 C 
HETATM   13  O2  UNL     1     -15.560  21.815 -18.184  1.00  0.00    -0.238 OA
HETATM   14  C29 UNL     1     -12.868  18.847 -17.355  1.00  0.00     0.144 C 
BRANCH  11  15
HETATM   15  O1  UNL     1     -13.961  23.424 -18.327  1.00  0.00    -0.304 OA
BRANCH  15  16
HETATM   16  C5  UNL     1     -14.216  24.377 -19.253  1.00  0.00     0.180 C 
BRANCH  16  17
HETATM   17  C4  UNL     1     -14.163  24.100 -20.708  1.00  0.00     0.027 C 
BRANCH  17  18
HETATM   18  C3  UNL     1     -15.407  23.850 -21.452  1.00  0.00     0.002 C 
BRANCH  18  19
HETATM   19  C2  UNL     1     -16.636  24.294 -20.606  1.00  0.00    -0.004 C 
HETATM   20  C1  UNL     1     -17.154  25.572 -21.208  1.00  0.00     0.005 C 
ENDBRANCH  18  19
ENDBRANCH  17  18
ENDBRANCH  16  17
ENDBRANCH  15  16
ENDBRANCH  11  15
ENDBRANCH   6   7
BRANCH   6  21
HETATM   21  O3  UNL     1     -10.143  18.286 -19.155  1.00  0.00    -0.348 OA
ATOM     22  H3  UNL     1     -10.024  17.425 -19.539  1.00  0.00     0.219 HD
ENDBRANCH   6  21
ENDBRANCH   5   6
BRANCH   5  23
HETATM   23  C11 UNL     1     -10.071  17.808 -15.505  1.00  0.00     0.044 C 
BRANCH  23  24
HETATM   24  C12 UNL     1     -10.280  16.506 -14.762  1.00  0.00     0.116 C 
BRANCH  24  25
HETATM   25  C13 UNL     1      -9.006  15.702 -14.829  1.00  0.00     0.172 C 
HETATM   26  O4  UNL     1      -7.977  16.206 -14.337  1.00  0.00    -0.648 OA
HETATM   27  O5  UNL     1      -9.012  14.458 -15.416  1.00  0.00    -0.648 OA
ENDBRANCH  24  25
ENDBRANCH  23  24
ENDBRANCH   5  23
ENDBRANCH   1   5
BRANCH   3  28
HETATM   28  C15 UNL     1      -5.972  17.438 -17.993  1.00  0.00     0.177 A 
HETATM   29  N4  UNL     1      -5.546  18.569 -18.537  1.00  0.00    -0.324 N 
HETATM   30  C16 UNL     1      -4.234  18.907 -18.540  1.00  0.00     0.108 A 
ATOM     31  H4  UNL     1      -6.223  19.200 -18.966  1.00  0.00     0.169 HD
HETATM   32  C21 UNL     1      -3.332  18.044 -17.957  1.00  0.00     0.096 A 
HETATM   33  C22 UNL     1      -3.771  16.855 -17.381  1.00  0.00     0.108 A 
HETATM   34  N7  UNL     1      -5.091  16.619 -17.434  1.00  0.00    -0.324 N 
ATOM     35  H7  UNL     1      -5.438  15.755 -17.018  1.00  0.00     0.169 HD
BRANCH  30  36
HETATM   36  N5  UNL     1      -3.790  20.112 -19.132  1.00  0.00    -0.367 N 
HETATM   37  C17 UNL     1      -3.910  21.423 -18.574  1.00  0.00     0.124 C 
HETATM   38  C18 UNL     1      -2.860  22.283 -19.253  1.00  0.00     0.021 C 
HETATM   39  C19 UNL     1      -2.094  21.308 -20.112  1.00  0.00     0.021 C 
HETATM   40  C20 UNL     1      -3.136  20.240 -20.398  1.00  0.00     0.124 C 
ENDBRANCH  30  36
BRANCH  33  41
HETATM   41  N6  UNL     1      -2.850  15.939 -16.759  1.00  0.00    -0.363 N 
HETATM   42  C23 UNL     1      -2.288  14.836 -17.457  1.00  0.00     0.125 C 
HETATM   43  C24 UNL     1      -1.682  13.750 -16.659  1.00  0.00     0.020 C 
HETATM   44  C25 UNL     1      -1.427  14.073 -15.220  1.00  0.00     0.004 C 
HETATM   45  C26 UNL     1      -2.530  14.920 -14.621  1.00  0.00     0.025 C 
HETATM   46  C27 UNL     1      -2.513  16.219 -15.381  1.00  0.00     0.081 C 
HETATM   47  C28 UNL     1      -1.117  16.805 -15.389  1.00  0.00     0.032 C 
ENDBRANCH  33  41
ENDBRANCH   3  28
TORSDOF 15
ENDMDL
MODEL 2
REMARK VINA RESULT: -8.936405262      3.906      7.215
REMARK  15 active torsions:
REMARK  status: ('A' for Active; 'I' for Inactive)
REMARK    1  A    between atoms: C2_2  and  C3_3 
REMARK    2  A    between atoms: C3_3  and  C4_4 
REMARK    3  A    between atoms: C4_4  and  C5_5 
REMARK    4  A    between atoms: C5_5  and  O1_6 
REMARK    5  A    between atoms: O1_6  and  C6_7 
REMARK       I    between atoms: C6_7  and  N1_9 
REMARK    6  A    between atoms: N2_12  and  C9_13 
REMARK    7  A    between atoms: C9_13  and  O3_14 
REMARK    8  A    between atoms: C9_13  and  C10_16 
REMARK    9  A    between atoms: C10_16  and  C11_17 
REMARK   10  A    between atoms: C10_16  and  N3_22 
REMARK   11  A    between atoms: C11_17  and  C12_18 
REMARK   12  A    between atoms: C12_18  and  C13_19 
REMARK       I    between atoms: N3_22  and  C14_24 
REMARK   13  A    between atoms: C14_24  and  C15_26 
REMARK   14  A    between atoms: C16_29  and  N5_30 
REMARK   15  A    between atoms: C22_36  and  N6_37 
ROOT
HETATM    1  N3  UNL     1     -12.647  20.674 -18.221  1.00  0.00    -0.342 N 
ATOM      2  H3  UNL     1     -12.917  19.786 -17.797  1.00  0.00     0.163 HD
HETATM    3  C14 UNL     1     -11.308  20.789 -18.612  1.00  0.00     0.286 C 
HETATM    4  O6  UNL     1     -10.852  21.797 -19.144  1.00  0.00    -0.264 OA
ENDROOT
BRANCH   1   5
HETATM    5  C10 UNL     1     -13.691  21.660 -18.347  1.00  0.00     0.160 C 
BRANCH   5   6
HETATM    6  C9  UNL     1     -14.898  21.340 -17.578  1.00  0.00     0.137 C 
BRANCH   6   7
HETATM    7  N2  UNL     1     -15.570  22.241 -16.751  1.00  0.00    -0.361 N 
HETATM    8  C8  UNL     1     -16.213  23.410 -17.370  1.00  0.00     0.144 C 
HETATM    9  C7  UNL     1     -17.681  23.265 -17.126  1.00  0.00     0.148 C 
HETATM   10  N1  UNL     1     -17.934  23.132 -15.719  1.00  0.00    -0.325 N 
HETATM   11  C6  UNL     1     -18.948  23.933 -15.097  1.00  0.00     0.362 C 
HETATM   12  C30 UNL     1     -17.186  22.205 -14.924  1.00  0.00     0.148 C 
HETATM   13  O2  UNL     1     -19.149  23.775 -13.883  1.00  0.00    -0.238 OA
HETATM   14  C29 UNL     1     -15.714  22.100 -15.344  1.00  0.00     0.144 C 
BRANCH  11  15
HETATM   15  O1  UNL     1     -19.644  24.820 -15.840  1.00  0.00    -0.304 OA
BRANCH  15  16
HETATM   16  C5  UNL     1     -19.575  26.171 -15.890  1.00  0.00     0.180 C 
BRANCH  16  17
HETATM   17  C4  UNL     1     -18.362  26.883 -16.356  1.00  0.00     0.027 C 
BRANCH  17  18
HETATM   18  C3  UNL     1     -17.982  26.831 -17.776  1.00  0.00     0.002 C 
BRANCH  18  19
HETATM   19  C2  UNL     1     -19.248  26.935 -18.675  1.00  0.00    -0.004 C 
HETATM   20  C1  UNL     1     -18.950  26.200 -19.954  1.00  0.00     0.005 C 
ENDBRANCH  18  19
ENDBRANCH  17  18
ENDBRANCH  16  17
ENDBRANCH  15  16
ENDBRANCH  11  15
ENDBRANCH   6   7
BRANCH   6  21
HETATM   21  O3  UNL     1     -15.342  20.121 -17.699  1.00  0.00    -0.348 OA
ATOM     22  H3  UNL     1     -15.808  19.867 -18.486  1.00  0.00     0.219 HD
ENDBRANCH   6  21
ENDBRANCH   5   6
BRANCH   5  23
HETATM   23  C11 UNL     1     -13.960  21.878 -19.829  1.00  0.00     0.044 C 
BRANCH  23  24
HETATM   24  C12 UNL     1     -13.779  23.328 -20.225  1.00  0.00     0.116 C 
BRANCH  24  25
HETATM   25  C13 UNL     1     -14.968  23.757 -21.047  1.00  0.00     0.172 C 
HETATM   26  O4  UNL     1     -15.108  23.244 -22.175  1.00  0.00    -0.648 OA
HETATM   27  O5  UNL     1     -15.851  24.683 -20.542  1.00  0.00    -0.648 OA
ENDBRANCH  24  25
ENDBRANCH  23  24
ENDBRANCH   5  23
ENDBRANCH   1   5
BRANCH   3  28
HETATM   28  C15 UNL     1     -10.381  19.658 -18.386  1.00  0.00     0.177 A 
HETATM   29  N4  UNL     1     -10.420  19.004 -17.233  1.00  0.00    -0.324 N 
HETATM   30  C16 UNL     1      -9.597  17.958 -16.980  1.00  0.00     0.108 A 
ATOM     31  H4  UNL     1     -11.087  19.297 -16.519  1.00  0.00     0.169 HD
HETATM   32  C21 UNL     1      -8.704  17.575 -17.955  1.00  0.00     0.096 A 
HETATM   33  C22 UNL     1      -8.657  18.254 -19.170  1.00  0.00     0.108 A 
HETATM   34  N7  UNL     1      -9.515  19.275 -19.315  1.00  0.00    -0.324 N 
ATOM     35  H7  UNL     1      -9.501  19.789 -20.196  1.00  0.00     0.169 HD
BRANCH  30  36
HETATM   36  N5  UNL     1      -9.643  17.274 -15.743  1.00  0.00    -0.367 N 
HETATM   37  C17 UNL     1     -10.737  17.261 -14.823  1.00  0.00     0.124 C 
HETATM   38  C18 UNL     1     -10.568  16.023 -13.963  1.00  0.00     0.021 C 
HETATM   39  C19 UNL     1      -9.383  15.317 -14.575  1.00  0.00     0.021 C 
HETATM   40  C20 UNL     1      -8.601  16.466 -15.187  1.00  0.00     0.124 C 
ENDBRANCH  30  36
BRANCH  33  41
HETATM   41  N6  UNL     1      -7.736  17.870 -20.208  1.00  0.00    -0.363 N 
HETATM   42  C23 UNL     1      -8.162  17.232 -21.404  1.00  0.00     0.125 C 
HETATM   43  C24 UNL     1      -7.143  16.536 -22.216  1.00  0.00     0.020 C 
HETATM   44  C25 UNL     1      -5.720  16.850 -21.874  1.00  0.00     0.004 C 
HETATM   45  C26 UNL     1      -5.513  17.006 -20.382  1.00  0.00     0.025 C 
HETATM   46  C27 UNL     1      -6.346  18.192 -19.971  1.00  0.00     0.081 C 
HETATM   47  C28 UNL     1      -6.024  19.387 -20.843  1.00  0.00     0.032 C 
ENDBRANCH  33  41
ENDBRANCH   3  28
TORSDOF 15
ENDMDL
MODEL 3
REMARK VINA RESULT: -8.884983950      1.401      1.904
REMARK  15 active torsions:
REMARK  status: ('A' for Active; 'I' for Inactive)
REMARK    1  A    between atoms: C2_2  and  C3_3 
REMARK    2  A    between atoms: C3_3  and  C4_4 
REMARK    3  A    between atoms: C4_4  and  C5_5 
REMARK    4  A    between atoms: C5_5  and  O1_6 
REMARK    5  A    between atoms: O1_6  and  C6_7 
REMARK       I    between atoms: C6_7  and  N1_9 
REMARK    6  A    between atoms: N2_12  and  C9_13 
REMARK    7  A    between atoms: C9_13  and  O3_14 
REMARK    8  A    between atoms: C9_13  and  C10_16 
REMARK    9  A    between atoms: C10_16  and  C11_17 
REMARK   10  A    between atoms: C10_16  and  N3_22 
REMARK   11  A    between atoms: C11_17  and  C12_18 
REMARK   12  A    between atoms: C12_18  and  C13_19 
REMARK       I    between atoms: N3_22  and  C14_24 
REMARK   13  A    between atoms: C14_24  and  C15_26 
REMARK   14  A    between atoms: C16_29  and  N5_30 
REMARK   15  A    between atoms: C22_36  and  N6_37 
ROOT
HETATM    1  N3  UNL     1      -7.646  18.196 -17.698  1.00  0.00    -0.342 N 
ATOM      2  H3  UNL     1      -7.156  18.059 -16.814  1.00  0.00     0.163 HD
HETATM    3  C14 UNL     1      -6.867  18.639 -18.774  1.00  0.00     0.286 C 
HETATM    4  O6  UNL     1      -7.326  18.834 -19.895  1.00  0.00    -0.264 OA
ENDROOT
BRANCH   1   5
HETATM    5  C10 UNL     1      -9.059  17.910 -17.693  1.00  0.00     0.160 C 
BRANCH   5   6
HETATM    6  C9  UNL     1      -9.796  18.613 -16.637  1.00  0.00     0.137 C 
BRANCH   6   7
HETATM    7  N2  UNL     1     -11.039  19.222 -16.813  1.00  0.00    -0.361 N 
HETATM    8  C8  UNL     1     -11.114  20.689 -16.740  1.00  0.00     0.144 C 
HETATM    9  C7  UNL     1     -11.542  21.159 -18.093  1.00  0.00     0.148 C 
HETATM   10  N1  UNL     1     -12.777  20.526 -18.464  1.00  0.00    -0.325 N 
HETATM   11  C6  UNL     1     -13.860  21.316 -18.973  1.00  0.00     0.362 C 
HETATM   12  C30 UNL     1     -12.942  19.110 -18.335  1.00  0.00     0.148 C 
HETATM   13  O2  UNL     1     -14.904  20.730 -19.300  1.00  0.00    -0.238 OA
HETATM   14  C29 UNL     1     -12.249  18.532 -17.094  1.00  0.00     0.144 C 
BRANCH  11  15
HETATM   15  O1  UNL     1     -13.714  22.655 -19.080  1.00  0.00    -0.304 OA
BRANCH  15  16
HETATM   16  C5  UNL     1     -14.207  23.658 -18.316  1.00  0.00     0.180 C 
BRANCH  16  17
HETATM   17  C4  UNL     1     -14.545  24.987 -18.879  1.00  0.00     0.027 C 
BRANCH  17  18
HETATM   18  C3  UNL     1     -15.951  25.343 -19.121  1.00  0.00     0.002 C 
BRANCH  18  19
HETATM   19  C2  UNL     1     -16.465  24.651 -20.417  1.00  0.00    -0.004 C 
HETATM   20  C1  UNL     1     -17.199  25.692 -21.219  1.00  0.00     0.005 C 
ENDBRANCH  18  19
ENDBRANCH  17  18
ENDBRANCH  16  17
ENDBRANCH  15  16
ENDBRANCH  11  15
ENDBRANCH   6   7
BRANCH   6  21
HETATM   21  O3  UNL     1      -9.218  18.653 -15.470  1.00  0.00    -0.348 OA
ATOM     22  H3  UNL     1      -8.876  17.853 -15.088  1.00  0.00     0.219 HD
ENDBRANCH   6  21
ENDBRANCH   5   6
BRANCH   5  23
HETATM   23  C11 UNL     1      -9.237  16.399 -17.648  1.00  0.00     0.044 C 
BRANCH  23  24
HETATM   24  C12 UNL     1      -8.001  15.704 -17.117  1.00  0.00     0.116 C 
BRANCH  24  25
HETATM   25  C13 UNL     1      -8.224  15.365 -15.665  1.00  0.00     0.172 C 
HETATM   26  O4  UNL     1      -8.914  14.359 -15.404  1.00  0.00    -0.648 OA
HETATM   27  O5  UNL     1      -7.671  16.155 -14.684  1.00  0.00    -0.648 OA
ENDBRANCH  24  25
ENDBRANCH  23  24
ENDBRANCH   5  23
ENDBRANCH   1   5
BRANCH   3  28
HETATM   28  C15 UNL     1      -5.422  18.888 -18.574  1.00  0.00     0.177 A 
HETATM   29  N4  UNL     1      -4.891  20.022 -19.008  1.00  0.00    -0.324 N 
HETATM   30  C16 UNL     1      -3.575  20.300 -18.843  1.00  0.00     0.108 A 
ATOM     31  H4  UNL     1      -5.488  20.703 -19.477  1.00  0.00     0.169 HD
HETATM   32  C21 UNL     1      -2.782  19.371 -18.207  1.00  0.00     0.096 A 
HETATM   33  C22 UNL     1      -3.332  18.178 -17.747  1.00  0.00     0.108 A 
HETATM   34  N7  UNL     1      -4.645  18.004 -17.962  1.00  0.00    -0.324 N 
ATOM     35  H7  UNL     1      -5.072  17.138 -17.634  1.00  0.00     0.169 HD
BRANCH  30  36
HETATM   36  N5  UNL     1      -3.018  21.511 -19.317  1.00  0.00    -0.367 N 
HETATM   37  C17 UNL     1      -3.224  22.812 -18.761  1.00  0.00     0.124 C 
HETATM   38  C18 UNL     1      -2.059  23.670 -19.218  1.00  0.00     0.021 C 
HETATM   39  C19 UNL     1      -1.159  22.701 -19.945  1.00  0.00     0.021 C 
HETATM   40  C20 UNL     1      -2.142  21.654 -20.440  1.00  0.00     0.124 C 
ENDBRANCH  30  36
BRANCH  33  41
HETATM   41  N6  UNL     1      -2.527  17.192 -17.073  1.00  0.00    -0.363 N 
HETATM   42  C23 UNL     1      -3.058  16.329 -16.077  1.00  0.00     0.125 C 
HETATM   43  C24 UNL     1      -2.105  15.639 -15.181  1.00  0.00     0.020 C 
HETATM   44  C25 UNL     1      -0.674  15.662 -15.621  1.00  0.00     0.004 C 
HETATM   45  C26 UNL     1      -0.291  16.985 -16.250  1.00  0.00     0.025 C 
HETATM   46  C27 UNL     1      -1.142  17.118 -17.486  1.00  0.00     0.081 C 
HETATM   47  C28 UNL     1      -1.014  15.879 -18.347  1.00  0.00     0.032 C 
ENDBRANCH  33  41
ENDBRANCH   3  28
TORSDOF 15
ENDMDL
MODEL 4
REMARK VINA RESULT: -8.866097614      3.129     11.135
REMARK  15 active torsions:
REMARK  status: ('A' for Active; 'I' for Inactive)
REMARK    1  A    between atoms: C2_2  and  C3_3 
REMARK    2  A    between atoms: C3_3  and  C4_4 
REMARK    3  A    between atoms: C4_4  and  C5_5 
REMARK    4  A    between atoms: C5_5  and  O1_6 
REMARK    5  A    between atoms: O1_6  and  C6_7 
REMARK       I    between atoms: C6_7  and  N1_9 
REMARK    6  A    between atoms: N2_12  and  C9_13 
REMARK    7  A    between atoms: C9_13  and  O3_14 
REMARK    8  A    between atoms: C9_13  and  C10_16 
REMARK    9  A    between atoms: C10_16  and  C11_17 
REMARK   10  A    between atoms: C10_16  and  N3_22 
REMARK   11  A    between atoms: C11_17  and  C12_18 
REMARK   12  A    between atoms: C12_18  and  C13_19 
REMARK       I    between atoms: N3_22  and  C14_24 
REMARK   13  A    between atoms: C14_24  and  C15_26 
REMARK   14  A    between atoms: C16_29  and  N5_30 
REMARK   15  A    between atoms: C22_36  and  N6_37 
ROOT
HETATM    1  N3  UNL     1     -10.394  19.729 -18.326  1.00  0.00    -0.342 N 
ATOM      2  H3  UNL     1     -10.965  19.232 -17.642  1.00  0.00     0.163 HD
HETATM    3  C14 UNL     1     -10.913  20.940 -18.800  1.00  0.00     0.286 C 
HETATM    4  O6  UNL     1     -10.326  21.644 -19.616  1.00  0.00    -0.264 OA
ENDROOT
BRANCH   1   5
HETATM    5  C10 UNL     1      -9.149  19.101 -18.690  1.00  0.00     0.160 C 
BRANCH   5   6
HETATM    6  C9  UNL     1      -9.153  18.525 -20.039  1.00  0.00     0.137 C 
BRANCH   6   7
HETATM    7  N2  UNL     1      -8.018  18.364 -20.833  1.00  0.00    -0.361 N 
HETATM    8  C8  UNL     1      -7.018  19.442 -20.848  1.00  0.00     0.144 C 
HETATM    9  C7  UNL     1      -5.765  18.867 -20.270  1.00  0.00     0.148 C 
HETATM   10  N1  UNL     1      -5.377  17.697 -21.006  1.00  0.00    -0.325 N 
HETATM   11  C6  UNL     1      -4.022  17.550 -21.453  1.00  0.00     0.362 C 
HETATM   12  C30 UNL     1      -6.328  16.668 -21.301  1.00  0.00     0.148 C 
HETATM   13  O2  UNL     1      -3.722  16.516 -22.070  1.00  0.00    -0.238 OA
HETATM   14  C29 UNL     1      -7.728  17.211 -21.613  1.00  0.00     0.144 C 
BRANCH  11  15
HETATM   15  O1  UNL     1      -3.126  18.526 -21.191  1.00  0.00    -0.304 OA
BRANCH  15  16
HETATM   16  C5  UNL     1      -2.195  18.627 -20.214  1.00  0.00     0.180 C 
BRANCH  16  17
HETATM   17  C4  UNL     1      -2.200  19.735 -19.230  1.00  0.00     0.027 C 
BRANCH  17  18
HETATM   18  C3  UNL     1      -2.678  21.067 -19.629  1.00  0.00     0.002 C 
BRANCH  18  19
HETATM   19  C2  UNL     1      -3.599  21.660 -18.524  1.00  0.00    -0.004 C 
HETATM   20  C1  UNL     1      -3.269  23.123 -18.404  1.00  0.00     0.005 C 
ENDBRANCH  18  19
ENDBRANCH  17  18
ENDBRANCH  16  17
ENDBRANCH  15  16
ENDBRANCH  11  15
ENDBRANCH   6   7
BRANCH   6  21
HETATM   21  O3  UNL     1     -10.316  18.152 -20.493  1.00  0.00    -0.348 OA
ATOM     22  H3  UNL     1     -11.000  18.798 -20.620  1.00  0.00     0.219 HD
ENDBRANCH   6  21
ENDBRANCH   5   6
BRANCH   5  23
HETATM   23  C11 UNL     1      -8.791  18.095 -17.605  1.00  0.00     0.044 C 
BRANCH  23  24
HETATM   24  C12 UNL     1      -9.990  17.273 -17.185  1.00  0.00     0.116 C 
BRANCH  24  25
HETATM   25  C13 UNL     1     -10.417  17.710 -15.806  1.00  0.00     0.172 C 
HETATM   26  O4  UNL     1      -9.809  17.226 -14.831  1.00  0.00    -0.648 OA
HETATM   27  O5  UNL     1     -11.444  18.614 -15.662  1.00  0.00    -0.648 OA
ENDBRANCH  24  25
ENDBRANCH  23  24
ENDBRANCH   5  23
ENDBRANCH   1   5
BRANCH   3  28
HETATM   28  C15 UNL     1     -12.226  21.414 -18.308  1.00  0.00     0.177 A 
HETATM   29  N4  UNL     1     -12.712  20.925 -17.176  1.00  0.00    -0.324 N 
HETATM   30  C16 UNL     1     -13.907  21.331 -16.681  1.00  0.00     0.108 A 
ATOM     31  H4  UNL     1     -12.174  20.226 -16.665  1.00  0.00     0.169 HD
HETATM   32  C21 UNL     1     -14.621  22.277 -17.383  1.00  0.00     0.096 A 
HETATM   33  C22 UNL     1     -14.117  22.797 -18.572  1.00  0.00     0.108 A 
HETATM   34  N7  UNL     1     -12.926  22.325 -18.971  1.00  0.00    -0.324 N 
ATOM     35  H7  UNL     1     -12.534  22.691 -19.839  1.00  0.00     0.169 HD
BRANCH  30  36
HETATM   36  N5  UNL     1     -14.419  20.797 -15.476  1.00  0.00    -0.367 N 
HETATM   37  C17 UNL     1     -14.063  21.202 -14.152  1.00  0.00     0.124 C 
HETATM   38  C18 UNL     1     -15.203  20.776 -13.246  1.00  0.00     0.021 C 
HETATM   39  C19 UNL     1     -16.240  20.234 -14.199  1.00  0.00     0.021 C 
HETATM   40  C20 UNL     1     -15.391  19.752 -15.363  1.00  0.00     0.124 C 
ENDBRANCH  30  36
BRANCH  33  41
HETATM   41  N6  UNL     1     -14.841  23.791 -19.322  1.00  0.00    -0.363 N 
HETATM   42  C23 UNL     1     -15.342  24.979 -18.724  1.00  0.00     0.125 C 
HETATM   43  C24 UNL     1     -16.383  25.733 -19.453  1.00  0.00     0.020 C 
HETATM   44  C25 UNL     1     -16.568  25.353 -20.889  1.00  0.00     0.004 C 
HETATM   45  C26 UNL     1     -16.429  23.861 -21.107  1.00  0.00     0.025 C 
HETATM   46  C27 UNL     1     -15.012  23.518 -20.732  1.00  0.00     0.081 C 
HETATM   47  C28 UNL     1     -14.042  24.418 -21.467  1.00  0.00     0.032 C 
ENDBRANCH  33  41
ENDBRANCH   3  28
TORSDOF 15
ENDMDL
MODEL 5
REMARK VINA RESULT: -8.716069162      1.012      4.017
REMARK  15 active torsions:
REMARK  status: ('A' for Active; 'I' for Inactive)
REMARK    1  A    between atoms: C2_2  and  C3_3 
REMARK    2  A    between atoms: C3_3  and  C4_4 
REMARK    3  A    between atoms: C4_4  and  C5_5 
REMARK    4  A    between atoms: C5_5  and  O1_6 
REMARK    5  A    between atoms: O1_6  and  C6_7 
REMARK       I    between atoms: C6_7  and  N1_9 
REMARK    6  A    between atoms: N2_12  and  C9_13 
REMARK    7  A    between atoms: C9_13  and  O3_14 
REMARK    8  A    between atoms: C9_13  and  C10_16 
REMARK    9  A    between atoms: C10_16  and  C11_17 
REMARK   10  A    between atoms: C10_16  and  N3_22 
REMARK   11  A    between atoms: C11_17  and  C12_18 
REMARK   12  A    between atoms: C12_18  and  C13_19 
REMARK       I    between atoms: N3_22  and  C14_24 
REMARK   13  A    between atoms: C14_24  and  C15_26 
REMARK   14  A    between atoms: C16_29  and  N5_30 
REMARK   15  A    between atoms: C22_36  and  N6_37 
ROOT
HETATM    1  N3  UNL     1      -8.306  17.376 -16.925  1.00  0.00    -0.342 N 
ATOM      2  H3  UNL     1      -7.846  18.214 -16.567  1.00  0.00     0.163 HD
HETATM    3  C14 UNL     1      -7.463  16.350 -17.370  1.00  0.00     0.286 C 
HETATM    4  O6  UNL     1      -7.884  15.287 -17.814  1.00  0.00    -0.264 OA
ENDROOT
BRANCH   1   5
HETATM    5  C10 UNL     1      -9.748  17.390 -16.912  1.00  0.00     0.160 C 
BRANCH   5   6
HETATM    6  C9  UNL     1     -10.338  18.155 -18.016  1.00  0.00     0.137 C 
BRANCH   6   7
HETATM    7  N2  UNL     1     -11.316  19.138 -17.861  1.00  0.00    -0.361 N 
HETATM    8  C8  UNL     1     -10.924  20.545 -18.035  1.00  0.00     0.144 C 
HETATM    9  C7  UNL     1     -11.682  21.053 -19.220  1.00  0.00     0.148 C 
HETATM   10  N1  UNL     1     -13.091  20.855 -19.023  1.00  0.00    -0.325 N 
HETATM   11  C6  UNL     1     -14.004  21.934 -19.263  1.00  0.00     0.362 C 
HETATM   12  C30 UNL     1     -13.600  19.589 -18.590  1.00  0.00     0.148 C 
HETATM   13  O2  UNL     1     -15.215  21.719 -19.099  1.00  0.00    -0.238 OA
HETATM   14  C29 UNL     1     -12.685  18.884 -17.580  1.00  0.00     0.144 C 
BRANCH  11  15
HETATM   15  O1  UNL     1     -13.526  23.135 -19.655  1.00  0.00    -0.304 OA
BRANCH  15  16
HETATM   16  C5  UNL     1     -14.176  24.276 -19.985  1.00  0.00     0.180 C 
BRANCH  16  17
HETATM   17  C4  UNL     1     -14.824  25.138 -18.969  1.00  0.00     0.027 C 
BRANCH  17  18
HETATM   18  C3  UNL     1     -16.268  25.409 -19.051  1.00  0.00     0.002 C 
BRANCH  18  19
HETATM   19  C2  UNL     1     -16.871  24.727 -20.313  1.00  0.00    -0.004 C 
HETATM   20  C1  UNL     1     -17.345  25.823 -21.229  1.00  0.00     0.005 C 
ENDBRANCH  18  19
ENDBRANCH  17  18
ENDBRANCH  16  17
ENDBRANCH  15  16
ENDBRANCH  11  15
ENDBRANCH   6   7
BRANCH   6  21
HETATM   21  O3  UNL     1      -9.895  17.868 -19.207  1.00  0.00    -0.348 OA
ATOM     22  H3  UNL     1      -8.970  17.692 -19.334  1.00  0.00     0.219 HD
ENDBRANCH   6  21
ENDBRANCH   5   6
BRANCH   5  23
HETATM   23  C11 UNL     1     -10.205  17.861 -15.539  1.00  0.00     0.044 C 
BRANCH  23  24
HETATM   24  C12 UNL     1     -10.571  16.700 -14.640  1.00  0.00     0.116 C 
BRANCH  24  25
HETATM   25  C13 UNL     1      -9.368  15.801 -14.498  1.00  0.00     0.172 C 
HETATM   26  O4  UNL     1      -8.360  16.268 -13.932  1.00  0.00    -0.648 OA
HETATM   27  O5  UNL     1      -9.414  14.515 -14.985  1.00  0.00    -0.648 OA
ENDBRANCH  24  25
ENDBRANCH  23  24
ENDBRANCH   5  23
ENDBRANCH   1   5
BRANCH   3  28
HETATM   28  C15 UNL     1      -5.996  16.534 -17.310  1.00  0.00     0.177 A 
HETATM   29  N4  UNL     1      -5.258  15.665 -16.634  1.00  0.00    -0.324 N 
HETATM   30  C16 UNL     1      -3.911  15.787 -16.555  1.00  0.00     0.108 A 
ATOM     31  H4  UNL     1      -5.715  14.886 -16.162  1.00  0.00     0.169 HD
HETATM   32  C21 UNL     1      -3.307  16.844 -17.200  1.00  0.00     0.096 A 
HETATM   33  C22 UNL     1      -4.075  17.760 -17.913  1.00  0.00     0.108 A 
HETATM   34  N7  UNL     1      -5.400  17.546 -17.926  1.00  0.00    -0.324 N 
ATOM     35  H7  UNL     1      -5.984  18.203 -18.443  1.00  0.00     0.169 HD
BRANCH  30  36
HETATM   36  N5  UNL     1      -3.134  14.858 -15.824  1.00  0.00    -0.367 N 
HETATM   37  C17 UNL     1      -2.992  13.464 -16.110  1.00  0.00     0.124 C 
HETATM   38  C18 UNL     1      -1.704  13.013 -15.446  1.00  0.00     0.021 C 
HETATM   39  C19 UNL     1      -1.112  14.289 -14.900  1.00  0.00     0.021 C 
HETATM   40  C20 UNL     1      -2.346  15.144 -14.665  1.00  0.00     0.124 C 
ENDBRANCH  30  36
BRANCH  33  41
HETATM   41  N6  UNL     1      -3.469  18.871 -18.601  1.00  0.00    -0.363 N 
HETATM   42  C23 UNL     1      -2.070  18.948 -18.836  1.00  0.00     0.125 C 
HETATM   43  C24 UNL     1      -1.499  20.266 -19.185  1.00  0.00     0.020 C 
HETATM   44  C25 UNL     1      -2.492  21.315 -19.577  1.00  0.00     0.004 C 
HETATM   45  C26 UNL     1      -3.759  21.240 -18.749  1.00  0.00     0.025 C 
HETATM   46  C27 UNL     1      -4.376  19.901 -19.058  1.00  0.00     0.081 C 
HETATM   47  C28 UNL     1      -4.514  19.720 -20.555  1.00  0.00     0.032 C 
ENDBRANCH  33  41
ENDBRANCH   3  28
TORSDOF 15
ENDMDL
