MODEL 1
REMARK VINA RESULT: -10.325873822      0.000      0.000
REMARK  14 active torsions:
REMARK  status: ('A' for Active; 'I' for Inactive)
REMARK    1  A    between atoms: C2_2  and  C3_3 
REMARK    2  A    between atoms: C3_3  and  C4_4 
REMARK    3  A    between atoms: C4_4  and  O1_5 
REMARK    4  A    between atoms: O1_5  and  C5_6 
REMARK    5  A    between atoms: C7_8  and  C8_9 
REMARK    6  A    between atoms: C8_9  and  C9_10 
REMARK       I    between atoms: C9_10  and  N1_12 
REMARK    7  A    between atoms: N1_12  and  C10_14 
REMARK    8  A    between atoms: C11_19  and  C12_20 
REMARK    9  A    between atoms: C12_20  and  C13_21 
REMARK   10  A    between atoms: C14_22  and  C15_23 
REMARK   11  A    between atoms: C15_23  and  C16_24 
REMARK   12  A    between atoms: C19_27  and  N4_28 
REMARK       I    between atoms: N4_28  and  C20_30 
REMARK   13  A    between atoms: C20_30  and  C21_32 
REMARK   14  A    between atoms: C21_32  and  C22_33 
ROOT
HETATM    1  C13 UNL     1      -5.790  17.868 -20.153  1.00  0.00    -0.019 C 
HETATM    2  C14 UNL     1      -6.824  18.131 -21.123  1.00  0.00    -0.001 C 
ENDROOT
BRANCH   1   3
HETATM    3  C12 UNL     1      -5.500  16.523 -19.590  1.00  0.00     0.105 C 
BRANCH   3   4
HETATM    4  C11 UNL     1      -6.120  16.499 -18.181  1.00  0.00     0.117 A 
HETATM    5  N3  UNL     1      -5.603  16.947 -17.045  1.00  0.00    -0.274 N 
HETATM    6  N2  UNL     1      -6.441  16.663 -16.034  1.00  0.00    -0.130 N 
ATOM      7  H3  UNL     1      -4.710  17.430 -16.953  1.00  0.00     0.189 HD
HETATM    8  C10 UNL     1      -7.499  16.027 -16.575  1.00  0.00     0.702 A 
ATOM      9  H2  UNL     1      -6.303  16.887 -15.048  1.00  0.00     0.205 HD
HETATM   10  N8  UNL     1      -7.293  15.926 -17.938  1.00  0.00    -0.173 N 
HETATM   11  C31 UNL     1      -8.200  15.302 -18.864  1.00  0.00     0.177 C 
BRANCH   8  12
HETATM   12  N1  UNL     1      -8.521  15.500 -16.028  1.00  0.00    -0.158 N 
HETATM   13  C9  UNL     1      -8.842  15.589 -14.680  1.00  0.00     0.242 C 
HETATM   14  O2  UNL     1      -7.996  15.258 -13.785  1.00  0.00    -0.272 OA
ATOM     15  H1  UNL     1      -9.155  14.971 -16.628  1.00  0.00     0.187 HD
BRANCH  13  16
HETATM   16  C8  UNL     1     -10.193  16.070 -14.272  1.00  0.00     0.170 C 
BRANCH  16  17
HETATM   17  C7  UNL     1     -10.453  17.324 -15.077  1.00  0.00     0.089 A 
HETATM   18  C6  UNL     1     -11.721  17.677 -15.554  1.00  0.00     0.093 A 
HETATM   19  C5  UNL     1     -11.581  18.893 -16.251  1.00  0.00     0.165 A 
HETATM   20  N9  UNL     1     -10.274  19.171 -16.142  1.00  0.00    -0.239 N 
HETATM   21  O4  UNL     1      -9.648  18.248 -15.459  1.00  0.00    -0.240 OA
ATOM     22  H9  UNL     1      -9.826  19.996 -16.541  1.00  0.00     0.197 HD
BRANCH  19  23
HETATM   23  O1  UNL     1     -12.627  19.564 -16.867  1.00  0.00    -0.334 OA
BRANCH  23  24
HETATM   24  C4  UNL     1     -13.866  19.803 -16.272  1.00  0.00     0.177 C 
BRANCH  24  25
HETATM   25  C3  UNL     1     -13.785  20.749 -15.083  1.00  0.00     0.026 C 
BRANCH  25  26
HETATM   26  C2  UNL     1     -15.169  21.263 -14.732  1.00  0.00    -0.002 C 
HETATM   27  C1  UNL     1     -16.108  20.129 -14.395  1.00  0.00     0.005 C 
ENDBRANCH  25  26
ENDBRANCH  24  25
ENDBRANCH  23  24
ENDBRANCH  19  23
ENDBRANCH  16  17
ENDBRANCH  13  16
ENDBRANCH   8  12
ENDBRANCH   3   4
ENDBRANCH   1   3
BRANCH   2  28
HETATM   28  C15 UNL     1      -8.247  17.962 -20.915  1.00  0.00     0.030 C 
BRANCH  28  29
HETATM   29  C16 UNL     1      -9.115  19.026 -20.435  1.00  0.00     0.048 A 
HETATM   30  C17 UNL     1      -8.754  20.342 -20.436  1.00  0.00     0.035 A 
HETATM   31  C18 UNL     1      -9.636  21.308 -20.028  1.00  0.00     0.052 A 
HETATM   32  C19 UNL     1     -10.940  20.958 -19.596  1.00  0.00     0.122 A 
HETATM   33  N6  UNL     1     -11.223  19.654 -19.618  1.00  0.00    -0.285 N 
HETATM   34  N7  UNL     1     -10.383  18.718 -20.008  1.00  0.00    -0.299 N 
ATOM     35  H6  UNL     1     -12.152  19.363 -19.312  1.00  0.00     0.188 HD
ATOM     36  H7  UNL     1     -10.681  17.743 -19.992  1.00  0.00     0.187 HD
BRANCH  32  37
HETATM   37  N4  UNL     1     -11.687  21.882 -19.277  1.00  0.00    -0.312 N 
HETATM   38  C20 UNL     1     -12.974  22.128 -18.885  1.00  0.00     0.228 C 
HETATM   39  O3  UNL     1     -13.158  22.863 -17.866  1.00  0.00    -0.273 OA
ATOM     40  H4  UNL     1     -11.173  22.762 -19.320  1.00  0.00     0.170 HD
BRANCH  38  41
HETATM   41  C21 UNL     1     -14.144  21.583 -19.597  1.00  0.00     0.160 C 
BRANCH  41  42
HETATM   42  C22 UNL     1     -15.304  22.523 -19.419  1.00  0.00     0.018 A 
HETATM   43  C23 UNL     1     -15.608  23.451 -20.407  1.00  0.00     0.033 A 
HETATM   44  C24 UNL     1     -16.706  24.309 -20.253  1.00  0.00    -0.048 A 
HETATM   45  C25 UNL     1     -17.485  24.245 -19.134  1.00  0.00    -0.030 A 
HETATM   46  C30 UNL     1     -17.223  25.354 -21.177  1.00  0.00     0.039 C 
HETATM   47  C26 UNL     1     -17.156  23.302 -18.154  1.00  0.00     0.012 A 
HETATM   48  C28 UNL     1     -18.575  25.246 -19.208  1.00  0.00     0.041 C 
HETATM   49  C27 UNL     1     -18.011  23.239 -16.948  1.00  0.00     0.068 C 
HETATM   50  N5  UNL     1     -16.102  22.502 -18.342  1.00  0.00    -0.362 N 
ATOM     51  H5  UNL     1     -15.888  21.825 -17.610  1.00  0.00     0.165 HD
HETATM   52  C29 UNL     1     -18.015  26.242 -20.235  1.00  0.00     0.009 C 
ENDBRANCH  41  42
ENDBRANCH  38  41
ENDBRANCH  32  37
ENDBRANCH  28  29
ENDBRANCH   2  28
TORSDOF 14
ENDMDL
MODEL 2
REMARK VINA RESULT: -9.950739242      2.626     10.933
REMARK  14 active torsions:
REMARK  status: ('A' for Active; 'I' for Inactive)
REMARK    1  A    between atoms: C2_2  and  C3_3 
REMARK    2  A    between atoms: C3_3  and  C4_4 
REMARK    3  A    between atoms: C4_4  and  O1_5 
REMARK    4  A    between atoms: O1_5  and  C5_6 
REMARK    5  A    between atoms: C7_8  and  C8_9 
REMARK    6  A    between atoms: C8_9  and  C9_10 
REMARK       I    between atoms: C9_10  and  N1_12 
REMARK    7  A    between atoms: N1_12  and  C10_14 
REMARK    8  A    between atoms: C11_19  and  C12_20 
REMARK    9  A    between atoms: C12_20  and  C13_21 
REMARK   10  A    between atoms: C14_22  and  C15_23 
REMARK   11  A    between atoms: C15_23  and  C16_24 
REMARK   12  A    between atoms: C19_27  and  N4_28 
REMARK       I    between atoms: N4_28  and  C20_30 
REMARK   13  A    between atoms: C20_30  and  C21_32 
REMARK   14  A    between atoms: C21_32  and  C22_33 
ROOT
HETATM    1  C13 UNL     1     -15.991  21.963 -14.452  1.00  0.00    -0.019 C 
HETATM    2  C14 UNL     1     -15.247  20.758 -14.184  1.00  0.00    -0.001 C 
ENDROOT
BRANCH   1   3
HETATM    3  C12 UNL     1     -17.379  21.984 -14.986  1.00  0.00     0.105 C 
BRANCH   3   4
HETATM    4  C11 UNL     1     -17.736  23.465 -15.207  1.00  0.00     0.117 A 
HETATM    5  N3  UNL     1     -17.480  24.502 -14.422  1.00  0.00    -0.274 N 
HETATM    6  N2  UNL     1     -18.030  25.607 -14.950  1.00  0.00    -0.130 N 
ATOM      7  H3  UNL     1     -16.948  24.467 -13.552  1.00  0.00     0.189 HD
HETATM    8  C10 UNL     1     -18.637  25.228 -16.093  1.00  0.00     0.702 A 
ATOM      9  H2  UNL     1     -17.996  26.550 -14.562  1.00  0.00     0.205 HD
HETATM   10  N8  UNL     1     -18.446  23.868 -16.255  1.00  0.00    -0.173 N 
HETATM   11  C31 UNL     1     -18.951  23.091 -17.355  1.00  0.00     0.177 C 
BRANCH   8  12
HETATM   12  N1  UNL     1     -19.349  25.890 -16.916  1.00  0.00    -0.158 N 
HETATM   13  C9  UNL     1     -18.868  26.845 -17.802  1.00  0.00     0.242 C 
HETATM   14  O2  UNL     1     -18.157  27.819 -17.389  1.00  0.00    -0.272 OA
ATOM     15  H1  UNL     1     -20.353  25.704 -16.924  1.00  0.00     0.187 HD
BRANCH  13  16
HETATM   16  C8  UNL     1     -19.191  26.733 -19.254  1.00  0.00     0.170 C 
BRANCH  16  17
HETATM   17  C7  UNL     1     -18.186  25.765 -19.836  1.00  0.00     0.089 A 
HETATM   18  C6  UNL     1     -16.828  25.775 -19.495  1.00  0.00     0.093 A 
HETATM   19  C5  UNL     1     -16.207  24.742 -20.225  1.00  0.00     0.165 A 
HETATM   20  N9  UNL     1     -17.212  24.205 -20.930  1.00  0.00    -0.239 N 
HETATM   21  O4  UNL     1     -18.342  24.815 -20.685  1.00  0.00    -0.240 OA
ATOM     22  H9  UNL     1     -17.108  23.421 -21.575  1.00  0.00     0.197 HD
BRANCH  19  23
HETATM   23  O1  UNL     1     -14.856  24.437 -20.149  1.00  0.00    -0.334 OA
BRANCH  23  24
HETATM   24  C4  UNL     1     -14.244  23.851 -19.041  1.00  0.00     0.177 C 
BRANCH  24  25
HETATM   25  C3  UNL     1     -15.202  23.024 -18.197  1.00  0.00     0.026 C 
BRANCH  25  26
HETATM   26  C2  UNL     1     -15.219  21.587 -18.687  1.00  0.00    -0.002 C 
HETATM   27  C1  UNL     1     -14.099  21.326 -19.667  1.00  0.00     0.005 C 
ENDBRANCH  25  26
ENDBRANCH  24  25
ENDBRANCH  23  24
ENDBRANCH  19  23
ENDBRANCH  16  17
ENDBRANCH  13  16
ENDBRANCH   8  12
ENDBRANCH   3   4
ENDBRANCH   1   3
BRANCH   2  28
HETATM   28  C15 UNL     1     -14.834  19.778 -15.166  1.00  0.00     0.030 C 
BRANCH  28  29
HETATM   29  C16 UNL     1     -13.650  19.931 -15.996  1.00  0.00     0.048 A 
HETATM   30  C17 UNL     1     -12.809  21.001 -15.907  1.00  0.00     0.035 A 
HETATM   31  C18 UNL     1     -11.674  21.063 -16.673  1.00  0.00     0.052 A 
HETATM   32  C19 UNL     1     -11.352  20.015 -17.572  1.00  0.00     0.122 A 
HETATM   33  N6  UNL     1     -12.220  19.003 -17.610  1.00  0.00    -0.285 N 
HETATM   34  N7  UNL     1     -13.314  18.934 -16.879  1.00  0.00    -0.299 N 
ATOM     35  H6  UNL     1     -12.024  18.230 -18.247  1.00  0.00     0.188 HD
ATOM     36  H7  UNL     1     -13.924  18.122 -16.970  1.00  0.00     0.187 HD
BRANCH  32  37
HETATM   37  N4  UNL     1     -10.300  20.124 -18.200  1.00  0.00    -0.312 N 
HETATM   38  C20 UNL     1      -9.665  19.644 -19.311  1.00  0.00     0.228 C 
HETATM   39  O3  UNL     1      -9.145  20.480 -20.112  1.00  0.00    -0.273 OA
ATOM     40  H4  UNL     1      -9.698  20.803 -17.734  1.00  0.00     0.170 HD
BRANCH  38  41
HETATM   41  C21 UNL     1      -9.557  18.204 -19.609  1.00  0.00     0.160 C 
BRANCH  41  42
HETATM   42  C22 UNL     1      -8.711  17.549 -18.553  1.00  0.00     0.018 A 
HETATM   43  C23 UNL     1      -9.309  16.815 -17.536  1.00  0.00     0.033 A 
HETATM   44  C24 UNL     1      -8.518  16.183 -16.567  1.00  0.00    -0.048 A 
HETATM   45  C25 UNL     1      -7.157  16.281 -16.609  1.00  0.00    -0.030 A 
HETATM   46  C30 UNL     1      -8.934  15.341 -15.412  1.00  0.00     0.039 C 
HETATM   47  C26 UNL     1      -6.581  17.027 -17.643  1.00  0.00     0.012 A 
HETATM   48  C28 UNL     1      -6.551  15.530 -15.484  1.00  0.00     0.041 C 
HETATM   49  C27 UNL     1      -5.105  17.122 -17.680  1.00  0.00     0.068 C 
HETATM   50  N5  UNL     1      -7.372  17.613 -18.547  1.00  0.00    -0.362 N 
ATOM     51  H5  UNL     1      -6.922  18.149 -19.289  1.00  0.00     0.165 HD
HETATM   52  C29 UNL     1      -7.727  15.442 -14.498  1.00  0.00     0.009 C 
ENDBRANCH  41  42
ENDBRANCH  38  41
ENDBRANCH  32  37
ENDBRANCH  28  29
ENDBRANCH   2  28
TORSDOF 14
ENDMDL
MODEL 3
REMARK VINA RESULT: -9.775684590      2.276      4.672
REMARK  14 active torsions:
REMARK  status: ('A' for Active; 'I' for Inactive)
REMARK    1  A    between atoms: C2_2  and  C3_3 
REMARK    2  A    between atoms: C3_3  and  C4_4 
REMARK    3  A    between atoms: C4_4  and  O1_5 
REMARK    4  A    between atoms: O1_5  and  C5_6 
REMARK    5  A    between atoms: C7_8  and  C8_9 
REMARK    6  A    between atoms: C8_9  and  C9_10 
REMARK       I    between atoms: C9_10  and  N1_12 
REMARK    7  A    between atoms: N1_12  and  C10_14 
REMARK    8  A    between atoms: C11_19  and  C12_20 
REMARK    9  A    between atoms: C12_20  and  C13_21 
REMARK   10  A    between atoms: C14_22  and  C15_23 
REMARK   11  A    between atoms: C15_23  and  C16_24 
REMARK   12  A    between atoms: C19_27  and  N4_28 
REMARK       I    between atoms: N4_28  and  C20_30 
REMARK   13  A    between atoms: C20_30  and  C21_32 
REMARK   14  A    between atoms: C21_32  and  C22_33 
ROOT
HETATM    1  C13 UNL     1      -9.933  19.415 -19.964  1.00  0.00    -0.019 C 
HETATM    2  C14 UNL     1     -11.373  19.398 -19.998  1.00  0.00    -0.001 C 
ENDROOT
BRANCH   1   3
HETATM    3  C12 UNL     1      -9.074  18.311 -20.469  1.00  0.00     0.105 C 
BRANCH   3   4
HETATM    4  C11 UNL     1      -7.776  18.359 -19.644  1.00  0.00     0.117 A 
HETATM    5  N3  UNL     1      -7.111  19.421 -19.211  1.00  0.00    -0.274 N 
HETATM    6  N2  UNL     1      -5.988  19.022 -18.593  1.00  0.00    -0.130 N 
ATOM      7  H3  UNL     1      -7.406  20.390 -19.330  1.00  0.00     0.189 HD
HETATM    8  C10 UNL     1      -5.973  17.675 -18.649  1.00  0.00     0.702 A 
ATOM      9  H2  UNL     1      -5.283  19.622 -18.163  1.00  0.00     0.205 HD
HETATM   10  N8  UNL     1      -7.110  17.257 -19.315  1.00  0.00    -0.173 N 
HETATM   11  C31 UNL     1      -7.450  15.885 -19.582  1.00  0.00     0.177 C 
BRANCH   8  12
HETATM   12  N1  UNL     1      -5.094  16.836 -18.267  1.00  0.00    -0.158 N 
HETATM   13  C9  UNL     1      -4.155  17.061 -17.269  1.00  0.00     0.242 C 
HETATM   14  O2  UNL     1      -3.392  18.081 -17.310  1.00  0.00    -0.272 OA
ATOM     15  H1  UNL     1      -5.079  15.927 -18.731  1.00  0.00     0.187 HD
BRANCH  13  16
HETATM   16  C8  UNL     1      -4.032  16.094 -16.140  1.00  0.00     0.170 C 
BRANCH  16  17
HETATM   17  C7  UNL     1      -5.417  15.534 -15.912  1.00  0.00     0.089 A 
HETATM   18  C6  UNL     1      -6.263  15.977 -14.888  1.00  0.00     0.093 A 
HETATM   19  C5  UNL     1      -7.457  15.236 -14.984  1.00  0.00     0.165 A 
HETATM   20  N9  UNL     1      -7.245  14.427 -16.030  1.00  0.00    -0.239 N 
HETATM   21  O4  UNL     1      -6.060  14.621 -16.547  1.00  0.00    -0.240 OA
ATOM     22  H9  UNL     1      -7.921  13.747 -16.379  1.00  0.00     0.197 HD
BRANCH  19  23
HETATM   23  O1  UNL     1      -8.543  15.396 -14.136  1.00  0.00    -0.334 OA
BRANCH  23  24
HETATM   24  C4  UNL     1      -9.843  15.666 -14.565  1.00  0.00     0.177 C 
BRANCH  24  25
HETATM   25  C3  UNL     1     -10.248  17.119 -14.366  1.00  0.00     0.026 C 
BRANCH  25  26
HETATM   26  C2  UNL     1      -9.822  17.947 -15.564  1.00  0.00    -0.002 C 
HETATM   27  C1  UNL     1      -9.867  17.135 -16.838  1.00  0.00     0.005 C 
ENDBRANCH  25  26
ENDBRANCH  24  25
ENDBRANCH  23  24
ENDBRANCH  19  23
ENDBRANCH  16  17
ENDBRANCH  13  16
ENDBRANCH   8  12
ENDBRANCH   3   4
ENDBRANCH   1   3
BRANCH   2  28
HETATM   28  C15 UNL     1     -12.229  18.470 -19.290  1.00  0.00     0.030 C 
BRANCH  28  29
HETATM   29  C16 UNL     1     -13.156  18.877 -18.246  1.00  0.00     0.048 A 
HETATM   30  C17 UNL     1     -12.756  19.440 -17.069  1.00  0.00     0.035 A 
HETATM   31  C18 UNL     1     -13.678  19.860 -16.147  1.00  0.00     0.052 A 
HETATM   32  C19 UNL     1     -15.066  19.719 -16.398  1.00  0.00     0.122 A 
HETATM   33  N6  UNL     1     -15.386  19.159 -17.566  1.00  0.00    -0.285 N 
HETATM   34  N7  UNL     1     -14.507  18.750 -18.459  1.00  0.00    -0.299 N 
ATOM     35  H6  UNL     1     -16.375  19.038 -17.782  1.00  0.00     0.188 HD
ATOM     36  H7  UNL     1     -14.838  18.331 -19.328  1.00  0.00     0.187 HD
BRANCH  32  37
HETATM   37  N4  UNL     1     -15.834  20.151 -15.540  1.00  0.00    -0.312 N 
HETATM   38  C20 UNL     1     -16.595  21.247 -15.241  1.00  0.00     0.228 C 
HETATM   39  O3  UNL     1     -17.803  21.062 -14.900  1.00  0.00    -0.273 OA
ATOM     40  H4  UNL     1     -15.939  19.455 -14.801  1.00  0.00     0.170 HD
BRANCH  38  41
HETATM   41  C21 UNL     1     -16.069  22.623 -15.294  1.00  0.00     0.160 C 
BRANCH  41  42
HETATM   42  C22 UNL     1     -15.953  23.045 -16.732  1.00  0.00     0.018 A 
HETATM   43  C23 UNL     1     -16.990  23.739 -17.342  1.00  0.00     0.033 A 
HETATM   44  C24 UNL     1     -16.871  24.156 -18.675  1.00  0.00    -0.048 A 
HETATM   45  C25 UNL     1     -15.738  23.885 -19.388  1.00  0.00    -0.030 A 
HETATM   46  C30 UNL     1     -17.834  24.917 -19.516  1.00  0.00     0.039 C 
HETATM   47  C26 UNL     1     -14.709  23.185 -18.750  1.00  0.00     0.012 A 
HETATM   48  C28 UNL     1     -15.853  24.427 -20.763  1.00  0.00     0.041 C 
HETATM   49  C27 UNL     1     -13.484  22.902 -19.532  1.00  0.00     0.068 C 
HETATM   50  N5  UNL     1     -14.864  22.807 -17.477  1.00  0.00    -0.362 N 
ATOM     51  H5  UNL     1     -14.096  22.298 -17.040  1.00  0.00     0.165 HD
HETATM   52  C29 UNL     1     -17.376  24.562 -20.918  1.00  0.00     0.009 C 
ENDBRANCH  41  42
ENDBRANCH  38  41
ENDBRANCH  32  37
ENDBRANCH  28  29
ENDBRANCH   2  28
TORSDOF 14
ENDMDL
MODEL 4
REMARK VINA RESULT: -9.679356623      2.400      8.936
REMARK  14 active torsions:
REMARK  status: ('A' for Active; 'I' for Inactive)
REMARK    1  A    between atoms: C2_2  and  C3_3 
REMARK    2  A    between atoms: C3_3  and  C4_4 
REMARK    3  A    between atoms: C4_4  and  O1_5 
REMARK    4  A    between atoms: O1_5  and  C5_6 
REMARK    5  A    between atoms: C7_8  and  C8_9 
REMARK    6  A    between atoms: C8_9  and  C9_10 
REMARK       I    between atoms: C9_10  and  N1_12 
REMARK    7  A    between atoms: N1_12  and  C10_14 
REMARK    8  A    between atoms: C11_19  and  C12_20 
REMARK    9  A    between atoms: C12_20  and  C13_21 
REMARK   10  A    between atoms: C14_22  and  C15_23 
REMARK   11  A    between atoms: C15_23  and  C16_24 
REMARK   12  A    between atoms: C19_27  and  N4_28 
REMARK       I    between atoms: N4_28  and  C20_30 
REMARK   13  A    between atoms: C20_30  and  C21_32 
REMARK   14  A    between atoms: C21_32  and  C22_33 
ROOT
HETATM    1  C13 UNL     1     -12.014  17.809 -15.675  1.00  0.00    -0.019 C 
HETATM    2  C14 UNL     1     -11.285  17.056 -14.685  1.00  0.00    -0.001 C 
ENDROOT
BRANCH   1   3
HETATM    3  C12 UNL     1     -11.708  17.788 -17.130  1.00  0.00     0.105 C 
BRANCH   3   4
HETATM    4  C11 UNL     1     -12.682  18.780 -17.792  1.00  0.00     0.117 A 
HETATM    5  N3  UNL     1     -13.869  18.537 -18.330  1.00  0.00    -0.274 N 
HETATM    6  N2  UNL     1     -14.355  19.668 -18.865  1.00  0.00    -0.130 N 
ATOM      7  H3  UNL     1     -14.340  17.632 -18.336  1.00  0.00     0.189 HD
HETATM    8  C10 UNL     1     -13.435  20.628 -18.643  1.00  0.00     0.702 A 
ATOM      9  H2  UNL     1     -15.247  19.779 -19.347  1.00  0.00     0.205 HD
HETATM   10  N8  UNL     1     -12.375  20.061 -17.959  1.00  0.00    -0.173 N 
HETATM   11  C31 UNL     1     -11.191  20.767 -17.545  1.00  0.00     0.177 C 
BRANCH   8  12
HETATM   12  N1  UNL     1     -13.398  21.847 -19.011  1.00  0.00    -0.158 N 
HETATM   13  C9  UNL     1     -14.355  22.473 -19.799  1.00  0.00     0.242 C 
HETATM   14  O2  UNL     1     -14.701  21.979 -20.922  1.00  0.00    -0.272 OA
ATOM     15  H1  UNL     1     -12.602  22.407 -18.703  1.00  0.00     0.187 HD
BRANCH  13  16
HETATM   16  C8  UNL     1     -14.981  23.742 -19.330  1.00  0.00     0.170 C 
BRANCH  16  17
HETATM   17  C7  UNL     1     -16.131  23.339 -18.435  1.00  0.00     0.089 A 
HETATM   18  C6  UNL     1     -15.966  22.980 -17.092  1.00  0.00     0.093 A 
HETATM   19  C5  UNL     1     -17.243  22.670 -16.583  1.00  0.00     0.165 A 
HETATM   20  N9  UNL     1     -18.056  22.861 -17.631  1.00  0.00    -0.239 N 
HETATM   21  O4  UNL     1     -17.387  23.248 -18.686  1.00  0.00    -0.240 OA
ATOM     22  H9  UNL     1     -19.067  22.723 -17.608  1.00  0.00     0.197 HD
BRANCH  19  23
HETATM   23  O1  UNL     1     -17.486  22.272 -15.277  1.00  0.00    -0.334 OA
BRANCH  23  24
HETATM   24  C4  UNL     1     -16.505  21.806 -14.402  1.00  0.00     0.177 C 
BRANCH  24  25
HETATM   25  C3  UNL     1     -16.344  20.293 -14.437  1.00  0.00     0.026 C 
BRANCH  25  26
HETATM   26  C2  UNL     1     -15.042  19.924 -15.124  1.00  0.00    -0.002 C 
HETATM   27  C1  UNL     1     -13.925  20.863 -14.729  1.00  0.00     0.005 C 
ENDBRANCH  25  26
ENDBRANCH  24  25
ENDBRANCH  23  24
ENDBRANCH  19  23
ENDBRANCH  16  17
ENDBRANCH  13  16
ENDBRANCH   8  12
ENDBRANCH   3   4
ENDBRANCH   1   3
BRANCH   2  28
HETATM   28  C15 UNL     1      -9.888  17.226 -14.347  1.00  0.00     0.030 C 
BRANCH  28  29
HETATM   29  C16 UNL     1      -8.806  16.584 -15.076  1.00  0.00     0.048 A 
HETATM   30  C17 UNL     1      -9.006  15.825 -16.193  1.00  0.00     0.035 A 
HETATM   31  C18 UNL     1      -7.943  15.293 -16.875  1.00  0.00     0.052 A 
HETATM   32  C19 UNL     1      -6.615  15.521 -16.433  1.00  0.00     0.122 A 
HETATM   33  N6  UNL     1      -6.494  16.269 -15.335  1.00  0.00    -0.285 N 
HETATM   34  N7  UNL     1      -7.509  16.784 -14.671  1.00  0.00    -0.299 N 
ATOM     35  H6  UNL     1      -5.554  16.453 -14.985  1.00  0.00     0.188 HD
ATOM     36  H7  UNL     1      -7.328  17.344 -13.839  1.00  0.00     0.187 HD
BRANCH  32  37
HETATM   37  N4  UNL     1      -5.711  15.041 -17.116  1.00  0.00    -0.312 N 
HETATM   38  C20 UNL     1      -4.513  15.370 -17.685  1.00  0.00     0.228 C 
HETATM   39  O3  UNL     1      -3.529  14.588 -17.505  1.00  0.00    -0.273 OA
ATOM     40  H4  UNL     1      -5.930  14.067 -17.329  1.00  0.00     0.170 HD
BRANCH  38  41
HETATM   41  C21 UNL     1      -4.321  16.585 -18.498  1.00  0.00     0.160 C 
BRANCH  41  42
HETATM   42  C22 UNL     1      -5.610  16.909 -19.202  1.00  0.00     0.018 A 
HETATM   43  C23 UNL     1      -6.177  18.170 -19.074  1.00  0.00     0.033 A 
HETATM   44  C24 UNL     1      -7.364  18.481 -19.751  1.00  0.00    -0.048 A 
HETATM   45  C25 UNL     1      -7.976  17.550 -20.541  1.00  0.00    -0.030 A 
HETATM   46  C30 UNL     1      -8.131  19.755 -19.776  1.00  0.00     0.039 C 
HETATM   47  C26 UNL     1      -7.384  16.287 -20.652  1.00  0.00     0.012 A 
HETATM   48  C28 UNL     1      -9.205  18.115 -21.146  1.00  0.00     0.041 C 
HETATM   49  C27 UNL     1      -8.055  15.288 -21.514  1.00  0.00     0.068 C 
HETATM   50  N5  UNL     1      -6.251  16.034 -19.989  1.00  0.00    -0.362 N 
ATOM     51  H5  UNL     1      -5.844  15.104 -20.090  1.00  0.00     0.165 HD
HETATM   52  C29 UNL     1      -9.511  19.284 -20.195  1.00  0.00     0.009 C 
ENDBRANCH  41  42
ENDBRANCH  38  41
ENDBRANCH  32  37
ENDBRANCH  28  29
ENDBRANCH   2  28
TORSDOF 14
ENDMDL
MODEL 5
REMARK VINA RESULT: -9.664661343      2.701      7.005
REMARK  14 active torsions:
REMARK  status: ('A' for Active; 'I' for Inactive)
REMARK    1  A    between atoms: C2_2  and  C3_3 
REMARK    2  A    between atoms: C3_3  and  C4_4 
REMARK    3  A    between atoms: C4_4  and  O1_5 
REMARK    4  A    between atoms: O1_5  and  C5_6 
REMARK    5  A    between atoms: C7_8  and  C8_9 
REMARK    6  A    between atoms: C8_9  and  C9_10 
REMARK       I    between atoms: C9_10  and  N1_12 
REMARK    7  A    between atoms: N1_12  and  C10_14 
REMARK    8  A    between atoms: C11_19  and  C12_20 
REMARK    9  A    between atoms: C12_20  and  C13_21 
REMARK   10  A    between atoms: C14_22  and  C15_23 
REMARK   11  A    between atoms: C15_23  and  C16_24 
REMARK   12  A    between atoms: C19_27  and  N4_28 
REMARK       I    between atoms: N4_28  and  C20_30 
REMARK   13  A    between atoms: C20_30  and  C21_32 
REMARK   14  A    between atoms: C21_32  and  C22_33 
ROOT
HETATM    1  C13 UNL     1     -14.057  21.295 -19.804  1.00  0.00    -0.019 C 
HETATM    2  C14 UNL     1     -14.527  22.545 -20.346  1.00  0.00    -0.001 C 
ENDROOT
BRANCH   1   3
HETATM    3  C12 UNL     1     -14.742  20.549 -18.715  1.00  0.00     0.105 C 
BRANCH   3   4
HETATM    4  C11 UNL     1     -13.720  19.531 -18.177  1.00  0.00     0.117 A 
HETATM    5  N3  UNL     1     -13.600  18.245 -18.475  1.00  0.00    -0.274 N 
HETATM    6  N2  UNL     1     -12.626  17.704 -17.726  1.00  0.00    -0.130 N 
ATOM      7  H3  UNL     1     -14.159  17.745 -19.166  1.00  0.00     0.189 HD
HETATM    8  C10 UNL     1     -12.138  18.693 -16.952  1.00  0.00     0.702 A 
ATOM      9  H2  UNL     1     -12.315  16.732 -17.741  1.00  0.00     0.205 HD
HETATM   10  N8  UNL     1     -12.833  19.853 -17.241  1.00  0.00    -0.173 N 
HETATM   11  C31 UNL     1     -12.607  21.128 -16.614  1.00  0.00     0.177 C 
BRANCH   8  12
HETATM   12  N1  UNL     1     -11.257  18.673 -16.031  1.00  0.00    -0.158 N 
HETATM   13  C9  UNL     1     -10.850  17.539 -15.340  1.00  0.00     0.242 C 
HETATM   14  O2  UNL     1     -11.701  16.788 -14.761  1.00  0.00    -0.272 OA
ATOM     15  H1  UNL     1     -10.816  19.559 -15.783  1.00  0.00     0.187 HD
BRANCH  13  16
HETATM   16  C8  UNL     1      -9.400  17.200 -15.268  1.00  0.00     0.170 C 
BRANCH  16  17
HETATM   17  C7  UNL     1      -8.990  16.805 -16.668  1.00  0.00     0.089 A 
HETATM   18  C6  UNL     1      -8.597  17.731 -17.641  1.00  0.00     0.093 A 
HETATM   19  C5  UNL     1      -8.290  17.006 -18.809  1.00  0.00     0.165 A 
HETATM   20  N9  UNL     1      -8.515  15.732 -18.459  1.00  0.00    -0.239 N 
HETATM   21  O4  UNL     1      -8.918  15.646 -17.217  1.00  0.00    -0.240 OA
ATOM     22  H9  UNL     1      -8.389  14.933 -19.080  1.00  0.00     0.197 HD
BRANCH  19  23
HETATM   23  O1  UNL     1      -7.857  17.582 -19.994  1.00  0.00    -0.334 OA
BRANCH  23  24
HETATM   24  C4  UNL     1      -8.680  17.840 -21.089  1.00  0.00     0.177 C 
BRANCH  24  25
HETATM   25  C3  UNL     1      -9.839  18.770 -20.760  1.00  0.00     0.026 C 
BRANCH  25  26
HETATM   26  C2  UNL     1      -9.316  20.158 -20.438  1.00  0.00    -0.002 C 
HETATM   27  C1  UNL     1     -10.346  20.976 -19.693  1.00  0.00     0.005 C 
ENDBRANCH  25  26
ENDBRANCH  24  25
ENDBRANCH  23  24
ENDBRANCH  19  23
ENDBRANCH  16  17
ENDBRANCH  13  16
ENDBRANCH   8  12
ENDBRANCH   3   4
ENDBRANCH   1   3
BRANCH   2  28
HETATM   28  C15 UNL     1     -14.641  23.795 -19.624  1.00  0.00     0.030 C 
BRANCH  28  29
HETATM   29  C16 UNL     1     -15.870  24.239 -18.988  1.00  0.00     0.048 A 
HETATM   30  C17 UNL     1     -16.950  23.427 -18.800  1.00  0.00     0.035 A 
HETATM   31  C18 UNL     1     -18.060  23.883 -18.139  1.00  0.00     0.052 A 
HETATM   32  C19 UNL     1     -18.108  25.208 -17.638  1.00  0.00     0.122 A 
HETATM   33  N6  UNL     1     -17.020  25.947 -17.860  1.00  0.00    -0.285 N 
HETATM   34  N7  UNL     1     -15.947  25.519 -18.494  1.00  0.00    -0.299 N 
ATOM     35  H6  UNL     1     -17.017  26.908 -17.516  1.00  0.00     0.188 HD
ATOM     36  H7  UNL     1     -15.158  26.151 -18.621  1.00  0.00     0.187 HD
BRANCH  32  37
HETATM   37  N4  UNL     1     -19.124  25.535 -17.026  1.00  0.00    -0.312 N 
HETATM   38  C20 UNL     1     -19.524  26.143 -15.868  1.00  0.00     0.228 C 
HETATM   39  O3  UNL     1     -20.398  27.060 -15.944  1.00  0.00    -0.273 OA
ATOM     40  H4  UNL     1     -19.946  25.261 -17.564  1.00  0.00     0.170 HD
BRANCH  38  41
HETATM   41  C21 UNL     1     -18.988  25.773 -14.545  1.00  0.00     0.160 C 
BRANCH  41  42
HETATM   42  C22 UNL     1     -18.590  24.324 -14.568  1.00  0.00     0.018 A 
HETATM   43  C23 UNL     1     -17.258  23.962 -14.411  1.00  0.00     0.033 A 
HETATM   44  C24 UNL     1     -16.891  22.610 -14.405  1.00  0.00    -0.048 A 
HETATM   45  C25 UNL     1     -17.835  21.634 -14.556  1.00  0.00    -0.030 A 
HETATM   46  C30 UNL     1     -15.546  21.998 -14.235  1.00  0.00     0.039 C 
HETATM   47  C26 UNL     1     -19.168  22.025 -14.713  1.00  0.00     0.012 A 
HETATM   48  C28 UNL     1     -17.201  20.295 -14.514  1.00  0.00     0.041 C 
HETATM   49  C27 UNL     1     -20.182  20.958 -14.871  1.00  0.00     0.068 C 
HETATM   50  N5  UNL     1     -19.475  23.326 -14.712  1.00  0.00    -0.362 N 
ATOM     51  H5  UNL     1     -20.456  23.579 -14.828  1.00  0.00     0.165 HD
HETATM   52  C29 UNL     1     -15.742  20.629 -14.860  1.00  0.00     0.009 C 
ENDBRANCH  41  42
ENDBRANCH  38  41
ENDBRANCH  32  37
ENDBRANCH  28  29
ENDBRANCH   2  28
TORSDOF 14
ENDMDL
