MODEL 1
REMARK VINA RESULT: -9.461740920      0.000      0.000
REMARK  12 active torsions:
REMARK  status: ('A' for Active; 'I' for Inactive)
REMARK    1  A    between atoms: C2_2  and  C3_3 
REMARK    2  A    between atoms: C3_3  and  C4_4 
REMARK    3  A    between atoms: C4_4  and  C5_5 
REMARK    4  A    between atoms: C5_5  and  C6_6 
REMARK    5  A    between atoms: C6_6  and  N1_7 
REMARK    6  A    between atoms: C9_10  and  N2_11 
REMARK       I    between atoms: N2_11  and  C10_13 
REMARK    7  A    between atoms: C10_13  and  C11_15 
REMARK    8  A    between atoms: C15_22  and  C16_23 
REMARK    9  A    between atoms: C16_23  and  C17_25 
REMARK       I    between atoms: C17_25  and  N4_27 
REMARK   10  A    between atoms: N4_27  and  C18_29 
REMARK   11  A    between atoms: C18_29  and  C19_30 
REMARK   12  A    between atoms: C19_30  and  C20_31 
REMARK       I    between atoms: C20_31  and  N5_33 
ROOT
HETATM    1  C11 UNL     1     -13.538 -21.537  15.676  1.00  0.00     0.066 A 
HETATM    2  C12 UNL     1     -13.874 -21.098  14.405  1.00  0.00     0.033 A 
HETATM    3  N3  UNL     1     -15.086 -21.149  13.868  1.00  0.00    -0.316 N 
HETATM    4  C13 UNL     1     -16.092 -21.679  14.626  1.00  0.00     0.266 A 
HETATM    5  O2  UNL     1     -17.263 -21.779  14.235  1.00  0.00    -0.266 OA
HETATM    6  C14 UNL     1     -15.794 -22.131  15.906  1.00  0.00     0.085 A 
HETATM    7  S1  UNL     1     -16.756 -22.858  17.151  1.00  0.00    -0.080 SA
HETATM    8  C15 UNL     1     -15.568 -23.077  18.327  1.00  0.00     0.062 A 
HETATM    9  C25 UNL     1     -14.433 -22.579  17.739  1.00  0.00     0.037 A 
HETATM   10  C26 UNL     1     -14.549 -22.091  16.490  1.00  0.00     0.006 A 
HETATM   11  C27 UNL     1     -14.777 -20.545  12.604  1.00  0.00     0.138 A 
HETATM   12  C28 UNL     1     -13.377 -20.497  13.123  1.00  0.00     0.078 A 
ENDROOT
BRANCH   1  13
HETATM   13  C10 UNL     1     -12.163 -21.378  16.140  1.00  0.00     0.254 C 
HETATM   14  N2  UNL     1     -11.510 -20.132  16.208  1.00  0.00    -0.352 N 
ATOM     15  H2  UNL     1     -11.987 -19.281  15.911  1.00  0.00     0.163 HD
HETATM   16  O1  UNL     1     -11.452 -22.358  16.511  1.00  0.00    -0.268 OA
BRANCH  14  17
HETATM   17  C9  UNL     1     -10.129 -20.080  16.712  1.00  0.00     0.088 C 
HETATM   18  C8  UNL     1     -10.192 -19.935  18.242  1.00  0.00     0.055 C 
HETATM   19  C7  UNL     1     -10.401 -18.485  18.495  1.00  0.00     0.274 C 
HETATM   20  N1  UNL     1      -9.201 -17.708  18.269  1.00  0.00     0.088 N 
HETATM   21  C30 UNL     1      -8.604 -18.079  17.024  1.00  0.00     0.274 C 
HETATM   22  C29 UNL     1      -9.474 -18.885  16.098  1.00  0.00     0.055 C 
BRANCH  20  23
HETATM   23  C6  UNL     1      -8.227 -17.912  19.323  1.00  0.00     0.272 C 
BRANCH  23  24
HETATM   24  C5  UNL     1      -8.704 -17.413  20.651  1.00  0.00     0.030 C 
BRANCH  24  25
HETATM   25  C4  UNL     1      -8.375 -18.437  21.704  1.00  0.00     0.002 C 
BRANCH  25  26
HETATM   26  C3  UNL     1      -9.395 -19.506  21.877  1.00  0.00    -0.000 C 
BRANCH  26  27
HETATM   27  C2  UNL     1      -8.616 -20.835  21.835  1.00  0.00    -0.005 C 
HETATM   28  C1  UNL     1      -9.065 -21.686  20.682  1.00  0.00     0.005 C 
ENDBRANCH  26  27
ENDBRANCH  25  26
ENDBRANCH  24  25
ENDBRANCH  23  24
ENDBRANCH  20  23
ENDBRANCH  14  17
ENDBRANCH   1  13
BRANCH   8  29
HETATM   29  C16 UNL     1     -15.699 -23.688  19.669  1.00  0.00     0.256 C 
HETATM   30  O3  UNL     1     -14.855 -23.481  20.530  1.00  0.00    -0.281 OA
BRANCH  29  31
HETATM   31  C17 UNL     1     -16.861 -24.540  19.914  1.00  0.00     0.293 C 
HETATM   32  O4  UNL     1     -17.665 -24.181  20.830  1.00  0.00    -0.264 OA
HETATM   33  N4  UNL     1     -17.058 -25.697  19.154  1.00  0.00    -0.354 N 
ATOM     34  H4  UNL     1     -16.372 -25.915  18.431  1.00  0.00     0.162 HD
BRANCH  33  35
HETATM   35  C18 UNL     1     -18.164 -26.598  19.324  1.00  0.00     0.132 C 
BRANCH  35  36
HETATM   36  C19 UNL     1     -19.185 -26.478  18.184  1.00  0.00     0.122 C 
BRANCH  36  37
HETATM   37  C20 UNL     1     -18.594 -27.052  16.957  1.00  0.00     0.221 C 
HETATM   38  O5  UNL     1     -17.817 -28.032  17.077  1.00  0.00    -0.273 OA
HETATM   39  N5  UNL     1     -18.860 -26.547  15.632  1.00  0.00    -0.348 N 
HETATM   40  C21 UNL     1     -19.754 -25.414  15.464  1.00  0.00     0.152 C 
HETATM   41  C24 UNL     1     -18.267 -27.172  14.484  1.00  0.00     0.152 C 
HETATM   42  C22 UNL     1     -19.403 -24.645  14.248  1.00  0.00     0.187 C 
HETATM   43  O6  UNL     1     -18.120 -24.880  13.773  1.00  0.00    -0.388 OA
HETATM   44  C23 UNL     1     -18.027 -26.202  13.355  1.00  0.00     0.187 C 
ENDBRANCH  36  37
ENDBRANCH  35  36
ENDBRANCH  33  35
ENDBRANCH  29  31
ENDBRANCH   8  29
TORSDOF 12
ENDMDL
MODEL 2
REMARK VINA RESULT: -9.416763118      1.274      1.577
REMARK  12 active torsions:
REMARK  status: ('A' for Active; 'I' for Inactive)
REMARK    1  A    between atoms: C2_2  and  C3_3 
REMARK    2  A    between atoms: C3_3  and  C4_4 
REMARK    3  A    between atoms: C4_4  and  C5_5 
REMARK    4  A    between atoms: C5_5  and  C6_6 
REMARK    5  A    between atoms: C6_6  and  N1_7 
REMARK    6  A    between atoms: C9_10  and  N2_11 
REMARK       I    between atoms: N2_11  and  C10_13 
REMARK    7  A    between atoms: C10_13  and  C11_15 
REMARK    8  A    between atoms: C15_22  and  C16_23 
REMARK    9  A    between atoms: C16_23  and  C17_25 
REMARK       I    between atoms: C17_25  and  N4_27 
REMARK   10  A    between atoms: N4_27  and  C18_29 
REMARK   11  A    between atoms: C18_29  and  C19_30 
REMARK   12  A    between atoms: C19_30  and  C20_31 
REMARK       I    between atoms: C20_31  and  N5_33 
ROOT
HETATM    1  C11 UNL     1     -13.477 -21.629  16.148  1.00  0.00     0.066 A 
HETATM    2  C12 UNL     1     -13.718 -21.115  14.883  1.00  0.00     0.033 A 
HETATM    3  N3  UNL     1     -14.883 -21.144  14.250  1.00  0.00    -0.316 N 
HETATM    4  C13 UNL     1     -15.937 -21.732  14.892  1.00  0.00     0.266 A 
HETATM    5  O2  UNL     1     -17.072 -21.820  14.403  1.00  0.00    -0.266 OA
HETATM    6  C14 UNL     1     -15.734 -22.261  16.160  1.00  0.00     0.085 A 
HETATM    7  S1  UNL     1     -16.779 -23.076  17.277  1.00  0.00    -0.080 SA
HETATM    8  C15 UNL     1     -15.684 -23.356  18.528  1.00  0.00     0.062 A 
HETATM    9  C25 UNL     1     -14.514 -22.809  18.064  1.00  0.00     0.037 A 
HETATM   10  C26 UNL     1     -14.540 -22.245  16.843  1.00  0.00     0.006 A 
HETATM   11  C27 UNL     1     -14.485 -20.459  13.055  1.00  0.00     0.138 A 
HETATM   12  C28 UNL     1     -13.131 -20.429  13.685  1.00  0.00     0.078 A 
ENDROOT
BRANCH   1  13
HETATM   13  C10 UNL     1     -12.145 -21.486  16.729  1.00  0.00     0.254 C 
HETATM   14  N2  UNL     1     -11.798 -20.450  17.617  1.00  0.00    -0.352 N 
ATOM     15  H2  UNL     1     -12.482 -19.739  17.877  1.00  0.00     0.163 HD
HETATM   16  O1  UNL     1     -11.197 -22.284  16.467  1.00  0.00    -0.268 OA
BRANCH  14  17
HETATM   17  C9  UNL     1     -10.432 -20.409  18.164  1.00  0.00     0.088 C 
HETATM   18  C8  UNL     1     -10.522 -20.681  19.675  1.00  0.00     0.055 C 
HETATM   19  C7  UNL     1     -10.870 -19.375  20.293  1.00  0.00     0.274 C 
HETATM   20  N1  UNL     1      -9.748 -18.461  20.320  1.00  0.00     0.088 N 
HETATM   21  C30 UNL     1      -9.107 -18.434  19.042  1.00  0.00     0.274 C 
HETATM   22  C29 UNL     1      -9.889 -19.041  17.908  1.00  0.00     0.055 C 
BRANCH  20  23
HETATM   23  C6  UNL     1      -8.769 -18.849  21.316  1.00  0.00     0.272 C 
BRANCH  23  24
HETATM   24  C5  UNL     1      -7.977 -17.687  21.828  1.00  0.00     0.030 C 
BRANCH  24  25
HETATM   25  C4  UNL     1      -6.520 -17.920  21.530  1.00  0.00     0.002 C 
BRANCH  25  26
HETATM   26  C3  UNL     1      -6.187 -19.298  21.077  1.00  0.00    -0.000 C 
BRANCH  26  27
HETATM   27  C2  UNL     1      -4.704 -19.251  20.660  1.00  0.00    -0.005 C 
HETATM   28  C1  UNL     1      -3.807 -19.249  21.863  1.00  0.00     0.005 C 
ENDBRANCH  26  27
ENDBRANCH  25  26
ENDBRANCH  24  25
ENDBRANCH  23  24
ENDBRANCH  20  23
ENDBRANCH  14  17
ENDBRANCH   1  13
BRANCH   8  29
HETATM   29  C16 UNL     1     -15.910 -24.052  19.814  1.00  0.00     0.256 C 
HETATM   30  O3  UNL     1     -15.088 -23.972  20.716  1.00  0.00    -0.281 OA
BRANCH  29  31
HETATM   31  C17 UNL     1     -17.139 -24.831  19.956  1.00  0.00     0.293 C 
HETATM   32  O4  UNL     1     -18.012 -24.401  20.774  1.00  0.00    -0.264 OA
HETATM   33  N4  UNL     1     -17.324 -25.996  19.205  1.00  0.00    -0.354 N 
ATOM     34  H4  UNL     1     -16.582 -26.273  18.563  1.00  0.00     0.162 HD
BRANCH  33  35
HETATM   35  C18 UNL     1     -18.493 -26.829  19.279  1.00  0.00     0.132 C 
BRANCH  35  36
HETATM   36  C19 UNL     1     -19.409 -26.644  18.061  1.00  0.00     0.122 C 
BRANCH  36  37
HETATM   37  C20 UNL     1     -18.707 -27.141  16.861  1.00  0.00     0.221 C 
HETATM   38  O5  UNL     1     -17.877 -28.074  17.004  1.00  0.00    -0.273 OA
HETATM   39  N5  UNL     1     -18.920 -26.613  15.535  1.00  0.00    -0.348 N 
HETATM   40  C21 UNL     1     -19.873 -25.534  15.339  1.00  0.00     0.152 C 
HETATM   41  C24 UNL     1     -18.218 -27.164  14.411  1.00  0.00     0.152 C 
HETATM   42  C22 UNL     1     -19.496 -24.707  14.170  1.00  0.00     0.187 C 
HETATM   43  O6  UNL     1     -18.174 -24.847  13.774  1.00  0.00    -0.388 OA
HETATM   44  C23 UNL     1     -17.970 -26.147  13.327  1.00  0.00     0.187 C 
ENDBRANCH  36  37
ENDBRANCH  35  36
ENDBRANCH  33  35
ENDBRANCH  29  31
ENDBRANCH   8  29
TORSDOF 12
ENDMDL
MODEL 3
REMARK VINA RESULT: -9.365821826      1.105      1.841
REMARK  12 active torsions:
REMARK  status: ('A' for Active; 'I' for Inactive)
REMARK    1  A    between atoms: C2_2  and  C3_3 
REMARK    2  A    between atoms: C3_3  and  C4_4 
REMARK    3  A    between atoms: C4_4  and  C5_5 
REMARK    4  A    between atoms: C5_5  and  C6_6 
REMARK    5  A    between atoms: C6_6  and  N1_7 
REMARK    6  A    between atoms: C9_10  and  N2_11 
REMARK       I    between atoms: N2_11  and  C10_13 
REMARK    7  A    between atoms: C10_13  and  C11_15 
REMARK    8  A    between atoms: C15_22  and  C16_23 
REMARK    9  A    between atoms: C16_23  and  C17_25 
REMARK       I    between atoms: C17_25  and  N4_27 
REMARK   10  A    between atoms: N4_27  and  C18_29 
REMARK   11  A    between atoms: C18_29  and  C19_30 
REMARK   12  A    between atoms: C19_30  and  C20_31 
REMARK       I    between atoms: C20_31  and  N5_33 
ROOT
HETATM    1  C11 UNL     1     -13.478 -21.648  16.198  1.00  0.00     0.066 A 
HETATM    2  C12 UNL     1     -13.689 -21.101  14.942  1.00  0.00     0.033 A 
HETATM    3  N3  UNL     1     -14.838 -21.116  14.278  1.00  0.00    -0.316 N 
HETATM    4  C13 UNL     1     -15.906 -21.722  14.878  1.00  0.00     0.266 A 
HETATM    5  O2  UNL     1     -17.028 -21.799  14.359  1.00  0.00    -0.266 OA
HETATM    6  C14 UNL     1     -15.734 -22.284  16.137  1.00  0.00     0.085 A 
HETATM    7  S1  UNL     1     -16.805 -23.129  17.206  1.00  0.00    -0.080 SA
HETATM    8  C15 UNL     1     -15.741 -23.440  18.476  1.00  0.00     0.062 A 
HETATM    9  C25 UNL     1     -14.561 -22.879  18.057  1.00  0.00     0.037 A 
HETATM   10  C26 UNL     1     -14.557 -22.283  16.850  1.00  0.00     0.006 A 
HETATM   11  C27 UNL     1     -14.411 -20.399  13.112  1.00  0.00     0.138 A 
HETATM   12  C28 UNL     1     -13.074 -20.383  13.777  1.00  0.00     0.078 A 
ENDROOT
BRANCH   1  13
HETATM   13  C10 UNL     1     -12.162 -21.517  16.816  1.00  0.00     0.254 C 
HETATM   14  N2  UNL     1     -11.824 -20.475  17.700  1.00  0.00    -0.352 N 
ATOM     15  H2  UNL     1     -12.503 -19.750  17.930  1.00  0.00     0.163 HD
HETATM   16  O1  UNL     1     -11.220 -22.335  16.594  1.00  0.00    -0.268 OA
BRANCH  14  17
HETATM   17  C9  UNL     1     -10.475 -20.448  18.286  1.00  0.00     0.088 C 
HETATM   18  C8  UNL     1     -10.606 -20.763  19.786  1.00  0.00     0.055 C 
HETATM   19  C7  UNL     1     -10.974 -19.475  20.431  1.00  0.00     0.274 C 
HETATM   20  N1  UNL     1      -9.855 -18.561  20.515  1.00  0.00     0.088 N 
HETATM   21  C30 UNL     1      -9.179 -18.498  19.256  1.00  0.00     0.274 C 
HETATM   22  C29 UNL     1      -9.927 -19.073  18.084  1.00  0.00     0.055 C 
BRANCH  20  23
HETATM   23  C6  UNL     1      -8.904 -18.976  21.526  1.00  0.00     0.272 C 
BRANCH  23  24
HETATM   24  C5  UNL     1      -7.491 -18.650  21.156  1.00  0.00     0.030 C 
BRANCH  24  25
HETATM   25  C4  UNL     1      -7.082 -17.383  21.858  1.00  0.00     0.002 C 
BRANCH  25  26
HETATM   26  C3  UNL     1      -6.062 -16.572  21.141  1.00  0.00    -0.000 C 
BRANCH  26  27
HETATM   27  C2  UNL     1      -6.826 -15.839  20.020  1.00  0.00    -0.005 C 
HETATM   28  C1  UNL     1      -6.236 -16.151  18.675  1.00  0.00     0.005 C 
ENDBRANCH  26  27
ENDBRANCH  25  26
ENDBRANCH  24  25
ENDBRANCH  23  24
ENDBRANCH  20  23
ENDBRANCH  14  17
ENDBRANCH   1  13
BRANCH   8  29
HETATM   29  C16 UNL     1     -15.998 -24.170  19.738  1.00  0.00     0.256 C 
HETATM   30  O3  UNL     1     -15.193 -24.121  20.658  1.00  0.00    -0.281 OA
BRANCH  29  31
HETATM   31  C17 UNL     1     -17.235 -24.942  19.833  1.00  0.00     0.293 C 
HETATM   32  O4  UNL     1     -18.143 -24.497  20.604  1.00  0.00    -0.264 OA
HETATM   33  N4  UNL     1     -17.390 -26.117  19.092  1.00  0.00    -0.354 N 
ATOM     34  H4  UNL     1     -16.620 -26.405  18.489  1.00  0.00     0.162 HD
BRANCH  33  35
HETATM   35  C18 UNL     1     -18.564 -26.945  19.123  1.00  0.00     0.132 C 
BRANCH  35  36
HETATM   36  C19 UNL     1     -19.452 -26.731  17.889  1.00  0.00     0.122 C 
BRANCH  36  37
HETATM   37  C20 UNL     1     -18.730 -27.220  16.697  1.00  0.00     0.221 C 
HETATM   38  O5  UNL     1     -17.937 -28.186  16.839  1.00  0.00    -0.273 OA
HETATM   39  N5  UNL     1     -18.884 -26.650  15.381  1.00  0.00    -0.348 N 
HETATM   40  C21 UNL     1     -19.793 -25.534  15.186  1.00  0.00     0.152 C 
HETATM   41  C24 UNL     1     -18.166 -27.196  14.263  1.00  0.00     0.152 C 
HETATM   42  C22 UNL     1     -19.352 -24.690  14.052  1.00  0.00     0.187 C 
HETATM   43  O6  UNL     1     -18.024 -24.865  13.692  1.00  0.00    -0.388 OA
HETATM   44  C23 UNL     1     -17.850 -26.159  13.216  1.00  0.00     0.187 C 
ENDBRANCH  36  37
ENDBRANCH  35  36
ENDBRANCH  33  35
ENDBRANCH  29  31
ENDBRANCH   8  29
TORSDOF 12
ENDMDL
MODEL 4
REMARK VINA RESULT: -9.256731148      1.932      3.281
REMARK  12 active torsions:
REMARK  status: ('A' for Active; 'I' for Inactive)
REMARK    1  A    between atoms: C2_2  and  C3_3 
REMARK    2  A    between atoms: C3_3  and  C4_4 
REMARK    3  A    between atoms: C4_4  and  C5_5 
REMARK    4  A    between atoms: C5_5  and  C6_6 
REMARK    5  A    between atoms: C6_6  and  N1_7 
REMARK    6  A    between atoms: C9_10  and  N2_11 
REMARK       I    between atoms: N2_11  and  C10_13 
REMARK    7  A    between atoms: C10_13  and  C11_15 
REMARK    8  A    between atoms: C15_22  and  C16_23 
REMARK    9  A    between atoms: C16_23  and  C17_25 
REMARK       I    between atoms: C17_25  and  N4_27 
REMARK   10  A    between atoms: N4_27  and  C18_29 
REMARK   11  A    between atoms: C18_29  and  C19_30 
REMARK   12  A    between atoms: C19_30  and  C20_31 
REMARK       I    between atoms: C20_31  and  N5_33 
ROOT
HETATM    1  C11 UNL     1     -13.646 -21.710  15.833  1.00  0.00     0.066 A 
HETATM    2  C12 UNL     1     -13.959 -21.357  14.529  1.00  0.00     0.033 A 
HETATM    3  N3  UNL     1     -15.138 -21.530  13.947  1.00  0.00    -0.316 N 
HETATM    4  C13 UNL     1     -16.131 -22.105  14.689  1.00  0.00     0.266 A 
HETATM    5  O2  UNL     1     -17.272 -22.318  14.256  1.00  0.00    -0.266 OA
HETATM    6  C14 UNL     1     -15.855 -22.474  16.000  1.00  0.00     0.085 A 
HETATM    7  S1  UNL     1     -16.811 -23.221  17.239  1.00  0.00    -0.080 SA
HETATM    8  C15 UNL     1     -15.662 -23.290  18.471  1.00  0.00     0.062 A 
HETATM    9  C25 UNL     1     -14.545 -22.728  17.906  1.00  0.00     0.037 A 
HETATM   10  C26 UNL     1     -14.645 -22.307  16.632  1.00  0.00     0.006 A 
HETATM   11  C27 UNL     1     -14.822 -20.960  12.669  1.00  0.00     0.138 A 
HETATM   12  C28 UNL     1     -13.455 -20.776  13.242  1.00  0.00     0.078 A 
ENDROOT
BRANCH   1  13
HETATM   13  C10 UNL     1     -12.309 -21.419  16.344  1.00  0.00     0.254 C 
HETATM   14  N2  UNL     1     -11.822 -20.112  16.533  1.00  0.00    -0.352 N 
ATOM     15  H2  UNL     1     -12.399 -19.305  16.297  1.00  0.00     0.163 HD
HETATM   16  O1  UNL     1     -11.483 -22.330  16.649  1.00  0.00    -0.268 OA
BRANCH  14  17
HETATM   17  C9  UNL     1     -10.467 -19.929  17.076  1.00  0.00     0.088 C 
HETATM   18  C8  UNL     1     -10.555 -18.919  18.232  1.00  0.00     0.055 C 
HETATM   19  C7  UNL     1     -10.541 -17.578  17.589  1.00  0.00     0.274 C 
HETATM   20  N1  UNL     1      -9.227 -17.213  17.104  1.00  0.00     0.088 N 
HETATM   21  C30 UNL     1      -8.656 -18.301  16.371  1.00  0.00     0.274 C 
HETATM   22  C29 UNL     1      -9.612 -19.392  15.973  1.00  0.00     0.055 C 
BRANCH  20  23
HETATM   23  C6  UNL     1      -8.332 -16.875  18.192  1.00  0.00     0.272 C 
BRANCH  23  24
HETATM   24  C5  UNL     1      -7.736 -15.510  18.044  1.00  0.00     0.030 C 
BRANCH  24  25
HETATM   25  C4  UNL     1      -6.636 -15.567  17.017  1.00  0.00     0.002 C 
BRANCH  25  26
HETATM   26  C3  UNL     1      -6.796 -14.623  15.877  1.00  0.00    -0.000 C 
BRANCH  26  27
HETATM   27  C2  UNL     1      -7.126 -15.501  14.654  1.00  0.00    -0.005 C 
HETATM   28  C1  UNL     1      -8.531 -15.261  14.184  1.00  0.00     0.005 C 
ENDBRANCH  26  27
ENDBRANCH  25  26
ENDBRANCH  24  25
ENDBRANCH  23  24
ENDBRANCH  20  23
ENDBRANCH  14  17
ENDBRANCH   1  13
BRANCH   8  29
HETATM   29  C16 UNL     1     -15.803 -23.849  19.834  1.00  0.00     0.256 C 
HETATM   30  O3  UNL     1     -14.957 -23.622  20.688  1.00  0.00    -0.281 OA
BRANCH  29  31
HETATM   31  C17 UNL     1     -16.977 -24.674  20.109  1.00  0.00     0.293 C 
HETATM   32  O4  UNL     1     -17.845 -24.206  20.910  1.00  0.00    -0.264 OA
HETATM   33  N4  UNL     1     -17.117 -25.924  19.498  1.00  0.00    -0.354 N 
ATOM     34  H4  UNL     1     -16.381 -26.228  18.860  1.00  0.00     0.162 HD
BRANCH  33  35
HETATM   35  C18 UNL     1     -18.229 -26.808  19.709  1.00  0.00     0.132 C 
BRANCH  35  36
HETATM   36  C19 UNL     1     -19.181 -26.834  18.504  1.00  0.00     0.122 C 
BRANCH  36  37
HETATM   37  C20 UNL     1     -18.624 -27.743  17.481  1.00  0.00     0.221 C 
HETATM   38  O5  UNL     1     -17.660 -27.334  16.787  1.00  0.00    -0.273 OA
HETATM   39  N5  UNL     1     -19.128 -29.073  17.236  1.00  0.00    -0.348 N 
HETATM   40  C21 UNL     1     -20.242 -29.573  18.024  1.00  0.00     0.152 C 
HETATM   41  C24 UNL     1     -18.520 -29.909  16.240  1.00  0.00     0.152 C 
HETATM   42  C22 UNL     1     -21.023 -30.568  17.254  1.00  0.00     0.187 C 
HETATM   43  O6  UNL     1     -20.817 -30.521  15.883  1.00  0.00    -0.388 OA
HETATM   44  C23 UNL     1     -19.499 -30.867  15.611  1.00  0.00     0.187 C 
ENDBRANCH  36  37
ENDBRANCH  35  36
ENDBRANCH  33  35
ENDBRANCH  29  31
ENDBRANCH   8  29
TORSDOF 12
ENDMDL
MODEL 5
REMARK VINA RESULT: -9.193731222      1.364      1.964
REMARK  12 active torsions:
REMARK  status: ('A' for Active; 'I' for Inactive)
REMARK    1  A    between atoms: C2_2  and  C3_3 
REMARK    2  A    between atoms: C3_3  and  C4_4 
REMARK    3  A    between atoms: C4_4  and  C5_5 
REMARK    4  A    between atoms: C5_5  and  C6_6 
REMARK    5  A    between atoms: C6_6  and  N1_7 
REMARK    6  A    between atoms: C9_10  and  N2_11 
REMARK       I    between atoms: N2_11  and  C10_13 
REMARK    7  A    between atoms: C10_13  and  C11_15 
REMARK    8  A    between atoms: C15_22  and  C16_23 
REMARK    9  A    between atoms: C16_23  and  C17_25 
REMARK       I    between atoms: C17_25  and  N4_27 
REMARK   10  A    between atoms: N4_27  and  C18_29 
REMARK   11  A    between atoms: C18_29  and  C19_30 
REMARK   12  A    between atoms: C19_30  and  C20_31 
REMARK       I    between atoms: C20_31  and  N5_33 
ROOT
HETATM    1  C11 UNL     1     -13.574 -21.628  15.741  1.00  0.00     0.066 A 
HETATM    2  C12 UNL     1     -13.930 -21.224  14.464  1.00  0.00     0.033 A 
HETATM    3  N3  UNL     1     -15.148 -21.300  13.943  1.00  0.00    -0.316 N 
HETATM    4  C13 UNL     1     -16.138 -21.824  14.727  1.00  0.00     0.266 A 
HETATM    5  O2  UNL     1     -17.313 -21.948  14.353  1.00  0.00    -0.266 OA
HETATM    6  C14 UNL     1     -15.819 -22.243  16.013  1.00  0.00     0.085 A 
HETATM    7  S1  UNL     1     -16.757 -22.952  17.286  1.00  0.00    -0.080 SA
HETATM    8  C15 UNL     1     -15.552 -23.130  18.452  1.00  0.00     0.062 A 
HETATM    9  C25 UNL     1     -14.430 -22.632  17.838  1.00  0.00     0.037 A 
HETATM   10  C26 UNL     1     -14.568 -22.175  16.580  1.00  0.00     0.006 A 
HETATM   11  C27 UNL     1     -14.861 -20.723  12.662  1.00  0.00     0.138 A 
HETATM   12  C28 UNL     1     -13.456 -20.647  13.163  1.00  0.00     0.078 A 
ENDROOT
BRANCH   1  13
HETATM   13  C10 UNL     1     -12.195 -21.443  16.184  1.00  0.00     0.254 C 
HETATM   14  N2  UNL     1     -11.560 -20.187  16.228  1.00  0.00    -0.352 N 
ATOM     15  H2  UNL     1     -12.054 -19.346  15.928  1.00  0.00     0.163 HD
HETATM   16  O1  UNL     1     -11.463 -22.407  16.555  1.00  0.00    -0.268 OA
BRANCH  14  17
HETATM   17  C9  UNL     1     -10.173 -20.106  16.712  1.00  0.00     0.088 C 
HETATM   18  C8  UNL     1     -10.217 -19.961  18.243  1.00  0.00     0.055 C 
HETATM   19  C7  UNL     1     -10.450 -18.515  18.497  1.00  0.00     0.274 C 
HETATM   20  N1  UNL     1      -9.269 -17.715  18.253  1.00  0.00     0.088 N 
HETATM   21  C30 UNL     1      -8.683 -18.077  16.999  1.00  0.00     0.274 C 
HETATM   22  C29 UNL     1      -9.550 -18.900  16.087  1.00  0.00     0.055 C 
BRANCH  20  23
HETATM   23  C6  UNL     1      -8.277 -17.899  19.293  1.00  0.00     0.272 C 
BRANCH  23  24
HETATM   24  C5  UNL     1      -8.744 -17.410  20.628  1.00  0.00     0.030 C 
BRANCH  24  25
HETATM   25  C4  UNL     1      -8.387 -18.431  21.675  1.00  0.00     0.002 C 
BRANCH  25  26
HETATM   26  C3  UNL     1      -9.410 -19.490  21.890  1.00  0.00    -0.000 C 
BRANCH  26  27
HETATM   27  C2  UNL     1      -8.639 -20.825  21.861  1.00  0.00    -0.005 C 
HETATM   28  C1  UNL     1      -9.016 -21.637  20.656  1.00  0.00     0.005 C 
ENDBRANCH  26  27
ENDBRANCH  25  26
ENDBRANCH  24  25
ENDBRANCH  23  24
ENDBRANCH  20  23
ENDBRANCH  14  17
ENDBRANCH   1  13
BRANCH   8  29
HETATM   29  C16 UNL     1     -15.658 -23.711  19.809  1.00  0.00     0.256 C 
HETATM   30  O3  UNL     1     -14.791 -23.498  20.645  1.00  0.00    -0.281 OA
BRANCH  29  31
HETATM   31  C17 UNL     1     -16.826 -24.540  20.100  1.00  0.00     0.293 C 
HETATM   32  O4  UNL     1     -17.641 -24.114  20.978  1.00  0.00    -0.264 OA
HETATM   33  N4  UNL     1     -17.019 -25.748  19.422  1.00  0.00    -0.354 N 
ATOM     34  H4  UNL     1     -16.325 -26.019  18.725  1.00  0.00     0.162 HD
BRANCH  33  35
HETATM   35  C18 UNL     1     -18.130 -26.632  19.642  1.00  0.00     0.132 C 
BRANCH  35  36
HETATM   36  C19 UNL     1     -19.091 -26.657  18.445  1.00  0.00     0.122 C 
BRANCH  36  37
HETATM   37  C20 UNL     1     -18.581 -27.622  17.450  1.00  0.00     0.221 C 
HETATM   38  O5  UNL     1     -17.623 -27.267  16.718  1.00  0.00    -0.273 OA
HETATM   39  N5  UNL     1     -19.124 -28.946  17.271  1.00  0.00    -0.348 N 
HETATM   40  C21 UNL     1     -20.232 -29.384  18.102  1.00  0.00     0.152 C 
HETATM   41  C24 UNL     1     -18.559 -29.838  16.297  1.00  0.00     0.152 C 
HETATM   42  C22 UNL     1     -21.055 -30.390  17.392  1.00  0.00     0.187 C 
HETATM   43  O6  UNL     1     -20.878 -30.404  16.016  1.00  0.00    -0.388 OA
HETATM   44  C23 UNL     1     -19.576 -30.795  15.730  1.00  0.00     0.187 C 
ENDBRANCH  36  37
ENDBRANCH  35  36
ENDBRANCH  33  35
ENDBRANCH  29  31
ENDBRANCH   8  29
TORSDOF 12
ENDMDL
