MODEL 1
REMARK VINA RESULT: -8.077845766      0.000      0.000
REMARK  16 active torsions:
REMARK  status: ('A' for Active; 'I' for Inactive)
REMARK    1  A    between atoms: C2_2  and  O1_3 
REMARK    2  A    between atoms: O1_3  and  C3_4 
REMARK    3  A    between atoms: C3_4  and  C4_6 
REMARK    4  A    between atoms: C4_6  and  O3_7 
REMARK    5  A    between atoms: C4_6  and  C5_9 
REMARK    6  A    between atoms: C5_9  and  C6_10 
REMARK       I    between atoms: C6_10  and  N1_12 
REMARK    7  A    between atoms: C7_14  and  C8_15 
REMARK    8  A    between atoms: C7_14  and  C12_23 
REMARK    9  A    between atoms: C8_15  and  C9_16 
REMARK   10  A    between atoms: C9_16  and  C10_17 
REMARK   11  A    between atoms: C10_17  and  C11_18 
REMARK   12  A    between atoms: C11_18  and  N2_19 
REMARK   13  A    between atoms: C12_23  and  N3_24 
REMARK   14  A    between atoms: C12_23  and  C25_42 
REMARK   15  A    between atoms: N4_33  and  S2_34 
REMARK   16  A    between atoms: S2_34  and  C20_37 
ROOT
HETATM    1  C12 UNL     1      -8.288 -18.531  19.147  1.00  0.00     0.144 C 
ENDROOT
BRANCH   1   2
HETATM    2  C7  UNL     1      -7.706 -17.325  18.513  1.00  0.00     0.013 C 
HETATM    3  N1  UNL     1      -6.477 -17.084  18.361  1.00  0.00    -0.332 N 
HETATM    4  C6  UNL     1      -5.292 -17.687  18.643  1.00  0.00     0.224 C 
ATOM      5  H1  UNL     1      -6.333 -16.186  17.898  1.00  0.00     0.168 HD
HETATM    6  O4  UNL     1      -5.108 -18.428  19.633  1.00  0.00    -0.273 OA
BRANCH   4   7
HETATM    7  C5  UNL     1      -4.126 -17.466  17.734  1.00  0.00     0.145 C 
BRANCH   7   8
HETATM    8  C4  UNL     1      -4.575 -16.710  16.529  1.00  0.00     0.226 C 
BRANCH   8   9
HETATM    9  C3  UNL     1      -3.466 -16.246  15.681  1.00  0.00     0.288 C 
HETATM   10  O2  UNL     1      -3.440 -15.105  15.141  1.00  0.00    -0.262 OA
BRANCH   9  11
HETATM   11  O1  UNL     1      -2.393 -17.091  15.458  1.00  0.00    -0.320 OA
BRANCH  11  12
HETATM   12  C2  UNL     1      -1.043 -16.738  15.611  1.00  0.00     0.174 C 
HETATM   13  C1  UNL     1      -0.468 -17.341  16.859  1.00  0.00     0.034 C 
ENDBRANCH  11  12
ENDBRANCH   9  11
ENDBRANCH   8   9
BRANCH   8  14
HETATM   14  O3  UNL     1      -5.455 -17.471  15.782  1.00  0.00    -0.385 OA
ATOM     15  H3  UNL     1      -6.185 -17.748  16.322  1.00  0.00     0.210 HD
ENDBRANCH   8  14
ENDBRANCH   7   8
ENDBRANCH   4   7
BRANCH   2  16
HETATM   16  C8  UNL     1      -8.583 -16.222  17.967  1.00  0.00     0.055 C 
BRANCH  16  17
HETATM   17  C9  UNL     1      -7.926 -15.483  16.831  1.00  0.00     0.007 C 
BRANCH  17  18
HETATM   18  C10 UNL     1      -8.765 -15.424  15.601  1.00  0.00     0.027 C 
BRANCH  18  19
HETATM   19  C11 UNL     1      -7.969 -15.350  14.327  1.00  0.00     0.229 C 
BRANCH  19  20
HETATM   20  N2  UNL     1      -6.618 -14.916  14.622  1.00  0.00    -0.079 N 
ATOM     21  H23 UNL     1      -6.600 -14.049  15.160  1.00  0.00     0.274 HD
ATOM     22  H22 UNL     1      -6.160 -15.521  15.305  1.00  0.00     0.274 HD
ATOM     23  H21 UNL     1      -6.084 -14.843  13.756  1.00  0.00     0.274 HD
ENDBRANCH  19  20
ENDBRANCH  18  19
ENDBRANCH  17  18
ENDBRANCH  16  17
ENDBRANCH   2  16
ENDBRANCH   1   2
BRANCH   1  24
HETATM   24  N3  UNL     1      -9.310 -19.046  18.299  1.00  0.00    -0.344 N 
HETATM   25  C13 UNL     1     -10.126 -20.027  18.947  1.00  0.00     0.142 C 
HETATM   26  C14 UNL     1     -11.382 -20.348  18.123  1.00  0.00    -0.010 C 
HETATM   27  C15 UNL     1     -11.944 -19.079  17.636  1.00  0.00     0.013 C 
HETATM   28  C18 UNL     1     -11.101 -21.405  17.116  1.00  0.00     0.028 C 
HETATM   29  C24 UNL     1     -12.345 -21.004  19.091  1.00  0.00     0.118 C 
HETATM   30  C16 UNL     1     -11.890 -18.845  16.163  1.00  0.00     0.013 C 
HETATM   31  C17 UNL     1     -10.525 -18.531  15.632  1.00  0.00     0.097 C 
HETATM   32  S1  UNL     1      -9.171 -19.080  16.647  1.00  0.00    -0.057 SA
HETATM   33  C19 UNL     1     -12.141 -22.488  17.299  1.00  0.00     0.108 C 
HETATM   34  N4  UNL     1     -12.866 -22.185  18.488  1.00  0.00    -0.206 NA
BRANCH  34  35
HETATM   35  S2  UNL     1     -14.569 -22.119  18.239  1.00  0.00     0.233 S 
HETATM   36  O5  UNL     1     -15.026 -20.684  18.226  1.00  0.00    -0.207 OA
HETATM   37  O6  UNL     1     -14.898 -22.813  16.930  1.00  0.00    -0.207 OA
BRANCH  35  38
HETATM   38  C20 UNL     1     -15.448 -22.950  19.486  1.00  0.00     0.128 C 
HETATM   39  C21 UNL     1     -15.373 -24.260  19.567  1.00  0.00    -0.076 C 
HETATM   40  C22 UNL     1     -16.118 -24.996  20.629  1.00  0.00     0.043 C 
HETATM   41  C23 UNL     1     -14.557 -25.072  18.624  1.00  0.00     0.043 C 
ENDBRANCH  35  38
ENDBRANCH  34  35
ENDBRANCH   1  24
BRANCH   1  42
HETATM   42  C25 UNL     1      -8.565 -18.468  20.589  1.00  0.00    -0.025 C 
HETATM   43  C26 UNL     1      -9.908 -18.595  21.133  1.00  0.00     0.017 C 
HETATM   44  C27 UNL     1      -7.685 -19.524  21.285  1.00  0.00     0.017 C 
HETATM   45  C28 UNL     1      -7.984 -17.131  21.096  1.00  0.00     0.017 C 
ENDBRANCH   1  42
TORSDOF 16
ENDMDL
MODEL 2
REMARK VINA RESULT: -8.067787820      0.784      1.254
REMARK  16 active torsions:
REMARK  status: ('A' for Active; 'I' for Inactive)
REMARK    1  A    between atoms: C2_2  and  O1_3 
REMARK    2  A    between atoms: O1_3  and  C3_4 
REMARK    3  A    between atoms: C3_4  and  C4_6 
REMARK    4  A    between atoms: C4_6  and  O3_7 
REMARK    5  A    between atoms: C4_6  and  C5_9 
REMARK    6  A    between atoms: C5_9  and  C6_10 
REMARK       I    between atoms: C6_10  and  N1_12 
REMARK    7  A    between atoms: C7_14  and  C8_15 
REMARK    8  A    between atoms: C7_14  and  C12_23 
REMARK    9  A    between atoms: C8_15  and  C9_16 
REMARK   10  A    between atoms: C9_16  and  C10_17 
REMARK   11  A    between atoms: C10_17  and  C11_18 
REMARK   12  A    between atoms: C11_18  and  N2_19 
REMARK   13  A    between atoms: C12_23  and  N3_24 
REMARK   14  A    between atoms: C12_23  and  C25_42 
REMARK   15  A    between atoms: N4_33  and  S2_34 
REMARK   16  A    between atoms: S2_34  and  C20_37 
ROOT
HETATM    1  C12 UNL     1      -8.188 -18.457  19.160  1.00  0.00     0.144 C 
ENDROOT
BRANCH   1   2
HETATM    2  C7  UNL     1      -7.576 -17.244  18.568  1.00  0.00     0.013 C 
HETATM    3  N1  UNL     1      -6.342 -17.031  18.416  1.00  0.00    -0.332 N 
HETATM    4  C6  UNL     1      -5.172 -17.678  18.665  1.00  0.00     0.224 C 
ATOM      5  H1  UNL     1      -6.176 -16.122  17.986  1.00  0.00     0.168 HD
HETATM    6  O4  UNL     1      -5.003 -18.461  19.624  1.00  0.00    -0.273 OA
BRANCH   4   7
HETATM    7  C5  UNL     1      -4.007 -17.455  17.756  1.00  0.00     0.145 C 
BRANCH   7   8
HETATM    8  C4  UNL     1      -4.460 -16.713  16.544  1.00  0.00     0.226 C 
BRANCH   8   9
HETATM    9  C3  UNL     1      -3.356 -16.293  15.667  1.00  0.00     0.288 C 
HETATM   10  O2  UNL     1      -2.394 -17.050  15.357  1.00  0.00    -0.262 OA
BRANCH   9  11
HETATM   11  O1  UNL     1      -3.361 -15.009  15.149  1.00  0.00    -0.320 OA
BRANCH  11  12
HETATM   12  C2  UNL     1      -2.604 -13.937  15.646  1.00  0.00     0.174 C 
HETATM   13  C1  UNL     1      -3.476 -12.951  16.366  1.00  0.00     0.034 C 
ENDBRANCH  11  12
ENDBRANCH   9  11
ENDBRANCH   8   9
BRANCH   8  14
HETATM   14  O3  UNL     1      -5.372 -17.467  15.829  1.00  0.00    -0.385 OA
ATOM     15  H3  UNL     1      -5.948 -17.930  16.424  1.00  0.00     0.210 HD
ENDBRANCH   8  14
ENDBRANCH   7   8
ENDBRANCH   4   7
BRANCH   2  16
HETATM   16  C8  UNL     1      -8.425 -16.097  18.070  1.00  0.00     0.055 C 
BRANCH  16  17
HETATM   17  C9  UNL     1      -7.770 -15.356  16.934  1.00  0.00     0.007 C 
BRANCH  17  18
HETATM   18  C10 UNL     1      -8.624 -15.272  15.716  1.00  0.00     0.027 C 
BRANCH  18  19
HETATM   19  C11 UNL     1      -7.850 -15.345  14.427  1.00  0.00     0.229 C 
BRANCH  19  20
HETATM   20  N2  UNL     1      -6.493 -14.884  14.648  1.00  0.00    -0.079 N 
ATOM     21  H23 UNL     1      -6.431 -13.866  14.670  1.00  0.00     0.274 HD
ATOM     22  H22 UNL     1      -6.174 -15.070  15.599  1.00  0.00     0.274 HD
ATOM     23  H21 UNL     1      -5.874 -15.293  13.948  1.00  0.00     0.274 HD
ENDBRANCH  19  20
ENDBRANCH  18  19
ENDBRANCH  17  18
ENDBRANCH  16  17
ENDBRANCH   2  16
ENDBRANCH   1   2
BRANCH   1  24
HETATM   24  N3  UNL     1      -9.206 -18.930  18.284  1.00  0.00    -0.344 N 
HETATM   25  C13 UNL     1     -10.049 -19.914  18.893  1.00  0.00     0.142 C 
HETATM   26  C14 UNL     1     -11.298 -20.190  18.044  1.00  0.00    -0.010 C 
HETATM   27  C15 UNL     1     -11.830 -18.898  17.584  1.00  0.00     0.013 C 
HETATM   28  C18 UNL     1     -11.021 -21.224  17.013  1.00  0.00     0.028 C 
HETATM   29  C24 UNL     1     -12.286 -20.854  18.981  1.00  0.00     0.118 C 
HETATM   30  C16 UNL     1     -11.751 -18.626  16.119  1.00  0.00     0.013 C 
HETATM   31  C17 UNL     1     -10.373 -18.321  15.616  1.00  0.00     0.097 C 
HETATM   32  S1  UNL     1      -9.043 -18.922  16.634  1.00  0.00    -0.057 SA
HETATM   33  C19 UNL     1     -12.082 -22.293  17.151  1.00  0.00     0.108 C 
HETATM   34  N4  UNL     1     -12.819 -22.009  18.338  1.00  0.00    -0.206 NA
BRANCH  34  35
HETATM   35  S2  UNL     1     -14.517 -21.906  18.067  1.00  0.00     0.233 S 
HETATM   36  O5  UNL     1     -15.105 -20.822  18.933  1.00  0.00    -0.207 OA
HETATM   37  O6  UNL     1     -14.760 -21.627  16.595  1.00  0.00    -0.207 OA
BRANCH  35  38
HETATM   38  C20 UNL     1     -15.334 -23.393  18.441  1.00  0.00     0.128 C 
HETATM   39  C21 UNL     1     -15.377 -23.812  19.686  1.00  0.00    -0.076 C 
HETATM   40  C22 UNL     1     -16.071 -25.085  20.032  1.00  0.00     0.043 C 
HETATM   41  C23 UNL     1     -14.746 -23.058  20.804  1.00  0.00     0.043 C 
ENDBRANCH  35  38
ENDBRANCH  34  35
ENDBRANCH   1  24
BRANCH   1  42
HETATM   42  C25 UNL     1      -8.484 -18.428  20.599  1.00  0.00    -0.025 C 
HETATM   43  C26 UNL     1      -9.837 -18.542  21.121  1.00  0.00     0.017 C 
HETATM   44  C27 UNL     1      -7.636 -19.522  21.277  1.00  0.00     0.017 C 
HETATM   45  C28 UNL     1      -7.882 -17.119  21.152  1.00  0.00     0.017 C 
ENDBRANCH   1  42
TORSDOF 16
ENDMDL
MODEL 3
REMARK VINA RESULT: -8.043472045      2.525      3.727
REMARK  16 active torsions:
REMARK  status: ('A' for Active; 'I' for Inactive)
REMARK    1  A    between atoms: C2_2  and  O1_3 
REMARK    2  A    between atoms: O1_3  and  C3_4 
REMARK    3  A    between atoms: C3_4  and  C4_6 
REMARK    4  A    between atoms: C4_6  and  O3_7 
REMARK    5  A    between atoms: C4_6  and  C5_9 
REMARK    6  A    between atoms: C5_9  and  C6_10 
REMARK       I    between atoms: C6_10  and  N1_12 
REMARK    7  A    between atoms: C7_14  and  C8_15 
REMARK    8  A    between atoms: C7_14  and  C12_23 
REMARK    9  A    between atoms: C8_15  and  C9_16 
REMARK   10  A    between atoms: C9_16  and  C10_17 
REMARK   11  A    between atoms: C10_17  and  C11_18 
REMARK   12  A    between atoms: C11_18  and  N2_19 
REMARK   13  A    between atoms: C12_23  and  N3_24 
REMARK   14  A    between atoms: C12_23  and  C25_42 
REMARK   15  A    between atoms: N4_33  and  S2_34 
REMARK   16  A    between atoms: S2_34  and  C20_37 
ROOT
HETATM    1  C12 UNL     1      -9.599 -19.777  18.529  1.00  0.00     0.144 C 
ENDROOT
BRANCH   1   2
HETATM    2  C7  UNL     1      -8.818 -18.529  18.365  1.00  0.00     0.013 C 
HETATM    3  N1  UNL     1      -8.453 -18.017  17.272  1.00  0.00    -0.332 N 
HETATM    4  C6  UNL     1      -8.568 -18.292  15.945  1.00  0.00     0.224 C 
ATOM      5  H1  UNL     1      -7.925 -17.158  17.425  1.00  0.00     0.168 HD
HETATM    6  O4  UNL     1      -8.625 -19.450  15.479  1.00  0.00    -0.273 OA
BRANCH   4   7
HETATM    7  C5  UNL     1      -8.631 -17.162  14.968  1.00  0.00     0.145 C 
BRANCH   7   8
HETATM    8  C4  UNL     1      -7.284 -16.528  14.858  1.00  0.00     0.226 C 
BRANCH   8   9
HETATM    9  C3  UNL     1      -7.161 -15.278  15.623  1.00  0.00     0.288 C 
HETATM   10  O2  UNL     1      -8.033 -14.365  15.600  1.00  0.00    -0.262 OA
BRANCH   9  11
HETATM   11  O1  UNL     1      -6.040 -15.080  16.411  1.00  0.00    -0.320 OA
BRANCH  11  12
HETATM   12  C2  UNL     1      -4.974 -14.225  16.094  1.00  0.00     0.174 C 
HETATM   13  C1  UNL     1      -3.767 -15.006  15.664  1.00  0.00     0.034 C 
ENDBRANCH  11  12
ENDBRANCH   9  11
ENDBRANCH   8   9
BRANCH   8  14
HETATM   14  O3  UNL     1      -6.299 -17.418  15.244  1.00  0.00    -0.385 OA
ATOM     15  H3  UNL     1      -6.653 -18.051  15.857  1.00  0.00     0.210 HD
ENDBRANCH   8  14
ENDBRANCH   7   8
ENDBRANCH   4   7
BRANCH   2  16
HETATM   16  C8  UNL     1      -8.366 -17.720  19.560  1.00  0.00     0.055 C 
BRANCH  16  17
HETATM   17  C9  UNL     1      -7.760 -16.402  19.158  1.00  0.00     0.007 C 
BRANCH  17  18
HETATM   18  C10 UNL     1      -6.386 -16.196  19.695  1.00  0.00     0.027 C 
BRANCH  18  19
HETATM   19  C11 UNL     1      -5.456 -17.352  19.443  1.00  0.00     0.229 C 
BRANCH  19  20
HETATM   20  N2  UNL     1      -5.102 -17.392  18.038  1.00  0.00    -0.079 N 
ATOM     21  H23 UNL     1      -5.911 -17.250  17.432  1.00  0.00     0.274 HD
ATOM     22  H22 UNL     1      -4.561 -16.574  17.754  1.00  0.00     0.274 HD
ATOM     23  H21 UNL     1      -4.615 -18.264  17.832  1.00  0.00     0.274 HD
ENDBRANCH  19  20
ENDBRANCH  18  19
ENDBRANCH  17  18
ENDBRANCH  16  17
ENDBRANCH   2  16
ENDBRANCH   1   2
BRANCH   1  24
HETATM   24  N3  UNL     1     -10.902 -19.576  17.990  1.00  0.00    -0.344 N 
HETATM   25  C13 UNL     1     -11.201 -20.470  16.912  1.00  0.00     0.142 C 
HETATM   26  C14 UNL     1     -12.692 -20.433  16.547  1.00  0.00    -0.010 C 
HETATM   27  C15 UNL     1     -13.467 -20.445  17.797  1.00  0.00     0.013 C 
HETATM   28  C18 UNL     1     -12.973 -19.343  15.576  1.00  0.00     0.028 C 
HETATM   29  C24 UNL     1     -12.948 -21.704  15.764  1.00  0.00     0.118 C 
HETATM   30  C16 UNL     1     -14.234 -19.206  18.120  1.00  0.00     0.013 C 
HETATM   31  C17 UNL     1     -13.391 -18.051  18.567  1.00  0.00     0.097 C 
HETATM   32  S1  UNL     1     -11.686 -18.116  18.063  1.00  0.00    -0.057 SA
HETATM   33  C19 UNL     1     -13.711 -19.961  14.408  1.00  0.00     0.108 C 
HETATM   34  N4  UNL     1     -13.677 -21.374  14.585  1.00  0.00    -0.206 NA
BRANCH  34  35
HETATM   35  S2  UNL     1     -15.242 -22.095  14.536  1.00  0.00     0.233 S 
HETATM   36  O5  UNL     1     -16.256 -21.080  14.078  1.00  0.00    -0.207 OA
HETATM   37  O6  UNL     1     -15.199 -23.291  13.602  1.00  0.00    -0.207 OA
BRANCH  35  38
HETATM   38  C20 UNL     1     -15.741 -22.687  16.092  1.00  0.00     0.128 C 
HETATM   39  C21 UNL     1     -16.986 -23.068  16.270  1.00  0.00    -0.076 C 
HETATM   40  C22 UNL     1     -17.438 -23.579  17.596  1.00  0.00     0.043 C 
HETATM   41  C23 UNL     1     -18.001 -23.012  15.183  1.00  0.00     0.043 C 
ENDBRANCH  35  38
ENDBRANCH  34  35
ENDBRANCH   1  24
BRANCH   1  42
HETATM   42  C25 UNL     1      -9.494 -20.473  19.819  1.00  0.00    -0.025 C 
HETATM   43  C26 UNL     1      -8.217 -20.870  20.391  1.00  0.00     0.017 C 
HETATM   44  C27 UNL     1     -10.226 -19.622  20.874  1.00  0.00     0.017 C 
HETATM   45  C28 UNL     1     -10.370 -21.740  19.714  1.00  0.00     0.017 C 
ENDBRANCH   1  42
TORSDOF 16
ENDMDL
MODEL 4
REMARK VINA RESULT: -7.778805277      3.464     11.309
REMARK  16 active torsions:
REMARK  status: ('A' for Active; 'I' for Inactive)
REMARK    1  A    between atoms: C2_2  and  O1_3 
REMARK    2  A    between atoms: O1_3  and  C3_4 
REMARK    3  A    between atoms: C3_4  and  C4_6 
REMARK    4  A    between atoms: C4_6  and  O3_7 
REMARK    5  A    between atoms: C4_6  and  C5_9 
REMARK    6  A    between atoms: C5_9  and  C6_10 
REMARK       I    between atoms: C6_10  and  N1_12 
REMARK    7  A    between atoms: C7_14  and  C8_15 
REMARK    8  A    between atoms: C7_14  and  C12_23 
REMARK    9  A    between atoms: C8_15  and  C9_16 
REMARK   10  A    between atoms: C9_16  and  C10_17 
REMARK   11  A    between atoms: C10_17  and  C11_18 
REMARK   12  A    between atoms: C11_18  and  N2_19 
REMARK   13  A    between atoms: C12_23  and  N3_24 
REMARK   14  A    between atoms: C12_23  and  C25_42 
REMARK   15  A    between atoms: N4_33  and  S2_34 
REMARK   16  A    between atoms: S2_34  and  C20_37 
ROOT
HETATM    1  C12 UNL     1     -14.411 -22.074  15.771  1.00  0.00     0.144 C 
ENDROOT
BRANCH   1   2
HETATM    2  C7  UNL     1     -15.636 -22.750  16.260  1.00  0.00     0.013 C 
HETATM    3  N1  UNL     1     -15.701 -23.580  17.207  1.00  0.00    -0.332 N 
HETATM    4  C6  UNL     1     -14.849 -24.164  18.092  1.00  0.00     0.224 C 
ATOM      5  H1  UNL     1     -16.657 -23.903  17.349  1.00  0.00     0.168 HD
HETATM    6  O4  UNL     1     -13.654 -24.423  17.836  1.00  0.00    -0.273 OA
BRANCH   4   7
HETATM    7  C5  UNL     1     -15.347 -24.527  19.454  1.00  0.00     0.145 C 
BRANCH   7   8
HETATM    8  C4  UNL     1     -16.276 -25.690  19.347  1.00  0.00     0.226 C 
BRANCH   8   9
HETATM    9  C3  UNL     1     -17.690 -25.328  19.524  1.00  0.00     0.288 C 
HETATM   10  O2  UNL     1     -18.101 -24.582  20.457  1.00  0.00    -0.262 OA
BRANCH   9  11
HETATM   11  O1  UNL     1     -18.626 -25.821  18.632  1.00  0.00    -0.320 OA
BRANCH  11  12
HETATM   12  C2  UNL     1     -19.649 -26.727  18.956  1.00  0.00     0.174 C 
HETATM   13  C1  UNL     1     -19.413 -28.059  18.306  1.00  0.00     0.034 C 
ENDBRANCH  11  12
ENDBRANCH   9  11
ENDBRANCH   8   9
BRANCH   8  14
HETATM   14  O3  UNL     1     -16.101 -26.338  18.138  1.00  0.00    -0.385 OA
ATOM     15  H3  UNL     1     -15.188 -26.574  18.025  1.00  0.00     0.210 HD
ENDBRANCH   8  14
ENDBRANCH   7   8
ENDBRANCH   4   7
BRANCH   2  16
HETATM   16  C8  UNL     1     -16.985 -22.488  15.629  1.00  0.00     0.055 C 
BRANCH  16  17
HETATM   17  C9  UNL     1     -18.118 -23.001  16.478  1.00  0.00     0.007 C 
BRANCH  17  18
HETATM   18  C10 UNL     1     -19.092 -23.836  15.719  1.00  0.00     0.027 C 
BRANCH  18  19
HETATM   19  C11 UNL     1     -18.447 -24.896  14.867  1.00  0.00     0.229 C 
BRANCH  19  20
HETATM   20  N2  UNL     1     -17.977 -25.977  15.709  1.00  0.00    -0.079 N 
ATOM     21  H23 UNL     1     -17.979 -25.724  16.698  1.00  0.00     0.274 HD
ATOM     22  H22 UNL     1     -18.644 -26.748  15.754  1.00  0.00     0.274 HD
ATOM     23  H21 UNL     1     -17.057 -26.283  15.392  1.00  0.00     0.274 HD
ENDBRANCH  19  20
ENDBRANCH  18  19
ENDBRANCH  17  18
ENDBRANCH  16  17
ENDBRANCH   2  16
ENDBRANCH   1   2
BRANCH   1  24
HETATM   24  N3  UNL     1     -13.896 -21.251  16.812  1.00  0.00    -0.344 N 
HETATM   25  C13 UNL     1     -12.497 -21.454  17.038  1.00  0.00     0.142 C 
HETATM   26  C14 UNL     1     -11.910 -20.365  17.949  1.00  0.00    -0.010 C 
HETATM   27  C15 UNL     1     -12.439 -19.066  17.504  1.00  0.00     0.013 C 
HETATM   28  C18 UNL     1     -12.083 -20.721  19.381  1.00  0.00     0.028 C 
HETATM   29  C24 UNL     1     -10.412 -20.418  17.730  1.00  0.00     0.118 C 
HETATM   30  C16 UNL     1     -13.366 -18.366  18.440  1.00  0.00     0.013 C 
HETATM   31  C17 UNL     1     -14.733 -18.974  18.534  1.00  0.00     0.097 C 
HETATM   32  S1  UNL     1     -14.837 -20.684  18.054  1.00  0.00    -0.057 SA
HETATM   33  C19 UNL     1     -10.723 -20.621  20.037  1.00  0.00     0.108 C 
HETATM   34  N4  UNL     1      -9.765 -20.423  19.000  1.00  0.00    -0.206 NA
BRANCH  34  35
HETATM   35  S2  UNL     1      -8.774 -19.037  19.255  1.00  0.00     0.233 S 
HETATM   36  O5  UNL     1      -9.310 -18.234  20.412  1.00  0.00    -0.207 OA
HETATM   37  O6  UNL     1      -7.351 -19.497  19.517  1.00  0.00    -0.207 OA
BRANCH  35  38
HETATM   38  C20 UNL     1      -8.721 -18.001  17.862  1.00  0.00     0.128 C 
HETATM   39  C21 UNL     1      -8.179 -16.808  17.963  1.00  0.00    -0.076 C 
HETATM   40  C22 UNL     1      -8.122 -15.900  16.781  1.00  0.00     0.043 C 
HETATM   41  C23 UNL     1      -7.602 -16.299  19.237  1.00  0.00     0.043 C 
ENDBRANCH  35  38
ENDBRANCH  34  35
ENDBRANCH   1  24
BRANCH   1  42
HETATM   42  C25 UNL     1     -14.447 -21.515  14.412  1.00  0.00    -0.025 C 
HETATM   43  C26 UNL     1     -14.658 -22.339  13.232  1.00  0.00     0.017 C 
HETATM   44  C27 UNL     1     -15.512 -20.400  14.390  1.00  0.00     0.017 C 
HETATM   45  C28 UNL     1     -13.124 -20.746  14.211  1.00  0.00     0.017 C 
ENDBRANCH   1  42
TORSDOF 16
ENDMDL
MODEL 5
REMARK VINA RESULT: -7.722330371      1.215      1.707
REMARK  16 active torsions:
REMARK  status: ('A' for Active; 'I' for Inactive)
REMARK    1  A    between atoms: C2_2  and  O1_3 
REMARK    2  A    between atoms: O1_3  and  C3_4 
REMARK    3  A    between atoms: C3_4  and  C4_6 
REMARK    4  A    between atoms: C4_6  and  O3_7 
REMARK    5  A    between atoms: C4_6  and  C5_9 
REMARK    6  A    between atoms: C5_9  and  C6_10 
REMARK       I    between atoms: C6_10  and  N1_12 
REMARK    7  A    between atoms: C7_14  and  C8_15 
REMARK    8  A    between atoms: C7_14  and  C12_23 
REMARK    9  A    between atoms: C8_15  and  C9_16 
REMARK   10  A    between atoms: C9_16  and  C10_17 
REMARK   11  A    between atoms: C10_17  and  C11_18 
REMARK   12  A    between atoms: C11_18  and  N2_19 
REMARK   13  A    between atoms: C12_23  and  N3_24 
REMARK   14  A    between atoms: C12_23  and  C25_42 
REMARK   15  A    between atoms: N4_33  and  S2_34 
REMARK   16  A    between atoms: S2_34  and  C20_37 
ROOT
HETATM    1  C12 UNL     1      -8.263 -18.548  19.209  1.00  0.00     0.144 C 
ENDROOT
BRANCH   1   2
HETATM    2  C7  UNL     1      -7.678 -17.349  18.564  1.00  0.00     0.013 C 
HETATM    3  N1  UNL     1      -6.450 -17.119  18.394  1.00  0.00    -0.332 N 
HETATM    4  C6  UNL     1      -5.266 -17.733  18.661  1.00  0.00     0.224 C 
ATOM      5  H1  UNL     1      -6.303 -16.225  17.926  1.00  0.00     0.168 HD
HETATM    6  O4  UNL     1      -5.075 -18.473  19.649  1.00  0.00    -0.273 OA
BRANCH   4   7
HETATM    7  C5  UNL     1      -4.111 -17.526  17.735  1.00  0.00     0.145 C 
BRANCH   7   8
HETATM    8  C4  UNL     1      -4.562 -16.737  16.551  1.00  0.00     0.226 C 
BRANCH   8   9
HETATM    9  C3  UNL     1      -3.454 -16.258  15.710  1.00  0.00     0.288 C 
HETATM   10  O2  UNL     1      -3.397 -15.087  15.243  1.00  0.00    -0.262 OA
BRANCH   9  11
HETATM   11  O1  UNL     1      -2.417 -17.125  15.409  1.00  0.00    -0.320 OA
BRANCH  11  12
HETATM   12  C2  UNL     1      -1.052 -16.817  15.517  1.00  0.00     0.174 C 
HETATM   13  C1  UNL     1      -0.529 -17.167  16.879  1.00  0.00     0.034 C 
ENDBRANCH  11  12
ENDBRANCH   9  11
ENDBRANCH   8   9
BRANCH   8  14
HETATM   14  O3  UNL     1      -5.450 -17.472  15.790  1.00  0.00    -0.385 OA
ATOM     15  H3  UNL     1      -5.478 -17.132  14.904  1.00  0.00     0.210 HD
ENDBRANCH   8  14
ENDBRANCH   7   8
ENDBRANCH   4   7
BRANCH   2  16
HETATM   16  C8  UNL     1      -8.552 -16.239  18.026  1.00  0.00     0.055 C 
BRANCH  16  17
HETATM   17  C9  UNL     1      -7.904 -15.510  16.879  1.00  0.00     0.007 C 
BRANCH  17  18
HETATM   18  C10 UNL     1      -8.718 -15.532  15.631  1.00  0.00     0.027 C 
BRANCH  18  19
HETATM   19  C11 UNL     1      -7.911 -15.334  14.377  1.00  0.00     0.229 C 
BRANCH  19  20
HETATM   20  N2  UNL     1      -6.591 -14.843  14.721  1.00  0.00    -0.079 N 
ATOM     21  H23 UNL     1      -6.508 -14.627  15.715  1.00  0.00     0.274 HD
ATOM     22  H22 UNL     1      -5.883 -15.575  14.670  1.00  0.00     0.274 HD
ATOM     23  H21 UNL     1      -6.360 -14.043  14.132  1.00  0.00     0.274 HD
ENDBRANCH  19  20
ENDBRANCH  18  19
ENDBRANCH  17  18
ENDBRANCH  16  17
ENDBRANCH   2  16
ENDBRANCH   1   2
BRANCH   1  24
HETATM   24  N3  UNL     1      -9.307 -19.050  18.381  1.00  0.00    -0.344 N 
HETATM   25  C13 UNL     1     -10.127 -20.017  19.046  1.00  0.00     0.142 C 
HETATM   26  C14 UNL     1     -11.401 -20.322  18.245  1.00  0.00    -0.010 C 
HETATM   27  C15 UNL     1     -11.951 -19.046  17.762  1.00  0.00     0.013 C 
HETATM   28  C18 UNL     1     -11.152 -21.387  17.239  1.00  0.00     0.028 C 
HETATM   29  C24 UNL     1     -12.357 -20.959  19.233  1.00  0.00     0.118 C 
HETATM   30  C16 UNL     1     -11.918 -18.820  16.287  1.00  0.00     0.013 C 
HETATM   31  C17 UNL     1     -10.557 -18.529  15.732  1.00  0.00     0.097 C 
HETATM   32  S1  UNL     1      -9.195 -19.094  16.727  1.00  0.00    -0.057 SA
HETATM   33  C19 UNL     1     -12.205 -22.454  17.444  1.00  0.00     0.108 C 
HETATM   34  N4  UNL     1     -12.906 -22.135  18.643  1.00  0.00    -0.206 NA
BRANCH  34  35
HETATM   35  S2  UNL     1     -14.612 -22.044  18.422  1.00  0.00     0.233 S 
HETATM   36  O5  UNL     1     -15.304 -22.890  19.458  1.00  0.00    -0.207 OA
HETATM   37  O6  UNL     1     -15.040 -20.591  18.524  1.00  0.00    -0.207 OA
BRANCH  35  38
HETATM   38  C20 UNL     1     -15.102 -22.607  16.854  1.00  0.00     0.128 C 
HETATM   39  C21 UNL     1     -15.276 -21.741  15.880  1.00  0.00    -0.076 C 
HETATM   40  C22 UNL     1     -15.696 -22.200  14.526  1.00  0.00     0.043 C 
HETATM   41  C23 UNL     1     -15.068 -20.279  16.067  1.00  0.00     0.043 C 
ENDBRANCH  35  38
ENDBRANCH  34  35
ENDBRANCH   1  24
BRANCH   1  42
HETATM   42  C25 UNL     1      -8.512 -18.480  20.656  1.00  0.00    -0.025 C 
HETATM   43  C26 UNL     1      -9.847 -18.579  21.224  1.00  0.00     0.017 C 
HETATM   44  C27 UNL     1      -7.643 -19.556  21.335  1.00  0.00     0.017 C 
HETATM   45  C28 UNL     1      -7.893 -17.157  21.154  1.00  0.00     0.017 C 
ENDBRANCH   1  42
TORSDOF 16
ENDMDL
