MODEL 1
REMARK VINA RESULT: -8.697870309      0.000      0.000
REMARK  16 active torsions:
REMARK  status: ('A' for Active; 'I' for Inactive)
REMARK    1  A    between atoms: C2_3  and  C3_4 
REMARK    2  A    between atoms: C3_4  and  C4_5 
REMARK       I    between atoms: C4_5  and  N2_7 
REMARK    3  A    between atoms: N2_7  and  C5_9 
REMARK    4  A    between atoms: C6_14  and  C7_15 
REMARK    5  A    between atoms: C7_15  and  C8_16 
REMARK    6  A    between atoms: C8_16  and  S1_17 
REMARK    7  A    between atoms: S1_17  and  C9_18 
REMARK    8  A    between atoms: C9_18  and  C10_19 
REMARK    9  A    between atoms: C10_19  and  C11_20 
REMARK   10  A    between atoms: C14_23  and  N5_24 
REMARK   11  A    between atoms: N5_24  and  C15_25 
REMARK   12  A    between atoms: C15_25  and  O2_26 
REMARK   13  A    between atoms: C15_25  and  C16_28 
REMARK   14  A    between atoms: C16_28  and  C17_29 
REMARK   15  A    between atoms: C17_29  and  N6_30 
REMARK   16  A    between atoms: C23_41  and  C24_42 
ROOT
HETATM    1  C5  UNL     1     -11.858 -19.567  19.619  1.00  0.00     0.167 A 
HETATM    2  N3  UNL     1     -11.648 -18.544  20.503  1.00  0.00    -0.279 N 
ATOM      3  H3  UNL     1     -12.405 -17.914  20.769  1.00  0.00     0.189 HD
HETATM    4  N4  UNL     1     -10.489 -18.405  20.977  1.00  0.00    -0.296 N 
ATOM      5  H4  UNL     1     -10.317 -17.646  21.637  1.00  0.00     0.187 HD
HETATM    6  C6  UNL     1      -9.500 -19.195  20.656  1.00  0.00     0.070 A 
HETATM    7  S2  UNL     1     -10.300 -20.265  19.554  1.00  0.00    -0.038 SA
ENDROOT
BRANCH   6   8
HETATM    8  C7  UNL     1      -8.078 -19.166  21.092  1.00  0.00     0.076 C 
BRANCH   8   9
HETATM    9  C8  UNL     1      -7.117 -18.765  20.041  1.00  0.00     0.080 C 
BRANCH   9  10
HETATM   10  S1  UNL     1      -6.429 -17.150  20.022  1.00  0.00    -0.168 SA
BRANCH  10  11
HETATM   11  C9  UNL     1      -7.152 -15.984  18.912  1.00  0.00     0.080 C 
BRANCH  11  12
HETATM   12  C10 UNL     1      -7.021 -16.379  17.461  1.00  0.00     0.068 C 
BRANCH  12  13
HETATM   13  C11 UNL     1      -8.351 -16.943  17.008  1.00  0.00     0.026 A 
HETATM   14  C12 UNL     1      -8.439 -17.690  15.862  1.00  0.00     0.031 A 
HETATM   15  C13 UNL     1      -9.636 -18.275  15.528  1.00  0.00     0.067 A 
HETATM   16  C14 UNL     1     -10.795 -18.132  16.336  1.00  0.00     0.196 A 
HETATM   17  N7  UNL     1     -10.606 -17.368  17.452  1.00  0.00    -0.274 N 
HETATM   18  N8  UNL     1      -9.448 -16.812  17.754  1.00  0.00    -0.302 N 
ATOM     19  H7  UNL     1     -11.396 -17.220  18.080  1.00  0.00     0.189 HD
ATOM     20  H8  UNL     1      -9.389 -16.253  18.606  1.00  0.00     0.186 HD
BRANCH  16  21
HETATM   21  N5  UNL     1     -11.791 -18.716  16.014  1.00  0.00    -0.366 NA
BRANCH  21  22
HETATM   22  C15 UNL     1     -12.854 -19.382  15.672  1.00  0.00     0.194 C 
BRANCH  22  23
HETATM   23  O2  UNL     1     -13.998 -19.299  16.306  1.00  0.00    -0.339 OA
ATOM     24  H2  UNL     1     -14.556 -20.046  16.485  1.00  0.00     0.220 HD
ENDBRANCH  22  23
BRANCH  22  25
HETATM   25  C16 UNL     1     -12.980 -20.356  14.511  1.00  0.00     0.128 C 
BRANCH  25  26
HETATM   26  C17 UNL     1     -14.095 -21.321  14.881  1.00  0.00     0.245 C 
BRANCH  26  27
HETATM   27  N6  UNL     1     -15.067 -21.450  13.845  1.00  0.00    -0.078 N 
HETATM   28  C18 UNL     1     -14.538 -20.879  12.600  1.00  0.00     0.271 C 
HETATM   29  C19 UNL     1     -16.310 -20.819  14.172  1.00  0.00     0.271 C 
HETATM   30  C20 UNL     1     -15.291 -22.883  13.622  1.00  0.00     0.271 C 
ENDBRANCH  26  27
ENDBRANCH  25  26
ENDBRANCH  22  25
ENDBRANCH  21  22
ENDBRANCH  16  21
ENDBRANCH  12  13
ENDBRANCH  11  12
ENDBRANCH  10  11
ENDBRANCH   9  10
ENDBRANCH   8   9
ENDBRANCH   6   8
BRANCH   1  31
HETATM   31  N2  UNL     1     -12.969 -19.847  19.049  1.00  0.00    -0.306 N 
HETATM   32  C4  UNL     1     -13.791 -20.924  19.200  1.00  0.00     0.229 C 
HETATM   33  O1  UNL     1     -15.041 -20.797  18.932  1.00  0.00    -0.273 OA
ATOM     34  H2  UNL     1     -13.292 -19.153  18.374  1.00  0.00     0.171 HD
BRANCH  32  35
HETATM   35  C3  UNL     1     -13.345 -22.265  19.649  1.00  0.00     0.160 C 
BRANCH  35  36
HETATM   36  C2  UNL     1     -14.508 -23.149  19.839  1.00  0.00     0.020 A 
HETATM   37  N1  UNL     1     -15.225 -23.825  18.948  1.00  0.00    -0.352 N 
HETATM   38  C1  UNL     1     -15.046 -23.802  17.501  1.00  0.00     0.156 C 
HETATM   39  C23 UNL     1     -16.160 -24.529  19.597  1.00  0.00     0.068 A 
HETATM   40  C22 UNL     1     -16.061 -24.314  20.957  1.00  0.00     0.034 A 
HETATM   41  C21 UNL     1     -15.013 -23.439  21.110  1.00  0.00     0.028 A 
BRANCH  39  42
HETATM   42  C24 UNL     1     -17.135 -25.448  19.023  1.00  0.00     0.101 A 
HETATM   43  N9  UNL     1     -16.969 -26.249  17.973  1.00  0.00    -0.358 N 
HETATM   44  C25 UNL     1     -17.945 -26.980  17.554  1.00  0.00     0.096 A 
ATOM     45  H9  UNL     1     -16.067 -26.285  17.499  1.00  0.00     0.166 HD
HETATM   46  C26 UNL     1     -19.141 -26.906  18.218  1.00  0.00     0.069 A 
HETATM   47  S3  UNL     1     -18.784 -25.763  19.434  1.00  0.00    -0.081 SA
ENDBRANCH  39  42
ENDBRANCH  35  36
ENDBRANCH  32  35
ENDBRANCH   1  31
TORSDOF 16
ENDMDL
MODEL 2
REMARK VINA RESULT: -8.507289854      2.529     10.366
REMARK  16 active torsions:
REMARK  status: ('A' for Active; 'I' for Inactive)
REMARK    1  A    between atoms: C2_3  and  C3_4 
REMARK    2  A    between atoms: C3_4  and  C4_5 
REMARK       I    between atoms: C4_5  and  N2_7 
REMARK    3  A    between atoms: N2_7  and  C5_9 
REMARK    4  A    between atoms: C6_14  and  C7_15 
REMARK    5  A    between atoms: C7_15  and  C8_16 
REMARK    6  A    between atoms: C8_16  and  S1_17 
REMARK    7  A    between atoms: S1_17  and  C9_18 
REMARK    8  A    between atoms: C9_18  and  C10_19 
REMARK    9  A    between atoms: C10_19  and  C11_20 
REMARK   10  A    between atoms: C14_23  and  N5_24 
REMARK   11  A    between atoms: N5_24  and  C15_25 
REMARK   12  A    between atoms: C15_25  and  O2_26 
REMARK   13  A    between atoms: C15_25  and  C16_28 
REMARK   14  A    between atoms: C16_28  and  C17_29 
REMARK   15  A    between atoms: C17_29  and  N6_30 
REMARK   16  A    between atoms: C23_41  and  C24_42 
ROOT
HETATM    1  C5  UNL     1     -12.486 -20.112  15.563  1.00  0.00     0.167 A 
HETATM    2  N3  UNL     1     -13.347 -19.196  16.101  1.00  0.00    -0.279 N 
ATOM      3  H3  UNL     1     -13.007 -18.432  16.685  1.00  0.00     0.189 HD
HETATM    4  N4  UNL     1     -14.575 -19.325  15.851  1.00  0.00    -0.296 N 
ATOM      5  H4  UNL     1     -15.230 -18.650  16.246  1.00  0.00     0.187 HD
HETATM    6  C6  UNL     1     -15.042 -20.291  15.106  1.00  0.00     0.070 A 
HETATM    7  S2  UNL     1     -13.572 -21.116  14.707  1.00  0.00    -0.038 SA
ENDROOT
BRANCH   6   8
HETATM    8  C7  UNL     1     -16.444 -20.611  14.730  1.00  0.00     0.076 C 
BRANCH   8   9
HETATM    9  C8  UNL     1     -16.721 -22.052  14.538  1.00  0.00     0.080 C 
BRANCH   9  10
HETATM   10  S1  UNL     1     -18.148 -22.794  15.241  1.00  0.00    -0.168 SA
BRANCH  10  11
HETATM   11  C9  UNL     1     -18.075 -23.206  16.955  1.00  0.00     0.080 C 
BRANCH  11  12
HETATM   12  C10 UNL     1     -16.900 -24.084  17.310  1.00  0.00     0.068 C 
BRANCH  12  13
HETATM   13  C11 UNL     1     -15.813 -23.199  17.885  1.00  0.00     0.026 A 
HETATM   14  C12 UNL     1     -14.518 -23.641  17.954  1.00  0.00     0.031 A 
HETATM   15  C13 UNL     1     -13.534 -22.783  18.384  1.00  0.00     0.067 A 
HETATM   16  C14 UNL     1     -13.816 -21.443  18.761  1.00  0.00     0.196 A 
HETATM   17  N7  UNL     1     -15.134 -21.101  18.660  1.00  0.00    -0.274 N 
HETATM   18  N8  UNL     1     -16.065 -21.941  18.247  1.00  0.00    -0.302 N 
ATOM     19  H7  UNL     1     -15.412 -20.154  18.916  1.00  0.00     0.189 HD
ATOM     20  H8  UNL     1     -17.028 -21.609  18.202  1.00  0.00     0.186 HD
BRANCH  16  21
HETATM   21  N5  UNL     1     -12.902 -20.733  19.073  1.00  0.00    -0.366 NA
BRANCH  21  22
HETATM   22  C15 UNL     1     -11.933 -19.948  19.439  1.00  0.00     0.194 C 
BRANCH  22  23
HETATM   23  O2  UNL     1     -12.050 -18.646  19.535  1.00  0.00    -0.339 OA
ATOM     24  H2  UNL     1     -12.028 -18.059  18.789  1.00  0.00     0.220 HD
ENDBRANCH  22  23
BRANCH  22  25
HETATM   25  C16 UNL     1     -10.519 -20.366  19.816  1.00  0.00     0.128 C 
BRANCH  25  26
HETATM   26  C17 UNL     1      -9.786 -19.091  20.200  1.00  0.00     0.245 C 
BRANCH  26  27
HETATM   27  N6  UNL     1      -8.562 -19.356  20.883  1.00  0.00    -0.078 N 
HETATM   28  C18 UNL     1      -8.217 -18.212  21.737  1.00  0.00     0.271 C 
HETATM   29  C19 UNL     1      -7.477 -19.629  19.989  1.00  0.00     0.271 C 
HETATM   30  C20 UNL     1      -8.779 -20.516  21.754  1.00  0.00     0.271 C 
ENDBRANCH  26  27
ENDBRANCH  25  26
ENDBRANCH  22  25
ENDBRANCH  21  22
ENDBRANCH  16  21
ENDBRANCH  12  13
ENDBRANCH  11  12
ENDBRANCH  10  11
ENDBRANCH   9  10
ENDBRANCH   8   9
ENDBRANCH   6   8
BRANCH   1  31
HETATM   31  N2  UNL     1     -11.215 -20.123  15.715  1.00  0.00    -0.306 N 
HETATM   32  C4  UNL     1     -10.373 -19.158  16.180  1.00  0.00     0.229 C 
HETATM   33  O1  UNL     1      -9.254 -19.505  16.706  1.00  0.00    -0.273 OA
ATOM     34  H2  UNL     1     -10.759 -20.995  15.445  1.00  0.00     0.171 HD
BRANCH  32  35
HETATM   35  C3  UNL     1     -10.649 -17.702  16.116  1.00  0.00     0.160 C 
BRANCH  35  36
HETATM   36  C2  UNL     1      -9.445 -16.977  15.676  1.00  0.00     0.020 A 
HETATM   37  N1  UNL     1      -8.383 -16.577  16.368  1.00  0.00    -0.352 N 
HETATM   38  C1  UNL     1      -8.184 -16.729  17.805  1.00  0.00     0.156 C 
HETATM   39  C23 UNL     1      -7.520 -15.993  15.528  1.00  0.00     0.068 A 
HETATM   40  C22 UNL     1      -8.022 -16.005  14.242  1.00  0.00     0.034 A 
HETATM   41  C21 UNL     1      -9.243 -16.628  14.337  1.00  0.00     0.028 A 
BRANCH  39  42
HETATM   42  C24 UNL     1      -6.204 -15.452  15.844  1.00  0.00     0.101 A 
HETATM   43  N9  UNL     1      -5.889 -14.180  16.078  1.00  0.00    -0.358 N 
HETATM   44  C25 UNL     1      -4.664 -13.845  16.306  1.00  0.00     0.096 A 
ATOM     45  H9  UNL     1      -6.619 -13.467  16.079  1.00  0.00     0.166 HD
HETATM   46  C26 UNL     1      -3.713 -14.831  16.299  1.00  0.00     0.069 A 
HETATM   47  S3  UNL     1      -4.657 -16.212  15.959  1.00  0.00    -0.081 SA
ENDBRANCH  39  42
ENDBRANCH  35  36
ENDBRANCH  32  35
ENDBRANCH   1  31
TORSDOF 16
ENDMDL
MODEL 3
REMARK VINA RESULT: -8.470107040      1.264      1.472
REMARK  16 active torsions:
REMARK  status: ('A' for Active; 'I' for Inactive)
REMARK    1  A    between atoms: C2_3  and  C3_4 
REMARK    2  A    between atoms: C3_4  and  C4_5 
REMARK       I    between atoms: C4_5  and  N2_7 
REMARK    3  A    between atoms: N2_7  and  C5_9 
REMARK    4  A    between atoms: C6_14  and  C7_15 
REMARK    5  A    between atoms: C7_15  and  C8_16 
REMARK    6  A    between atoms: C8_16  and  S1_17 
REMARK    7  A    between atoms: S1_17  and  C9_18 
REMARK    8  A    between atoms: C9_18  and  C10_19 
REMARK    9  A    between atoms: C10_19  and  C11_20 
REMARK   10  A    between atoms: C14_23  and  N5_24 
REMARK   11  A    between atoms: N5_24  and  C15_25 
REMARK   12  A    between atoms: C15_25  and  O2_26 
REMARK   13  A    between atoms: C15_25  and  C16_28 
REMARK   14  A    between atoms: C16_28  and  C17_29 
REMARK   15  A    between atoms: C17_29  and  N6_30 
REMARK   16  A    between atoms: C23_41  and  C24_42 
ROOT
HETATM    1  C5  UNL     1     -10.834 -20.735  19.580  1.00  0.00     0.167 A 
HETATM    2  N3  UNL     1     -11.566 -19.660  20.004  1.00  0.00    -0.279 N 
ATOM      3  H3  UNL     1     -12.583 -19.649  19.921  1.00  0.00     0.189 HD
HETATM    4  N4  UNL     1     -10.945 -18.684  20.502  1.00  0.00    -0.296 N 
ATOM      5  H4  UNL     1     -11.477 -17.875  20.822  1.00  0.00     0.187 HD
HETATM    6  C6  UNL     1      -9.644 -18.669  20.624  1.00  0.00     0.070 A 
HETATM    7  S2  UNL     1      -9.250 -20.218  19.958  1.00  0.00    -0.038 SA
ENDROOT
BRANCH   6   8
HETATM    8  C7  UNL     1      -8.750 -17.607  21.157  1.00  0.00     0.076 C 
BRANCH   8   9
HETATM    9  C8  UNL     1      -7.329 -17.740  20.766  1.00  0.00     0.080 C 
BRANCH   9  10
HETATM   10  S1  UNL     1      -6.451 -16.375  20.096  1.00  0.00    -0.168 SA
BRANCH  10  11
HETATM   11  C9  UNL     1      -6.148 -16.393  18.358  1.00  0.00     0.080 C 
BRANCH  11  12
HETATM   12  C10 UNL     1      -7.144 -15.580  17.568  1.00  0.00     0.068 C 
BRANCH  12  13
HETATM   13  C11 UNL     1      -8.240 -16.513  17.097  1.00  0.00     0.026 A 
HETATM   14  C12 UNL     1      -8.003 -17.416  16.093  1.00  0.00     0.031 A 
HETATM   15  C13 UNL     1      -8.980 -18.321  15.754  1.00  0.00     0.067 A 
HETATM   16  C14 UNL     1     -10.237 -18.352  16.415  1.00  0.00     0.196 A 
HETATM   17  N7  UNL     1     -10.376 -17.412  17.395  1.00  0.00    -0.274 N 
HETATM   18  N8  UNL     1      -9.426 -16.551  17.704  1.00  0.00    -0.302 N 
ATOM     19  H7  UNL     1     -11.255 -17.374  17.912  1.00  0.00     0.189 HD
ATOM     20  H8  UNL     1      -9.609 -15.877  18.449  1.00  0.00     0.186 HD
BRANCH  16  21
HETATM   21  N5  UNL     1     -11.023 -19.203  16.106  1.00  0.00    -0.366 NA
BRANCH  21  22
HETATM   22  C15 UNL     1     -11.897 -20.099  15.756  1.00  0.00     0.194 C 
BRANCH  22  23
HETATM   23  O2  UNL     1     -11.683 -21.391  15.828  1.00  0.00    -0.339 OA
ATOM     24  H2  UNL     1     -12.230 -21.988  16.323  1.00  0.00     0.220 HD
ENDBRANCH  22  23
BRANCH  22  25
HETATM   25  C16 UNL     1     -13.294 -19.841  15.211  1.00  0.00     0.128 C 
BRANCH  25  26
HETATM   26  C17 UNL     1     -13.954 -21.203  15.065  1.00  0.00     0.245 C 
BRANCH  26  27
HETATM   27  N6  UNL     1     -14.791 -21.278  13.913  1.00  0.00    -0.078 N 
HETATM   28  C18 UNL     1     -15.095 -22.683  13.615  1.00  0.00     0.271 C 
HETATM   29  C19 UNL     1     -14.204 -20.662  12.762  1.00  0.00     0.271 C 
HETATM   30  C20 UNL     1     -16.055 -20.605  14.235  1.00  0.00     0.271 C 
ENDBRANCH  26  27
ENDBRANCH  25  26
ENDBRANCH  22  25
ENDBRANCH  21  22
ENDBRANCH  16  21
ENDBRANCH  12  13
ENDBRANCH  11  12
ENDBRANCH  10  11
ENDBRANCH   9  10
ENDBRANCH   8   9
ENDBRANCH   6   8
BRANCH   1  31
HETATM   31  N2  UNL     1     -11.308 -21.802  19.056  1.00  0.00    -0.306 N 
HETATM   32  C4  UNL     1     -12.595 -22.155  18.782  1.00  0.00     0.229 C 
HETATM   33  O1  UNL     1     -12.824 -23.005  17.847  1.00  0.00    -0.273 OA
ATOM     34  H2  UNL     1     -10.609 -22.502  18.803  1.00  0.00     0.171 HD
BRANCH  32  35
HETATM   35  C3  UNL     1     -13.781 -21.629  19.502  1.00  0.00     0.160 C 
BRANCH  35  36
HETATM   36  C2  UNL     1     -14.723 -22.724  19.793  1.00  0.00     0.020 A 
HETATM   37  N1  UNL     1     -15.684 -23.251  19.042  1.00  0.00    -0.352 N 
HETATM   38  C1  UNL     1     -16.078 -22.807  17.710  1.00  0.00     0.156 C 
HETATM   39  C23 UNL     1     -16.251 -24.258  19.717  1.00  0.00     0.068 A 
HETATM   40  C22 UNL     1     -15.649 -24.404  20.951  1.00  0.00     0.034 A 
HETATM   41  C21 UNL     1     -14.681 -23.430  20.999  1.00  0.00     0.028 A 
BRANCH  39  42
HETATM   42  C24 UNL     1     -17.312 -25.146  19.258  1.00  0.00     0.101 A 
HETATM   43  N9  UNL     1     -18.498 -25.347  19.827  1.00  0.00    -0.358 N 
HETATM   44  C25 UNL     1     -19.323 -26.202  19.324  1.00  0.00     0.096 A 
ATOM     45  H9  UNL     1     -18.756 -24.824  20.664  1.00  0.00     0.166 HD
HETATM   46  C26 UNL     1     -18.941 -26.884  18.199  1.00  0.00     0.069 A 
HETATM   47  S3  UNL     1     -17.384 -26.242  17.925  1.00  0.00    -0.081 SA
ENDBRANCH  39  42
ENDBRANCH  35  36
ENDBRANCH  32  35
ENDBRANCH   1  31
TORSDOF 16
ENDMDL
MODEL 4
REMARK VINA RESULT: -8.440553218      2.179      8.758
REMARK  16 active torsions:
REMARK  status: ('A' for Active; 'I' for Inactive)
REMARK    1  A    between atoms: C2_3  and  C3_4 
REMARK    2  A    between atoms: C3_4  and  C4_5 
REMARK       I    between atoms: C4_5  and  N2_7 
REMARK    3  A    between atoms: N2_7  and  C5_9 
REMARK    4  A    between atoms: C6_14  and  C7_15 
REMARK    5  A    between atoms: C7_15  and  C8_16 
REMARK    6  A    between atoms: C8_16  and  S1_17 
REMARK    7  A    between atoms: S1_17  and  C9_18 
REMARK    8  A    between atoms: C9_18  and  C10_19 
REMARK    9  A    between atoms: C10_19  and  C11_20 
REMARK   10  A    between atoms: C14_23  and  N5_24 
REMARK   11  A    between atoms: N5_24  and  C15_25 
REMARK   12  A    between atoms: C15_25  and  O2_26 
REMARK   13  A    between atoms: C15_25  and  C16_28 
REMARK   14  A    between atoms: C16_28  and  C17_29 
REMARK   15  A    between atoms: C17_29  and  N6_30 
REMARK   16  A    between atoms: C23_41  and  C24_42 
ROOT
HETATM    1  C5  UNL     1     -13.751 -22.123  19.393  1.00  0.00     0.167 A 
HETATM    2  N3  UNL     1     -13.363 -22.841  18.296  1.00  0.00    -0.279 N 
ATOM      3  H3  UNL     1     -12.610 -22.513  17.690  1.00  0.00     0.189 HD
HETATM    4  N4  UNL     1     -13.965 -23.922  18.057  1.00  0.00    -0.296 N 
ATOM      5  H4  UNL     1     -13.687 -24.468  17.241  1.00  0.00     0.187 HD
HETATM    6  C6  UNL     1     -14.931 -24.369  18.814  1.00  0.00     0.070 A 
HETATM    7  S2  UNL     1     -14.998 -23.116  20.007  1.00  0.00    -0.038 SA
ENDROOT
BRANCH   6   8
HETATM    8  C7  UNL     1     -15.761 -25.594  18.673  1.00  0.00     0.076 C 
BRANCH   8   9
HETATM    9  C8  UNL     1     -17.198 -25.344  18.423  1.00  0.00     0.080 C 
BRANCH   9  10
HETATM   10  S1  UNL     1     -17.733 -24.608  16.922  1.00  0.00    -0.168 SA
BRANCH  10  11
HETATM   11  C9  UNL     1     -17.379 -22.894  16.699  1.00  0.00     0.080 C 
BRANCH  11  12
HETATM   12  C10 UNL     1     -16.717 -22.586  15.378  1.00  0.00     0.068 C 
BRANCH  12  13
HETATM   13  C11 UNL     1     -15.521 -21.698  15.651  1.00  0.00     0.026 A 
HETATM   14  C12 UNL     1     -14.363 -21.847  14.932  1.00  0.00     0.031 A 
HETATM   15  C13 UNL     1     -13.329 -20.963  15.127  1.00  0.00     0.067 A 
HETATM   16  C14 UNL     1     -13.421 -19.892  16.055  1.00  0.00     0.196 A 
HETATM   17  N7  UNL     1     -14.610 -19.832  16.723  1.00  0.00    -0.274 N 
HETATM   18  N8  UNL     1     -15.591 -20.692  16.522  1.00  0.00    -0.302 N 
ATOM     19  H7  UNL     1     -14.747 -19.088  17.408  1.00  0.00     0.189 HD
ATOM     20  H8  UNL     1     -16.448 -20.580  17.064  1.00  0.00     0.186 HD
BRANCH  16  21
HETATM   21  N5  UNL     1     -12.502 -19.125  16.135  1.00  0.00    -0.366 NA
BRANCH  21  22
HETATM   22  C15 UNL     1     -11.516 -18.288  16.257  1.00  0.00     0.194 C 
BRANCH  22  23
HETATM   23  O2  UNL     1     -11.421 -17.415  17.231  1.00  0.00    -0.339 OA
ATOM     24  H2  UNL     1     -10.636 -16.912  17.412  1.00  0.00     0.220 HD
ENDBRANCH  22  23
BRANCH  22  25
HETATM   25  C16 UNL     1     -10.317 -18.155  15.330  1.00  0.00     0.128 C 
BRANCH  25  26
HETATM   26  C17 UNL     1      -9.921 -16.687  15.352  1.00  0.00     0.245 C 
BRANCH  26  27
HETATM   27  N6  UNL     1      -8.511 -16.505  15.233  1.00  0.00    -0.078 N 
HETATM   28  C18 UNL     1      -8.230 -15.488  14.212  1.00  0.00     0.271 C 
HETATM   29  C19 UNL     1      -7.823 -17.716  14.905  1.00  0.00     0.271 C 
HETATM   30  C20 UNL     1      -8.018 -15.997  16.519  1.00  0.00     0.271 C 
ENDBRANCH  26  27
ENDBRANCH  25  26
ENDBRANCH  22  25
ENDBRANCH  21  22
ENDBRANCH  16  21
ENDBRANCH  12  13
ENDBRANCH  11  12
ENDBRANCH  10  11
ENDBRANCH   9  10
ENDBRANCH   8   9
ENDBRANCH   6   8
BRANCH   1  31
HETATM   31  N2  UNL     1     -13.244 -21.011  19.777  1.00  0.00    -0.306 N 
HETATM   32  C4  UNL     1     -12.055 -20.427  19.459  1.00  0.00     0.229 C 
HETATM   33  O1  UNL     1     -11.945 -19.150  19.542  1.00  0.00    -0.273 OA
ATOM     34  H2  UNL     1     -13.824 -20.478  20.425  1.00  0.00     0.171 HD
BRANCH  32  35
HETATM   35  C3  UNL     1     -10.845 -21.167  19.025  1.00  0.00     0.160 C 
BRANCH  35  36
HETATM   36  C2  UNL     1      -9.697 -20.805  19.874  1.00  0.00     0.020 A 
HETATM   37  N1  UNL     1      -8.785 -19.852  19.720  1.00  0.00    -0.352 N 
HETATM   38  C1  UNL     1      -8.677 -18.935  18.591  1.00  0.00     0.156 C 
HETATM   39  C23 UNL     1      -7.959 -19.876  20.774  1.00  0.00     0.068 A 
HETATM   40  C22 UNL     1      -8.334 -20.873  21.651  1.00  0.00     0.034 A 
HETATM   41  C21 UNL     1      -9.436 -21.462  21.080  1.00  0.00     0.028 A 
BRANCH  39  42
HETATM   42  C24 UNL     1      -6.843 -18.979  21.046  1.00  0.00     0.101 A 
HETATM   43  N9  UNL     1      -6.893 -17.779  21.621  1.00  0.00    -0.358 N 
HETATM   44  C25 UNL     1      -5.819 -17.079  21.758  1.00  0.00     0.096 A 
ATOM     45  H9  UNL     1      -7.784 -17.412  21.955  1.00  0.00     0.166 HD
HETATM   46  C26 UNL     1      -4.641 -17.606  21.298  1.00  0.00     0.069 A 
HETATM   47  S3  UNL     1      -5.159 -19.111  20.682  1.00  0.00    -0.081 SA
ENDBRANCH  39  42
ENDBRANCH  35  36
ENDBRANCH  32  35
ENDBRANCH   1  31
TORSDOF 16
ENDMDL
MODEL 5
REMARK VINA RESULT: -8.342978144      1.866      5.114
REMARK  16 active torsions:
REMARK  status: ('A' for Active; 'I' for Inactive)
REMARK    1  A    between atoms: C2_3  and  C3_4 
REMARK    2  A    between atoms: C3_4  and  C4_5 
REMARK       I    between atoms: C4_5  and  N2_7 
REMARK    3  A    between atoms: N2_7  and  C5_9 
REMARK    4  A    between atoms: C6_14  and  C7_15 
REMARK    5  A    between atoms: C7_15  and  C8_16 
REMARK    6  A    between atoms: C8_16  and  S1_17 
REMARK    7  A    between atoms: S1_17  and  C9_18 
REMARK    8  A    between atoms: C9_18  and  C10_19 
REMARK    9  A    between atoms: C10_19  and  C11_20 
REMARK   10  A    between atoms: C14_23  and  N5_24 
REMARK   11  A    between atoms: N5_24  and  C15_25 
REMARK   12  A    between atoms: C15_25  and  O2_26 
REMARK   13  A    between atoms: C15_25  and  C16_28 
REMARK   14  A    between atoms: C16_28  and  C17_29 
REMARK   15  A    between atoms: C17_29  and  N6_30 
REMARK   16  A    between atoms: C23_41  and  C24_42 
ROOT
HETATM    1  C5  UNL     1     -10.349 -18.887  16.970  1.00  0.00     0.167 A 
HETATM    2  N3  UNL     1     -10.884 -17.673  17.302  1.00  0.00    -0.279 N 
ATOM      3  H3  UNL     1     -11.865 -17.584  17.569  1.00  0.00     0.189 HD
HETATM    4  N4  UNL     1     -10.127 -16.667  17.268  1.00  0.00    -0.296 N 
ATOM      5  H4  UNL     1     -10.512 -15.754  17.512  1.00  0.00     0.187 HD
HETATM    6  C6  UNL     1      -8.867 -16.748  16.932  1.00  0.00     0.070 A 
HETATM    7  S2  UNL     1      -8.734 -18.448  16.628  1.00  0.00    -0.038 SA
ENDROOT
BRANCH   6   8
HETATM    8  C7  UNL     1      -7.843 -15.676  16.812  1.00  0.00     0.076 C 
BRANCH   8   9
HETATM    9  C8  UNL     1      -6.917 -15.574  17.962  1.00  0.00     0.080 C 
BRANCH   9  10
HETATM   10  S1  UNL     1      -7.481 -15.869  19.598  1.00  0.00    -0.168 SA
BRANCH  10  11
HETATM   11  C9  UNL     1      -7.296 -17.508  20.226  1.00  0.00     0.080 C 
BRANCH  11  12
HETATM   12  C10 UNL     1      -8.265 -17.837  21.336  1.00  0.00     0.068 C 
BRANCH  12  13
HETATM   13  C11 UNL     1      -9.323 -18.763  20.772  1.00  0.00     0.026 A 
HETATM   14  C12 UNL     1      -9.002 -20.040  20.394  1.00  0.00     0.031 A 
HETATM   15  C13 UNL     1      -9.998 -20.893  19.982  1.00  0.00     0.067 A 
HETATM   16  C14 UNL     1     -11.359 -20.492  19.937  1.00  0.00     0.196 A 
HETATM   17  N7  UNL     1     -11.575 -19.203  20.330  1.00  0.00    -0.274 N 
HETATM   18  N8  UNL     1     -10.604 -18.399  20.720  1.00  0.00    -0.302 N 
ATOM     19  H7  UNL     1     -12.530 -18.845  20.321  1.00  0.00     0.189 HD
ATOM     20  H8  UNL     1     -10.848 -17.447  20.995  1.00  0.00     0.186 HD
BRANCH  16  21
HETATM   21  N5  UNL     1     -12.183 -21.304  19.621  1.00  0.00    -0.366 NA
BRANCH  21  22
HETATM   22  C15 UNL     1     -13.103 -22.159  19.286  1.00  0.00     0.194 C 
BRANCH  22  23
HETATM   23  O2  UNL     1     -13.005 -22.967  18.259  1.00  0.00    -0.339 OA
ATOM     24  H2  UNL     1     -13.201 -23.895  18.299  1.00  0.00     0.220 HD
ENDBRANCH  22  23
BRANCH  22  25
HETATM   25  C16 UNL     1     -14.432 -22.387  19.992  1.00  0.00     0.128 C 
BRANCH  25  26
HETATM   26  C17 UNL     1     -15.329 -23.100  18.994  1.00  0.00     0.245 C 
BRANCH  26  27
HETATM   27  N6  UNL     1     -15.939 -24.263  19.550  1.00  0.00    -0.078 N 
HETATM   28  C18 UNL     1     -17.386 -24.229  19.299  1.00  0.00     0.271 C 
HETATM   29  C19 UNL     1     -15.701 -24.395  20.956  1.00  0.00     0.271 C 
HETATM   30  C20 UNL     1     -15.391 -25.431  18.851  1.00  0.00     0.271 C 
ENDBRANCH  26  27
ENDBRANCH  25  26
ENDBRANCH  22  25
ENDBRANCH  21  22
ENDBRANCH  16  21
ENDBRANCH  12  13
ENDBRANCH  11  12
ENDBRANCH  10  11
ENDBRANCH   9  10
ENDBRANCH   8   9
ENDBRANCH   6   8
BRANCH   1  31
HETATM   31  N2  UNL     1     -10.977 -20.003  16.956  1.00  0.00    -0.306 N 
HETATM   32  C4  UNL     1     -11.753 -20.566  15.988  1.00  0.00     0.229 C 
HETATM   33  O1  UNL     1     -11.882 -21.844  15.956  1.00  0.00    -0.273 OA
ATOM     34  H2  UNL     1     -10.881 -20.559  17.806  1.00  0.00     0.171 HD
BRANCH  32  35
HETATM   35  C3  UNL     1     -12.486 -19.803  14.949  1.00  0.00     0.160 C 
BRANCH  35  36
HETATM   36  C2  UNL     1     -13.686 -20.545  14.526  1.00  0.00     0.020 A 
HETATM   37  N1  UNL     1     -14.812 -20.800  15.183  1.00  0.00    -0.352 N 
HETATM   38  C1  UNL     1     -15.109 -20.427  16.561  1.00  0.00     0.156 C 
HETATM   39  C23 UNL     1     -15.636 -21.476  14.373  1.00  0.00     0.068 A 
HETATM   40  C22 UNL     1     -15.041 -21.674  13.144  1.00  0.00     0.034 A 
HETATM   41  C21 UNL     1     -13.804 -21.085  13.241  1.00  0.00     0.028 A 
BRANCH  39  42
HETATM   42  C24 UNL     1     -16.995 -21.919  14.660  1.00  0.00     0.101 A 
HETATM   43  N9  UNL     1     -18.129 -21.284  14.373  1.00  0.00    -0.358 N 
HETATM   44  C25 UNL     1     -19.263 -21.785  14.730  1.00  0.00     0.096 A 
ATOM     45  H9  UNL     1     -18.102 -20.398  13.868  1.00  0.00     0.166 HD
HETATM   46  C26 UNL     1     -19.258 -22.978  15.405  1.00  0.00     0.069 A 
HETATM   47  S3  UNL     1     -17.587 -23.315  15.488  1.00  0.00    -0.081 SA
ENDBRANCH  39  42
ENDBRANCH  35  36
ENDBRANCH  32  35
ENDBRANCH   1  31
TORSDOF 16
ENDMDL
