MODEL 1
REMARK VINA RESULT: -8.233328646      0.000      0.000
REMARK  9 active torsions:
REMARK  status: ('A' for Active; 'I' for Inactive)
REMARK    1  A    between atoms: C2_2  and  C3_3 
REMARK    2  A    between atoms: C3_3  and  N1_4 
REMARK    3  A    between atoms: C6_9  and  C7_10 
REMARK    4  A    between atoms: C8_11  and  C9_12 
REMARK    5  A    between atoms: C9_12  and  C10_14 
REMARK    6  A    between atoms: C13_17  and  O2_18 
REMARK    7  A    between atoms: C14_20  and  O3_21 
REMARK    8  A    between atoms: N3_23  and  C15_24 
REMARK    9  A    between atoms: C16_26  and  C17_27 
ROOT
HETATM    1  C15 UNL     1       7.011  94.708  39.388  1.00  0.00     0.177 A 
HETATM    2  O4  UNL     1       7.115  93.402  39.242  1.00  0.00    -0.295 OA
HETATM    3  C16 UNL     1       7.226  93.018  38.019  1.00  0.00     0.064 A 
HETATM    4  C21 UNL     1       7.203  94.119  37.226  1.00  0.00     0.060 A 
HETATM    5  C22 UNL     1       7.067  95.198  38.073  1.00  0.00     0.099 A 
HETATM    6  C23 UNL     1       7.007  96.547  37.629  1.00  0.00     0.104 C 
HETATM    7  N4  UNL     1       6.979  97.656  37.276  1.00  0.00    -0.191 NA
ENDROOT
BRANCH   1   8
HETATM    8  N3  UNL     1       6.881  95.484  40.560  1.00  0.00    -0.266 N 
HETATM    9  C7  UNL     1       7.791  95.724  41.566  1.00  0.00     0.074 A 
HETATM   10  C8  UNL     1       7.095  96.446  42.507  1.00  0.00     0.076 A 
HETATM   11  C13 UNL     1       5.788  96.653  42.131  1.00  0.00     0.133 A 
HETATM   12  C14 UNL     1       5.670  96.052  40.912  1.00  0.00     0.184 A 
BRANCH   9  13
HETATM   13  C6  UNL     1       8.965  94.874  41.708  1.00  0.00     0.040 A 
HETATM   14  C4  UNL     1      10.136  94.795  40.961  1.00  0.00     0.036 A 
HETATM   15  N2  UNL     1      10.761  93.637  41.184  1.00  0.00    -0.302 N 
HETATM   16  C5  UNL     1      10.717  95.943  40.148  1.00  0.00     0.070 C 
HETATM   17  N1  UNL     1      10.098  92.920  42.035  1.00  0.00    -0.296 N 
ATOM     18  H2  UNL     1      11.638  93.356  40.745  1.00  0.00     0.186 HD
HETATM   19  C24 UNL     1       8.990  93.627  42.387  1.00  0.00     0.039 A 
HETATM   20  C25 UNL     1       7.951  93.045  43.231  1.00  0.00     0.071 C 
BRANCH  17  21
HETATM   21  C3  UNL     1      10.466  91.618  42.532  1.00  0.00     0.148 C 
BRANCH  21  22
HETATM   22  C2  UNL     1      10.553  90.683  41.313  1.00  0.00     0.017 C 
HETATM   23  C1  UNL     1      11.843  89.923  41.481  1.00  0.00     0.007 C 
ENDBRANCH  21  22
ENDBRANCH  17  21
ENDBRANCH   9  13
BRANCH  10  24
HETATM   24  C9  UNL     1       7.710  97.114  43.679  1.00  0.00     0.168 C 
HETATM   25  O1  UNL     1       7.769  98.346  43.835  1.00  0.00    -0.292 OA
BRANCH  24  26
HETATM   26  C10 UNL     1       8.308  96.313  44.778  1.00  0.00     0.053 C 
HETATM   27  C11 UNL     1       9.810  96.685  44.819  1.00  0.00     0.018 C 
HETATM   28  C12 UNL     1       7.688  96.839  46.080  1.00  0.00     0.018 C 
ENDBRANCH  24  26
ENDBRANCH  10  24
BRANCH  11  29
HETATM   29  O2  UNL     1       4.779  97.310  42.799  1.00  0.00    -0.356 OA
ATOM     30  H2  UNL     1       4.578  98.238  42.829  1.00  0.00     0.218 HD
ENDBRANCH  11  29
BRANCH  12  31
HETATM   31  O3  UNL     1       4.536  95.977  40.085  1.00  0.00    -0.344 OA
ATOM     32  H3  UNL     1       4.486  95.692  39.180  1.00  0.00     0.219 HD
ENDBRANCH  12  31
ENDBRANCH   1   8
BRANCH   3  33
HETATM   33  C17 UNL     1       7.357  91.571  37.629  1.00  0.00    -0.002 C 
HETATM   34  C18 UNL     1       8.334  90.941  38.590  1.00  0.00     0.021 C 
HETATM   35  C19 UNL     1       6.007  90.946  37.829  1.00  0.00     0.021 C 
HETATM   36  C20 UNL     1       7.844  91.461  36.202  1.00  0.00     0.021 C 
ENDBRANCH   3  33
TORSDOF 9
ENDMDL
MODEL 2
REMARK VINA RESULT: -7.946318023      1.834      2.412
REMARK  9 active torsions:
REMARK  status: ('A' for Active; 'I' for Inactive)
REMARK    1  A    between atoms: C2_2  and  C3_3 
REMARK    2  A    between atoms: C3_3  and  N1_4 
REMARK    3  A    between atoms: C6_9  and  C7_10 
REMARK    4  A    between atoms: C8_11  and  C9_12 
REMARK    5  A    between atoms: C9_12  and  C10_14 
REMARK    6  A    between atoms: C13_17  and  O2_18 
REMARK    7  A    between atoms: C14_20  and  O3_21 
REMARK    8  A    between atoms: N3_23  and  C15_24 
REMARK    9  A    between atoms: C16_26  and  C17_27 
ROOT
HETATM    1  C15 UNL     1       8.633  94.400  39.293  1.00  0.00     0.177 A 
HETATM    2  O4  UNL     1       8.597  93.100  39.083  1.00  0.00    -0.295 OA
HETATM    3  C16 UNL     1       9.502  92.674  38.274  1.00  0.00     0.064 A 
HETATM    4  C21 UNL     1      10.244  93.738  37.871  1.00  0.00     0.060 A 
HETATM    5  C22 UNL     1       9.709  94.839  38.505  1.00  0.00     0.099 A 
HETATM    6  C23 UNL     1      10.211  96.159  38.350  1.00  0.00     0.104 C 
HETATM    7  N4  UNL     1      10.629  97.240  38.246  1.00  0.00    -0.191 NA
ENDROOT
BRANCH   1   8
HETATM    8  N3  UNL     1       7.815  95.212  40.110  1.00  0.00    -0.266 N 
HETATM    9  C7  UNL     1       7.906  95.484  41.457  1.00  0.00     0.074 A 
HETATM   10  C8  UNL     1       6.788  96.233  41.742  1.00  0.00     0.076 A 
HETATM   11  C13 UNL     1       6.002  96.426  40.630  1.00  0.00     0.133 A 
HETATM   12  C14 UNL     1       6.658  95.787  39.618  1.00  0.00     0.184 A 
BRANCH   9  13
HETATM   13  C6  UNL     1       8.722  94.642  42.320  1.00  0.00     0.040 A 
HETATM   14  C4  UNL     1      10.095  94.421  42.354  1.00  0.00     0.036 A 
HETATM   15  N2  UNL     1      10.376  93.299  43.020  1.00  0.00    -0.302 N 
HETATM   16  C5  UNL     1      11.139  95.414  41.863  1.00  0.00     0.070 C 
HETATM   17  N1  UNL     1       9.289  92.738  43.446  1.00  0.00    -0.296 N 
ATOM     18  H2  UNL     1      11.317  92.933  43.171  1.00  0.00     0.186 HD
HETATM   19  C24 UNL     1       8.246  93.516  43.044  1.00  0.00     0.039 A 
HETATM   20  C25 UNL     1       6.863  93.096  43.243  1.00  0.00     0.071 C 
BRANCH  17  21
HETATM   21  C3  UNL     1       9.193  91.523  44.214  1.00  0.00     0.148 C 
BRANCH  21  22
HETATM   22  C2  UNL     1       9.830  90.408  43.366  1.00  0.00     0.017 C 
HETATM   23  C1  UNL     1       9.323  89.116  43.956  1.00  0.00     0.007 C 
ENDBRANCH  21  22
ENDBRANCH  17  21
ENDBRANCH   9  13
BRANCH  10  24
HETATM   24  C9  UNL     1       6.553  96.938  43.025  1.00  0.00     0.168 C 
HETATM   25  O1  UNL     1       7.164  97.957  43.390  1.00  0.00    -0.292 OA
BRANCH  24  26
HETATM   26  C10 UNL     1       5.525  96.448  43.979  1.00  0.00     0.053 C 
HETATM   27  C11 UNL     1       6.276  96.111  45.290  1.00  0.00     0.018 C 
HETATM   28  C12 UNL     1       4.617  97.647  44.288  1.00  0.00     0.018 C 
ENDBRANCH  24  26
ENDBRANCH  10  24
BRANCH  11  29
HETATM   29  O2  UNL     1       4.808  97.100  40.508  1.00  0.00    -0.356 OA
ATOM     30  H2  UNL     1       3.985  96.808  40.134  1.00  0.00     0.218 HD
ENDBRANCH  11  29
BRANCH  12  31
HETATM   31  O3  UNL     1       6.283  95.685  38.267  1.00  0.00    -0.344 OA
ATOM     32  H3  UNL     1       6.022  96.380  37.675  1.00  0.00     0.219 HD
ENDBRANCH  12  31
ENDBRANCH   1   8
BRANCH   3  33
HETATM   33  C17 UNL     1       9.641  91.225  37.896  1.00  0.00    -0.002 C 
HETATM   34  C18 UNL     1       8.728  90.985  36.720  1.00  0.00     0.021 C 
HETATM   35  C19 UNL     1      11.063  91.027  37.455  1.00  0.00     0.021 C 
HETATM   36  C20 UNL     1       9.268  90.346  39.068  1.00  0.00     0.021 C 
ENDBRANCH   3  33
TORSDOF 9
ENDMDL
MODEL 3
REMARK VINA RESULT: -7.657297772      1.076      1.554
REMARK  9 active torsions:
REMARK  status: ('A' for Active; 'I' for Inactive)
REMARK    1  A    between atoms: C2_2  and  C3_3 
REMARK    2  A    between atoms: C3_3  and  N1_4 
REMARK    3  A    between atoms: C6_9  and  C7_10 
REMARK    4  A    between atoms: C8_11  and  C9_12 
REMARK    5  A    between atoms: C9_12  and  C10_14 
REMARK    6  A    between atoms: C13_17  and  O2_18 
REMARK    7  A    between atoms: C14_20  and  O3_21 
REMARK    8  A    between atoms: N3_23  and  C15_24 
REMARK    9  A    between atoms: C16_26  and  C17_27 
ROOT
HETATM    1  C15 UNL     1       7.376  94.733  39.740  1.00  0.00     0.177 A 
HETATM    2  O4  UNL     1       7.225  93.451  39.478  1.00  0.00    -0.295 OA
HETATM    3  C16 UNL     1       7.594  93.111  38.293  1.00  0.00     0.064 A 
HETATM    4  C21 UNL     1       8.043  94.222  37.655  1.00  0.00     0.060 A 
HETATM    5  C22 UNL     1       7.913  95.258  38.554  1.00  0.00     0.099 A 
HETATM    6  C23 UNL     1       8.283  96.601  38.269  1.00  0.00     0.104 C 
HETATM    7  N4  UNL     1       8.603  97.698  38.052  1.00  0.00    -0.191 NA
ENDROOT
BRANCH   1   8
HETATM    8  N3  UNL     1       7.091  95.460  40.917  1.00  0.00    -0.266 N 
HETATM    9  C7  UNL     1       7.804  95.554  42.092  1.00  0.00     0.074 A 
HETATM   10  C8  UNL     1       7.006  96.297  42.931  1.00  0.00     0.076 A 
HETATM   11  C13 UNL     1       5.824  96.657  42.329  1.00  0.00     0.133 A 
HETATM   12  C14 UNL     1       5.892  96.132  41.071  1.00  0.00     0.184 A 
BRANCH   9  13
HETATM   13  C6  UNL     1       8.843  94.580  42.396  1.00  0.00     0.040 A 
HETATM   14  C4  UNL     1      10.132  94.428  41.896  1.00  0.00     0.036 A 
HETATM   15  N2  UNL     1      10.593  93.200  42.143  1.00  0.00    -0.302 N 
HETATM   16  C5  UNL     1      10.968  95.558  41.313  1.00  0.00     0.070 C 
HETATM   17  N1  UNL     1       9.707  92.503  42.782  1.00  0.00    -0.296 N 
ATOM     18  H2  UNL     1      11.514  92.858  41.867  1.00  0.00     0.186 HD
HETATM   19  C24 UNL     1       8.617  93.297  42.961  1.00  0.00     0.039 A 
HETATM   20  C25 UNL     1       7.379  92.773  43.529  1.00  0.00     0.071 C 
BRANCH  17  21
HETATM   21  C3  UNL     1       9.848  91.142  43.233  1.00  0.00     0.148 C 
BRANCH  21  22
HETATM   22  C2  UNL     1      10.419  91.202  44.661  1.00  0.00     0.017 C 
HETATM   23  C1  UNL     1       9.703  90.118  45.426  1.00  0.00     0.007 C 
ENDBRANCH  21  22
ENDBRANCH  17  21
ENDBRANCH   9  13
BRANCH  10  24
HETATM   24  C9  UNL     1       7.439  96.838  44.241  1.00  0.00     0.168 C 
HETATM   25  O1  UNL     1       7.772  98.020  44.439  1.00  0.00    -0.292 OA
BRANCH  24  26
HETATM   26  C10 UNL     1       7.493  95.963  45.441  1.00  0.00     0.053 C 
HETATM   27  C11 UNL     1       7.979  96.855  46.608  1.00  0.00     0.018 C 
HETATM   28  C12 UNL     1       6.041  95.576  45.757  1.00  0.00     0.018 C 
ENDBRANCH  24  26
ENDBRANCH  10  24
BRANCH  11  29
HETATM   29  O2  UNL     1       4.768  97.381  42.835  1.00  0.00    -0.356 OA
ATOM     30  H2  UNL     1       4.715  98.307  43.045  1.00  0.00     0.218 HD
ENDBRANCH  11  29
BRANCH  12  31
HETATM   31  O3  UNL     1       4.941  96.217  40.040  1.00  0.00    -0.344 OA
ATOM     32  H3  UNL     1       4.487  95.509  39.598  1.00  0.00     0.219 HD
ENDBRANCH  12  31
ENDBRANCH   1   8
BRANCH   3  33
HETATM   33  C17 UNL     1       7.508  91.697  37.788  1.00  0.00    -0.002 C 
HETATM   34  C18 UNL     1       7.933  91.718  36.341  1.00  0.00     0.021 C 
HETATM   35  C19 UNL     1       8.504  90.895  38.574  1.00  0.00     0.021 C 
HETATM   36  C20 UNL     1       6.096  91.178  37.936  1.00  0.00     0.021 C 
ENDBRANCH   3  33
TORSDOF 9
ENDMDL
MODEL 4
REMARK VINA RESULT: -7.418008825      2.516      5.068
REMARK  9 active torsions:
REMARK  status: ('A' for Active; 'I' for Inactive)
REMARK    1  A    between atoms: C2_2  and  C3_3 
REMARK    2  A    between atoms: C3_3  and  N1_4 
REMARK    3  A    between atoms: C6_9  and  C7_10 
REMARK    4  A    between atoms: C8_11  and  C9_12 
REMARK    5  A    between atoms: C9_12  and  C10_14 
REMARK    6  A    between atoms: C13_17  and  O2_18 
REMARK    7  A    between atoms: C14_20  and  O3_21 
REMARK    8  A    between atoms: N3_23  and  C15_24 
REMARK    9  A    between atoms: C16_26  and  C17_27 
ROOT
HETATM    1  C15 UNL     1       9.044  92.133  38.619  1.00  0.00     0.177 A 
HETATM    2  O4  UNL     1       9.489  91.856  39.828  1.00  0.00    -0.295 OA
HETATM    3  C16 UNL     1      10.250  90.819  39.882  1.00  0.00     0.064 A 
HETATM    4  C21 UNL     1      10.363  90.312  38.628  1.00  0.00     0.060 A 
HETATM    5  C22 UNL     1       9.607  91.129  37.815  1.00  0.00     0.099 A 
HETATM    6  C23 UNL     1       9.469  90.938  36.413  1.00  0.00     0.104 C 
HETATM    7  N4  UNL     1       9.368  90.802  35.262  1.00  0.00    -0.191 NA
ENDROOT
BRANCH   1   8
HETATM    8  N3  UNL     1       8.205  93.180  38.178  1.00  0.00    -0.266 N 
HETATM    9  C7  UNL     1       8.233  94.523  38.484  1.00  0.00     0.074 A 
HETATM   10  C8  UNL     1       7.121  95.048  37.869  1.00  0.00     0.076 A 
HETATM   11  C13 UNL     1       6.399  94.085  37.204  1.00  0.00     0.133 A 
HETATM   12  C14 UNL     1       7.090  92.925  37.402  1.00  0.00     0.184 A 
BRANCH   9  13
HETATM   13  C6  UNL     1       8.982  94.994  39.640  1.00  0.00     0.040 A 
HETATM   14  C4  UNL     1      10.277  95.490  39.755  1.00  0.00     0.036 A 
HETATM   15  N2  UNL     1      10.696  95.430  41.021  1.00  0.00    -0.302 N 
HETATM   16  C5  UNL     1      11.038  96.175  38.629  1.00  0.00     0.070 C 
HETATM   17  N1  UNL     1       9.774  94.929  41.781  1.00  0.00    -0.296 N 
ATOM     18  H2  UNL     1      11.614  95.736  41.344  1.00  0.00     0.186 HD
HETATM   19  C24 UNL     1       8.705  94.642  40.989  1.00  0.00     0.039 A 
HETATM   20  C25 UNL     1       7.540  93.934  41.509  1.00  0.00     0.071 C 
BRANCH  17  21
HETATM   21  C3  UNL     1       9.853  94.722  43.204  1.00  0.00     0.148 C 
BRANCH  21  22
HETATM   22  C2  UNL     1      10.118  96.097  43.842  1.00  0.00     0.017 C 
HETATM   23  C1  UNL     1       8.758  96.651  44.181  1.00  0.00     0.007 C 
ENDBRANCH  21  22
ENDBRANCH  17  21
ENDBRANCH   9  13
BRANCH  10  24
HETATM   24  C9  UNL     1       6.837  96.498  37.741  1.00  0.00     0.168 C 
HETATM   25  O1  UNL     1       6.389  97.039  36.714  1.00  0.00    -0.292 OA
BRANCH  24  26
HETATM   26  C10 UNL     1       7.075  97.419  38.882  1.00  0.00     0.053 C 
HETATM   27  C11 UNL     1       6.752  98.841  38.366  1.00  0.00     0.018 C 
HETATM   28  C12 UNL     1       6.012  97.081  39.937  1.00  0.00     0.018 C 
ENDBRANCH  24  26
ENDBRANCH  10  24
BRANCH  11  29
HETATM   29  O2  UNL     1       5.230  94.206  36.487  1.00  0.00    -0.356 OA
ATOM     30  H2  UNL     1       4.981  93.801  35.665  1.00  0.00     0.218 HD
ENDBRANCH  11  29
BRANCH  12  31
HETATM   31  O3  UNL     1       6.783  91.638  36.926  1.00  0.00    -0.344 OA
ATOM     32  H3  UNL     1       7.176  90.810  37.176  1.00  0.00     0.219 HD
ENDBRANCH  12  31
ENDBRANCH   1   8
BRANCH   3  33
HETATM   33  C17 UNL     1      10.865  90.327  41.163  1.00  0.00    -0.002 C 
HETATM   34  C18 UNL     1      11.287  91.544  41.947  1.00  0.00     0.021 C 
HETATM   35  C19 UNL     1       9.780  89.616  41.919  1.00  0.00     0.021 C 
HETATM   36  C20 UNL     1      12.046  89.433  40.860  1.00  0.00     0.021 C 
ENDBRANCH   3  33
TORSDOF 9
ENDMDL
MODEL 5
REMARK VINA RESULT: -7.390114259      2.466      4.518
REMARK  9 active torsions:
REMARK  status: ('A' for Active; 'I' for Inactive)
REMARK    1  A    between atoms: C2_2  and  C3_3 
REMARK    2  A    between atoms: C3_3  and  N1_4 
REMARK    3  A    between atoms: C6_9  and  C7_10 
REMARK    4  A    between atoms: C8_11  and  C9_12 
REMARK    5  A    between atoms: C9_12  and  C10_14 
REMARK    6  A    between atoms: C13_17  and  O2_18 
REMARK    7  A    between atoms: C14_20  and  O3_21 
REMARK    8  A    between atoms: N3_23  and  C15_24 
REMARK    9  A    between atoms: C16_26  and  C17_27 
ROOT
HETATM    1  C15 UNL     1       8.593  92.990  37.497  1.00  0.00     0.177 A 
HETATM    2  O4  UNL     1       9.835  92.645  37.224  1.00  0.00    -0.295 OA
HETATM    3  C16 UNL     1      10.017  91.375  37.123  1.00  0.00     0.064 A 
HETATM    4  C21 UNL     1       8.826  90.759  37.339  1.00  0.00     0.060 A 
HETATM    5  C22 UNL     1       7.913  91.763  37.577  1.00  0.00     0.099 A 
HETATM    6  C23 UNL     1       6.537  91.531  37.843  1.00  0.00     0.104 C 
HETATM    7  N4  UNL     1       5.404  91.352  38.041  1.00  0.00    -0.191 NA
ENDROOT
BRANCH   1   8
HETATM    8  N3  UNL     1       8.023  94.270  37.671  1.00  0.00    -0.266 N 
HETATM    9  C7  UNL     1       8.171  95.169  38.704  1.00  0.00     0.074 A 
HETATM   10  C8  UNL     1       7.301  96.192  38.408  1.00  0.00     0.076 A 
HETATM   11  C13 UNL     1       6.611  95.959  37.241  1.00  0.00     0.133 A 
HETATM   12  C14 UNL     1       7.076  94.758  36.790  1.00  0.00     0.184 A 
BRANCH   9  13
HETATM   13  C6  UNL     1       8.712  94.731  39.983  1.00  0.00     0.040 A 
HETATM   14  C4  UNL     1       8.101  94.139  41.083  1.00  0.00     0.036 A 
HETATM   15  N2  UNL     1       8.863  94.265  42.172  1.00  0.00    -0.302 N 
HETATM   16  C5  UNL     1       6.829  93.305  41.016  1.00  0.00     0.070 C 
HETATM   17  N1  UNL     1       9.956  94.900  41.889  1.00  0.00    -0.296 N 
ATOM     18  H2  UNL     1       8.619  93.910  43.097  1.00  0.00     0.186 HD
HETATM   19  C24 UNL     1       9.915  95.212  40.565  1.00  0.00     0.039 A 
HETATM   20  C25 UNL     1      10.936  96.053  39.949  1.00  0.00     0.071 C 
BRANCH  17  21
HETATM   21  C3  UNL     1      11.028  95.213  42.800  1.00  0.00     0.148 C 
BRANCH  21  22
HETATM   22  C2  UNL     1      10.439  95.150  44.221  1.00  0.00     0.017 C 
HETATM   23  C1  UNL     1      10.213  96.583  44.626  1.00  0.00     0.007 C 
ENDBRANCH  21  22
ENDBRANCH  17  21
ENDBRANCH   9  13
BRANCH  10  24
HETATM   24  C9  UNL     1       7.256  97.490  39.123  1.00  0.00     0.168 C 
HETATM   25  O1  UNL     1       7.941  98.483  38.822  1.00  0.00    -0.292 OA
BRANCH  24  26
HETATM   26  C10 UNL     1       6.345  97.685  40.281  1.00  0.00     0.053 C 
HETATM   27  C11 UNL     1       5.348  96.502  40.252  1.00  0.00     0.018 C 
HETATM   28  C12 UNL     1       7.205  97.505  41.540  1.00  0.00     0.018 C 
ENDBRANCH  24  26
ENDBRANCH  10  24
BRANCH  11  29
HETATM   29  O2  UNL     1       5.652  96.729  36.622  1.00  0.00    -0.356 OA
ATOM     30  H2  UNL     1       5.703  97.627  36.316  1.00  0.00     0.218 HD
ENDBRANCH  11  29
BRANCH  12  31
HETATM   31  O3  UNL     1       6.703  94.063  35.626  1.00  0.00    -0.344 OA
ATOM     32  H3  UNL     1       5.864  93.666  35.422  1.00  0.00     0.219 HD
ENDBRANCH  12  31
ENDBRANCH   1   8
BRANCH   3  33
HETATM   33  C17 UNL     1      11.357  90.766  36.816  1.00  0.00    -0.002 C 
HETATM   34  C18 UNL     1      12.247  91.880  36.326  1.00  0.00     0.021 C 
HETATM   35  C19 UNL     1      11.903  90.245  38.115  1.00  0.00     0.021 C 
HETATM   36  C20 UNL     1      11.208  89.683  35.772  1.00  0.00     0.021 C 
ENDBRANCH   3  33
TORSDOF 9
ENDMDL
