MODEL 1
REMARK VINA RESULT: -8.509005498      0.000      0.000
REMARK  8 active torsions:
REMARK  status: ('A' for Active; 'I' for Inactive)
REMARK    1  A    between atoms: O1_2  and  C2_3 
REMARK    2  A    between atoms: C5_6  and  O2_7 
REMARK    3  A    between atoms: O2_7  and  C6_8 
REMARK    4  A    between atoms: C7_9  and  O3_10 
REMARK    5  A    between atoms: C8_12  and  C9_13 
REMARK    6  A    between atoms: C9_13  and  C10_14 
REMARK    7  A    between atoms: C14_18  and  O4_19 
REMARK    8  A    between atoms: C24_33  and  O7_34 
ROOT
HETATM    1  C6  UNL     1       8.791  93.450  37.918  1.00  0.00     0.131 A 
HETATM    2  C7  UNL     1       9.881  92.804  37.286  1.00  0.00     0.110 A 
HETATM    3  C8  UNL     1       9.704  91.584  36.693  1.00  0.00     0.015 A 
HETATM    4  C14 UNL     1       8.466  90.946  36.691  1.00  0.00     0.082 A 
HETATM    5  C15 UNL     1       7.414  91.588  37.311  1.00  0.00    -0.005 A 
HETATM    6  C16 UNL     1       6.047  90.970  37.357  1.00  0.00     0.053 C 
HETATM    7  C17 UNL     1       7.582  92.822  37.914  1.00  0.00     0.089 A 
HETATM    8  C18 UNL     1       6.454  93.483  38.527  1.00  0.00     0.103 C 
HETATM    9  N1  UNL     1       5.563  93.986  39.018  1.00  0.00    -0.191 NA
ENDROOT
BRANCH   1  10
HETATM   10  O2  UNL     1       9.092  94.653  38.462  1.00  0.00    -0.305 OA
BRANCH  10  11
HETATM   11  C5  UNL     1       8.663  95.344  39.528  1.00  0.00     0.102 A 
HETATM   12  C3  UNL     1       8.890  94.964  40.831  1.00  0.00     0.009 A 
HETATM   13  C2  UNL     1       8.408  95.734  41.852  1.00  0.00     0.113 A 
HETATM   14  C4  UNL     1       9.659  93.748  41.193  1.00  0.00     0.054 C 
HETATM   15  C24 UNL     1       7.697  96.885  41.634  1.00  0.00     0.137 A 
HETATM   16  C23 UNL     1       7.455  97.286  40.327  1.00  0.00     0.128 A 
HETATM   17  C19 UNL     1       7.938  96.514  39.295  1.00  0.00     0.085 A 
HETATM   18  O6  UNL     1       6.757  98.404  40.115  1.00  0.00    -0.319 OA
HETATM   19  C20 UNL     1       7.642  96.978  38.018  1.00  0.00     0.189 A 
HETATM   20  O5  UNL     1       8.033  96.336  37.019  1.00  0.00    -0.287 OA
HETATM   21  C21 UNL     1       6.924  98.127  37.790  1.00  0.00     0.080 A 
HETATM   22  C22 UNL     1       6.498  98.818  38.898  1.00  0.00     0.146 A 
BRANCH  13  23
HETATM   23  O1  UNL     1       8.615  95.386  43.204  1.00  0.00    -0.352 OA
HETATM   24  C1  UNL     1       9.755  95.931  43.843  1.00  0.00     0.210 C 
ENDBRANCH  13  23
BRANCH  15  25
HETATM   25  O7  UNL     1       7.197  97.687  42.650  1.00  0.00    -0.351 OA
HETATM   26  C25 UNL     1       6.052  97.366  43.413  1.00  0.00     0.210 C 
ENDBRANCH  15  25
ENDBRANCH  10  11
ENDBRANCH   1  10
BRANCH   2  27
HETATM   27  O3  UNL     1      11.143  93.394  37.262  1.00  0.00    -0.357 OA
ATOM     28  H3  UNL     1      11.849  93.053  37.799  1.00  0.00     0.217 HD
ENDBRANCH   2  27
BRANCH   4  29
HETATM   29  O4  UNL     1       8.221  89.730  36.121  1.00  0.00    -0.359 OA
ATOM     30  H4  UNL     1       7.521  89.554  35.503  1.00  0.00     0.217 HD
ENDBRANCH   4  29
BRANCH   3  31
HETATM   31  C9  UNL     1      10.806  90.847  36.013  1.00  0.00     0.072 C 
BRANCH  31  32
HETATM   32  C10 UNL     1      11.588  89.987  36.927  1.00  0.00    -0.020 C 
HETATM   33  C11 UNL     1      11.752  88.687  36.830  1.00  0.00    -0.091 C 
HETATM   34  C12 UNL     1      12.568  87.957  37.821  1.00  0.00     0.042 C 
HETATM   35  C13 UNL     1      11.099  87.935  35.740  1.00  0.00     0.042 C 
ENDBRANCH  31  32
ENDBRANCH   3  31
TORSDOF 8
ENDMDL
MODEL 2
REMARK VINA RESULT: -8.306247565      2.799      4.409
REMARK  8 active torsions:
REMARK  status: ('A' for Active; 'I' for Inactive)
REMARK    1  A    between atoms: O1_2  and  C2_3 
REMARK    2  A    between atoms: C5_6  and  O2_7 
REMARK    3  A    between atoms: O2_7  and  C6_8 
REMARK    4  A    between atoms: C7_9  and  O3_10 
REMARK    5  A    between atoms: C8_12  and  C9_13 
REMARK    6  A    between atoms: C9_13  and  C10_14 
REMARK    7  A    between atoms: C14_18  and  O4_19 
REMARK    8  A    between atoms: C24_33  and  O7_34 
ROOT
HETATM    1  C6  UNL     1       9.994  91.200  40.470  1.00  0.00     0.131 A 
HETATM    2  C7  UNL     1      10.645  90.705  39.316  1.00  0.00     0.110 A 
HETATM    3  C8  UNL     1      11.632  89.766  39.436  1.00  0.00     0.015 A 
HETATM    4  C14 UNL     1      12.025  89.273  40.679  1.00  0.00     0.082 A 
HETATM    5  C15 UNL     1      11.380  89.767  41.794  1.00  0.00    -0.005 A 
HETATM    6  C16 UNL     1      11.742  89.292  43.172  1.00  0.00     0.053 C 
HETATM    7  C17 UNL     1      10.381  90.716  41.684  1.00  0.00     0.089 A 
HETATM    8  C18 UNL     1       9.703  91.189  42.868  1.00  0.00     0.103 C 
HETATM    9  N1  UNL     1       9.187  91.562  43.808  1.00  0.00    -0.191 NA
ENDROOT
BRANCH   1  10
HETATM   10  O2  UNL     1       9.032  92.120  40.220  1.00  0.00    -0.305 OA
BRANCH  10  11
HETATM   11  C5  UNL     1       9.011  93.345  39.675  1.00  0.00     0.102 A 
HETATM   12  C3  UNL     1       9.833  94.374  40.072  1.00  0.00     0.009 A 
HETATM   13  C2  UNL     1       9.735  95.591  39.458  1.00  0.00     0.113 A 
HETATM   14  C4  UNL     1      10.852  94.225  41.140  1.00  0.00     0.054 C 
HETATM   15  C24 UNL     1       8.840  95.837  38.450  1.00  0.00     0.137 A 
HETATM   16  C23 UNL     1       8.000  94.813  38.036  1.00  0.00     0.128 A 
HETATM   17  C19 UNL     1       8.095  93.586  38.651  1.00  0.00     0.085 A 
HETATM   18  O6  UNL     1       7.124  95.055  37.058  1.00  0.00    -0.319 OA
HETATM   19  C20 UNL     1       7.209  92.619  38.186  1.00  0.00     0.189 A 
HETATM   20  O5  UNL     1       7.217  91.476  38.692  1.00  0.00    -0.287 OA
HETATM   21  C21 UNL     1       6.304  92.858  37.181  1.00  0.00     0.080 A 
HETATM   22  C22 UNL     1       6.304  94.121  36.638  1.00  0.00     0.146 A 
BRANCH  13  23
HETATM   23  O1  UNL     1      10.557  96.677  39.830  1.00  0.00    -0.352 OA
HETATM   24  C1  UNL     1      11.603  97.028  38.942  1.00  0.00     0.210 C 
ENDBRANCH  13  23
BRANCH  15  25
HETATM   25  O7  UNL     1       8.719  97.062  37.808  1.00  0.00    -0.351 OA
HETATM   26  C25 UNL     1       7.919  98.124  38.285  1.00  0.00     0.210 C 
ENDBRANCH  15  25
ENDBRANCH  10  11
ENDBRANCH   1  10
BRANCH   2  27
HETATM   27  O3  UNL     1      10.296  91.165  38.047  1.00  0.00    -0.357 OA
ATOM     28  H3  UNL     1      10.429  90.621  37.280  1.00  0.00     0.217 HD
ENDBRANCH   2  27
BRANCH   4  29
HETATM   29  O4  UNL     1      13.002  88.340  40.870  1.00  0.00    -0.359 OA
ATOM     30  H4  UNL     1      12.897  87.545  41.378  1.00  0.00     0.217 HD
ENDBRANCH   4  29
BRANCH   3  31
HETATM   31  C9  UNL     1      12.362  89.203  38.265  1.00  0.00     0.072 C 
BRANCH  31  32
HETATM   32  C10 UNL     1      11.729  87.989  37.706  1.00  0.00    -0.020 C 
HETATM   33  C11 UNL     1      11.184  87.867  36.517  1.00  0.00    -0.091 C 
HETATM   34  C12 UNL     1      10.589  86.584  36.092  1.00  0.00     0.042 C 
HETATM   35  C13 UNL     1      11.138  89.022  35.598  1.00  0.00     0.042 C 
ENDBRANCH  31  32
ENDBRANCH   3  31
TORSDOF 8
ENDMDL
MODEL 3
REMARK VINA RESULT: -7.731590941      2.861      7.655
REMARK  8 active torsions:
REMARK  status: ('A' for Active; 'I' for Inactive)
REMARK    1  A    between atoms: O1_2  and  C2_3 
REMARK    2  A    between atoms: C5_6  and  O2_7 
REMARK    3  A    between atoms: O2_7  and  C6_8 
REMARK    4  A    between atoms: C7_9  and  O3_10 
REMARK    5  A    between atoms: C8_12  and  C9_13 
REMARK    6  A    between atoms: C9_13  and  C10_14 
REMARK    7  A    between atoms: C14_18  and  O4_19 
REMARK    8  A    between atoms: C24_33  and  O7_34 
ROOT
HETATM    1  C6  UNL     1       8.339  92.694  39.054  1.00  0.00     0.131 A 
HETATM    2  C7  UNL     1       9.075  93.838  39.446  1.00  0.00     0.110 A 
HETATM    3  C8  UNL     1       8.611  95.088  39.143  1.00  0.00     0.015 A 
HETATM    4  C14 UNL     1       7.417  95.276  38.449  1.00  0.00     0.082 A 
HETATM    5  C15 UNL     1       6.713  94.151  38.074  1.00  0.00    -0.005 A 
HETATM    6  C16 UNL     1       5.418  94.263  37.322  1.00  0.00     0.053 C 
HETATM    7  C17 UNL     1       7.173  92.882  38.376  1.00  0.00     0.089 A 
HETATM    8  C18 UNL     1       6.395  91.725  37.998  1.00  0.00     0.103 C 
HETATM    9  N1  UNL     1       5.782  90.824  37.682  1.00  0.00    -0.191 NA
ENDROOT
BRANCH   1  10
HETATM   10  O2  UNL     1       8.899  91.516  39.418  1.00  0.00    -0.305 OA
BRANCH  10  11
HETATM   11  C5  UNL     1       9.924  90.775  38.969  1.00  0.00     0.102 A 
HETATM   12  C3  UNL     1      10.162  90.523  37.638  1.00  0.00     0.009 A 
HETATM   13  C2  UNL     1      11.232  89.752  37.278  1.00  0.00     0.113 A 
HETATM   14  C4  UNL     1       9.313  91.067  36.550  1.00  0.00     0.054 C 
HETATM   15  C24 UNL     1      12.091  89.210  38.199  1.00  0.00     0.137 A 
HETATM   16  C23 UNL     1      11.868  89.451  39.547  1.00  0.00     0.128 A 
HETATM   17  C19 UNL     1      10.792  90.226  39.914  1.00  0.00     0.085 A 
HETATM   18  O6  UNL     1      12.701  88.918  40.444  1.00  0.00    -0.319 OA
HETATM   19  C20 UNL     1      10.631  90.409  41.284  1.00  0.00     0.189 A 
HETATM   20  O5  UNL     1       9.675  91.092  41.710  1.00  0.00    -0.287 OA
HETATM   21  C21 UNL     1      11.483  89.864  42.213  1.00  0.00     0.080 A 
HETATM   22  C22 UNL     1      12.526  89.111  41.728  1.00  0.00     0.146 A 
BRANCH  13  23
HETATM   23  O1  UNL     1      11.518  89.466  35.926  1.00  0.00    -0.352 OA
HETATM   24  C1  UNL     1      10.950  88.288  35.382  1.00  0.00     0.210 C 
ENDBRANCH  13  23
BRANCH  15  25
HETATM   25  O7  UNL     1      13.185  88.425  37.863  1.00  0.00    -0.351 OA
HETATM   26  C25 UNL     1      13.178  87.012  37.891  1.00  0.00     0.210 C 
ENDBRANCH  15  25
ENDBRANCH  10  11
ENDBRANCH   1  10
BRANCH   2  27
HETATM   27  O3  UNL     1      10.278  93.709  40.138  1.00  0.00    -0.357 OA
ATOM     28  H3  UNL     1      10.858  94.453  40.247  1.00  0.00     0.217 HD
ENDBRANCH   2  27
BRANCH   4  29
HETATM   29  O4  UNL     1       6.899  96.493  38.113  1.00  0.00    -0.359 OA
ATOM     30  H4  UNL     1       7.018  96.916  37.271  1.00  0.00     0.217 HD
ENDBRANCH   4  29
BRANCH   3  31
HETATM   31  C9  UNL     1       9.334  96.334  39.522  1.00  0.00     0.072 C 
BRANCH  31  32
HETATM   32  C10 UNL     1      10.299  96.788  38.496  1.00  0.00    -0.020 C 
HETATM   33  C11 UNL     1      11.570  97.065  38.685  1.00  0.00    -0.091 C 
HETATM   34  C12 UNL     1      12.417  97.507  37.559  1.00  0.00     0.042 C 
HETATM   35  C13 UNL     1      12.161  96.960  40.034  1.00  0.00     0.042 C 
ENDBRANCH  31  32
ENDBRANCH   3  31
TORSDOF 8
ENDMDL
MODEL 4
REMARK VINA RESULT: -7.706456292      3.222      5.249
REMARK  8 active torsions:
REMARK  status: ('A' for Active; 'I' for Inactive)
REMARK    1  A    between atoms: O1_2  and  C2_3 
REMARK    2  A    between atoms: C5_6  and  O2_7 
REMARK    3  A    between atoms: O2_7  and  C6_8 
REMARK    4  A    between atoms: C7_9  and  O3_10 
REMARK    5  A    between atoms: C8_12  and  C9_13 
REMARK    6  A    between atoms: C9_13  and  C10_14 
REMARK    7  A    between atoms: C14_18  and  O4_19 
REMARK    8  A    between atoms: C24_33  and  O7_34 
ROOT
HETATM    1  C6  UNL     1      10.541  90.438  41.021  1.00  0.00     0.131 A 
HETATM    2  C7  UNL     1      11.495  89.999  40.072  1.00  0.00     0.110 A 
HETATM    3  C8  UNL     1      12.538  89.206  40.465  1.00  0.00     0.015 A 
HETATM    4  C14 UNL     1      12.696  88.811  41.791  1.00  0.00     0.082 A 
HETATM    5  C15 UNL     1      11.759  89.248  42.704  1.00  0.00    -0.005 A 
HETATM    6  C16 UNL     1      11.854  88.870  44.154  1.00  0.00     0.053 C 
HETATM    7  C17 UNL     1      10.700  90.048  42.317  1.00  0.00     0.089 A 
HETATM    8  C18 UNL     1       9.717  90.462  43.292  1.00  0.00     0.103 C 
HETATM    9  N1  UNL     1       8.959  90.793  44.069  1.00  0.00    -0.191 NA
ENDROOT
BRANCH   1  10
HETATM   10  O2  UNL     1       9.554  91.210  40.509  1.00  0.00    -0.305 OA
BRANCH  10  11
HETATM   11  C5  UNL     1       9.500  92.423  39.938  1.00  0.00     0.102 A 
HETATM   12  C3  UNL     1      10.006  93.565  40.513  1.00  0.00     0.009 A 
HETATM   13  C2  UNL     1       9.899  94.757  39.854  1.00  0.00     0.113 A 
HETATM   14  C4  UNL     1      10.691  93.568  41.830  1.00  0.00     0.054 C 
HETATM   15  C24 UNL     1       9.300  94.868  38.627  1.00  0.00     0.137 A 
HETATM   16  C23 UNL     1       8.781  93.728  38.029  1.00  0.00     0.128 A 
HETATM   17  C19 UNL     1       8.886  92.525  38.688  1.00  0.00     0.085 A 
HETATM   18  O6  UNL     1       8.192  93.838  36.835  1.00  0.00    -0.319 OA
HETATM   19  C20 UNL     1       8.329  91.435  38.027  1.00  0.00     0.189 A 
HETATM   20  O5  UNL     1       8.370  90.303  38.556  1.00  0.00    -0.287 OA
HETATM   21  C21 UNL     1       7.721  91.539  36.800  1.00  0.00     0.080 A 
HETATM   22  C22 UNL     1       7.680  92.791  36.236  1.00  0.00     0.146 A 
BRANCH  13  23
HETATM   23  O1  UNL     1      10.404  95.955  40.403  1.00  0.00    -0.352 OA
HETATM   24  C1  UNL     1      11.503  96.556  39.743  1.00  0.00     0.210 C 
ENDBRANCH  13  23
BRANCH  15  25
HETATM   25  O7  UNL     1       9.179  96.065  37.934  1.00  0.00    -0.351 OA
HETATM   26  C25 UNL     1       8.121  96.981  38.127  1.00  0.00     0.210 C 
ENDBRANCH  15  25
ENDBRANCH  10  11
ENDBRANCH   1  10
BRANCH   2  27
HETATM   27  O3  UNL     1      11.388  90.368  38.732  1.00  0.00    -0.357 OA
ATOM     28  H3  UNL     1      10.676  90.042  38.194  1.00  0.00     0.217 HD
ENDBRANCH   2  27
BRANCH   4  29
HETATM   29  O4  UNL     1      13.713  88.025  42.250  1.00  0.00    -0.359 OA
ATOM     30  H4  UNL     1      13.903  87.870  43.168  1.00  0.00     0.217 HD
ENDBRANCH   4  29
BRANCH   3  31
HETATM   31  C9  UNL     1      13.578  88.711  39.520  1.00  0.00     0.072 C 
BRANCH  31  32
HETATM   32  C10 UNL     1      13.142  87.544  38.724  1.00  0.00    -0.020 C 
HETATM   33  C11 UNL     1      13.829  86.937  37.782  1.00  0.00    -0.091 C 
HETATM   34  C12 UNL     1      13.262  85.775  37.069  1.00  0.00     0.042 C 
HETATM   35  C13 UNL     1      15.170  87.429  37.407  1.00  0.00     0.042 C 
ENDBRANCH  31  32
ENDBRANCH   3  31
TORSDOF 8
ENDMDL
MODEL 5
REMARK VINA RESULT: -7.533577918      2.034      2.354
REMARK  8 active torsions:
REMARK  status: ('A' for Active; 'I' for Inactive)
REMARK    1  A    between atoms: O1_2  and  C2_3 
REMARK    2  A    between atoms: C5_6  and  O2_7 
REMARK    3  A    between atoms: O2_7  and  C6_8 
REMARK    4  A    between atoms: C7_9  and  O3_10 
REMARK    5  A    between atoms: C8_12  and  C9_13 
REMARK    6  A    between atoms: C9_13  and  C10_14 
REMARK    7  A    between atoms: C14_18  and  O4_19 
REMARK    8  A    between atoms: C24_33  and  O7_34 
ROOT
HETATM    1  C6  UNL     1       9.132  93.259  38.067  1.00  0.00     0.131 A 
HETATM    2  C7  UNL     1      10.095  92.450  38.716  1.00  0.00     0.110 A 
HETATM    3  C8  UNL     1      10.375  91.201  38.237  1.00  0.00     0.015 A 
HETATM    4  C14 UNL     1       9.732  90.688  37.112  1.00  0.00     0.082 A 
HETATM    5  C15 UNL     1       8.796  91.489  36.491  1.00  0.00    -0.005 A 
HETATM    6  C16 UNL     1       8.055  91.014  35.275  1.00  0.00     0.053 C 
HETATM    7  C17 UNL     1       8.506  92.754  36.967  1.00  0.00     0.089 A 
HETATM    8  C18 UNL     1       7.544  93.581  36.275  1.00  0.00     0.103 C 
HETATM    9  N1  UNL     1       6.776  94.214  35.731  1.00  0.00    -0.191 NA
ENDROOT
BRANCH   1  10
HETATM   10  O2  UNL     1       8.949  94.476  38.632  1.00  0.00    -0.305 OA
BRANCH  10  11
HETATM   11  C5  UNL     1       8.075  94.992  39.509  1.00  0.00     0.102 A 
HETATM   12  C3  UNL     1       7.567  94.298  40.583  1.00  0.00     0.009 A 
HETATM   13  C2  UNL     1       6.676  94.909  41.420  1.00  0.00     0.113 A 
HETATM   14  C4  UNL     1       7.956  92.901  40.896  1.00  0.00     0.054 C 
HETATM   15  C24 UNL     1       6.259  96.201  41.235  1.00  0.00     0.137 A 
HETATM   16  C23 UNL     1       6.758  96.918  40.156  1.00  0.00     0.128 A 
HETATM   17  C19 UNL     1       7.655  96.308  39.310  1.00  0.00     0.085 A 
HETATM   18  O6  UNL     1       6.346  98.175  39.972  1.00  0.00    -0.319 OA
HETATM   19  C20 UNL     1       8.096  97.090  38.248  1.00  0.00     0.189 A 
HETATM   20  O5  UNL     1       8.905  96.615  37.422  1.00  0.00    -0.287 OA
HETATM   21  C21 UNL     1       7.677  98.383  38.050  1.00  0.00     0.080 A 
HETATM   22  C22 UNL     1       6.783  98.889  38.963  1.00  0.00     0.146 A 
BRANCH  13  23
HETATM   23  O1  UNL     1       6.129  94.240  42.535  1.00  0.00    -0.352 OA
HETATM   24  C1  UNL     1       6.927  94.170  43.703  1.00  0.00     0.210 C 
ENDBRANCH  13  23
BRANCH  15  25
HETATM   25  O7  UNL     1       5.357  96.847  42.069  1.00  0.00    -0.351 OA
HETATM   26  C25 UNL     1       5.701  97.394  43.326  1.00  0.00     0.210 C 
ENDBRANCH  15  25
ENDBRANCH  10  11
ENDBRANCH   1  10
BRANCH   2  27
HETATM   27  O3  UNL     1      10.765  92.910  39.848  1.00  0.00    -0.357 OA
ATOM     28  H3  UNL     1      11.154  92.300  40.464  1.00  0.00     0.217 HD
ENDBRANCH   2  27
BRANCH   4  29
HETATM   29  O4  UNL     1       9.961  89.451  36.584  1.00  0.00    -0.359 OA
ATOM     30  H4  UNL     1       9.305  88.769  36.500  1.00  0.00     0.217 HD
ENDBRANCH   4  29
BRANCH   3  31
HETATM   31  C9  UNL     1      11.373  90.295  38.872  1.00  0.00     0.072 C 
BRANCH  31  32
HETATM   32  C10 UNL     1      11.158  90.108  40.323  1.00  0.00    -0.020 C 
HETATM   33  C11 UNL     1      11.930  89.439  41.150  1.00  0.00    -0.091 C 
HETATM   34  C12 UNL     1      11.588  89.338  42.582  1.00  0.00     0.042 C 
HETATM   35  C13 UNL     1      13.139  88.755  40.648  1.00  0.00     0.042 C 
ENDBRANCH  31  32
ENDBRANCH   3  31
TORSDOF 8
ENDMDL
