MODEL 1
REMARK VINA RESULT: -8.020608372      0.000      0.000
REMARK  9 active torsions:
REMARK  status: ('A' for Active; 'I' for Inactive)
REMARK    1  A    between atoms: C3_3  and  C4_4 
REMARK    2  A    between atoms: C7_13  and  C8_14 
REMARK    3  A    between atoms: C8_14  and  C9_15 
REMARK    4  A    between atoms: C9_15  and  C10_16 
REMARK    5  A    between atoms: C10_16  and  N3_17 
REMARK    6  A    between atoms: C13_26  and  C14_27 
REMARK    7  A    between atoms: C14_27  and  C15_28 
REMARK    8  A    between atoms: C19_35  and  C20_36 
REMARK    9  A    between atoms: C20_36  and  C21_37 
ROOT
HETATM    1  C4  UNL     1       2.995  13.140   1.188  1.00  0.00     0.201 C 
HETATM    2  N1  UNL     1       2.688  12.630  -0.105  1.00  0.00    -0.326 N 
ATOM      3  H1  UNL     1       3.488  12.332  -0.663  1.00  0.00     0.165 HD
HETATM    4  C5  UNL     1       1.426  12.483  -0.722  1.00  0.00     0.323 C 
HETATM    5  O1  UNL     1       1.050  11.318  -1.154  1.00  0.00    -0.247 OA
HETATM    6  N2  UNL     1       0.469  13.516  -0.937  1.00  0.00    -0.278 N 
ATOM      7  H2  UNL     1      -0.472  13.346  -0.582  1.00  0.00     0.173 HD
HETATM    8  C6  UNL     1       0.684  14.746  -1.585  1.00  0.00     0.248 C 
HETATM    9  O2  UNL     1       0.315  15.819  -0.993  1.00  0.00    -0.271 OA
HETATM   10  C7  UNL     1       1.322  14.898  -2.938  1.00  0.00     0.177 C 
HETATM   11  N6  UNL     1       1.245  16.187  -3.473  1.00  0.00    -0.346 N 
ATOM     12  H6  UNL     1       0.704  16.291  -4.330  1.00  0.00     0.163 HD
HETATM   13  C12 UNL     1       1.844  17.377  -2.949  1.00  0.00     0.241 C 
HETATM   14  O3  UNL     1       1.026  18.345  -2.700  1.00  0.00    -0.271 OA
HETATM   15  C13 UNL     1       3.253  17.616  -2.668  1.00  0.00     0.177 C 
HETATM   16  N7  UNL     1       3.526  17.332  -1.283  1.00  0.00    -0.346 N 
ATOM     17  H7  UNL     1       2.803  17.666  -0.645  1.00  0.00     0.163 HD
HETATM   18  C18 UNL     1       4.571  16.697  -0.651  1.00  0.00     0.241 C 
HETATM   19  O4  UNL     1       5.368  17.437   0.046  1.00  0.00    -0.271 OA
HETATM   20  C19 UNL     1       4.973  15.266  -0.615  1.00  0.00     0.177 C 
HETATM   21  N8  UNL     1       4.908  14.839   0.799  1.00  0.00    -0.346 N 
ATOM     22  H8  UNL     1       5.318  15.480   1.479  1.00  0.00     0.163 HD
HETATM   23  C24 UNL     1       4.361  13.681   1.314  1.00  0.00     0.245 C 
HETATM   24  O5  UNL     1       5.165  12.952   2.020  1.00  0.00    -0.271 OA
ENDROOT
BRANCH  10  25
HETATM   25  C8  UNL     1       0.900  13.801  -3.863  1.00  0.00     0.036 C 
BRANCH  25  26
HETATM   26  C9  UNL     1       1.922  13.216  -4.751  1.00  0.00     0.022 C 
BRANCH  26  27
HETATM   27  C10 UNL     1       2.499  13.990  -5.860  1.00  0.00     0.122 C 
BRANCH  27  28
HETATM   28  N3  UNL     1       1.568  14.375  -6.904  1.00  0.00    -0.367 N 
HETATM   29  C11 UNL     1       1.417  15.631  -7.145  1.00  0.00     0.196 C 
HETATM   30  N4  UNL     1       2.141  16.640  -6.416  1.00  0.00    -0.067 NA
HETATM   31  N5  UNL     1       0.502  15.991  -8.171  1.00  0.00    -0.067 NA
ATOM     32  H3  UNL     1       1.048  13.672  -7.431  1.00  0.00     0.161 HD
ENDBRANCH  27  28
ENDBRANCH  26  27
ENDBRANCH  25  26
ENDBRANCH  10  25
BRANCH  15  33
HETATM   33  C14 UNL     1       4.223  17.051  -3.654  1.00  0.00     0.038 C 
BRANCH  33  34
HETATM   34  C15 UNL     1       5.361  18.054  -3.917  1.00  0.00    -0.020 C 
HETATM   35  C16 UNL     1       5.667  18.131  -5.394  1.00  0.00     0.009 C 
HETATM   36  C17 UNL     1       4.980  19.391  -3.366  1.00  0.00     0.009 C 
ENDBRANCH  33  34
ENDBRANCH  15  33
BRANCH   1  37
HETATM   37  C3  UNL     1       2.021  14.114   1.742  1.00  0.00     0.003 C 
HETATM   38  C2  UNL     1       1.927  14.196   3.062  1.00  0.00    -0.033 C 
HETATM   39  C1  UNL     1       0.980  15.143   3.689  1.00  0.00     0.036 C 
ENDBRANCH   1  37
BRANCH  20  40
HETATM   40  C20 UNL     1       6.425  15.243  -1.067  1.00  0.00     0.038 C 
BRANCH  40  41
HETATM   41  C21 UNL     1       7.366  14.740  -0.021  1.00  0.00    -0.020 C 
HETATM   42  C22 UNL     1       8.044  13.451  -0.390  1.00  0.00     0.009 C 
HETATM   43  C23 UNL     1       8.477  15.797   0.087  1.00  0.00     0.009 C 
ENDBRANCH  40  41
ENDBRANCH  20  40
TORSDOF 9
ENDMDL
MODEL 2
REMARK VINA RESULT: -7.740947124      2.355      5.959
REMARK  9 active torsions:
REMARK  status: ('A' for Active; 'I' for Inactive)
REMARK    1  A    between atoms: C3_3  and  C4_4 
REMARK    2  A    between atoms: C7_13  and  C8_14 
REMARK    3  A    between atoms: C8_14  and  C9_15 
REMARK    4  A    between atoms: C9_15  and  C10_16 
REMARK    5  A    between atoms: C10_16  and  N3_17 
REMARK    6  A    between atoms: C13_26  and  C14_27 
REMARK    7  A    between atoms: C14_27  and  C15_28 
REMARK    8  A    between atoms: C19_35  and  C20_36 
REMARK    9  A    between atoms: C20_36  and  C21_37 
ROOT
HETATM    1  C4  UNL     1       3.583  16.024  -4.555  1.00  0.00     0.201 C 
HETATM    2  N1  UNL     1       2.410  16.511  -3.914  1.00  0.00    -0.326 N 
ATOM      3  H1  UNL     1       2.533  17.351  -3.349  1.00  0.00     0.165 HD
HETATM    4  C5  UNL     1       1.098  15.989  -3.953  1.00  0.00     0.323 C 
HETATM    5  O1  UNL     1       0.115  16.740  -4.347  1.00  0.00    -0.247 OA
HETATM    6  N2  UNL     1       0.708  14.668  -3.592  1.00  0.00    -0.278 N 
ATOM      7  H2  UNL     1       0.181  14.142  -4.289  1.00  0.00     0.173 HD
HETATM    8  C6  UNL     1       0.974  14.010  -2.377  1.00  0.00     0.248 C 
HETATM    9  O2  UNL     1       1.486  12.837  -2.419  1.00  0.00    -0.271 OA
HETATM   10  C7  UNL     1       0.699  14.586  -1.016  1.00  0.00     0.177 C 
HETATM   11  N6  UNL     1       0.848  13.679   0.037  1.00  0.00    -0.346 N 
ATOM     12  H6  UNL     1       0.006  13.461   0.570  1.00  0.00     0.163 HD
HETATM   13  C12 UNL     1       2.052  13.025   0.451  1.00  0.00     0.241 C 
HETATM   14  O3  UNL     1       2.004  11.734   0.464  1.00  0.00    -0.271 OA
HETATM   15  C13 UNL     1       3.309  13.642   0.851  1.00  0.00     0.177 C 
HETATM   16  N7  UNL     1       4.195  13.716  -0.281  1.00  0.00    -0.346 N 
ATOM     17  H7  UNL     1       4.188  12.878  -0.863  1.00  0.00     0.163 HD
HETATM   18  C18 UNL     1       5.050  14.696  -0.733  1.00  0.00     0.241 C 
HETATM   19  O4  UNL     1       6.315  14.466  -0.616  1.00  0.00    -0.271 OA
HETATM   20  C19 UNL     1       4.783  16.021  -1.355  1.00  0.00     0.177 C 
HETATM   21  N8  UNL     1       5.390  15.990  -2.703  1.00  0.00    -0.346 N 
ATOM     22  H8  UNL     1       6.332  15.602  -2.760  1.00  0.00     0.163 HD
HETATM   23  C24 UNL     1       4.841  16.420  -3.893  1.00  0.00     0.245 C 
HETATM   24  O5  UNL     1       5.530  17.307  -4.536  1.00  0.00    -0.271 OA
ENDROOT
BRANCH  10  25
HETATM   25  C8  UNL     1      -0.577  15.367  -1.005  1.00  0.00     0.036 C 
BRANCH  25  26
HETATM   26  C9  UNL     1      -0.551  16.723  -0.426  1.00  0.00     0.022 C 
BRANCH  26  27
HETATM   27  C10 UNL     1      -1.406  17.793  -0.959  1.00  0.00     0.122 C 
BRANCH  27  28
HETATM   28  N3  UNL     1      -0.983  18.358  -2.227  1.00  0.00    -0.367 N 
HETATM   29  C11 UNL     1      -1.470  19.499  -2.572  1.00  0.00     0.196 C 
HETATM   30  N4  UNL     1      -2.405  20.212  -1.741  1.00  0.00    -0.067 NA
HETATM   31  N5  UNL     1      -1.045  20.038  -3.817  1.00  0.00    -0.067 NA
ATOM     32  H3  UNL     1      -0.321  17.866  -2.828  1.00  0.00     0.161 HD
ENDBRANCH  27  28
ENDBRANCH  26  27
ENDBRANCH  25  26
ENDBRANCH  10  25
BRANCH  15  33
HETATM   33  C14 UNL     1       3.196  14.884   1.674  1.00  0.00     0.038 C 
BRANCH  33  34
HETATM   34  C15 UNL     1       3.424  14.561   3.162  1.00  0.00    -0.020 C 
HETATM   35  C16 UNL     1       2.105  14.489   3.895  1.00  0.00     0.009 C 
HETATM   36  C17 UNL     1       4.187  13.280   3.279  1.00  0.00     0.009 C 
ENDBRANCH  33  34
ENDBRANCH  15  33
BRANCH   1  37
HETATM   37  C3  UNL     1       3.605  14.564  -4.831  1.00  0.00     0.003 C 
HETATM   38  C2  UNL     1       3.354  14.178  -6.074  1.00  0.00    -0.033 C 
HETATM   39  C1  UNL     1       3.358  12.742  -6.428  1.00  0.00     0.036 C 
ENDBRANCH   1  37
BRANCH  20  40
HETATM   40  C20 UNL     1       5.540  17.026  -0.501  1.00  0.00     0.038 C 
BRANCH  40  41
HETATM   41  C21 UNL     1       6.671  17.687  -1.220  1.00  0.00    -0.020 C 
HETATM   42  C22 UNL     1       6.400  19.121  -1.580  1.00  0.00     0.009 C 
HETATM   43  C23 UNL     1       7.845  17.705  -0.229  1.00  0.00     0.009 C 
ENDBRANCH  40  41
ENDBRANCH  20  40
TORSDOF 9
ENDMDL
MODEL 3
REMARK VINA RESULT: -7.589901553      2.388      7.486
REMARK  9 active torsions:
REMARK  status: ('A' for Active; 'I' for Inactive)
REMARK    1  A    between atoms: C3_3  and  C4_4 
REMARK    2  A    between atoms: C7_13  and  C8_14 
REMARK    3  A    between atoms: C8_14  and  C9_15 
REMARK    4  A    between atoms: C9_15  and  C10_16 
REMARK    5  A    between atoms: C10_16  and  N3_17 
REMARK    6  A    between atoms: C13_26  and  C14_27 
REMARK    7  A    between atoms: C14_27  and  C15_28 
REMARK    8  A    between atoms: C19_35  and  C20_36 
REMARK    9  A    between atoms: C20_36  and  C21_37 
ROOT
HETATM    1  C4  UNL     1       4.541  17.021  -4.562  1.00  0.00     0.201 C 
HETATM    2  N1  UNL     1       5.408  15.962  -4.171  1.00  0.00    -0.326 N 
ATOM      3  H1  UNL     1       5.197  15.049  -4.575  1.00  0.00     0.165 HD
HETATM    4  C5  UNL     1       6.519  16.002  -3.301  1.00  0.00     0.323 C 
HETATM    5  O1  UNL     1       7.682  15.603  -3.719  1.00  0.00    -0.247 OA
HETATM    6  N2  UNL     1       6.512  16.452  -1.950  1.00  0.00    -0.278 N 
ATOM      7  H2  UNL     1       7.190  17.175  -1.707  1.00  0.00     0.173 HD
HETATM    8  C6  UNL     1       5.670  16.007  -0.914  1.00  0.00     0.248 C 
HETATM    9  O2  UNL     1       5.043  16.881  -0.221  1.00  0.00    -0.271 OA
HETATM   10  C7  UNL     1       5.448  14.563  -0.555  1.00  0.00     0.177 C 
HETATM   11  N6  UNL     1       4.738  14.365   0.632  1.00  0.00    -0.346 N 
ATOM     12  H6  UNL     1       5.240  13.901   1.388  1.00  0.00     0.163 HD
HETATM   13  C12 UNL     1       3.384  14.742   0.903  1.00  0.00     0.241 C 
HETATM   14  O3  UNL     1       3.218  15.515   1.924  1.00  0.00    -0.271 OA
HETATM   15  C13 UNL     1       2.188  14.358   0.165  1.00  0.00     0.177 C 
HETATM   16  N7  UNL     1       1.870  15.374  -0.805  1.00  0.00    -0.346 N 
ATOM     17  H7  UNL     1       1.984  16.325  -0.456  1.00  0.00     0.163 HD
HETATM   18  C18 UNL     1       1.443  15.311  -2.112  1.00  0.00     0.241 C 
HETATM   19  O4  UNL     1       0.223  15.664  -2.345  1.00  0.00    -0.271 OA
HETATM   20  C19 UNL     1       2.147  14.901  -3.356  1.00  0.00     0.177 C 
HETATM   21  N8  UNL     1       2.152  16.077  -4.253  1.00  0.00    -0.346 N 
ATOM     22  H8  UNL     1       1.268  16.581  -4.333  1.00  0.00     0.163 HD
HETATM   23  C24 UNL     1       3.202  16.577  -4.994  1.00  0.00     0.245 C 
HETATM   24  O5  UNL     1       2.988  16.677  -6.267  1.00  0.00    -0.271 OA
ENDROOT
BRANCH  10  25
HETATM   25  C8  UNL     1       6.712  13.773  -0.679  1.00  0.00     0.036 C 
BRANCH  25  26
HETATM   26  C9  UNL     1       7.774  14.010   0.317  1.00  0.00     0.022 C 
BRANCH  26  27
HETATM   27  C10 UNL     1       9.042  14.649  -0.062  1.00  0.00     0.122 C 
BRANCH  27  28
HETATM   28  N3  UNL     1       9.481  15.727   0.805  1.00  0.00    -0.367 N 
HETATM   29  C11 UNL     1       9.531  16.916   0.312  1.00  0.00     0.196 C 
HETATM   30  N4  UNL     1       9.167  17.191  -1.054  1.00  0.00    -0.067 NA
HETATM   31  N5  UNL     1       9.962  17.960   1.174  1.00  0.00    -0.067 NA
ATOM     32  H3  UNL     1       9.742  15.550   1.775  1.00  0.00     0.161 HD
ENDBRANCH  27  28
ENDBRANCH  26  27
ENDBRANCH  25  26
ENDBRANCH  10  25
BRANCH  15  33
HETATM   33  C14 UNL     1       2.146  12.948  -0.327  1.00  0.00     0.038 C 
BRANCH  33  34
HETATM   34  C15 UNL     1       0.753  12.340  -0.087  1.00  0.00    -0.020 C 
HETATM   35  C16 UNL     1       0.245  11.670  -1.341  1.00  0.00     0.009 C 
HETATM   36  C17 UNL     1       0.824  11.379   1.058  1.00  0.00     0.009 C 
ENDBRANCH  33  34
ENDBRANCH  15  33
BRANCH   1  37
HETATM   37  C3  UNL     1       4.405  18.132  -3.586  1.00  0.00     0.003 C 
HETATM   38  C2  UNL     1       5.221  19.168  -3.727  1.00  0.00    -0.033 C 
HETATM   39  C1  UNL     1       5.147  20.313  -2.794  1.00  0.00     0.036 C 
ENDBRANCH   1  37
BRANCH  20  40
HETATM   40  C20 UNL     1       1.275  13.818  -3.974  1.00  0.00     0.038 C 
BRANCH  40  41
HETATM   41  C21 UNL     1       2.056  12.722  -4.621  1.00  0.00    -0.020 C 
HETATM   42  C22 UNL     1       2.403  12.996  -6.058  1.00  0.00     0.009 C 
HETATM   43  C23 UNL     1       3.389  12.650  -3.861  1.00  0.00     0.009 C 
ENDBRANCH  40  41
ENDBRANCH  20  40
TORSDOF 9
ENDMDL
MODEL 4
REMARK VINA RESULT: -7.553629413      2.394      6.926
REMARK  9 active torsions:
REMARK  status: ('A' for Active; 'I' for Inactive)
REMARK    1  A    between atoms: C3_3  and  C4_4 
REMARK    2  A    between atoms: C7_13  and  C8_14 
REMARK    3  A    between atoms: C8_14  and  C9_15 
REMARK    4  A    between atoms: C9_15  and  C10_16 
REMARK    5  A    between atoms: C10_16  and  N3_17 
REMARK    6  A    between atoms: C13_26  and  C14_27 
REMARK    7  A    between atoms: C14_27  and  C15_28 
REMARK    8  A    between atoms: C19_35  and  C20_36 
REMARK    9  A    between atoms: C20_36  and  C21_37 
ROOT
HETATM    1  C4  UNL     1       1.439  15.277  -2.067  1.00  0.00     0.201 C 
HETATM    2  N1  UNL     1       1.515  15.734  -0.721  1.00  0.00    -0.326 N 
ATOM      3  H1  UNL     1       1.855  16.687  -0.597  1.00  0.00     0.165 HD
HETATM    4  C5  UNL     1       1.183  15.046   0.468  1.00  0.00     0.323 C 
HETATM    5  O1  UNL     1       0.313  15.553   1.286  1.00  0.00    -0.247 OA
HETATM    6  N2  UNL     1       1.721  13.799   0.894  1.00  0.00    -0.278 N 
ATOM      7  H2  UNL     1       1.048  13.065   1.119  1.00  0.00     0.173 HD
HETATM    8  C6  UNL     1       3.081  13.469   1.039  1.00  0.00     0.248 C 
HETATM    9  O2  UNL     1       3.509  12.395   0.488  1.00  0.00    -0.271 OA
HETATM   10  C7  UNL     1       4.084  14.291   1.800  1.00  0.00     0.177 C 
HETATM   11  N6  UNL     1       5.322  13.670   1.984  1.00  0.00    -0.346 N 
ATOM     12  H6  UNL     1       5.587  13.465   2.947  1.00  0.00     0.163 HD
HETATM   13  C12 UNL     1       6.258  13.290   0.970  1.00  0.00     0.241 C 
HETATM   14  O3  UNL     1       6.583  12.040   0.957  1.00  0.00    -0.271 OA
HETATM   15  C13 UNL     1       6.876  14.143  -0.036  1.00  0.00     0.177 C 
HETATM   16  N7  UNL     1       6.116  14.080  -1.257  1.00  0.00    -0.346 N 
ATOM     17  H7  UNL     1       5.797  13.141  -1.495  1.00  0.00     0.163 HD
HETATM   18  C18 UNL     1       5.735  15.041  -2.167  1.00  0.00     0.241 C 
HETATM   19  O4  UNL     1       6.313  15.013  -3.321  1.00  0.00    -0.271 OA
HETATM   20  C19 UNL     1       4.745  16.146  -2.071  1.00  0.00     0.177 C 
HETATM   21  N8  UNL     1       3.724  15.897  -3.111  1.00  0.00    -0.346 N 
ATOM     22  H8  UNL     1       4.079  15.636  -4.032  1.00  0.00     0.163 HD
HETATM   23  C24 UNL     1       2.351  15.974  -2.993  1.00  0.00     0.245 C 
HETATM   24  O5  UNL     1       1.765  16.780  -3.819  1.00  0.00    -0.271 OA
ENDROOT
BRANCH  10  25
HETATM   25  C8  UNL     1       3.478  14.878   3.035  1.00  0.00     0.036 C 
BRANCH  25  26
HETATM   26  C9  UNL     1       3.813  14.257   4.330  1.00  0.00     0.022 C 
BRANCH  26  27
HETATM   27  C10 UNL     1       3.381  12.890   4.652  1.00  0.00     0.122 C 
BRANCH  27  28
HETATM   28  N3  UNL     1       2.120  12.785   5.364  1.00  0.00    -0.367 N 
HETATM   29  C11 UNL     1       1.123  12.249   4.750  1.00  0.00     0.196 C 
HETATM   30  N4  UNL     1       1.232  11.761   3.399  1.00  0.00    -0.067 NA
HETATM   31  N5  UNL     1      -0.104  12.153   5.461  1.00  0.00    -0.067 NA
ATOM     32  H3  UNL     1       2.027  13.125   6.321  1.00  0.00     0.161 HD
ENDBRANCH  27  28
ENDBRANCH  26  27
ENDBRANCH  25  26
ENDBRANCH  10  25
BRANCH  15  33
HETATM   33  C14 UNL     1       7.272  15.510   0.418  1.00  0.00     0.038 C 
BRANCH  33  34
HETATM   34  C15 UNL     1       8.632  15.900  -0.188  1.00  0.00    -0.020 C 
HETATM   35  C16 UNL     1       8.714  17.396  -0.385  1.00  0.00     0.009 C 
HETATM   36  C17 UNL     1       9.730  15.403   0.699  1.00  0.00     0.009 C 
ENDBRANCH  33  34
ENDBRANCH  15  33
BRANCH   1  37
HETATM   37  C3  UNL     1       1.566  13.809  -2.254  1.00  0.00     0.003 C 
HETATM   38  C2  UNL     1       0.472  13.144  -2.599  1.00  0.00    -0.033 C 
HETATM   39  C1  UNL     1       0.519  11.680  -2.804  1.00  0.00     0.036 C 
ENDBRANCH   1  37
BRANCH  20  40
HETATM   40  C20 UNL     1       5.513  17.408  -2.431  1.00  0.00     0.038 C 
BRANCH  40  41
HETATM   41  C21 UNL     1       4.834  18.243  -3.468  1.00  0.00    -0.020 C 
HETATM   42  C22 UNL     1       4.975  19.721  -3.238  1.00  0.00     0.009 C 
HETATM   43  C23 UNL     1       5.558  17.940  -4.790  1.00  0.00     0.009 C 
ENDBRANCH  40  41
ENDBRANCH  20  40
TORSDOF 9
ENDMDL
MODEL 5
REMARK VINA RESULT: -7.513032012      2.669      7.647
REMARK  9 active torsions:
REMARK  status: ('A' for Active; 'I' for Inactive)
REMARK    1  A    between atoms: C3_3  and  C4_4 
REMARK    2  A    between atoms: C7_13  and  C8_14 
REMARK    3  A    between atoms: C8_14  and  C9_15 
REMARK    4  A    between atoms: C9_15  and  C10_16 
REMARK    5  A    between atoms: C10_16  and  N3_17 
REMARK    6  A    between atoms: C13_26  and  C14_27 
REMARK    7  A    between atoms: C14_27  and  C15_28 
REMARK    8  A    between atoms: C19_35  and  C20_36 
REMARK    9  A    between atoms: C20_36  and  C21_37 
ROOT
HETATM    1  C4  UNL     1       4.663  17.005  -4.470  1.00  0.00     0.201 C 
HETATM    2  N1  UNL     1       5.512  15.928  -4.090  1.00  0.00    -0.326 N 
ATOM      3  H1  UNL     1       5.288  15.023  -4.503  1.00  0.00     0.165 HD
HETATM    4  C5  UNL     1       6.623  15.941  -3.217  1.00  0.00     0.323 C 
HETATM    5  O1  UNL     1       7.779  15.527  -3.638  1.00  0.00    -0.247 OA
HETATM    6  N2  UNL     1       6.622  16.375  -1.862  1.00  0.00    -0.278 N 
ATOM      7  H2  UNL     1       7.310  17.085  -1.610  1.00  0.00     0.173 HD
HETATM    8  C6  UNL     1       5.771  15.932  -0.832  1.00  0.00     0.248 C 
HETATM    9  O2  UNL     1       5.157  16.809  -0.130  1.00  0.00    -0.271 OA
HETATM   10  C7  UNL     1       5.525  14.489  -0.489  1.00  0.00     0.177 C 
HETATM   11  N6  UNL     1       4.810  14.289   0.695  1.00  0.00    -0.346 N 
ATOM     12  H6  UNL     1       5.303  13.808   1.447  1.00  0.00     0.163 HD
HETATM   13  C12 UNL     1       3.462  14.686   0.968  1.00  0.00     0.241 C 
HETATM   14  O3  UNL     1       3.307  15.450   1.998  1.00  0.00    -0.271 OA
HETATM   15  C13 UNL     1       2.261  14.329   0.225  1.00  0.00     0.177 C 
HETATM   16  N7  UNL     1       1.961  15.360  -0.734  1.00  0.00    -0.346 N 
ATOM     17  H7  UNL     1       2.089  16.306  -0.374  1.00  0.00     0.163 HD
HETATM   18  C18 UNL     1       1.535  15.319  -2.043  1.00  0.00     0.241 C 
HETATM   19  O4  UNL     1       0.321  15.694  -2.273  1.00  0.00    -0.271 OA
HETATM   20  C19 UNL     1       2.233  14.911  -3.290  1.00  0.00     0.177 C 
HETATM   21  N8  UNL     1       2.258  16.096  -4.174  1.00  0.00    -0.346 N 
ATOM     22  H8  UNL     1       1.383  16.616  -4.250  1.00  0.00     0.163 HD
HETATM   23  C24 UNL     1       3.318  16.588  -4.908  1.00  0.00     0.245 C 
HETATM   24  O5  UNL     1       3.107  16.705  -6.180  1.00  0.00    -0.271 OA
ENDROOT
BRANCH  10  25
HETATM   25  C8  UNL     1       6.776  13.680  -0.620  1.00  0.00     0.036 C 
BRANCH  25  26
HETATM   26  C9  UNL     1       7.152  12.805   0.506  1.00  0.00     0.022 C 
BRANCH  26  27
HETATM   27  C10 UNL     1       8.547  12.707   0.960  1.00  0.00     0.122 C 
BRANCH  27  28
HETATM   28  N3  UNL     1       9.133  11.381   0.895  1.00  0.00    -0.367 N 
HETATM   29  C11 UNL     1      10.028  11.160  -0.004  1.00  0.00     0.196 C 
HETATM   30  N4  UNL     1      10.451  12.181  -0.927  1.00  0.00    -0.067 NA
HETATM   31  N5  UNL     1      10.592   9.856  -0.054  1.00  0.00    -0.067 NA
ATOM     32  H3  UNL     1       8.845  10.646   1.542  1.00  0.00     0.161 HD
ENDBRANCH  27  28
ENDBRANCH  26  27
ENDBRANCH  25  26
ENDBRANCH  10  25
BRANCH  15  33
HETATM   33  C14 UNL     1       2.197  12.925  -0.283  1.00  0.00     0.038 C 
BRANCH  33  34
HETATM   34  C15 UNL     1       0.795  12.336  -0.048  1.00  0.00    -0.020 C 
HETATM   35  C16 UNL     1       0.294  11.648  -1.296  1.00  0.00     0.009 C 
HETATM   36  C17 UNL     1       0.842  11.396   1.115  1.00  0.00     0.009 C 
ENDBRANCH  33  34
ENDBRANCH  15  33
BRANCH   1  37
HETATM   37  C3  UNL     1       4.544  18.108  -3.481  1.00  0.00     0.003 C 
HETATM   38  C2  UNL     1       5.299  19.180  -3.674  1.00  0.00    -0.033 C 
HETATM   39  C1  UNL     1       5.237  20.320  -2.734  1.00  0.00     0.036 C 
ENDBRANCH   1  37
BRANCH  20  40
HETATM   40  C20 UNL     1       1.345  13.850  -3.921  1.00  0.00     0.038 C 
BRANCH  40  41
HETATM   41  C21 UNL     1       2.109  12.747  -4.578  1.00  0.00    -0.020 C 
HETATM   42  C22 UNL     1       2.421  13.009  -6.025  1.00  0.00     0.009 C 
HETATM   43  C23 UNL     1       3.461  12.680  -3.850  1.00  0.00     0.009 C 
ENDBRANCH  40  41
ENDBRANCH  20  40
TORSDOF 9
ENDMDL
