MODEL 1
REMARK VINA RESULT: -7.557952387      0.000      0.000
REMARK  4 active torsions:
REMARK  status: ('A' for Active; 'I' for Inactive)
REMARK    1  A    between atoms: O1_1  and  N1_3 
REMARK    2  A    between atoms: C1_5  and  C2_6 
REMARK    3  A    between atoms: C3_9  and  S1_10 
REMARK    4  A    between atoms: S1_10  and  C4_11 
ROOT
HETATM    1  C2  UNL     1      53.259   9.646   5.813  1.00  0.00     0.176 A 
HETATM    2  N2  UNL     1      54.234   9.036   5.121  1.00  0.00    -0.317 N 
ATOM      3  H2  UNL     1      54.087   8.403   4.334  1.00  0.00     0.169 HD
HETATM    4  C3  UNL     1      55.444   9.386   5.625  1.00  0.00     0.161 A 
HETATM    5  N3  UNL     1      55.178  10.222   6.642  1.00  0.00    -0.278 N 
ATOM      6  H3  UNL     1      55.877  10.669   7.236  1.00  0.00     0.189 HD
HETATM    7  N4  UNL     1      53.857  10.377   6.751  1.00  0.00    -0.280 N 
ATOM      8  H4  UNL     1      53.382  10.959   7.441  1.00  0.00     0.188 HD
ENDROOT
BRANCH   4   9
HETATM    9  S1  UNL     1      57.009   8.815   5.012  1.00  0.00    -0.082 SA
BRANCH   9  10
HETATM   10  C4  UNL     1      57.196   9.023   3.230  1.00  0.00     0.017 C 
HETATM   11  C5  UNL     1      58.640   9.359   2.944  1.00  0.00     0.025 C 
HETATM   12  C6  UNL     1      58.870   9.435   1.457  1.00  0.00    -0.012 C 
HETATM   13  C7  UNL     1      58.478   8.128   0.821  1.00  0.00     0.009 C 
HETATM   14  C11 UNL     1      58.058  10.589   0.923  1.00  0.00     0.009 C 
HETATM   15  C8  UNL     1      57.006   7.864   1.053  1.00  0.00    -0.012 C 
HETATM   16  C9  UNL     1      56.228   9.040   0.486  1.00  0.00     0.009 C 
HETATM   17  C13 UNL     1      56.712   7.788   2.536  1.00  0.00     0.025 C 
HETATM   18  C10 UNL     1      56.603  10.305   1.225  1.00  0.00    -0.012 C 
HETATM   19  C12 UNL     1      56.375  10.190   2.714  1.00  0.00     0.025 C 
ENDBRANCH   9  10
ENDBRANCH   4   9
BRANCH   1  20
HETATM   20  C1  UNL     1      51.825   9.521   5.567  1.00  0.00     0.221 A 
HETATM   21  O2  UNL     1      51.259   9.328   4.394  1.00  0.00    -0.185 OA
HETATM   22  N1  UNL     1      49.951   9.260   4.517  1.00  0.00    -0.090 N 
HETATM   23  C14 UNL     1      49.672   9.416   5.816  1.00  0.00     0.233 A 
HETATM   24  N5  UNL     1      50.824   9.576   6.461  1.00  0.00    -0.305 N 
HETATM   25 CL1  UNL     1      48.035   9.402   6.495  1.00  0.00    -0.041 Cl
ATOM     26  H5  UNL     1      50.929   9.718   7.465  1.00  0.00     0.170 HD
BRANCH  22  27
HETATM   27  O1  UNL     1      49.053   9.066   3.497  1.00  0.00    -0.260 OA
ATOM     28  H1  UNL     1      48.764   9.723   2.875  1.00  0.00     0.247 HD
ENDBRANCH  22  27
ENDBRANCH   1  20
TORSDOF 4
ENDMDL
MODEL 2
REMARK VINA RESULT: -7.545260208      4.833      7.822
REMARK  4 active torsions:
REMARK  status: ('A' for Active; 'I' for Inactive)
REMARK    1  A    between atoms: O1_1  and  N1_3 
REMARK    2  A    between atoms: C1_5  and  C2_6 
REMARK    3  A    between atoms: C3_9  and  S1_10 
REMARK    4  A    between atoms: S1_10  and  C4_11 
ROOT
HETATM    1  C2  UNL     1      56.596   8.088   2.147  1.00  0.00     0.176 A 
HETATM    2  N2  UNL     1      55.397   8.691   2.138  1.00  0.00    -0.317 N 
ATOM      3  H2  UNL     1      55.240   9.686   2.301  1.00  0.00     0.169 HD
HETATM    4  C3  UNL     1      54.426   7.780   1.879  1.00  0.00     0.161 A 
HETATM    5  N3  UNL     1      55.065   6.608   1.733  1.00  0.00    -0.278 N 
ATOM      6  H3  UNL     1      54.619   5.714   1.530  1.00  0.00     0.189 HD
HETATM    7  N4  UNL     1      56.377   6.799   1.896  1.00  0.00    -0.280 N 
ATOM      8  H4  UNL     1      57.094   6.076   1.838  1.00  0.00     0.188 HD
ENDROOT
BRANCH   4   9
HETATM    9  S1  UNL     1      52.691   8.141   1.769  1.00  0.00    -0.082 SA
BRANCH   9  10
HETATM   10  C4  UNL     1      51.904   8.358   3.378  1.00  0.00     0.017 C 
HETATM   11  C5  UNL     1      52.265   9.730   3.897  1.00  0.00     0.025 C 
HETATM   12  C6  UNL     1      51.542  10.002   5.189  1.00  0.00    -0.012 C 
HETATM   13  C7  UNL     1      50.058   9.874   4.971  1.00  0.00     0.009 C 
HETATM   14  C11 UNL     1      52.048   9.019   6.216  1.00  0.00     0.009 C 
HETATM   15  C8  UNL     1      49.721   8.465   4.534  1.00  0.00    -0.012 C 
HETATM   16  C9  UNL     1      50.233   7.513   5.604  1.00  0.00     0.009 C 
HETATM   17  C13 UNL     1      50.432   8.130   3.241  1.00  0.00     0.025 C 
HETATM   18  C10 UNL     1      51.737   7.627   5.712  1.00  0.00    -0.012 C 
HETATM   19  C12 UNL     1      52.430   7.364   4.395  1.00  0.00     0.025 C 
ENDBRANCH   9  10
ENDBRANCH   4   9
BRANCH   1  20
HETATM   20  C1  UNL     1      57.881   8.738   2.387  1.00  0.00     0.221 A 
HETATM   21  O2  UNL     1      58.804   8.978   1.480  1.00  0.00    -0.185 OA
HETATM   22  N1  UNL     1      59.842   9.576   2.023  1.00  0.00    -0.090 N 
HETATM   23  C14 UNL     1      59.572   9.723   3.325  1.00  0.00     0.233 A 
HETATM   24  N5  UNL     1      58.366   9.208   3.548  1.00  0.00    -0.305 N 
HETATM   25 CL1  UNL     1      60.668  10.480   4.495  1.00  0.00    -0.041 Cl
ATOM     26  H5  UNL     1      57.890   9.175   4.450  1.00  0.00     0.170 HD
BRANCH  22  27
HETATM   27  O1  UNL     1      60.982   9.970   1.368  1.00  0.00    -0.260 OA
ATOM     28  H1  UNL     1      61.753  10.353   1.768  1.00  0.00     0.247 HD
ENDBRANCH  22  27
ENDBRANCH   1  20
TORSDOF 4
ENDMDL
MODEL 3
REMARK VINA RESULT: -7.544029186      0.116      1.536
REMARK  4 active torsions:
REMARK  status: ('A' for Active; 'I' for Inactive)
REMARK    1  A    between atoms: O1_1  and  N1_3 
REMARK    2  A    between atoms: C1_5  and  C2_6 
REMARK    3  A    between atoms: C3_9  and  S1_10 
REMARK    4  A    between atoms: S1_10  and  C4_11 
ROOT
HETATM    1  C2  UNL     1      53.308   9.703   5.795  1.00  0.00     0.176 A 
HETATM    2  N2  UNL     1      54.306   9.086   5.142  1.00  0.00    -0.317 N 
ATOM      3  H2  UNL     1      54.184   8.424   4.375  1.00  0.00     0.169 HD
HETATM    4  C3  UNL     1      55.500   9.475   5.654  1.00  0.00     0.161 A 
HETATM    5  N3  UNL     1      55.202  10.342   6.636  1.00  0.00    -0.278 N 
ATOM      6  H3  UNL     1      55.882  10.822   7.227  1.00  0.00     0.189 HD
HETATM    7  N4  UNL     1      53.876  10.477   6.717  1.00  0.00    -0.280 N 
ATOM      8  H4  UNL     1      53.379  11.074   7.378  1.00  0.00     0.188 HD
ENDROOT
BRANCH   4   9
HETATM    9  S1  UNL     1      57.086   8.912   5.089  1.00  0.00    -0.082 SA
BRANCH   9  10
HETATM   10  C4  UNL     1      57.280   9.006   3.298  1.00  0.00     0.017 C 
HETATM   11  C5  UNL     1      56.398  10.120   2.787  1.00  0.00     0.025 C 
HETATM   12  C6  UNL     1      56.608  10.311   1.308  1.00  0.00    -0.012 C 
HETATM   13  C7  UNL     1      58.060  10.599   1.040  1.00  0.00     0.009 C 
HETATM   14  C11 UNL     1      56.143   9.055   0.611  1.00  0.00     0.009 C 
HETATM   15  C8  UNL     1      58.909   9.427   1.485  1.00  0.00    -0.012 C 
HETATM   16  C9  UNL     1      58.418   8.192   0.747  1.00  0.00     0.009 C 
HETATM   17  C13 UNL     1      58.729   9.181   2.968  1.00  0.00     0.025 C 
HETATM   18  C10 UNL     1      56.982   7.907   1.127  1.00  0.00    -0.012 C 
HETATM   19  C12 UNL     1      56.804   7.737   2.617  1.00  0.00     0.025 C 
ENDBRANCH   9  10
ENDBRANCH   4   9
BRANCH   1  20
HETATM   20  C1  UNL     1      51.882   9.543   5.528  1.00  0.00     0.221 A 
HETATM   21  O2  UNL     1      51.341   9.285   4.356  1.00  0.00    -0.185 OA
HETATM   22  N1  UNL     1      50.032   9.203   4.458  1.00  0.00    -0.090 N 
HETATM   23  C14 UNL     1      49.726   9.416   5.742  1.00  0.00     0.233 A 
HETATM   24  N5  UNL     1      50.862   9.625   6.400  1.00  0.00    -0.305 N 
HETATM   25 CL1  UNL     1      48.077   9.409   6.391  1.00  0.00    -0.041 Cl
ATOM     26  H5  UNL     1      50.946   9.816   7.398  1.00  0.00     0.170 HD
BRANCH  22  27
HETATM   27  O1  UNL     1      49.157   8.946   3.432  1.00  0.00    -0.260 OA
ATOM     28  H1  UNL     1      48.875   9.566   2.770  1.00  0.00     0.247 HD
ENDBRANCH  22  27
ENDBRANCH   1  20
TORSDOF 4
ENDMDL
MODEL 4
REMARK VINA RESULT: -7.543856893      0.107      1.528
REMARK  4 active torsions:
REMARK  status: ('A' for Active; 'I' for Inactive)
REMARK    1  A    between atoms: O1_1  and  N1_3 
REMARK    2  A    between atoms: C1_5  and  C2_6 
REMARK    3  A    between atoms: C3_9  and  S1_10 
REMARK    4  A    between atoms: S1_10  and  C4_11 
ROOT
HETATM    1  C2  UNL     1      53.274   9.662   5.793  1.00  0.00     0.176 A 
HETATM    2  N2  UNL     1      54.262   9.038   5.131  1.00  0.00    -0.317 N 
ATOM      3  H2  UNL     1      54.129   8.385   4.359  1.00  0.00     0.169 HD
HETATM    4  C3  UNL     1      55.463   9.406   5.644  1.00  0.00     0.161 A 
HETATM    5  N3  UNL     1      55.179  10.268   6.634  1.00  0.00    -0.278 N 
ATOM      6  H3  UNL     1      55.867  10.732   7.227  1.00  0.00     0.189 HD
HETATM    7  N4  UNL     1      53.855  10.420   6.720  1.00  0.00    -0.280 N 
ATOM      8  H4  UNL     1      53.368  11.019   7.387  1.00  0.00     0.188 HD
ENDROOT
BRANCH   4   9
HETATM    9  S1  UNL     1      57.039   8.826   5.069  1.00  0.00    -0.082 SA
BRANCH   9  10
HETATM   10  C4  UNL     1      57.277   9.047   3.295  1.00  0.00     0.017 C 
HETATM   11  C5  UNL     1      56.944   7.745   2.608  1.00  0.00     0.025 C 
HETATM   12  C6  UNL     1      57.022   7.911   1.114  1.00  0.00    -0.012 C 
HETATM   13  C7  UNL     1      56.089   9.010   0.682  1.00  0.00     0.009 C 
HETATM   14  C11 UNL     1      58.456   8.216   0.758  1.00  0.00     0.009 C 
HETATM   15  C8  UNL     1      56.502  10.318   1.320  1.00  0.00    -0.012 C 
HETATM   16  C9  UNL     1      57.943  10.593   0.921  1.00  0.00     0.009 C 
HETATM   17  C13 UNL     1      56.454  10.206   2.828  1.00  0.00     0.025 C 
HETATM   18  C10 UNL     1      58.840   9.500   1.460  1.00  0.00    -0.012 C 
HETATM   19  C12 UNL     1      58.725   9.349   2.959  1.00  0.00     0.025 C 
ENDBRANCH   9  10
ENDBRANCH   4   9
BRANCH   1  20
HETATM   20  C1  UNL     1      51.845   9.525   5.528  1.00  0.00     0.221 A 
HETATM   21  O2  UNL     1      51.297   9.305   4.352  1.00  0.00    -0.185 OA
HETATM   22  N1  UNL     1      49.987   9.233   4.457  1.00  0.00    -0.090 N 
HETATM   23  C14 UNL     1      49.689   9.414   5.748  1.00  0.00     0.233 A 
HETATM   24  N5  UNL     1      50.831   9.593   6.407  1.00  0.00    -0.305 N 
HETATM   25 CL1  UNL     1      48.043   9.406   6.405  1.00  0.00    -0.041 Cl
ATOM     26  H5  UNL     1      50.921   9.755   7.410  1.00  0.00     0.170 HD
BRANCH  22  27
HETATM   27  O1  UNL     1      49.105   9.015   3.429  1.00  0.00    -0.260 OA
ATOM     28  H1  UNL     1      48.833   8.168   3.096  1.00  0.00     0.247 HD
ENDBRANCH  22  27
ENDBRANCH   1  20
TORSDOF 4
ENDMDL
MODEL 5
REMARK VINA RESULT: -7.531918422      4.829      7.833
REMARK  4 active torsions:
REMARK  status: ('A' for Active; 'I' for Inactive)
REMARK    1  A    between atoms: O1_1  and  N1_3 
REMARK    2  A    between atoms: C1_5  and  C2_6 
REMARK    3  A    between atoms: C3_9  and  S1_10 
REMARK    4  A    between atoms: S1_10  and  C4_11 
ROOT
HETATM    1  C2  UNL     1      56.574   8.070   2.088  1.00  0.00     0.176 A 
HETATM    2  N2  UNL     1      55.374   8.669   2.131  1.00  0.00    -0.317 N 
ATOM      3  H2  UNL     1      55.217   9.655   2.345  1.00  0.00     0.169 HD
HETATM    4  C3  UNL     1      54.400   7.769   1.848  1.00  0.00     0.161 A 
HETATM    5  N3  UNL     1      55.039   6.607   1.634  1.00  0.00    -0.278 N 
ATOM      6  H3  UNL     1      54.591   5.722   1.397  1.00  0.00     0.189 HD
HETATM    7  N4  UNL     1      56.353   6.794   1.780  1.00  0.00    -0.280 N 
ATOM      8  H4  UNL     1      57.071   6.077   1.673  1.00  0.00     0.188 HD
ENDROOT
BRANCH   4   9
HETATM    9  S1  UNL     1      52.662   8.128   1.790  1.00  0.00    -0.082 SA
BRANCH   9  10
HETATM   10  C4  UNL     1      51.933   8.390   3.419  1.00  0.00     0.017 C 
HETATM   11  C5  UNL     1      50.435   8.245   3.293  1.00  0.00     0.025 C 
HETATM   12  C6  UNL     1      49.789   8.346   4.649  1.00  0.00    -0.012 C 
HETATM   13  C7  UNL     1      50.364   7.295   5.559  1.00  0.00     0.009 C 
HETATM   14  C11 UNL     1      50.032   9.741   5.173  1.00  0.00     0.009 C 
HETATM   15  C8  UNL     1      51.850   7.519   5.732  1.00  0.00    -0.012 C 
HETATM   16  C9  UNL     1      52.046   8.926   6.276  1.00  0.00     0.009 C 
HETATM   17  C13 UNL     1      52.554   7.440   4.395  1.00  0.00     0.025 C 
HETATM   18  C10 UNL     1      51.529   9.937   5.278  1.00  0.00    -0.012 C 
HETATM   19  C12 UNL     1      52.186   9.797   3.925  1.00  0.00     0.025 C 
ENDBRANCH   9  10
ENDBRANCH   4   9
BRANCH   1  20
HETATM   20  C1  UNL     1      57.862   8.712   2.333  1.00  0.00     0.221 A 
HETATM   21  O2  UNL     1      58.791   8.947   1.430  1.00  0.00    -0.185 OA
HETATM   22  N1  UNL     1      59.830   9.539   1.978  1.00  0.00    -0.090 N 
HETATM   23  C14 UNL     1      59.555   9.687   3.278  1.00  0.00     0.233 A 
HETATM   24  N5  UNL     1      58.346   9.179   3.497  1.00  0.00    -0.305 N 
HETATM   25 CL1  UNL     1      60.651  10.436   4.453  1.00  0.00    -0.041 Cl
ATOM     26  H5  UNL     1      57.866   9.149   4.397  1.00  0.00     0.170 HD
BRANCH  22  27
HETATM   27  O1  UNL     1      60.975   9.925   1.327  1.00  0.00    -0.260 OA
ATOM     28  H1  UNL     1      61.441  10.742   1.453  1.00  0.00     0.247 HD
ENDBRANCH  22  27
ENDBRANCH   1  20
TORSDOF 4
ENDMDL
