MODEL 1
REMARK VINA RESULT: -7.207545209      0.000      0.000
REMARK  5 active torsions:
REMARK  status: ('A' for Active; 'I' for Inactive)
REMARK    1  A    between atoms: C1_2  and  O2_4 
REMARK    2  A    between atoms: O2_4  and  C2_5 
REMARK    3  A    between atoms: C10_13  and  O3_14 
REMARK    4  A    between atoms: O3_14  and  C11_15 
REMARK    5  A    between atoms: C11_15  and  C12_17 
ROOT
HETATM    1  C2  UNL     1      54.727   9.065   3.205  1.00  0.00     0.172 C 
HETATM    2  C3  UNL     1      54.604   8.034   2.066  1.00  0.00     0.019 C 
HETATM    3  C4  UNL     1      55.352   6.776   2.339  1.00  0.00     0.012 C 
HETATM    4  C5  UNL     1      56.800   7.158   2.572  1.00  0.00    -0.011 C 
HETATM    5  C6  UNL     1      57.425   7.762   1.357  1.00  0.00     0.009 C 
HETATM    6  C7  UNL     1      56.627   9.019   1.040  1.00  0.00    -0.011 C 
HETATM    7  C8  UNL     1      55.169   8.710   0.840  1.00  0.00     0.012 C 
HETATM    8  C9  UNL     1      56.778   9.940   2.207  1.00  0.00     0.046 C 
HETATM    9  C10 UNL     1      56.142   9.362   3.491  1.00  0.00     0.099 C 
HETATM   10  C16 UNL     1      56.836   8.034   3.787  1.00  0.00     0.046 C 
ENDROOT
BRANCH   9  11
HETATM   11  O3  UNL     1      56.376  10.294   4.452  1.00  0.00    -0.303 OA
BRANCH  11  12
HETATM   12  C11 UNL     1      57.040  10.202   5.609  1.00  0.00     0.301 C 
HETATM   13  O4  UNL     1      56.508   9.683   6.592  1.00  0.00    -0.259 OA
BRANCH  12  14
HETATM   14  C12 UNL     1      58.433  10.711   5.780  1.00  0.00     0.081 A 
HETATM   15  C13 UNL     1      58.923  11.493   6.796  1.00  0.00     0.027 A 
HETATM   16  C14 UNL     1      60.217  11.825   6.733  1.00  0.00     0.033 A 
HETATM   17  C15 UNL     1      60.942  11.362   5.671  1.00  0.00     0.075 A 
HETATM   18 CL1  UNL     1      62.658  11.631   5.317  1.00  0.00    -0.076 Cl
HETATM   19  S1  UNL     1      59.794  10.470   4.783  1.00  0.00    -0.072 SA
ENDBRANCH  12  14
ENDBRANCH  11  12
ENDBRANCH   9  11
BRANCH   1  20
HETATM   20  O2  UNL     1      53.947   8.713   4.281  1.00  0.00    -0.297 OA
BRANCH  20  21
HETATM   21  C1  UNL     1      53.040   9.649   4.831  1.00  0.00     0.373 C 
HETATM   22  N1  UNL     1      51.963  10.159   4.065  1.00  0.00    -0.032 NA
HETATM   23  O1  UNL     1      53.261   9.982   6.020  1.00  0.00    -0.242 OA
ENDBRANCH  20  21
ENDBRANCH   1  20
TORSDOF 5
ENDMDL
MODEL 2
REMARK VINA RESULT: -6.893788562      1.175      1.327
REMARK  5 active torsions:
REMARK  status: ('A' for Active; 'I' for Inactive)
REMARK    1  A    between atoms: C1_2  and  O2_4 
REMARK    2  A    between atoms: O2_4  and  C2_5 
REMARK    3  A    between atoms: C10_13  and  O3_14 
REMARK    4  A    between atoms: O3_14  and  C11_15 
REMARK    5  A    between atoms: C11_15  and  C12_17 
ROOT
HETATM    1  C2  UNL     1      54.839   8.964   3.107  1.00  0.00     0.172 C 
HETATM    2  C3  UNL     1      54.394   7.928   2.056  1.00  0.00     0.019 C 
HETATM    3  C4  UNL     1      55.046   6.603   2.235  1.00  0.00     0.012 C 
HETATM    4  C5  UNL     1      56.544   6.829   2.176  1.00  0.00    -0.011 C 
HETATM    5  C6  UNL     1      56.983   7.335   0.841  1.00  0.00     0.009 C 
HETATM    6  C7  UNL     1      56.273   8.664   0.627  1.00  0.00    -0.011 C 
HETATM    7  C8  UNL     1      54.780   8.513   0.718  1.00  0.00     0.012 C 
HETATM    8  C9  UNL     1      56.739   9.588   1.706  1.00  0.00     0.046 C 
HETATM    9  C10 UNL     1      56.305   9.110   3.110  1.00  0.00     0.099 C 
HETATM   10  C16 UNL     1      56.902   7.720   3.324  1.00  0.00     0.046 C 
ENDROOT
BRANCH   9  11
HETATM   11  O3  UNL     1      56.815  10.031   3.970  1.00  0.00    -0.303 OA
BRANCH  11  12
HETATM   12  C11 UNL     1      57.820   9.940   4.845  1.00  0.00     0.301 C 
HETATM   13  O4  UNL     1      57.598   9.638   6.019  1.00  0.00    -0.259 OA
BRANCH  12  14
HETATM   14  C12 UNL     1      59.243  10.192   4.467  1.00  0.00     0.081 A 
HETATM   15  C13 UNL     1      60.227  10.765   5.233  1.00  0.00     0.027 A 
HETATM   16  C14 UNL     1      61.435  10.886   4.673  1.00  0.00     0.033 A 
HETATM   17  C15 UNL     1      61.591  10.435   3.392  1.00  0.00     0.075 A 
HETATM   18 CL1  UNL     1      63.056  10.459   2.395  1.00  0.00    -0.076 Cl
HETATM   19  S1  UNL     1      60.041   9.848   3.001  1.00  0.00    -0.072 SA
ENDBRANCH  12  14
ENDBRANCH  11  12
ENDBRANCH   9  11
BRANCH   1  20
HETATM   20  O2  UNL     1      54.248   8.722   4.325  1.00  0.00    -0.297 OA
BRANCH  20  21
HETATM   21  C1  UNL     1      53.347   9.665   4.872  1.00  0.00     0.373 C 
HETATM   22  N1  UNL     1      52.216  10.105   4.139  1.00  0.00    -0.032 NA
HETATM   23  O1  UNL     1      53.623  10.072   6.026  1.00  0.00    -0.242 OA
ENDBRANCH  20  21
ENDBRANCH   1  20
TORSDOF 5
ENDMDL
MODEL 3
REMARK VINA RESULT: -6.833803146      3.338      4.581
REMARK  5 active torsions:
REMARK  status: ('A' for Active; 'I' for Inactive)
REMARK    1  A    between atoms: C1_2  and  O2_4 
REMARK    2  A    between atoms: O2_4  and  C2_5 
REMARK    3  A    between atoms: C10_13  and  O3_14 
REMARK    4  A    between atoms: O3_14  and  C11_15 
REMARK    5  A    between atoms: C11_15  and  C12_17 
ROOT
HETATM    1  C2  UNL     1      58.725   9.213   2.837  1.00  0.00     0.172 C 
HETATM    2  C3  UNL     1      58.819   9.498   1.325  1.00  0.00     0.019 C 
HETATM    3  C4  UNL     1      57.901  10.583   0.881  1.00  0.00     0.012 C 
HETATM    4  C5  UNL     1      56.496  10.169   1.270  1.00  0.00    -0.011 C 
HETATM    5  C6  UNL     1      56.057   8.931   0.558  1.00  0.00     0.009 C 
HETATM    6  C7  UNL     1      57.028   7.831   0.964  1.00  0.00    -0.011 C 
HETATM    7  C8  UNL     1      58.448   8.202   0.642  1.00  0.00     0.012 C 
HETATM    8  C9  UNL     1      56.891   7.650   2.441  1.00  0.00     0.046 C 
HETATM    9  C10 UNL     1      57.338   8.904   3.226  1.00  0.00     0.099 C 
HETATM   10  C16 UNL     1      56.464  10.067   2.764  1.00  0.00     0.046 C 
ENDROOT
BRANCH   9  11
HETATM   11  O3  UNL     1      57.138   8.592   4.534  1.00  0.00    -0.303 OA
BRANCH  11  12
HETATM   12  C11 UNL     1      56.268   9.084   5.421  1.00  0.00     0.301 C 
HETATM   13  O4  UNL     1      55.064   8.851   5.308  1.00  0.00    -0.259 OA
BRANCH  12  14
HETATM   14  C12 UNL     1      56.690   9.930   6.577  1.00  0.00     0.081 A 
HETATM   15  C13 UNL     1      57.852  10.648   6.713  1.00  0.00     0.027 A 
HETATM   16  C14 UNL     1      58.007  11.336   7.850  1.00  0.00     0.033 A 
HETATM   17  C15 UNL     1      57.005  11.269   8.777  1.00  0.00     0.075 A 
HETATM   18 CL1  UNL     1      56.925  12.062  10.360  1.00  0.00    -0.076 Cl
HETATM   19  S1  UNL     1      55.865  10.244   8.035  1.00  0.00    -0.072 SA
ENDBRANCH  12  14
ENDBRANCH  11  12
ENDBRANCH   9  11
BRANCH   1  20
HETATM   20  O2  UNL     1      59.360  10.190   3.566  1.00  0.00    -0.297 OA
BRANCH  20  21
HETATM   21  C1  UNL     1      60.752  10.100   3.804  1.00  0.00     0.373 C 
HETATM   22  N1  UNL     1      61.654   9.791   2.755  1.00  0.00    -0.032 NA
HETATM   23  O1  UNL     1      61.113  10.310   4.987  1.00  0.00    -0.242 OA
ENDBRANCH  20  21
ENDBRANCH   1  20
TORSDOF 5
ENDMDL
MODEL 4
REMARK VINA RESULT: -6.693672200      2.658      3.205
REMARK  5 active torsions:
REMARK  status: ('A' for Active; 'I' for Inactive)
REMARK    1  A    between atoms: C1_2  and  O2_4 
REMARK    2  A    between atoms: O2_4  and  C2_5 
REMARK    3  A    between atoms: C10_13  and  O3_14 
REMARK    4  A    between atoms: O3_14  and  C11_15 
REMARK    5  A    between atoms: C11_15  and  C12_17 
ROOT
HETATM    1  C2  UNL     1      55.130   8.831   1.678  1.00  0.00     0.172 C 
HETATM    2  C3  UNL     1      56.153   8.505   0.573  1.00  0.00     0.019 C 
HETATM    3  C4  UNL     1      57.224   7.577   1.030  1.00  0.00     0.012 C 
HETATM    4  C5  UNL     1      57.898   8.224   2.223  1.00  0.00    -0.011 C 
HETATM    5  C6  UNL     1      58.580   9.502   1.858  1.00  0.00     0.009 C 
HETATM    6  C7  UNL     1      57.497  10.435   1.336  1.00  0.00    -0.011 C 
HETATM    7  C8  UNL     1      56.760   9.829   0.175  1.00  0.00     0.012 C 
HETATM    8  C9  UNL     1      56.539  10.667   2.459  1.00  0.00     0.046 C 
HETATM    9  C10 UNL     1      55.802   9.372   2.872  1.00  0.00     0.099 C 
HETATM   10  C16 UNL     1      56.863   8.359   3.297  1.00  0.00     0.046 C 
ENDROOT
BRANCH   9  11
HETATM   11  O3  UNL     1      54.994   9.739   3.901  1.00  0.00    -0.303 OA
BRANCH  11  12
HETATM   12  C11 UNL     1      54.963   9.325   5.171  1.00  0.00     0.301 C 
HETATM   13  O4  UNL     1      54.228   8.394   5.506  1.00  0.00    -0.259 OA
BRANCH  12  14
HETATM   14  C12 UNL     1      55.796   9.950   6.242  1.00  0.00     0.081 A 
HETATM   15  C13 UNL     1      57.110  10.339   6.166  1.00  0.00     0.027 A 
HETATM   16  C14 UNL     1      57.645  10.881   7.265  1.00  0.00     0.033 A 
HETATM   17  C15 UNL     1      56.847  11.001   8.368  1.00  0.00     0.075 A 
HETATM   18 CL1  UNL     1      57.268  11.671   9.955  1.00  0.00    -0.076 Cl
HETATM   19  S1  UNL     1      55.362  10.355   7.840  1.00  0.00    -0.072 SA
ENDBRANCH  12  14
ENDBRANCH  11  12
ENDBRANCH   9  11
BRANCH   1  20
HETATM   20  O2  UNL     1      54.270   7.778   1.886  1.00  0.00    -0.297 OA
BRANCH  20  21
HETATM   21  C1  UNL     1      52.971   7.807   1.328  1.00  0.00     0.373 C 
HETATM   22  N1  UNL     1      52.741   7.400  -0.010  1.00  0.00    -0.032 NA
HETATM   23  O1  UNL     1      52.063   8.212   2.092  1.00  0.00    -0.242 OA
ENDBRANCH  20  21
ENDBRANCH   1  20
TORSDOF 5
ENDMDL
MODEL 5
REMARK VINA RESULT: -6.558139846      1.824      2.208
REMARK  5 active torsions:
REMARK  status: ('A' for Active; 'I' for Inactive)
REMARK    1  A    between atoms: C1_2  and  O2_4 
REMARK    2  A    between atoms: O2_4  and  C2_5 
REMARK    3  A    between atoms: C10_13  and  O3_14 
REMARK    4  A    between atoms: O3_14  and  C11_15 
REMARK    5  A    between atoms: C11_15  and  C12_17 
ROOT
HETATM    1  C2  UNL     1      54.231   8.424   2.476  1.00  0.00     0.172 C 
HETATM    2  C3  UNL     1      54.881   7.587   1.356  1.00  0.00     0.019 C 
HETATM    3  C4  UNL     1      55.804   6.541   1.875  1.00  0.00     0.012 C 
HETATM    4  C5  UNL     1      56.856   7.246   2.708  1.00  0.00    -0.011 C 
HETATM    5  C6  UNL     1      57.693   8.174   1.889  1.00  0.00     0.009 C 
HETATM    6  C7  UNL     1      56.743   9.213   1.309  1.00  0.00    -0.011 C 
HETATM    7  C8  UNL     1      55.648   8.571   0.504  1.00  0.00     0.012 C 
HETATM    8  C9  UNL     1      56.140   9.947   2.462  1.00  0.00     0.046 C 
HETATM    9  C10 UNL     1      55.259   9.030   3.340  1.00  0.00     0.099 C 
HETATM   10  C16 UNL     1      56.148   7.899   3.854  1.00  0.00     0.046 C 
ENDROOT
BRANCH   9  11
HETATM   11  O3  UNL     1      54.806   9.829   4.342  1.00  0.00    -0.303 OA
BRANCH  11  12
HETATM   12  C11 UNL     1      54.866   9.678   5.668  1.00  0.00     0.301 C 
HETATM   13  O4  UNL     1      53.972   9.077   6.268  1.00  0.00    -0.259 OA
BRANCH  12  14
HETATM   14  C12 UNL     1      55.991  10.216   6.489  1.00  0.00     0.081 A 
HETATM   15  C13 UNL     1      56.027  10.395   7.850  1.00  0.00     0.027 A 
HETATM   16  C14 UNL     1      57.156  10.896   8.363  1.00  0.00     0.033 A 
HETATM   17  C15 UNL     1      58.174  11.188   7.499  1.00  0.00     0.075 A 
HETATM   18 CL1  UNL     1      59.772  11.856   7.877  1.00  0.00    -0.076 Cl
HETATM   19  S1  UNL     1      57.528  10.752   5.985  1.00  0.00    -0.072 SA
ENDBRANCH  12  14
ENDBRANCH  11  12
ENDBRANCH   9  11
BRANCH   1  20
HETATM   20  O2  UNL     1      53.238   7.716   3.112  1.00  0.00    -0.297 OA
BRANCH  20  21
HETATM   21  C1  UNL     1      51.904   8.182   3.071  1.00  0.00     0.373 C 
HETATM   22  N1  UNL     1      50.889   7.435   2.421  1.00  0.00    -0.032 NA
HETATM   23  O1  UNL     1      51.695   9.279   3.641  1.00  0.00    -0.242 OA
ENDBRANCH  20  21
ENDBRANCH   1  20
TORSDOF 5
ENDMDL
