MODEL 1
REMARK VINA RESULT: -6.954933748      0.000      0.000
REMARK  5 active torsions:
REMARK  status: ('A' for Active; 'I' for Inactive)
REMARK    1  A    between atoms: C2_2  and  O1_3 
REMARK    2  A    between atoms: O1_3  and  C3_4 
REMARK    3  A    between atoms: C3_4  and  C4_6 
REMARK    4  A    between atoms: C8_14  and  C9_15 
REMARK    5  A    between atoms: N3_19  and  C12_20 
ROOT
HETATM    1  C4  UNL     1      57.895   8.463   1.896  1.00  0.00     0.201 C 
HETATM    2  C5  UNL     1      56.670   8.007   1.155  1.00  0.00     0.019 C 
HETATM    3  N1  UNL     1      56.755   7.113   0.248  1.00  0.00    -0.403 N 
ATOM      4  H11 UNL     1      55.923   6.804  -0.256  1.00  0.00     0.155 HD
ATOM      5  H12 UNL     1      57.660   6.702   0.021  1.00  0.00     0.155 HD
HETATM    6  C6  UNL     1      55.339   8.612   1.488  1.00  0.00     0.148 C 
HETATM    7  C7  UNL     1      54.253   7.881   0.878  1.00  0.00     0.070 C 
HETATM    8  N2  UNL     1      53.389   7.304   0.370  1.00  0.00    -0.197 NA
HETATM    9  C8  UNL     1      55.216   8.726   2.965  1.00  0.00     0.050 C 
HETATM   10  C17 UNL     1      56.227   7.815   3.679  1.00  0.00     0.090 C 
HETATM   11  C18 UNL     1      57.571   8.344   3.340  1.00  0.00     0.146 C 
HETATM   12  O3  UNL     1      58.319   8.646   4.242  1.00  0.00    -0.297 OA
ENDROOT
BRANCH   9  13
HETATM   13  C9  UNL     1      53.866   8.511   3.512  1.00  0.00    -0.032 A 
HETATM   14  C10 UNL     1      53.353   7.297   3.887  1.00  0.00     0.070 A 
HETATM   15  C11 UNL     1      52.067   7.524   4.333  1.00  0.00     0.191 A 
HETATM   16  F1  UNL     1      51.242   6.557   4.787  1.00  0.00    -0.186 F 
HETATM   17  N3  UNL     1      51.782   8.835   4.241  1.00  0.00    -0.325 N 
HETATM   18  C16 UNL     1      52.895   9.450   3.732  1.00  0.00     0.102 A 
BRANCH  17  19
HETATM   19  C12 UNL     1      50.527   9.416   4.621  1.00  0.00     0.028 C 
HETATM   20  C13 UNL     1      49.409   8.952   3.727  1.00  0.00     0.038 C 
HETATM   21  C14 UNL     1      50.134   9.096   6.050  1.00  0.00     0.038 C 
HETATM   22  C15 UNL     1      50.677  10.932   4.539  1.00  0.00     0.038 C 
ENDBRANCH  17  19
ENDBRANCH   9  13
BRANCH   1  23
HETATM   23  C3  UNL     1      58.272   9.838   1.515  1.00  0.00     0.275 C 
HETATM   24  O2  UNL     1      57.464  10.610   0.942  1.00  0.00    -0.264 OA
BRANCH  23  25
HETATM   25  O1  UNL     1      59.540  10.330   1.777  1.00  0.00    -0.321 OA
BRANCH  25  26
HETATM   26  C2  UNL     1      60.694   9.481   1.825  1.00  0.00     0.174 C 
HETATM   27  C1  UNL     1      61.472   9.940   3.064  1.00  0.00     0.034 C 
ENDBRANCH  25  26
ENDBRANCH  23  25
ENDBRANCH   1  23
TORSDOF 5
ENDMDL
MODEL 2
REMARK VINA RESULT: -6.823673228      1.182      1.846
REMARK  5 active torsions:
REMARK  status: ('A' for Active; 'I' for Inactive)
REMARK    1  A    between atoms: C2_2  and  O1_3 
REMARK    2  A    between atoms: O1_3  and  C3_4 
REMARK    3  A    between atoms: C3_4  and  C4_6 
REMARK    4  A    between atoms: C8_14  and  C9_15 
REMARK    5  A    between atoms: N3_19  and  C12_20 
ROOT
HETATM    1  C4  UNL     1      57.392   8.280   1.767  1.00  0.00     0.201 C 
HETATM    2  C5  UNL     1      56.122   7.890   1.066  1.00  0.00     0.019 C 
HETATM    3  N1  UNL     1      56.127   6.979   0.171  1.00  0.00    -0.403 N 
ATOM      4  H11 UNL     1      55.264   6.714  -0.305  1.00  0.00     0.155 HD
ATOM      5  H12 UNL     1      56.999   6.509  -0.072  1.00  0.00     0.155 HD
HETATM    6  C6  UNL     1      54.840   8.580   1.423  1.00  0.00     0.148 C 
HETATM    7  C7  UNL     1      53.695   7.909   0.854  1.00  0.00     0.070 C 
HETATM    8  N2  UNL     1      52.784   7.379   0.378  1.00  0.00    -0.197 NA
HETATM    9  C8  UNL     1      54.764   8.723   2.901  1.00  0.00     0.050 C 
HETATM   10  C17 UNL     1      55.737   7.762   3.604  1.00  0.00     0.090 C 
HETATM   11  C18 UNL     1      57.101   8.203   3.221  1.00  0.00     0.146 C 
HETATM   12  O3  UNL     1      57.890   8.471   4.098  1.00  0.00    -0.297 OA
ENDROOT
BRANCH   9  13
HETATM   13  C9  UNL     1      53.419   8.601   3.487  1.00  0.00    -0.032 A 
HETATM   14  C10 UNL     1      52.487   9.605   3.535  1.00  0.00     0.070 A 
HETATM   15  C11 UNL     1      51.374   9.090   4.167  1.00  0.00     0.191 A 
HETATM   16  F1  UNL     1      50.244   9.792   4.398  1.00  0.00    -0.186 F 
HETATM   17  N3  UNL     1      51.598   7.809   4.504  1.00  0.00    -0.325 N 
HETATM   18  C16 UNL     1      52.865   7.502   4.085  1.00  0.00     0.102 A 
BRANCH  17  19
HETATM   19  C12 UNL     1      50.646   6.973   5.179  1.00  0.00     0.028 C 
HETATM   20  C13 UNL     1      50.252   7.550   6.512  1.00  0.00     0.038 C 
HETATM   21  C14 UNL     1      49.377   6.757   4.379  1.00  0.00     0.038 C 
HETATM   22  C15 UNL     1      51.286   5.601   5.364  1.00  0.00     0.038 C 
ENDBRANCH  17  19
ENDBRANCH   9  13
BRANCH   1  23
HETATM   23  C3  UNL     1      57.842   9.623   1.353  1.00  0.00     0.275 C 
HETATM   24  O2  UNL     1      57.135  10.362   0.625  1.00  0.00    -0.264 OA
BRANCH  23  25
HETATM   25  O1  UNL     1      59.070  10.121   1.756  1.00  0.00    -0.321 OA
BRANCH  25  26
HETATM   26  C2  UNL     1      60.267   9.334   1.706  1.00  0.00     0.174 C 
HETATM   27  C1  UNL     1      61.142   9.870   2.845  1.00  0.00     0.034 C 
ENDBRANCH  25  26
ENDBRANCH  23  25
ENDBRANCH   1  23
TORSDOF 5
ENDMDL
MODEL 3
REMARK VINA RESULT: -6.628324741      3.781      7.405
REMARK  5 active torsions:
REMARK  status: ('A' for Active; 'I' for Inactive)
REMARK    1  A    between atoms: C2_2  and  O1_3 
REMARK    2  A    between atoms: O1_3  and  C3_4 
REMARK    3  A    between atoms: C3_4  and  C4_6 
REMARK    4  A    between atoms: C8_14  and  C9_15 
REMARK    5  A    between atoms: N3_19  and  C12_20 
ROOT
HETATM    1  C4  UNL     1      54.640   7.578   3.249  1.00  0.00     0.201 C 
HETATM    2  C5  UNL     1      54.932   8.682   4.224  1.00  0.00     0.019 C 
HETATM    3  N1  UNL     1      54.301   8.756   5.331  1.00  0.00    -0.403 N 
ATOM      4  H11 UNL     1      54.500   9.506   5.994  1.00  0.00     0.155 HD
ATOM      5  H12 UNL     1      53.591   8.061   5.559  1.00  0.00     0.155 HD
HETATM    6  C6  UNL     1      55.977   9.705   3.889  1.00  0.00     0.148 C 
HETATM    7  C7  UNL     1      56.310  10.522   5.032  1.00  0.00     0.070 C 
HETATM    8  N2  UNL     1      56.558  11.187   5.946  1.00  0.00    -0.197 NA
HETATM    9  C8  UNL     1      57.153   9.017   3.294  1.00  0.00     0.050 C 
HETATM   10  C17 UNL     1      57.139   7.513   3.614  1.00  0.00     0.090 C 
HETATM   11  C18 UNL     1      55.949   6.956   2.925  1.00  0.00     0.146 C 
HETATM   12  O3  UNL     1      56.104   6.041   2.149  1.00  0.00    -0.297 OA
ENDROOT
BRANCH   9  13
HETATM   13  C9  UNL     1      58.466   9.594   3.627  1.00  0.00    -0.032 A 
HETATM   14  C10 UNL     1      59.577   9.534   2.827  1.00  0.00     0.070 A 
HETATM   15  C11 UNL     1      60.593  10.178   3.501  1.00  0.00     0.191 A 
HETATM   16  F1  UNL     1      61.847  10.321   3.021  1.00  0.00    -0.186 F 
HETATM   17  N3  UNL     1      60.138  10.627   4.683  1.00  0.00    -0.325 N 
HETATM   18  C16 UNL     1      58.819  10.266   4.765  1.00  0.00     0.102 A 
BRANCH  17  19
HETATM   19  C12 UNL     1      60.936  11.343   5.637  1.00  0.00     0.028 C 
HETATM   20  C13 UNL     1      62.145  10.548   6.053  1.00  0.00     0.038 C 
HETATM   21  C14 UNL     1      61.423  12.681   5.116  1.00  0.00     0.038 C 
HETATM   22  C15 UNL     1      60.055  11.639   6.847  1.00  0.00     0.038 C 
ENDBRANCH  17  19
ENDBRANCH   9  13
BRANCH   1  23
HETATM   23  C3  UNL     1      53.947   8.090   2.050  1.00  0.00     0.275 C 
HETATM   24  O2  UNL     1      54.518   8.151   0.933  1.00  0.00    -0.264 OA
BRANCH  23  25
HETATM   25  O1  UNL     1      52.634   8.525   2.114  1.00  0.00    -0.321 OA
BRANCH  25  26
HETATM   26  C2  UNL     1      51.605   7.755   2.751  1.00  0.00     0.174 C 
HETATM   27  C1  UNL     1      50.961   8.714   3.759  1.00  0.00     0.034 C 
ENDBRANCH  25  26
ENDBRANCH  23  25
ENDBRANCH   1  23
TORSDOF 5
ENDMDL
MODEL 4
REMARK VINA RESULT: -6.410494613      3.985      7.193
REMARK  5 active torsions:
REMARK  status: ('A' for Active; 'I' for Inactive)
REMARK    1  A    between atoms: C2_2  and  O1_3 
REMARK    2  A    between atoms: O1_3  and  C3_4 
REMARK    3  A    between atoms: C3_4  and  C4_6 
REMARK    4  A    between atoms: C8_14  and  C9_15 
REMARK    5  A    between atoms: N3_19  and  C12_20 
ROOT
HETATM    1  C4  UNL     1      54.695   7.541   3.317  1.00  0.00     0.201 C 
HETATM    2  C5  UNL     1      54.995   8.682   4.247  1.00  0.00     0.019 C 
HETATM    3  N1  UNL     1      54.376   8.796   5.357  1.00  0.00    -0.403 N 
ATOM      4  H11 UNL     1      54.580   9.571   5.988  1.00  0.00     0.155 HD
ATOM      5  H12 UNL     1      53.670   8.108   5.619  1.00  0.00     0.155 HD
HETATM    6  C6  UNL     1      56.033   9.693   3.862  1.00  0.00     0.148 C 
HETATM    7  C7  UNL     1      56.377  10.554   4.969  1.00  0.00     0.070 C 
HETATM    8  N2  UNL     1      56.633  11.253   5.855  1.00  0.00    -0.197 NA
HETATM    9  C8  UNL     1      57.205   8.986   3.280  1.00  0.00     0.050 C 
HETATM   10  C17 UNL     1      57.198   7.495   3.657  1.00  0.00     0.090 C 
HETATM   11  C18 UNL     1      56.001   6.910   3.002  1.00  0.00     0.146 C 
HETATM   12  O3  UNL     1      56.151   5.966   2.259  1.00  0.00    -0.297 OA
ENDROOT
BRANCH   9  13
HETATM   13  C9  UNL     1      58.520   9.577   3.577  1.00  0.00    -0.032 A 
HETATM   14  C10 UNL     1      59.593   9.578   2.724  1.00  0.00     0.070 A 
HETATM   15  C11 UNL     1      60.626  10.215   3.377  1.00  0.00     0.191 A 
HETATM   16  F1  UNL     1      61.853  10.407   2.847  1.00  0.00    -0.186 F 
HETATM   17  N3  UNL     1      60.218  10.602   4.598  1.00  0.00    -0.325 N 
HETATM   18  C16 UNL     1      58.913  10.208   4.726  1.00  0.00     0.102 A 
BRANCH  17  19
HETATM   19  C12 UNL     1      61.046  11.294   5.544  1.00  0.00     0.028 C 
HETATM   20  C13 UNL     1      62.174  10.425   6.031  1.00  0.00     0.038 C 
HETATM   21  C14 UNL     1      61.654  12.564   4.982  1.00  0.00     0.038 C 
HETATM   22  C15 UNL     1      60.159  11.715   6.712  1.00  0.00     0.038 C 
ENDBRANCH  17  19
ENDBRANCH   9  13
BRANCH   1  23
HETATM   23  C3  UNL     1      53.988   8.006   2.108  1.00  0.00     0.275 C 
HETATM   24  O2  UNL     1      52.799   8.408   2.150  1.00  0.00    -0.264 OA
BRANCH  23  25
HETATM   25  O1  UNL     1      54.615   8.017   0.873  1.00  0.00    -0.321 OA
BRANCH  25  26
HETATM   26  C2  UNL     1      54.144   7.230  -0.229  1.00  0.00     0.174 C 
HETATM   27  C1  UNL     1      55.407   6.608  -0.838  1.00  0.00     0.034 C 
ENDBRANCH  25  26
ENDBRANCH  23  25
ENDBRANCH   1  23
TORSDOF 5
ENDMDL
MODEL 5
REMARK VINA RESULT: -6.400678570      4.636      6.903
REMARK  5 active torsions:
REMARK  status: ('A' for Active; 'I' for Inactive)
REMARK    1  A    between atoms: C2_2  and  O1_3 
REMARK    2  A    between atoms: O1_3  and  C3_4 
REMARK    3  A    between atoms: C3_4  and  C4_6 
REMARK    4  A    between atoms: C8_14  and  C9_15 
REMARK    5  A    between atoms: N3_19  and  C12_20 
ROOT
HETATM    1  C4  UNL     1      56.617  11.406   8.499  1.00  0.00     0.201 C 
HETATM    2  C5  UNL     1      55.446  11.102   7.607  1.00  0.00     0.019 C 
HETATM    3  N1  UNL     1      54.441  11.888   7.564  1.00  0.00    -0.403 N 
ATOM      4  H11 UNL     1      53.647  11.682   6.958  1.00  0.00     0.155 HD
ATOM      5  H12 UNL     1      54.429  12.730   8.139  1.00  0.00     0.155 HD
HETATM    6  C6  UNL     1      55.464   9.863   6.763  1.00  0.00     0.148 C 
HETATM    7  C7  UNL     1      54.400   9.867   5.787  1.00  0.00     0.070 C 
HETATM    8  N2  UNL     1      53.532   9.866   5.022  1.00  0.00    -0.197 NA
HETATM    9  C8  UNL     1      56.814   9.709   6.160  1.00  0.00     0.050 C 
HETATM   10  C17 UNL     1      57.597  11.032   6.201  1.00  0.00     0.090 C 
HETATM   11  C18 UNL     1      57.823  11.334   7.637  1.00  0.00     0.146 C 
HETATM   12  O3  UNL     1      58.957  11.502   8.021  1.00  0.00    -0.297 OA
ENDROOT
BRANCH   9  13
HETATM   13  C9  UNL     1      56.847   9.143   4.801  1.00  0.00    -0.032 A 
HETATM   14  C10 UNL     1      56.684   7.817   4.497  1.00  0.00     0.070 A 
HETATM   15  C11 UNL     1      56.792   7.703   3.126  1.00  0.00     0.191 A 
HETATM   16  F1  UNL     1      56.686   6.537   2.454  1.00  0.00    -0.186 F 
HETATM   17  N3  UNL     1      57.016   8.914   2.588  1.00  0.00    -0.325 N 
HETATM   18  C16 UNL     1      57.052   9.810   3.623  1.00  0.00     0.102 A 
BRANCH  17  19
HETATM   19  C12 UNL     1      57.181   9.155   1.183  1.00  0.00     0.028 C 
HETATM   20  C13 UNL     1      56.115   8.464   0.376  1.00  0.00     0.038 C 
HETATM   21  C14 UNL     1      57.143  10.628   0.827  1.00  0.00     0.038 C 
HETATM   22  C15 UNL     1      58.562   8.645   0.786  1.00  0.00     0.038 C 
ENDBRANCH  17  19
ENDBRANCH   9  13
BRANCH   1  23
HETATM   23  C3  UNL     1      56.681  10.467   9.637  1.00  0.00     0.275 C 
HETATM   24  O2  UNL     1      56.049   9.382   9.635  1.00  0.00    -0.264 OA
BRANCH  23  25
HETATM   25  O1  UNL     1      57.447  10.751  10.755  1.00  0.00    -0.321 OA
BRANCH  25  26
HETATM   26  C2  UNL     1      57.195  11.895  11.583  1.00  0.00     0.174 C 
HETATM   27  C1  UNL     1      58.388  12.827  11.342  1.00  0.00     0.034 C 
ENDBRANCH  25  26
ENDBRANCH  23  25
ENDBRANCH   1  23
TORSDOF 5
ENDMDL
