MODEL 1
REMARK VINA RESULT: -8.087734456      0.000      0.000
REMARK  6 active torsions:
REMARK  status: ('A' for Active; 'I' for Inactive)
REMARK    1  A    between atoms: C2_2  and  S1_3 
REMARK    2  A    between atoms: S1_3  and  C3_4 
REMARK    3  A    between atoms: C3_4  and  N1_5 
REMARK    4  A    between atoms: C4_7  and  C5_8 
REMARK    5  A    between atoms: C7_11  and  C9_13 
REMARK    6  A    between atoms: N2_23  and  O4_25 
ROOT
HETATM    1  C5  UNL     1      56.577   8.844   2.768  1.00  0.00     0.180 C 
HETATM    2  C6  UNL     1      57.610   9.107   1.685  1.00  0.00     0.063 C 
HETATM    3  O1  UNL     1      56.676   9.822   3.754  1.00  0.00    -0.324 OA
HETATM    4  C7  UNL     1      57.261   9.265   4.864  1.00  0.00     0.200 C 
HETATM    5  C8  UNL     1      56.361   9.361   6.097  1.00  0.00     0.085 C 
HETATM    6  O2  UNL     1      57.562   7.911   4.595  1.00  0.00    -0.276 OA
HETATM    7  C15 UNL     1      56.878   7.570   3.446  1.00  0.00     0.302 C 
HETATM    8  O3  UNL     1      56.555   6.440   3.016  1.00  0.00    -0.261 OA
ENDROOT
BRANCH   1   9
HETATM    9  C4  UNL     1      55.220   8.910   2.200  1.00  0.00     0.111 C 
HETATM   10  N1  UNL     1      54.384   7.990   2.470  1.00  0.00    -0.346 N 
ATOM     11  H1  UNL     1      54.655   7.215   3.076  1.00  0.00     0.167 HD
BRANCH  10  12
HETATM   12  C3  UNL     1      53.089   8.041   1.935  1.00  0.00     0.163 C 
HETATM   13  N2  UNL     1      52.864   7.810   0.673  1.00  0.00    -0.247 N 
ATOM     14  H2  UNL     1      51.912   7.855   0.311  1.00  0.00     0.196 HD
BRANCH  12  15
HETATM   15  S1  UNL     1      51.710   8.432   2.993  1.00  0.00    -0.093 SA
BRANCH  15  16
HETATM   16  C2  UNL     1      52.113   9.869   4.058  1.00  0.00     0.078 C 
HETATM   17  C1  UNL     1      50.777  10.440   4.505  1.00  0.00     0.016 C 
ENDBRANCH  15  16
ENDBRANCH  12  15
BRANCH  13  18
HETATM   18  O4  UNL     1      53.913   7.502  -0.180  1.00  0.00    -0.288 OA
ATOM     19  H4  UNL     1      54.174   6.598  -0.312  1.00  0.00     0.244 HD
ENDBRANCH  13  18
ENDBRANCH  10  12
ENDBRANCH   1   9
BRANCH   4  20
HETATM   20  C9  UNL     1      58.480  10.050   5.193  1.00  0.00     0.004 A 
HETATM   21  C10 UNL     1      58.420  10.967   6.225  1.00  0.00     0.015 A 
HETATM   22  C11 UNL     1      59.544  11.707   6.549  1.00  0.00     0.043 A 
HETATM   23  C12 UNL     1      60.725  11.545   5.856  1.00  0.00     0.116 A 
HETATM   24  F1  UNL     1      61.849  12.271   6.161  1.00  0.00    -0.206 F 
HETATM   25  C13 UNL     1      60.746  10.612   4.823  1.00  0.00     0.043 A 
HETATM   26  C14 UNL     1      59.645   9.860   4.478  1.00  0.00     0.015 A 
ENDBRANCH   4  20
TORSDOF 6
ENDMDL
MODEL 2
REMARK VINA RESULT: -7.984535514      0.831      1.339
REMARK  6 active torsions:
REMARK  status: ('A' for Active; 'I' for Inactive)
REMARK    1  A    between atoms: C2_2  and  S1_3 
REMARK    2  A    between atoms: S1_3  and  C3_4 
REMARK    3  A    between atoms: C3_4  and  N1_5 
REMARK    4  A    between atoms: C4_7  and  C5_8 
REMARK    5  A    between atoms: C7_11  and  C9_13 
REMARK    6  A    between atoms: N2_23  and  O4_25 
ROOT
HETATM    1  C5  UNL     1      56.429   9.076   3.058  1.00  0.00     0.180 C 
HETATM    2  C6  UNL     1      57.327   9.411   1.880  1.00  0.00     0.063 C 
HETATM    3  O1  UNL     1      56.636   9.999   4.079  1.00  0.00    -0.324 OA
HETATM    4  C7  UNL     1      57.349   9.389   5.081  1.00  0.00     0.200 C 
HETATM    5  C8  UNL     1      56.598   9.405   6.413  1.00  0.00     0.085 C 
HETATM    6  O2  UNL     1      57.625   8.055   4.704  1.00  0.00    -0.276 OA
HETATM    7  C15 UNL     1      56.814   7.770   3.623  1.00  0.00     0.302 C 
HETATM    8  O3  UNL     1      56.450   6.661   3.171  1.00  0.00    -0.261 OA
ENDROOT
BRANCH   1   9
HETATM    9  C4  UNL     1      55.015   9.157   2.656  1.00  0.00     0.111 C 
HETATM   10  N1  UNL     1      54.187   8.300   3.104  1.00  0.00    -0.346 N 
ATOM     11  H1  UNL     1      54.505   7.566   3.738  1.00  0.00     0.167 HD
BRANCH  10  12
HETATM   12  C3  UNL     1      52.838   8.365   2.728  1.00  0.00     0.163 C 
HETATM   13  N2  UNL     1      52.402   7.777   1.652  1.00  0.00    -0.247 N 
ATOM     14  H2  UNL     1      51.415   7.842   1.401  1.00  0.00     0.196 HD
BRANCH  12  15
HETATM   15  S1  UNL     1      51.683   9.274   3.735  1.00  0.00    -0.093 SA
BRANCH  15  16
HETATM   16  C2  UNL     1      52.412   9.626   5.380  1.00  0.00     0.078 C 
HETATM   17  C1  UNL     1      52.287   8.334   6.172  1.00  0.00     0.016 C 
ENDBRANCH  15  16
ENDBRANCH  12  15
BRANCH  13  18
HETATM   18  O4  UNL     1      53.273   7.061   0.844  1.00  0.00    -0.288 OA
ATOM     19  H4  UNL     1      53.534   6.179   1.084  1.00  0.00     0.244 HD
ENDBRANCH  13  18
ENDBRANCH  10  12
ENDBRANCH   1   9
BRANCH   4  20
HETATM   20  C9  UNL     1      58.594  10.170   5.311  1.00  0.00     0.004 A 
HETATM   21  C10 UNL     1      59.700   9.900   4.529  1.00  0.00     0.015 A 
HETATM   22  C11 UNL     1      60.869  10.616   4.726  1.00  0.00     0.043 A 
HETATM   23  C12 UNL     1      60.946  11.596   5.694  1.00  0.00     0.116 A 
HETATM   24  F1  UNL     1      62.096  12.316   5.905  1.00  0.00    -0.206 F 
HETATM   25  C13 UNL     1      59.809  11.839   6.461  1.00  0.00     0.043 A 
HETATM   26  C14 UNL     1      58.633  11.144   6.288  1.00  0.00     0.015 A 
ENDBRANCH   4  20
TORSDOF 6
ENDMDL
MODEL 3
REMARK VINA RESULT: -7.954955234      2.080      3.021
REMARK  6 active torsions:
REMARK  status: ('A' for Active; 'I' for Inactive)
REMARK    1  A    between atoms: C2_2  and  S1_3 
REMARK    2  A    between atoms: S1_3  and  C3_4 
REMARK    3  A    between atoms: C3_4  and  N1_5 
REMARK    4  A    between atoms: C4_7  and  C5_8 
REMARK    5  A    between atoms: C7_11  and  C9_13 
REMARK    6  A    between atoms: N2_23  and  O4_25 
ROOT
HETATM    1  C5  UNL     1      56.027   9.264   2.911  1.00  0.00     0.180 C 
HETATM    2  C6  UNL     1      56.227   9.566   1.436  1.00  0.00     0.063 C 
HETATM    3  O1  UNL     1      56.980   9.949   3.660  1.00  0.00    -0.324 OA
HETATM    4  C7  UNL     1      57.913   9.047   4.107  1.00  0.00     0.200 C 
HETATM    5  C8  UNL     1      58.008   9.026   5.634  1.00  0.00     0.085 C 
HETATM    6  O2  UNL     1      57.575   7.760   3.632  1.00  0.00    -0.276 OA
HETATM    7  C15 UNL     1      56.278   7.834   3.166  1.00  0.00     0.302 C 
HETATM    8  O3  UNL     1      55.444   6.919   2.979  1.00  0.00    -0.261 OA
ENDROOT
BRANCH   1   9
HETATM    9  C4  UNL     1      54.696   9.722   3.346  1.00  0.00     0.111 C 
HETATM   10  N1  UNL     1      54.186   9.242   4.408  1.00  0.00    -0.346 N 
ATOM     11  H1  UNL     1      54.698   8.547   4.952  1.00  0.00     0.167 HD
BRANCH  10  12
HETATM   12  C3  UNL     1      52.919   9.669   4.832  1.00  0.00     0.163 C 
HETATM   13  N2  UNL     1      52.751  10.273   5.974  1.00  0.00    -0.247 N 
ATOM     14  H2  UNL     1      51.818  10.571   6.258  1.00  0.00     0.196 HD
BRANCH  12  15
HETATM   15  S1  UNL     1      51.498   9.383   3.797  1.00  0.00    -0.093 SA
BRANCH  15  16
HETATM   16  C2  UNL     1      51.539   7.682   3.116  1.00  0.00     0.078 C 
HETATM   17  C1  UNL     1      52.163   7.805   1.735  1.00  0.00     0.016 C 
ENDBRANCH  15  16
ENDBRANCH  12  15
BRANCH  13  18
HETATM   18  O4  UNL     1      53.835  10.512   6.805  1.00  0.00    -0.288 OA
ATOM     19  H4  UNL     1      53.876  11.308   7.322  1.00  0.00     0.244 HD
ENDBRANCH  13  18
ENDBRANCH  10  12
ENDBRANCH   1   9
BRANCH   4  20
HETATM   20  C9  UNL     1      59.251   9.482   3.627  1.00  0.00     0.004 A 
HETATM   21  C10 UNL     1      60.107  10.102   4.518  1.00  0.00     0.015 A 
HETATM   22  C11 UNL     1      61.358  10.514   4.091  1.00  0.00     0.043 A 
HETATM   23  C12 UNL     1      61.764  10.317   2.788  1.00  0.00     0.116 A 
HETATM   24  F1  UNL     1      63.000  10.720   2.346  1.00  0.00    -0.206 F 
HETATM   25  C13 UNL     1      60.874   9.689   1.921  1.00  0.00     0.043 A 
HETATM   26  C14 UNL     1      59.624   9.267   2.316  1.00  0.00     0.015 A 
ENDBRANCH   4  20
TORSDOF 6
ENDMDL
MODEL 4
REMARK VINA RESULT: -7.846845137      1.730      2.427
REMARK  6 active torsions:
REMARK  status: ('A' for Active; 'I' for Inactive)
REMARK    1  A    between atoms: C2_2  and  S1_3 
REMARK    2  A    between atoms: S1_3  and  C3_4 
REMARK    3  A    between atoms: C3_4  and  N1_5 
REMARK    4  A    between atoms: C4_7  and  C5_8 
REMARK    5  A    between atoms: C7_11  and  C9_13 
REMARK    6  A    between atoms: N2_23  and  O4_25 
ROOT
HETATM    1  C5  UNL     1      56.503   9.447   3.405  1.00  0.00     0.180 C 
HETATM    2  C6  UNL     1      57.157   9.764   2.072  1.00  0.00     0.063 C 
HETATM    3  O1  UNL     1      56.972  10.327   4.376  1.00  0.00    -0.324 OA
HETATM    4  C7  UNL     1      57.837   9.649   5.198  1.00  0.00     0.200 C 
HETATM    5  C8  UNL     1      57.380   9.669   6.657  1.00  0.00     0.085 C 
HETATM    6  O2  UNL     1      57.947   8.313   4.750  1.00  0.00    -0.276 OA
HETATM    7  C15 UNL     1      56.915   8.106   3.857  1.00  0.00     0.302 C 
HETATM    8  O3  UNL     1      56.398   7.033   3.472  1.00  0.00    -0.261 OA
ENDROOT
BRANCH   1   9
HETATM    9  C4  UNL     1      55.043   9.619   3.306  1.00  0.00     0.111 C 
HETATM   10  N1  UNL     1      54.289   9.067   4.170  1.00  0.00    -0.346 N 
ATOM     11  H1  UNL     1      54.695   8.511   4.922  1.00  0.00     0.167 HD
BRANCH  10  12
HETATM   12  C3  UNL     1      52.898   9.222   4.086  1.00  0.00     0.163 C 
HETATM   13  N2  UNL     1      52.231   9.880   4.991  1.00  0.00    -0.247 N 
ATOM     14  H2  UNL     1      51.219   9.976   4.906  1.00  0.00     0.196 HD
BRANCH  12  15
HETATM   15  S1  UNL     1      52.008   8.506   2.719  1.00  0.00    -0.093 SA
BRANCH  15  16
HETATM   16  C2  UNL     1      50.577   7.537   3.328  1.00  0.00     0.078 C 
HETATM   17  C1  UNL     1      49.377   8.466   3.228  1.00  0.00     0.016 C 
ENDBRANCH  15  16
ENDBRANCH  12  15
BRANCH  13  18
HETATM   18  O4  UNL     1      52.890  10.451   6.070  1.00  0.00    -0.288 OA
ATOM     19  H4  UNL     1      52.460  10.516   6.914  1.00  0.00     0.244 HD
ENDBRANCH  13  18
ENDBRANCH  10  12
ENDBRANCH   1   9
BRANCH   4  20
HETATM   20  C9  UNL     1      59.148  10.351   5.177  1.00  0.00     0.004 A 
HETATM   21  C10 UNL     1      60.086   9.977   4.234  1.00  0.00     0.015 A 
HETATM   22  C11 UNL     1      61.313  10.619   4.198  1.00  0.00     0.043 A 
HETATM   23  C12 UNL     1      61.613  11.627   5.090  1.00  0.00     0.116 A 
HETATM   24  F1  UNL     1      62.824  12.274   5.070  1.00  0.00    -0.206 F 
HETATM   25  C13 UNL     1      60.642  11.975   6.025  1.00  0.00     0.043 A 
HETATM   26  C14 UNL     1      59.413  11.356   6.086  1.00  0.00     0.015 A 
ENDBRANCH   4  20
TORSDOF 6
ENDMDL
MODEL 5
REMARK VINA RESULT: -7.820458073      2.080      2.899
REMARK  6 active torsions:
REMARK  status: ('A' for Active; 'I' for Inactive)
REMARK    1  A    between atoms: C2_2  and  S1_3 
REMARK    2  A    between atoms: S1_3  and  C3_4 
REMARK    3  A    between atoms: C3_4  and  N1_5 
REMARK    4  A    between atoms: C4_7  and  C5_8 
REMARK    5  A    between atoms: C7_11  and  C9_13 
REMARK    6  A    between atoms: N2_23  and  O4_25 
ROOT
HETATM    1  C5  UNL     1      56.035   9.176   2.831  1.00  0.00     0.180 C 
HETATM    2  C6  UNL     1      56.255   9.466   1.356  1.00  0.00     0.063 C 
HETATM    3  O1  UNL     1      56.961   9.887   3.589  1.00  0.00    -0.324 OA
HETATM    4  C7  UNL     1      57.903   9.009   4.062  1.00  0.00     0.200 C 
HETATM    5  C8  UNL     1      57.971   9.006   5.590  1.00  0.00     0.085 C 
HETATM    6  O2  UNL     1      57.598   7.711   3.595  1.00  0.00    -0.276 OA
HETATM    7  C15 UNL     1      56.308   7.754   3.106  1.00  0.00     0.302 C 
HETATM    8  O3  UNL     1      55.497   6.821   2.913  1.00  0.00    -0.261 OA
ENDROOT
BRANCH   1   9
HETATM    9  C4  UNL     1      54.687   9.613   3.236  1.00  0.00     0.111 C 
HETATM   10  N1  UNL     1      54.198   9.192   4.333  1.00  0.00    -0.346 N 
ATOM     11  H1  UNL     1      54.738   8.558   4.923  1.00  0.00     0.167 HD
BRANCH  10  12
HETATM   12  C3  UNL     1      52.916   9.599   4.731  1.00  0.00     0.163 C 
HETATM   13  N2  UNL     1      52.720  10.230   5.853  1.00  0.00    -0.247 N 
ATOM     14  H2  UNL     1      51.777  10.513   6.118  1.00  0.00     0.196 HD
BRANCH  12  15
HETATM   15  S1  UNL     1      51.515   9.247   3.688  1.00  0.00    -0.093 SA
BRANCH  15  16
HETATM   16  C2  UNL     1      49.953   9.582   4.588  1.00  0.00     0.078 C 
HETATM   17  C1  UNL     1      48.877   8.800   3.853  1.00  0.00     0.016 C 
ENDBRANCH  15  16
ENDBRANCH  12  15
BRANCH  13  18
HETATM   18  O4  UNL     1      53.788  10.520   6.689  1.00  0.00    -0.288 OA
ATOM     19  H4  UNL     1      54.139  11.402   6.729  1.00  0.00     0.244 HD
ENDBRANCH  13  18
ENDBRANCH  10  12
ENDBRANCH   1   9
BRANCH   4  20
HETATM   20  C9  UNL     1      59.241   9.466   3.601  1.00  0.00     0.004 A 
HETATM   21  C10 UNL     1      60.084  10.074   4.510  1.00  0.00     0.015 A 
HETATM   22  C11 UNL     1      61.334  10.506   4.101  1.00  0.00     0.043 A 
HETATM   23  C12 UNL     1      61.752  10.339   2.797  1.00  0.00     0.116 A 
HETATM   24  F1  UNL     1      62.987  10.762   2.373  1.00  0.00    -0.206 F 
HETATM   25  C13 UNL     1      60.873   9.721   1.911  1.00  0.00     0.043 A 
HETATM   26  C14 UNL     1      59.625   9.281   2.288  1.00  0.00     0.015 A 
ENDBRANCH   4  20
TORSDOF 6
ENDMDL
