MODEL 1
REMARK VINA RESULT: -8.034225926      0.000      0.000
REMARK  4 active torsions:
REMARK  status: ('A' for Active; 'I' for Inactive)
REMARK    1  A    between atoms: C2_2  and  C5_5 
REMARK    2  A    between atoms: C6_10  and  C7_11 
REMARK    3  A    between atoms: N3_14  and  C10_15 
REMARK    4  A    between atoms: C10_15  and  C11_16 
ROOT
HETATM    1  C7  UNL     1      58.491   8.933   2.351  1.00  0.00     0.067 C 
HETATM    2  C8  UNL     1      58.066   9.556   1.081  1.00  0.00     0.043 C 
HETATM    3  C9  UNL     1      56.602   9.419   0.728  1.00  0.00     0.275 C 
HETATM    4  N3  UNL     1      55.776   9.183   1.857  1.00  0.00     0.112 N 
HETATM    5  C14 UNL     1      56.273   9.805   3.073  1.00  0.00     0.319 C 
HETATM    6 CL1  UNL     1      55.058   9.753   4.341  1.00  0.00    -0.092 Cl
HETATM    7  C15 UNL     1      57.469   9.030   3.487  1.00  0.00     0.065 C 
ENDROOT
BRANCH   1   8
HETATM    8  C6  UNL     1      59.716   9.563   2.903  1.00  0.00     0.144 A 
HETATM    9  N2  UNL     1      60.950   9.620   2.461  1.00  0.00    -0.281 N 
HETATM   10  N1  UNL     1      61.692  10.337   3.336  1.00  0.00    -0.281 N 
ATOM     11  H2  UNL     1      61.293   9.193   1.600  1.00  0.00     0.189 HD
HETATM   12  C5  UNL     1      60.869  10.708   4.322  1.00  0.00     0.147 A 
ATOM     13  H1  UNL     1      62.687  10.553   3.258  1.00  0.00     0.189 HD
HETATM   14  O2  UNL     1      59.655  10.232   4.055  1.00  0.00    -0.281 OA
BRANCH  12  15
HETATM   15  C2  UNL     1      61.099  11.509   5.550  1.00  0.00     0.016 C 
HETATM   16  C1  UNL     1      59.901  11.356   6.447  1.00  0.00     0.023 C 
HETATM   17  C3  UNL     1      61.130  12.974   5.085  1.00  0.00     0.023 C 
HETATM   18  C4  UNL     1      62.392  11.133   6.207  1.00  0.00     0.023 C 
ENDBRANCH  12  15
ENDBRANCH   1   8
BRANCH   4  19
HETATM   19  C10 UNL     1      55.303   7.862   2.061  1.00  0.00     0.331 C 
BRANCH  19  20
HETATM   20  C11 UNL     1      55.604   6.956   0.882  1.00  0.00     0.047 A 
HETATM   21  C12 UNL     1      56.611   6.032   0.963  1.00  0.00     0.082 A 
HETATM   22  S1  UNL     1      56.576   5.348  -0.604  1.00  0.00    -0.039 SA
HETATM   23  C13 UNL     1      55.294   6.269  -1.255  1.00  0.00     0.288 A 
HETATM   24  O1  UNL     1      54.771   6.229  -2.420  1.00  0.00    -0.260 OA
HETATM   25  N4  UNL     1      54.952   7.057  -0.245  1.00  0.00    -0.319 N 
ATOM     26  H4  UNL     1      54.192   7.729  -0.346  1.00  0.00     0.169 HD
ENDBRANCH  19  20
ENDBRANCH   4  19
TORSDOF 4
ENDMDL
MODEL 2
REMARK VINA RESULT: -7.642376525      3.907      4.878
REMARK  4 active torsions:
REMARK  status: ('A' for Active; 'I' for Inactive)
REMARK    1  A    between atoms: C2_2  and  C5_5 
REMARK    2  A    between atoms: C6_10  and  C7_11 
REMARK    3  A    between atoms: N3_14  and  C10_15 
REMARK    4  A    between atoms: C10_15  and  C11_16 
ROOT
HETATM    1  C7  UNL     1      56.110   9.677   6.294  1.00  0.00     0.067 C 
HETATM    2  C8  UNL     1      57.016  10.309   5.313  1.00  0.00     0.043 C 
HETATM    3  C9  UNL     1      56.940   9.781   3.899  1.00  0.00     0.275 C 
HETATM    4  N3  UNL     1      55.704   9.150   3.604  1.00  0.00     0.112 N 
HETATM    5  C14 UNL     1      54.581   9.721   4.328  1.00  0.00     0.319 C 
HETATM    6 CL1  UNL     1      53.058   9.125   3.687  1.00  0.00    -0.092 Cl
HETATM    7  C15 UNL     1      54.731   9.299   5.744  1.00  0.00     0.065 C 
ENDROOT
BRANCH   1   8
HETATM    8  C6  UNL     1      55.816  10.569   7.443  1.00  0.00     0.144 A 
HETATM    9  N2  UNL     1      54.771  11.307   7.737  1.00  0.00    -0.281 N 
HETATM   10  N1  UNL     1      54.995  11.924   8.920  1.00  0.00    -0.281 N 
ATOM     11  H2  UNL     1      53.930  11.401   7.167  1.00  0.00     0.189 HD
HETATM   12  C5  UNL     1      56.208  11.539   9.330  1.00  0.00     0.147 A 
ATOM     13  H1  UNL     1      54.361  12.559   9.406  1.00  0.00     0.189 HD
HETATM   14  O2  UNL     1      56.712  10.707   8.421  1.00  0.00    -0.281 OA
BRANCH  12  15
HETATM   15  C2  UNL     1      56.991  11.872  10.545  1.00  0.00     0.016 C 
HETATM   16  C1  UNL     1      56.827  10.752  11.537  1.00  0.00     0.023 C 
HETATM   17  C3  UNL     1      56.309  13.111  11.146  1.00  0.00     0.023 C 
HETATM   18  C4  UNL     1      58.421  12.166  10.205  1.00  0.00     0.023 C 
ENDBRANCH  12  15
ENDBRANCH   1   8
BRANCH   4  19
HETATM   19  C10 UNL     1      55.680   7.733   3.568  1.00  0.00     0.331 C 
BRANCH  19  20
HETATM   20  C11 UNL     1      55.829   7.193   2.158  1.00  0.00     0.047 A 
HETATM   21  C12 UNL     1      55.371   7.918   1.090  1.00  0.00     0.082 A 
HETATM   22  S1  UNL     1      55.711   6.865  -0.213  1.00  0.00    -0.039 SA
HETATM   23  C13 UNL     1      56.409   5.583   0.673  1.00  0.00     0.288 A 
HETATM   24  O1  UNL     1      56.883   4.470   0.261  1.00  0.00    -0.260 OA
HETATM   25  N4  UNL     1      56.351   6.019   1.924  1.00  0.00    -0.319 N 
ATOM     26  H4  UNL     1      56.708   5.448   2.689  1.00  0.00     0.169 HD
ENDBRANCH  19  20
ENDBRANCH   4  19
TORSDOF 4
ENDMDL
MODEL 3
REMARK VINA RESULT: -7.601808098      3.648      7.666
REMARK  4 active torsions:
REMARK  status: ('A' for Active; 'I' for Inactive)
REMARK    1  A    between atoms: C2_2  and  C5_5 
REMARK    2  A    between atoms: C6_10  and  C7_11 
REMARK    3  A    between atoms: N3_14  and  C10_15 
REMARK    4  A    between atoms: C10_15  and  C11_16 
ROOT
HETATM    1  C7  UNL     1      55.632   8.100   2.930  1.00  0.00     0.067 C 
HETATM    2  C8  UNL     1      55.877   8.784   4.216  1.00  0.00     0.043 C 
HETATM    3  C9  UNL     1      57.212   9.480   4.357  1.00  0.00     0.275 C 
HETATM    4  N3  UNL     1      57.802   9.813   3.111  1.00  0.00     0.112 N 
HETATM    5  C14 UNL     1      56.827  10.110   2.074  1.00  0.00     0.319 C 
HETATM    6 CL1  UNL     1      57.607  10.821   0.670  1.00  0.00    -0.092 Cl
HETATM    7  C15 UNL     1      56.198   8.818   1.702  1.00  0.00     0.065 C 
ENDROOT
BRANCH   1   8
HETATM    8  C6  UNL     1      54.184   7.956   2.637  1.00  0.00     0.144 A 
HETATM    9  N2  UNL     1      53.542   7.436   1.617  1.00  0.00    -0.281 N 
HETATM   10  N1  UNL     1      52.212   7.536   1.846  1.00  0.00    -0.281 N 
ATOM     11  H2  UNL     1      53.974   7.025   0.790  1.00  0.00     0.189 HD
HETATM   12  C5  UNL     1      52.071   8.137   3.032  1.00  0.00     0.147 A 
ATOM     13  H1  UNL     1      51.462   7.216   1.232  1.00  0.00     0.189 HD
HETATM   14  O2  UNL     1      53.283   8.394   3.517  1.00  0.00    -0.281 OA
BRANCH  12  15
HETATM   15  C2  UNL     1      50.865   8.510   3.812  1.00  0.00     0.016 C 
HETATM   16  C1  UNL     1      50.979   9.961   4.195  1.00  0.00     0.023 C 
HETATM   17  C3  UNL     1      50.946   7.692   5.111  1.00  0.00     0.023 C 
HETATM   18  C4  UNL     1      49.611   8.186   3.057  1.00  0.00     0.023 C 
ENDBRANCH  12  15
ENDBRANCH   1   8
BRANCH   4  19
HETATM   19  C10 UNL     1      58.872   9.004   2.652  1.00  0.00     0.331 C 
BRANCH  19  20
HETATM   20  C11 UNL     1      60.219   9.681   2.827  1.00  0.00     0.047 A 
HETATM   21  C12 UNL     1      61.168   9.590   1.844  1.00  0.00     0.082 A 
HETATM   22  S1  UNL     1      62.474  10.439   2.548  1.00  0.00    -0.039 SA
HETATM   23  C13 UNL     1      61.737  10.854   4.031  1.00  0.00     0.288 A 
HETATM   24  O1  UNL     1      62.208  11.512   5.020  1.00  0.00    -0.260 OA
HETATM   25  N4  UNL     1      60.527  10.325   3.920  1.00  0.00    -0.319 N 
ATOM     26  H4  UNL     1      59.848  10.420   4.675  1.00  0.00     0.169 HD
ENDBRANCH  19  20
ENDBRANCH   4  19
TORSDOF 4
ENDMDL
MODEL 4
REMARK VINA RESULT: -7.551157504      3.301      4.044
REMARK  4 active torsions:
REMARK  status: ('A' for Active; 'I' for Inactive)
REMARK    1  A    between atoms: C2_2  and  C5_5 
REMARK    2  A    between atoms: C6_10  and  C7_11 
REMARK    3  A    between atoms: N3_14  and  C10_15 
REMARK    4  A    between atoms: C10_15  and  C11_16 
ROOT
HETATM    1  C7  UNL     1      57.435   9.622   3.492  1.00  0.00     0.067 C 
HETATM    2  C8  UNL     1      56.883   9.375   4.839  1.00  0.00     0.043 C 
HETATM    3  C9  UNL     1      55.574   8.620   4.896  1.00  0.00     0.275 C 
HETATM    4  N3  UNL     1      55.335   7.831   3.741  1.00  0.00     0.112 N 
HETATM    5  C14 UNL     1      56.552   7.321   3.132  1.00  0.00     0.319 C 
HETATM    6 CL1  UNL     1      56.179   6.105   1.920  1.00  0.00    -0.092 Cl
HETATM    7  C15 UNL     1      57.224   8.481   2.493  1.00  0.00     0.065 C 
ENDROOT
BRANCH   1   8
HETATM    8  C6  UNL     1      58.906   9.822   3.515  1.00  0.00     0.144 A 
HETATM    9  N2  UNL     1      59.865   9.374   2.741  1.00  0.00    -0.281 N 
HETATM   10  N1  UNL     1      61.045   9.869   3.182  1.00  0.00    -0.281 N 
ATOM     11  H2  UNL     1      59.743   8.754   1.941  1.00  0.00     0.189 HD
HETATM   12  C5  UNL     1      60.768  10.627   4.248  1.00  0.00     0.147 A 
ATOM     13  H1  UNL     1      61.967   9.698   2.779  1.00  0.00     0.189 HD
HETATM   14  O2  UNL     1      59.453  10.597   4.452  1.00  0.00    -0.281 OA
BRANCH  12  15
HETATM   15  C2  UNL     1      61.640  11.428   5.143  1.00  0.00     0.016 C 
HETATM   16  C1  UNL     1      62.371  10.485   6.060  1.00  0.00     0.023 C 
HETATM   17  C3  UNL     1      60.683  12.257   6.015  1.00  0.00     0.023 C 
HETATM   18  C4  UNL     1      62.549  12.322   4.355  1.00  0.00     0.023 C 
ENDBRANCH  12  15
ENDBRANCH   1   8
BRANCH   4  19
HETATM   19  C10 UNL     1      54.400   8.319   2.793  1.00  0.00     0.331 C 
BRANCH  19  20
HETATM   20  C11 UNL     1      53.057   8.635   3.423  1.00  0.00     0.047 A 
HETATM   21  C12 UNL     1      52.180   7.625   3.717  1.00  0.00     0.082 A 
HETATM   22  S1  UNL     1      50.841   8.499   4.323  1.00  0.00    -0.039 SA
HETATM   23  C13 UNL     1      51.475  10.076   4.168  1.00  0.00     0.288 A 
HETATM   24  O1  UNL     1      50.946  11.201   4.462  1.00  0.00    -0.260 OA
HETATM   25  N4  UNL     1      52.681   9.862   3.661  1.00  0.00    -0.319 N 
ATOM     26  H4  UNL     1      53.305  10.644   3.460  1.00  0.00     0.169 HD
ENDBRANCH  19  20
ENDBRANCH   4  19
TORSDOF 4
ENDMDL
MODEL 5
REMARK VINA RESULT: -7.505664897      2.773      3.149
REMARK  4 active torsions:
REMARK  status: ('A' for Active; 'I' for Inactive)
REMARK    1  A    between atoms: C2_2  and  C5_5 
REMARK    2  A    between atoms: C6_10  and  C7_11 
REMARK    3  A    between atoms: N3_14  and  C10_15 
REMARK    4  A    between atoms: C10_15  and  C11_16 
ROOT
HETATM    1  C7  UNL     1      58.164   8.828   2.901  1.00  0.00     0.067 C 
HETATM    2  C8  UNL     1      57.570   9.372   1.663  1.00  0.00     0.043 C 
HETATM    3  C9  UNL     1      56.074   9.212   1.515  1.00  0.00     0.275 C 
HETATM    4  N3  UNL     1      55.405   9.043   2.755  1.00  0.00     0.112 N 
HETATM    5  C14 UNL     1      56.052   9.738   3.855  1.00  0.00     0.319 C 
HETATM    6 CL1  UNL     1      55.015   9.761   5.273  1.00  0.00    -0.092 Cl
HETATM    7  C15 UNL     1      57.299   8.991   4.154  1.00  0.00     0.065 C 
ENDROOT
BRANCH   1   8
HETATM    8  C6  UNL     1      59.445   9.491   3.248  1.00  0.00     0.144 A 
HETATM    9  N2  UNL     1      60.602   9.544   2.632  1.00  0.00    -0.281 N 
HETATM   10  N1  UNL     1      61.450  10.303   3.364  1.00  0.00    -0.281 N 
ATOM     11  H2  UNL     1      60.826   9.088   1.747  1.00  0.00     0.189 HD
HETATM   12  C5  UNL     1      60.770  10.703   4.444  1.00  0.00     0.147 A 
ATOM     13  H1  UNL     1      62.419  10.526   3.137  1.00  0.00     0.189 HD
HETATM   14  O2  UNL     1      59.539  10.204   4.372  1.00  0.00    -0.281 OA
BRANCH  12  15
HETATM   15  C2  UNL     1      61.160  11.554   5.596  1.00  0.00     0.016 C 
HETATM   16  C1  UNL     1      60.029  11.556   6.588  1.00  0.00     0.023 C 
HETATM   17  C3  UNL     1      61.271  12.980   5.034  1.00  0.00     0.023 C 
HETATM   18  C4  UNL     1      62.467  11.110   6.178  1.00  0.00     0.023 C 
ENDBRANCH  12  15
ENDBRANCH   1   8
BRANCH   4  19
HETATM   19  C10 UNL     1      54.975   7.737   3.098  1.00  0.00     0.331 C 
BRANCH  19  20
HETATM   20  C11 UNL     1      53.463   7.630   3.169  1.00  0.00     0.047 A 
HETATM   21  C12 UNL     1      52.691   8.102   2.141  1.00  0.00     0.082 A 
HETATM   22  S1  UNL     1      51.114   7.811   2.734  1.00  0.00    -0.039 SA
HETATM   23  C13 UNL     1      51.533   7.113   4.235  1.00  0.00     0.288 A 
HETATM   24  O1  UNL     1      50.779   6.669   5.166  1.00  0.00    -0.260 OA
HETATM   25  N4  UNL     1      52.858   7.134   4.214  1.00  0.00    -0.319 N 
ATOM     26  H4  UNL     1      53.395   6.769   5.000  1.00  0.00     0.169 HD
ENDBRANCH  19  20
ENDBRANCH   4  19
TORSDOF 4
ENDMDL
