MODEL 1
REMARK VINA RESULT: -7.419187331      0.000      0.000
REMARK  5 active torsions:
REMARK  status: ('A' for Active; 'I' for Inactive)
REMARK    1  A    between atoms: C3_5  and  S1_6 
REMARK    2  A    between atoms: S1_6  and  C4_7 
REMARK    3  A    between atoms: C4_7  and  C6_9 
REMARK    4  A    between atoms: C6_9  and  N4_14 
REMARK    5  A    between atoms: N4_14  and  C8_16 
ROOT
HETATM    1  C6  UNL     1      55.211   9.388   4.081  1.00  0.00     0.106 C 
HETATM    2  N2  UNL     1      54.424   9.046   5.030  1.00  0.00    -0.282 N 
ATOM      3  H2  UNL     1      54.771   9.160   5.982  1.00  0.00     0.179 HD
HETATM    4  C7  UNL     1      53.145   8.535   4.882  1.00  0.00     0.183 C 
HETATM    5  N3  UNL     1      52.070   8.120   4.777  1.00  0.00    -0.172 NA
ENDROOT
BRANCH   1   6
HETATM    6  C4  UNL     1      56.543   9.915   4.431  1.00  0.00     0.118 C 
HETATM    7  C5  UNL     1      56.492  10.814   5.663  1.00  0.00     0.030 C 
BRANCH   6   8
HETATM    8  S1  UNL     1      57.868   8.731   4.468  1.00  0.00    -0.093 SA
BRANCH   8   9
HETATM    9  C3  UNL     1      59.445   9.505   4.062  1.00  0.00     0.113 A 
HETATM   10  N1  UNL     1      60.204  10.269   4.831  1.00  0.00    -0.348 N 
HETATM   11  C2  UNL     1      61.312  10.742   4.375  1.00  0.00     0.019 A 
ATOM     12  H1  UNL     1      59.911  10.483   5.785  1.00  0.00     0.167 HD
HETATM   13  C1  UNL     1      62.235  11.624   5.198  1.00  0.00     0.069 C 
HETATM   14  C11 UNL     1      61.665  10.427   3.087  1.00  0.00     0.003 A 
HETATM   15  S3  UNL     1      60.343   9.447   2.607  1.00  0.00    -0.068 SA
HETATM   16  C12 UNL     1      62.889  10.843   2.316  1.00  0.00     0.058 C 
ENDBRANCH   8   9
ENDBRANCH   6   8
ENDBRANCH   1   6
BRANCH   1  17
HETATM   17  N4  UNL     1      54.796   9.260   2.750  1.00  0.00    -0.325 N 
ATOM     18  H4  UNL     1      54.069   9.894   2.415  1.00  0.00     0.169 HD
BRANCH  17  19
HETATM   19  C8  UNL     1      55.278   8.380   1.900  1.00  0.00     0.151 A 
HETATM   20  N5  UNL     1      55.515   8.574   0.601  1.00  0.00    -0.344 N 
HETATM   21  C9  UNL     1      55.997   7.587  -0.096  1.00  0.00     0.121 A 
ATOM     22  H5  UNL     1      55.322   9.476   0.164  1.00  0.00     0.167 HD
HETATM   23  C10 UNL     1      56.237   6.402   0.544  1.00  0.00     0.093 A 
HETATM   24 CL1  UNL     1      56.887   4.914  -0.168  1.00  0.00    -0.075 Cl
HETATM   25  S2  UNL     1      55.753   6.761   2.138  1.00  0.00    -0.040 SA
ENDBRANCH  17  19
ENDBRANCH   1  17
TORSDOF 5
ENDMDL
MODEL 2
REMARK VINA RESULT: -7.392472670      1.777      2.872
REMARK  5 active torsions:
REMARK  status: ('A' for Active; 'I' for Inactive)
REMARK    1  A    between atoms: C3_5  and  S1_6 
REMARK    2  A    between atoms: S1_6  and  C4_7 
REMARK    3  A    between atoms: C4_7  and  C6_9 
REMARK    4  A    between atoms: C6_9  and  N4_14 
REMARK    5  A    between atoms: N4_14  and  C8_16 
ROOT
HETATM    1  C6  UNL     1      55.513   9.770   3.017  1.00  0.00     0.106 C 
HETATM    2  N2  UNL     1      56.430  10.520   2.536  1.00  0.00    -0.282 N 
ATOM      3  H2  UNL     1      56.943  11.105   3.196  1.00  0.00     0.179 HD
HETATM    4  C7  UNL     1      56.790  10.611   1.202  1.00  0.00     0.183 C 
HETATM    5  N3  UNL     1      57.113  10.689   0.093  1.00  0.00    -0.172 NA
ENDROOT
BRANCH   1   6
HETATM    6  C4  UNL     1      55.269   9.806   4.472  1.00  0.00     0.118 C 
HETATM    7  C5  UNL     1      53.833   9.425   4.817  1.00  0.00     0.030 C 
BRANCH   6   8
HETATM    8  S1  UNL     1      56.484   8.999   5.488  1.00  0.00    -0.093 SA
BRANCH   8   9
HETATM    9  C3  UNL     1      58.090   9.807   5.351  1.00  0.00     0.113 A 
HETATM   10  N1  UNL     1      59.049   9.578   4.469  1.00  0.00    -0.348 N 
HETATM   11  C2  UNL     1      60.143  10.257   4.517  1.00  0.00     0.019 A 
ATOM     12  H1  UNL     1      58.922   8.866   3.750  1.00  0.00     0.167 HD
HETATM   13  C1  UNL     1      61.287  10.051   3.539  1.00  0.00     0.069 C 
HETATM   14  C11 UNL     1      60.269  11.205   5.500  1.00  0.00     0.003 A 
HETATM   15  S3  UNL     1      58.766  11.053   6.310  1.00  0.00    -0.068 SA
HETATM   16  C12 UNL     1      61.427  12.125   5.780  1.00  0.00     0.058 C 
ENDBRANCH   8   9
ENDBRANCH   6   8
ENDBRANCH   1   6
BRANCH   1  17
HETATM   17  N4  UNL     1      54.772   8.939   2.167  1.00  0.00    -0.325 N 
ATOM     18  H4  UNL     1      53.773   9.121   2.076  1.00  0.00     0.169 HD
BRANCH  17  19
HETATM   19  C8  UNL     1      55.278   7.940   1.477  1.00  0.00     0.151 A 
HETATM   20  N5  UNL     1      55.197   7.764   0.156  1.00  0.00    -0.344 N 
HETATM   21  C9  UNL     1      55.759   6.712  -0.364  1.00  0.00     0.121 A 
ATOM     22  H5  UNL     1      54.707   8.438  -0.432  1.00  0.00     0.167 HD
HETATM   23  C10 UNL     1      56.402   5.843   0.474  1.00  0.00     0.093 A 
HETATM   24 CL1  UNL     1      57.242   4.347   0.025  1.00  0.00    -0.075 Cl
HETATM   25  S2  UNL     1      56.171   6.583   1.992  1.00  0.00    -0.040 SA
ENDBRANCH  17  19
ENDBRANCH   1  17
TORSDOF 5
ENDMDL
MODEL 3
REMARK VINA RESULT: -7.308007973      2.889      4.116
REMARK  5 active torsions:
REMARK  status: ('A' for Active; 'I' for Inactive)
REMARK    1  A    between atoms: C3_5  and  S1_6 
REMARK    2  A    between atoms: S1_6  and  C4_7 
REMARK    3  A    between atoms: C4_7  and  C6_9 
REMARK    4  A    between atoms: C6_9  and  N4_14 
REMARK    5  A    between atoms: N4_14  and  C8_16 
ROOT
HETATM    1  C6  UNL     1      55.766   8.531   1.088  1.00  0.00     0.106 C 
HETATM    2  N2  UNL     1      54.699   8.587   0.384  1.00  0.00    -0.282 N 
ATOM      3  H2  UNL     1      54.753   9.095  -0.499  1.00  0.00     0.179 HD
HETATM    4  C7  UNL     1      53.478   8.020   0.711  1.00  0.00     0.183 C 
HETATM    5  N3  UNL     1      52.455   7.542   0.962  1.00  0.00    -0.172 NA
ENDROOT
BRANCH   1   6
HETATM    6  C4  UNL     1      56.978   9.197   0.576  1.00  0.00     0.118 C 
HETATM    7  C5  UNL     1      57.069  10.647   1.041  1.00  0.00     0.030 C 
BRANCH   6   8
HETATM    8  S1  UNL     1      58.499   8.295   0.753  1.00  0.00    -0.093 SA
BRANCH   8   9
HETATM    9  C3  UNL     1      59.645   9.159   1.845  1.00  0.00     0.113 A 
HETATM   10  N1  UNL     1      60.870   9.581   1.578  1.00  0.00    -0.348 N 
HETATM   11  C2  UNL     1      61.555  10.187   2.486  1.00  0.00     0.019 A 
ATOM     12  H1  UNL     1      61.272   9.427   0.653  1.00  0.00     0.167 HD
HETATM   13  C1  UNL     1      62.965  10.701   2.252  1.00  0.00     0.069 C 
HETATM   14  C11 UNL     1      60.973  10.372   3.715  1.00  0.00     0.003 A 
HETATM   15  S3  UNL     1      59.440   9.642   3.474  1.00  0.00    -0.068 SA
HETATM   16  C12 UNL     1      61.544  11.039   4.937  1.00  0.00     0.058 C 
ENDBRANCH   8   9
ENDBRANCH   6   8
ENDBRANCH   1   6
BRANCH   1  17
HETATM   17  N4  UNL     1      55.762   7.845   2.309  1.00  0.00    -0.325 N 
ATOM     18  H4  UNL     1      55.815   6.827   2.282  1.00  0.00     0.169 HD
BRANCH  17  19
HETATM   19  C8  UNL     1      55.695   8.424   3.488  1.00  0.00     0.151 A 
HETATM   20  N5  UNL     1      56.596   8.338   4.469  1.00  0.00    -0.344 N 
HETATM   21  C9  UNL     1      56.368   8.981   5.577  1.00  0.00     0.121 A 
ATOM     22  H5  UNL     1      57.443   7.781   4.353  1.00  0.00     0.167 HD
HETATM   23  C10 UNL     1      55.216   9.711   5.675  1.00  0.00     0.093 A 
HETATM   24 CL1  UNL     1      54.672  10.671   7.063  1.00  0.00    -0.075 Cl
HETATM   25  S2  UNL     1      54.500   9.441   4.152  1.00  0.00    -0.040 SA
ENDBRANCH  17  19
ENDBRANCH   1  17
TORSDOF 5
ENDMDL
MODEL 4
REMARK VINA RESULT: -7.291046333      0.962      1.369
REMARK  5 active torsions:
REMARK  status: ('A' for Active; 'I' for Inactive)
REMARK    1  A    between atoms: C3_5  and  S1_6 
REMARK    2  A    between atoms: S1_6  and  C4_7 
REMARK    3  A    between atoms: C4_7  and  C6_9 
REMARK    4  A    between atoms: C6_9  and  N4_14 
REMARK    5  A    between atoms: N4_14  and  C8_16 
ROOT
HETATM    1  C6  UNL     1      54.842   9.114   4.119  1.00  0.00     0.106 C 
HETATM    2  N2  UNL     1      53.971   8.595   4.899  1.00  0.00    -0.282 N 
ATOM      3  H2  UNL     1      54.180   8.606   5.898  1.00  0.00     0.179 HD
HETATM    4  C7  UNL     1      52.772   8.022   4.512  1.00  0.00     0.183 C 
HETATM    5  N3  UNL     1      51.759   7.551   4.208  1.00  0.00    -0.172 NA
ENDROOT
BRANCH   1   6
HETATM    6  C4  UNL     1      56.067   9.681   4.714  1.00  0.00     0.118 C 
HETATM    7  C5  UNL     1      55.780  10.393   6.033  1.00  0.00     0.030 C 
BRANCH   6   8
HETATM    8  S1  UNL     1      57.477   8.601   4.780  1.00  0.00    -0.093 SA
BRANCH   8   9
HETATM    9  C3  UNL     1      59.013   9.521   4.571  1.00  0.00     0.113 A 
HETATM   10  N1  UNL     1      59.891   9.436   3.585  1.00  0.00    -0.348 N 
HETATM   11  C2  UNL     1      60.945  10.177   3.595  1.00  0.00     0.019 A 
ATOM     12  H1  UNL     1      59.733   8.784   2.816  1.00  0.00     0.167 HD
HETATM   13  C1  UNL     1      61.995  10.135   2.498  1.00  0.00     0.069 C 
HETATM   14  C11 UNL     1      61.115  11.039   4.649  1.00  0.00     0.003 A 
HETATM   15  S3  UNL     1      59.711  10.716   5.578  1.00  0.00    -0.068 SA
HETATM   16  C12 UNL     1      62.242  12.003   4.906  1.00  0.00     0.058 C 
ENDBRANCH   8   9
ENDBRANCH   6   8
ENDBRANCH   1   6
BRANCH   1  17
HETATM   17  N4  UNL     1      54.617   9.135   2.737  1.00  0.00    -0.325 N 
ATOM     18  H4  UNL     1      54.001   9.859   2.367  1.00  0.00     0.169 HD
BRANCH  17  19
HETATM   19  C8  UNL     1      55.145   8.286   1.883  1.00  0.00     0.151 A 
HETATM   20  N5  UNL     1      55.362   8.496   0.582  1.00  0.00    -0.344 N 
HETATM   21  C9  UNL     1      55.897   7.540  -0.119  1.00  0.00     0.121 A 
ATOM     22  H5  UNL     1      55.113   9.385   0.149  1.00  0.00     0.167 HD
HETATM   23  C10 UNL     1      56.210   6.370   0.517  1.00  0.00     0.093 A 
HETATM   24 CL1  UNL     1      56.941   4.924  -0.201  1.00  0.00    -0.075 Cl
HETATM   25  S2  UNL     1      55.715   6.697   2.115  1.00  0.00    -0.040 SA
ENDBRANCH  17  19
ENDBRANCH   1  17
TORSDOF 5
ENDMDL
MODEL 5
REMARK VINA RESULT: -7.259896080      3.057      4.707
REMARK  5 active torsions:
REMARK  status: ('A' for Active; 'I' for Inactive)
REMARK    1  A    between atoms: C3_5  and  S1_6 
REMARK    2  A    between atoms: S1_6  and  C4_7 
REMARK    3  A    between atoms: C4_7  and  C6_9 
REMARK    4  A    between atoms: C6_9  and  N4_14 
REMARK    5  A    between atoms: N4_14  and  C8_16 
ROOT
HETATM    1  C6  UNL     1      54.658   7.590   0.420  1.00  0.00     0.106 C 
HETATM    2  N2  UNL     1      54.776   6.863  -0.626  1.00  0.00    -0.282 N 
ATOM      3  H2  UNL     1      55.661   6.369  -0.749  1.00  0.00     0.179 HD
HETATM    4  C7  UNL     1      53.815   6.686  -1.606  1.00  0.00     0.183 C 
HETATM    5  N3  UNL     1      53.017   6.516  -2.428  1.00  0.00    -0.172 NA
ENDROOT
BRANCH   1   6
HETATM    6  C4  UNL     1      55.794   7.657   1.358  1.00  0.00     0.118 C 
HETATM    7  C5  UNL     1      56.023   6.328   2.070  1.00  0.00     0.030 C 
BRANCH   6   8
HETATM    8  S1  UNL     1      57.285   8.393   0.729  1.00  0.00    -0.093 SA
BRANCH   8   9
HETATM    9  C3  UNL     1      58.300   9.053   2.065  1.00  0.00     0.113 A 
HETATM   10  N1  UNL     1      57.946   9.307   3.314  1.00  0.00    -0.348 N 
HETATM   11  C2  UNL     1      58.809   9.780   4.144  1.00  0.00     0.019 A 
ATOM     12  H1  UNL     1      56.989   9.127   3.619  1.00  0.00     0.167 HD
HETATM   13  C1  UNL     1      58.476  10.096   5.593  1.00  0.00     0.069 C 
HETATM   14  C11 UNL     1      60.084  10.006   3.689  1.00  0.00     0.003 A 
HETATM   15  S3  UNL     1      59.950   9.508   2.054  1.00  0.00    -0.068 SA
HETATM   16  C12 UNL     1      61.271  10.548   4.439  1.00  0.00     0.058 C 
ENDBRANCH   8   9
ENDBRANCH   6   8
ENDBRANCH   1   6
BRANCH   1  17
HETATM   17  N4  UNL     1      53.469   8.292   0.652  1.00  0.00    -0.325 N 
ATOM     18  H4  UNL     1      53.203   9.011  -0.021  1.00  0.00     0.169 HD
BRANCH  17  19
HETATM   19  C8  UNL     1      52.671   8.087   1.677  1.00  0.00     0.151 A 
HETATM   20  N5  UNL     1      51.575   7.325   1.693  1.00  0.00    -0.344 N 
HETATM   21  C9  UNL     1      50.900   7.235   2.801  1.00  0.00     0.121 A 
ATOM     22  H5  UNL     1      51.273   6.827   0.856  1.00  0.00     0.167 HD
HETATM   23  C10 UNL     1      51.353   7.925   3.891  1.00  0.00     0.093 A 
HETATM   24 CL1  UNL     1      50.624   7.971   5.507  1.00  0.00    -0.075 Cl
HETATM   25  S2  UNL     1      52.746   8.685   3.271  1.00  0.00    -0.040 SA
ENDBRANCH  17  19
ENDBRANCH   1  17
TORSDOF 5
ENDMDL
