MODEL 1
REMARK VINA RESULT: -6.608128145      0.000      0.000
REMARK  13 active torsions:
REMARK  status: ('A' for Active; 'I' for Inactive)
REMARK    1  A    between atoms: N1_1  and  C1_4 
REMARK    2  A    between atoms: N3_9  and  C3_10 
REMARK    3  A    between atoms: C4_12  and  C5_13 
REMARK    4  A    between atoms: C5_13  and  O3_14 
REMARK    5  A    between atoms: O3_14  and  S1_15 
REMARK    6  A    between atoms: S1_15  and  N4_16 
REMARK    7  A    between atoms: C6_21  and  O6_22 
REMARK    8  A    between atoms: O6_22  and  C7_23 
REMARK    9  A    between atoms: C7_23  and  C8_24 
REMARK   10  A    between atoms: C8_24  and  N5_25 
REMARK   11  A    between atoms: N5_25  and  C9_27 
REMARK   12  A    between atoms: C10_29  and  O8_30 
REMARK   13  A    between atoms: O8_30  and  S2_31 
ROOT
HETATM    1  C3  UNL     1      -6.014   1.866   2.851  1.00  0.00     0.271 C 
HETATM    2  O2  UNL     1      -6.411   1.506   1.594  1.00  0.00    -0.353 OA
HETATM    3  C4  UNL     1      -7.773   1.353   1.639  1.00  0.00     0.181 C 
HETATM    4  C6  UNL     1      -8.325   2.126   2.799  1.00  0.00     0.187 C 
HETATM    5  C10 UNL     1      -7.091   2.799   3.342  1.00  0.00     0.226 C 
ENDROOT
BRANCH   1   6
HETATM    6  N3  UNL     1      -4.699   2.433   2.923  1.00  0.00    -0.220 N 
HETATM    7  C2  UNL     1      -3.900   2.027   3.921  1.00  0.00     0.347 A 
HETATM    8  N2  UNL     1      -2.658   2.534   4.025  1.00  0.00    -0.141 N 
HETATM    9  O1  UNL     1      -4.299   1.161   4.779  1.00  0.00    -0.246 OA
HETATM   10  C1  UNL     1      -2.163   3.445   3.166  1.00  0.00     0.683 A 
ATOM     11  H2  UNL     1      -2.064   2.214   4.790  1.00  0.00     0.189 HD
HETATM   12  N6  UNL     1      -3.003   3.830   2.171  1.00  0.00    -0.141 N 
HETATM   13  C11 UNL     1      -4.245   3.338   2.048  1.00  0.00     0.347 A 
ATOM     14  H6  UNL     1      -2.678   4.518   1.493  1.00  0.00     0.189 HD
HETATM   15  O12 UNL     1      -4.984   3.735   1.097  1.00  0.00    -0.246 OA
BRANCH  10  16
HETATM   16  N1  UNL     1      -0.971   3.936   3.260  1.00  0.00    -0.234 N 
ATOM     17  H12 UNL     1      -0.551   4.126   4.170  1.00  0.00     0.174 HD
ATOM     18  H11 UNL     1      -0.391   4.159   2.452  1.00  0.00     0.174 HD
ENDBRANCH  10  16
ENDBRANCH   1   6
BRANCH   5  19
HETATM   19  O8  UNL     1      -6.938   4.094   3.045  1.00  0.00    -0.244 OA
BRANCH  19  20
HETATM   20  S2  UNL     1      -6.581   5.179   4.185  1.00  0.00     0.252 S 
HETATM   21  O9  UNL     1      -7.403   6.426   3.949  1.00  0.00    -0.572 OA
HETATM   22  O10 UNL     1      -6.861   4.763   5.596  1.00  0.00    -0.572 OA
HETATM   23  O11 UNL     1      -4.969   5.712   4.154  1.00  0.00    -0.572 OA
ENDBRANCH  19  20
ENDBRANCH   5  19
BRANCH   3  24
HETATM   24  C5  UNL     1      -8.428   1.758   0.313  1.00  0.00     0.226 C 
BRANCH  24  25
HETATM   25  O3  UNL     1      -8.495   3.126   0.237  1.00  0.00    -0.257 OA
BRANCH  25  26
HETATM   26  S1  UNL     1      -7.685   3.714  -1.098  1.00  0.00     0.355 S 
HETATM   27  O4  UNL     1      -6.738   2.655  -1.574  1.00  0.00    -0.176 OA
HETATM   28  O5  UNL     1      -8.721   4.034  -2.149  1.00  0.00    -0.176 OA
BRANCH  26  29
HETATM   29  N4  UNL     1      -6.827   5.162  -0.659  1.00  0.00    -0.306 N 
ATOM     30  H42 UNL     1      -7.005   6.083  -1.058  1.00  0.00     0.171 HD
ATOM     31  H41 UNL     1      -6.129   4.937   0.051  1.00  0.00     0.171 HD
ENDBRANCH  26  29
ENDBRANCH  25  26
ENDBRANCH  24  25
ENDBRANCH   3  24
BRANCH   4  32
HETATM   32  O6  UNL     1      -8.829   1.194   3.728  1.00  0.00    -0.379 OA
BRANCH  32  33
HETATM   33  C7  UNL     1      -8.597   1.616   5.046  1.00  0.00     0.188 C 
BRANCH  33  34
HETATM   34  C8  UNL     1      -8.267   0.383   5.853  1.00  0.00     0.148 C 
BRANCH  34  35
HETATM   35  N5  UNL     1      -6.966  -0.156   5.603  1.00  0.00    -0.366 N 
ATOM     36  H5  UNL     1      -6.152   0.369   5.924  1.00  0.00     0.161 HD
BRANCH  35  37
HETATM   37  C9  UNL     1      -6.753  -1.393   4.924  1.00  0.00     0.348 C 
HETATM   38  O7  UNL     1      -6.776  -1.505   3.690  1.00  0.00    -0.284 OA
ENDBRANCH  35  37
ENDBRANCH  34  35
ENDBRANCH  33  34
ENDBRANCH  32  33
ENDBRANCH   4  32
TORSDOF 13
ENDMDL
MODEL 2
REMARK VINA RESULT: -6.522933483      2.521      6.280
REMARK  13 active torsions:
REMARK  status: ('A' for Active; 'I' for Inactive)
REMARK    1  A    between atoms: N1_1  and  C1_4 
REMARK    2  A    between atoms: N3_9  and  C3_10 
REMARK    3  A    between atoms: C4_12  and  C5_13 
REMARK    4  A    between atoms: C5_13  and  O3_14 
REMARK    5  A    between atoms: O3_14  and  S1_15 
REMARK    6  A    between atoms: S1_15  and  N4_16 
REMARK    7  A    between atoms: C6_21  and  O6_22 
REMARK    8  A    between atoms: O6_22  and  C7_23 
REMARK    9  A    between atoms: C7_23  and  C8_24 
REMARK   10  A    between atoms: C8_24  and  N5_25 
REMARK   11  A    between atoms: N5_25  and  C9_27 
REMARK   12  A    between atoms: C10_29  and  O8_30 
REMARK   13  A    between atoms: O8_30  and  S2_31 
ROOT
HETATM    1  C3  UNL     1      -5.643   2.715   1.358  1.00  0.00     0.271 C 
HETATM    2  O2  UNL     1      -5.434   1.547   2.035  1.00  0.00    -0.353 OA
HETATM    3  C4  UNL     1      -4.568   1.835   3.059  1.00  0.00     0.181 C 
HETATM    4  C6  UNL     1      -4.625   3.301   3.366  1.00  0.00     0.187 C 
HETATM    5  C10 UNL     1      -5.705   3.775   2.428  1.00  0.00     0.226 C 
ENDROOT
BRANCH   1   6
HETATM    6  N3  UNL     1      -6.792   2.711   0.500  1.00  0.00    -0.220 N 
HETATM    7  C2  UNL     1      -6.923   3.725  -0.369  1.00  0.00     0.347 A 
HETATM    8  N2  UNL     1      -7.987   3.759  -1.193  1.00  0.00    -0.141 N 
HETATM    9  O1  UNL     1      -6.052   4.663  -0.429  1.00  0.00    -0.246 OA
HETATM   10  C1  UNL     1      -8.946   2.814  -1.193  1.00  0.00     0.683 A 
ATOM     11  H2  UNL     1      -8.071   4.537  -1.847  1.00  0.00     0.189 HD
HETATM   12  N6  UNL     1      -8.775   1.806  -0.300  1.00  0.00    -0.141 N 
HETATM   13  C11 UNL     1      -7.724   1.752   0.531  1.00  0.00     0.347 A 
ATOM     14  H6  UNL     1      -9.473   1.064  -0.258  1.00  0.00     0.189 HD
HETATM   15  O12 UNL     1      -7.619   0.784   1.345  1.00  0.00    -0.246 OA
BRANCH  10  16
HETATM   16  N1  UNL     1      -9.970   2.841  -1.982  1.00  0.00    -0.234 N 
ATOM     17  H12 UNL     1     -10.199   3.677  -2.518  1.00  0.00     0.174 HD
ATOM     18  H11 UNL     1     -10.597   2.048  -2.113  1.00  0.00     0.174 HD
ENDBRANCH  10  16
ENDBRANCH   1   6
BRANCH   5  19
HETATM   19  O8  UNL     1      -6.906   4.005   2.969  1.00  0.00    -0.244 OA
BRANCH  19  20
HETATM   20  S2  UNL     1      -7.327   5.477   3.481  1.00  0.00     0.252 S 
HETATM   21  O9  UNL     1      -6.898   6.496   2.449  1.00  0.00    -0.572 OA
HETATM   22  O10 UNL     1      -8.791   5.701   3.696  1.00  0.00    -0.572 OA
HETATM   23  O11 UNL     1      -6.553   5.961   4.913  1.00  0.00    -0.572 OA
ENDBRANCH  19  20
ENDBRANCH   5  19
BRANCH   3  24
HETATM   24  C5  UNL     1      -4.857   0.975   4.296  1.00  0.00     0.226 C 
BRANCH  24  25
HETATM   25  O3  UNL     1      -4.313  -0.272   4.120  1.00  0.00    -0.257 OA
BRANCH  25  26
HETATM   26  S1  UNL     1      -5.488  -1.453   4.029  1.00  0.00     0.355 S 
HETATM   27  O4  UNL     1      -5.113  -2.402   2.933  1.00  0.00    -0.176 OA
HETATM   28  O5  UNL     1      -5.530  -2.151   5.368  1.00  0.00    -0.176 OA
BRANCH  26  29
HETATM   29  N4  UNL     1      -7.027  -0.708   3.707  1.00  0.00    -0.306 N 
ATOM     30  H42 UNL     1      -7.325   0.191   4.084  1.00  0.00     0.171 HD
ATOM     31  H41 UNL     1      -7.570  -1.312   3.089  1.00  0.00     0.171 HD
ENDBRANCH  26  29
ENDBRANCH  25  26
ENDBRANCH  24  25
ENDBRANCH   3  24
BRANCH   4  32
HETATM   32  O6  UNL     1      -3.380   3.857   3.008  1.00  0.00    -0.379 OA
BRANCH  32  33
HETATM   33  C7  UNL     1      -2.471   3.794   4.076  1.00  0.00     0.188 C 
BRANCH  33  34
HETATM   34  C8  UNL     1      -1.106   3.543   3.480  1.00  0.00     0.148 C 
BRANCH  34  35
HETATM   35  N5  UNL     1      -0.669   4.547   2.561  1.00  0.00    -0.366 N 
ATOM     36  H5  UNL     1      -1.238   4.731   1.735  1.00  0.00     0.161 HD
BRANCH  35  37
HETATM   37  C9  UNL     1       0.527   5.304   2.746  1.00  0.00     0.348 C 
HETATM   38  O7  UNL     1       0.695   6.437   2.272  1.00  0.00    -0.284 OA
ENDBRANCH  35  37
ENDBRANCH  34  35
ENDBRANCH  33  34
ENDBRANCH  32  33
ENDBRANCH   4  32
TORSDOF 13
ENDMDL
MODEL 3
REMARK VINA RESULT: -6.460438282      2.383      6.123
REMARK  13 active torsions:
REMARK  status: ('A' for Active; 'I' for Inactive)
REMARK    1  A    between atoms: N1_1  and  C1_4 
REMARK    2  A    between atoms: N3_9  and  C3_10 
REMARK    3  A    between atoms: C4_12  and  C5_13 
REMARK    4  A    between atoms: C5_13  and  O3_14 
REMARK    5  A    between atoms: O3_14  and  S1_15 
REMARK    6  A    between atoms: S1_15  and  N4_16 
REMARK    7  A    between atoms: C6_21  and  O6_22 
REMARK    8  A    between atoms: O6_22  and  C7_23 
REMARK    9  A    between atoms: C7_23  and  C8_24 
REMARK   10  A    between atoms: C8_24  and  N5_25 
REMARK   11  A    between atoms: N5_25  and  C9_27 
REMARK   12  A    between atoms: C10_29  and  O8_30 
REMARK   13  A    between atoms: O8_30  and  S2_31 
ROOT
HETATM    1  C3  UNL     1      -6.233   1.975   3.263  1.00  0.00     0.271 C 
HETATM    2  O2  UNL     1      -6.343   3.109   4.018  1.00  0.00    -0.353 OA
HETATM    3  C4  UNL     1      -5.307   3.929   3.652  1.00  0.00     0.181 C 
HETATM    4  C6  UNL     1      -4.827   3.549   2.283  1.00  0.00     0.187 C 
HETATM    5  C10 UNL     1      -5.796   2.460   1.904  1.00  0.00     0.226 C 
ENDROOT
BRANCH   1   6
HETATM    6  N3  UNL     1      -7.416   1.167   3.221  1.00  0.00    -0.220 N 
HETATM    7  C2  UNL     1      -7.259  -0.164   3.157  1.00  0.00     0.347 A 
HETATM    8  N2  UNL     1      -8.345  -0.959   3.116  1.00  0.00    -0.141 N 
HETATM    9  O1  UNL     1      -6.092  -0.693   3.134  1.00  0.00    -0.246 OA
HETATM   10  C1  UNL     1      -9.604  -0.484   3.137  1.00  0.00     0.683 A 
ATOM     11  H2  UNL     1      -8.207  -1.969   3.067  1.00  0.00     0.189 HD
HETATM   12  N6  UNL     1      -9.719   0.868   3.201  1.00  0.00    -0.141 N 
HETATM   13  C11 UNL     1      -8.652   1.679   3.242  1.00  0.00     0.347 A 
ATOM     14  H6  UNL     1     -10.651   1.281   3.219  1.00  0.00     0.189 HD
HETATM   15  O12 UNL     1      -8.823   2.935   3.304  1.00  0.00    -0.246 OA
BRANCH  10  16
HETATM   16  N1  UNL     1     -10.650  -1.242   3.097  1.00  0.00    -0.234 N 
ATOM     17  H12 UNL     1     -10.996  -1.615   2.214  1.00  0.00     0.174 HD
ATOM     18  H11 UNL     1     -11.181  -1.507   3.927  1.00  0.00     0.174 HD
ENDBRANCH  10  16
ENDBRANCH   1   6
BRANCH   5  19
HETATM   19  O8  UNL     1      -6.770   2.798   1.051  1.00  0.00    -0.244 OA
BRANCH  19  20
HETATM   20  S2  UNL     1      -6.988   1.997  -0.333  1.00  0.00     0.252 S 
HETATM   21  O9  UNL     1      -7.657   2.915  -1.331  1.00  0.00    -0.572 OA
HETATM   22  O10 UNL     1      -5.745   1.498  -1.003  1.00  0.00    -0.572 OA
HETATM   23  O11 UNL     1      -8.031   0.663  -0.205  1.00  0.00    -0.572 OA
ENDBRANCH  19  20
ENDBRANCH   5  19
BRANCH   3  24
HETATM   24  C5  UNL     1      -5.705   5.407   3.734  1.00  0.00     0.226 C 
BRANCH  24  25
HETATM   25  O3  UNL     1      -5.678   5.956   2.477  1.00  0.00    -0.257 OA
BRANCH  25  26
HETATM   26  S1  UNL     1      -7.199   6.413   1.966  1.00  0.00     0.355 S 
HETATM   27  O4  UNL     1      -8.161   6.171   3.088  1.00  0.00    -0.176 OA
HETATM   28  O5  UNL     1      -7.132   7.879   1.608  1.00  0.00    -0.176 OA
BRANCH  26  29
HETATM   29  N4  UNL     1      -7.636   5.485   0.561  1.00  0.00    -0.306 N 
ATOM     30  H42 UNL     1      -6.990   5.222  -0.183  1.00  0.00     0.171 HD
ATOM     31  H41 UNL     1      -8.628   5.253   0.606  1.00  0.00     0.171 HD
ENDBRANCH  26  29
ENDBRANCH  25  26
ENDBRANCH  24  25
ENDBRANCH   3  24
BRANCH   4  32
HETATM   32  O6  UNL     1      -3.525   3.027   2.420  1.00  0.00    -0.379 OA
BRANCH  32  33
HETATM   33  C7  UNL     1      -2.842   3.643   3.481  1.00  0.00     0.188 C 
BRANCH  33  34
HETATM   34  C8  UNL     1      -1.366   3.429   3.239  1.00  0.00     0.148 C 
BRANCH  34  35
HETATM   35  N5  UNL     1      -0.766   4.385   2.361  1.00  0.00    -0.366 N 
ATOM     36  H5  UNL     1      -1.182   4.529   1.441  1.00  0.00     0.161 HD
BRANCH  35  37
HETATM   37  C9  UNL     1       0.387   5.148   2.713  1.00  0.00     0.348 C 
HETATM   38  O7  UNL     1       0.579   6.310   2.324  1.00  0.00    -0.284 OA
ENDBRANCH  35  37
ENDBRANCH  34  35
ENDBRANCH  33  34
ENDBRANCH  32  33
ENDBRANCH   4  32
TORSDOF 13
ENDMDL
MODEL 4
REMARK VINA RESULT: -6.455622172      2.508      6.144
REMARK  13 active torsions:
REMARK  status: ('A' for Active; 'I' for Inactive)
REMARK    1  A    between atoms: N1_1  and  C1_4 
REMARK    2  A    between atoms: N3_9  and  C3_10 
REMARK    3  A    between atoms: C4_12  and  C5_13 
REMARK    4  A    between atoms: C5_13  and  O3_14 
REMARK    5  A    between atoms: O3_14  and  S1_15 
REMARK    6  A    between atoms: S1_15  and  N4_16 
REMARK    7  A    between atoms: C6_21  and  O6_22 
REMARK    8  A    between atoms: O6_22  and  C7_23 
REMARK    9  A    between atoms: C7_23  and  C8_24 
REMARK   10  A    between atoms: C8_24  and  N5_25 
REMARK   11  A    between atoms: N5_25  and  C9_27 
REMARK   12  A    between atoms: C10_29  and  O8_30 
REMARK   13  A    between atoms: O8_30  and  S2_31 
ROOT
HETATM    1  C3  UNL     1      -5.566   2.851   1.309  1.00  0.00     0.271 C 
HETATM    2  O2  UNL     1      -5.378   1.672   1.972  1.00  0.00    -0.353 OA
HETATM    3  C4  UNL     1      -4.539   1.940   3.023  1.00  0.00     0.181 C 
HETATM    4  C6  UNL     1      -4.600   3.401   3.353  1.00  0.00     0.187 C 
HETATM    5  C10 UNL     1      -5.653   3.894   2.395  1.00  0.00     0.226 C 
ENDROOT
BRANCH   1   6
HETATM    6  N3  UNL     1      -6.692   2.865   0.421  1.00  0.00    -0.220 N 
HETATM    7  C2  UNL     1      -7.445   1.757   0.353  1.00  0.00     0.347 A 
HETATM    8  N2  UNL     1      -8.511   1.728  -0.468  1.00  0.00    -0.141 N 
HETATM    9  O1  UNL     1      -7.167   0.723   1.059  1.00  0.00    -0.246 OA
HETATM   10  C1  UNL     1      -8.871   2.769  -1.240  1.00  0.00     0.683 A 
ATOM     11  H2  UNL     1      -9.072   0.877  -0.507  1.00  0.00     0.189 HD
HETATM   12  N6  UNL     1      -8.083   3.871  -1.143  1.00  0.00    -0.141 N 
HETATM   13  C11 UNL     1      -7.016   3.922  -0.332  1.00  0.00     0.347 A 
ATOM     14  H6  UNL     1      -8.311   4.689  -1.707  1.00  0.00     0.189 HD
HETATM   15  O12 UNL     1      -6.318   4.981  -0.283  1.00  0.00    -0.246 OA
BRANCH  10  16
HETATM   16  N1  UNL     1      -9.893   2.748  -2.031  1.00  0.00    -0.234 N 
ATOM     17  H12 UNL     1      -9.945   3.365  -2.841  1.00  0.00     0.174 HD
ATOM     18  H11 UNL     1     -10.691   2.127  -1.899  1.00  0.00     0.174 HD
ENDBRANCH  10  16
ENDBRANCH   1   6
BRANCH   5  19
HETATM   19  O8  UNL     1      -6.868   4.118   2.908  1.00  0.00    -0.244 OA
BRANCH  19  20
HETATM   20  S2  UNL     1      -7.267   5.559   3.517  1.00  0.00     0.252 S 
HETATM   21  O9  UNL     1      -8.701   5.508   3.997  1.00  0.00    -0.572 OA
HETATM   22  O10 UNL     1      -6.458   6.021   4.690  1.00  0.00    -0.572 OA
HETATM   23  O11 UNL     1      -7.235   6.823   2.385  1.00  0.00    -0.572 OA
ENDBRANCH  19  20
ENDBRANCH   5  19
BRANCH   3  24
HETATM   24  C5  UNL     1      -4.861   1.062   4.237  1.00  0.00     0.226 C 
BRANCH  24  25
HETATM   25  O3  UNL     1      -4.339  -0.193   4.044  1.00  0.00    -0.257 OA
BRANCH  25  26
HETATM   26  S1  UNL     1      -5.532  -1.357   3.978  1.00  0.00     0.355 S 
HETATM   27  O4  UNL     1      -5.151  -2.359   2.932  1.00  0.00    -0.176 OA
HETATM   28  O5  UNL     1      -5.615  -1.995   5.344  1.00  0.00    -0.176 OA
BRANCH  26  29
HETATM   29  N4  UNL     1      -7.051  -0.602   3.590  1.00  0.00    -0.306 N 
ATOM     30  H42 UNL     1      -7.451   0.187   4.096  1.00  0.00     0.171 HD
ATOM     31  H41 UNL     1      -7.466  -1.074   2.785  1.00  0.00     0.171 HD
ENDBRANCH  26  29
ENDBRANCH  25  26
ENDBRANCH  24  25
ENDBRANCH   3  24
BRANCH   4  32
HETATM   32  O6  UNL     1      -3.345   3.959   3.036  1.00  0.00    -0.379 OA
BRANCH  32  33
HETATM   33  C7  UNL     1      -2.452   3.842   4.113  1.00  0.00     0.188 C 
BRANCH  33  34
HETATM   34  C8  UNL     1      -1.081   3.603   3.526  1.00  0.00     0.148 C 
BRANCH  34  35
HETATM   35  N5  UNL     1      -0.669   4.584   2.571  1.00  0.00    -0.366 N 
ATOM     36  H5  UNL     1      -1.271   4.764   1.768  1.00  0.00     0.161 HD
BRANCH  35  37
HETATM   37  C9  UNL     1       0.547   5.322   2.688  1.00  0.00     0.348 C 
HETATM   38  O7  UNL     1       0.677   6.488   2.285  1.00  0.00    -0.284 OA
ENDBRANCH  35  37
ENDBRANCH  34  35
ENDBRANCH  33  34
ENDBRANCH  32  33
ENDBRANCH   4  32
TORSDOF 13
ENDMDL
MODEL 5
REMARK VINA RESULT: -6.431831947      2.756      4.912
REMARK  13 active torsions:
REMARK  status: ('A' for Active; 'I' for Inactive)
REMARK    1  A    between atoms: N1_1  and  C1_4 
REMARK    2  A    between atoms: N3_9  and  C3_10 
REMARK    3  A    between atoms: C4_12  and  C5_13 
REMARK    4  A    between atoms: C5_13  and  O3_14 
REMARK    5  A    between atoms: O3_14  and  S1_15 
REMARK    6  A    between atoms: S1_15  and  N4_16 
REMARK    7  A    between atoms: C6_21  and  O6_22 
REMARK    8  A    between atoms: O6_22  and  C7_23 
REMARK    9  A    between atoms: C7_23  and  C8_24 
REMARK   10  A    between atoms: C8_24  and  N5_25 
REMARK   11  A    between atoms: N5_25  and  C9_27 
REMARK   12  A    between atoms: C10_29  and  O8_30 
REMARK   13  A    between atoms: O8_30  and  S2_31 
ROOT
HETATM    1  C3  UNL     1      -3.977   4.193   2.950  1.00  0.00     0.271 C 
HETATM    2  O2  UNL     1      -4.860   4.920   3.697  1.00  0.00    -0.353 OA
HETATM    3  C4  UNL     1      -5.977   5.100   2.923  1.00  0.00     0.181 C 
HETATM    4  C6  UNL     1      -6.028   4.040   1.864  1.00  0.00     0.187 C 
HETATM    5  C10 UNL     1      -4.829   3.195   2.209  1.00  0.00     0.226 C 
ENDROOT
BRANCH   1   6
HETATM    6  N3  UNL     1      -2.917   3.585   3.700  1.00  0.00    -0.220 N 
HETATM    7  C2  UNL     1      -1.717   3.478   3.110  1.00  0.00     0.347 A 
HETATM    8  N2  UNL     1      -0.696   2.913   3.780  1.00  0.00    -0.141 N 
HETATM    9  O1  UNL     1      -1.525   3.906   1.917  1.00  0.00    -0.246 OA
HETATM   10  C1  UNL     1      -0.814   2.439   5.035  1.00  0.00     0.683 A 
ATOM     11  H2  UNL     1       0.210   2.840   3.316  1.00  0.00     0.189 HD
HETATM   12  N6  UNL     1      -2.044   2.566   5.596  1.00  0.00    -0.141 N 
HETATM   13  C11 UNL     1      -3.076   3.125   4.947  1.00  0.00     0.347 A 
ATOM     14  H6  UNL     1      -2.188   2.223   6.545  1.00  0.00     0.189 HD
HETATM   15  O12 UNL     1      -4.202   3.216   5.524  1.00  0.00    -0.246 OA
BRANCH  10  16
HETATM   16  N1  UNL     1       0.163   1.896   5.684  1.00  0.00    -0.234 N 
ATOM     17  H12 UNL     1       1.130   2.032   5.391  1.00  0.00     0.174 HD
ATOM     18  H11 UNL     1       0.031   1.311   6.509  1.00  0.00     0.174 HD
ENDBRANCH  10  16
ENDBRANCH   1   6
BRANCH   5  19
HETATM   19  O8  UNL     1      -5.075   2.040   2.838  1.00  0.00    -0.244 OA
BRANCH  19  20
HETATM   20  S2  UNL     1      -6.294   1.083   2.386  1.00  0.00     0.252 S 
HETATM   21  O9  UNL     1      -6.140  -0.260   3.065  1.00  0.00    -0.572 OA
HETATM   22  O10 UNL     1      -7.668   1.564   2.735  1.00  0.00    -0.572 OA
HETATM   23  O11 UNL     1      -6.318   0.727   0.726  1.00  0.00    -0.572 OA
ENDBRANCH  19  20
ENDBRANCH   5  19
BRANCH   3  24
HETATM   24  C5  UNL     1      -7.252   5.126   3.774  1.00  0.00     0.226 C 
BRANCH  24  25
HETATM   25  O3  UNL     1      -8.342   5.294   2.957  1.00  0.00    -0.257 OA
BRANCH  25  26
HETATM   26  S1  UNL     1      -8.584   6.899   2.570  1.00  0.00     0.355 S 
HETATM   27  O4  UNL     1     -10.042   7.097   2.288  1.00  0.00    -0.176 OA
HETATM   28  O5  UNL     1      -8.139   7.721   3.756  1.00  0.00    -0.176 OA
BRANCH  26  29
HETATM   29  N4  UNL     1      -7.622   7.305   1.179  1.00  0.00    -0.306 N 
ATOM     30  H42 UNL     1      -6.604   7.246   1.142  1.00  0.00     0.171 HD
ATOM     31  H41 UNL     1      -8.235   7.608   0.422  1.00  0.00     0.171 HD
ENDBRANCH  26  29
ENDBRANCH  25  26
ENDBRANCH  24  25
ENDBRANCH   3  24
BRANCH   4  32
HETATM   32  O6  UNL     1      -5.843   4.675   0.619  1.00  0.00    -0.379 OA
BRANCH  32  33
HETATM   33  C7  UNL     1      -6.450   3.947  -0.416  1.00  0.00     0.188 C 
BRANCH  33  34
HETATM   34  C8  UNL     1      -7.919   3.843  -0.081  1.00  0.00     0.148 C 
BRANCH  34  35
HETATM   35  N5  UNL     1      -8.488   2.553  -0.319  1.00  0.00    -0.366 N 
ATOM     36  H5  UNL     1      -8.626   1.928   0.475  1.00  0.00     0.161 HD
BRANCH  35  37
HETATM   37  C9  UNL     1      -8.873   2.099  -1.616  1.00  0.00     0.348 C 
HETATM   38  O7  UNL     1      -9.137   2.865  -2.555  1.00  0.00    -0.284 OA
ENDBRANCH  35  37
ENDBRANCH  34  35
ENDBRANCH  33  34
ENDBRANCH  32  33
ENDBRANCH   4  32
TORSDOF 13
ENDMDL
