MODEL 1
REMARK VINA RESULT: -9.356043443      0.000      0.000
REMARK  12 active torsions:
REMARK  status: ('A' for Active; 'I' for Inactive)
REMARK    1  A    between atoms: C2_2  and  C3_3 
REMARK    2  A    between atoms: C5_5  and  N1_6 
REMARK    3  A    between atoms: N1_6  and  C6_8 
REMARK    4  A    between atoms: C7_9  and  C8_10 
REMARK    5  A    between atoms: C12_18  and  O3_19 
REMARK    6  A    between atoms: O3_19  and  C13_20 
REMARK    7  A    between atoms: C13_20  and  C14_21 
REMARK    8  A    between atoms: C14_21  and  N3_22 
REMARK    9  A    between atoms: C20_28  and  O4_29 
REMARK   10  A    between atoms: O4_29  and  C21_30 
REMARK   11  A    between atoms: C21_30  and  C22_31 
REMARK   12  A    between atoms: C22_31  and  N4_32 
REMARK       I    between atoms: C23_34  and  N6_36 
ROOT
HETATM    1  C6  UNL     1       6.725 -17.026  -1.315  1.00  0.00     0.065 A 
HETATM    2  C7  UNL     1       5.346 -17.281  -0.993  1.00  0.00     0.083 A 
HETATM    3  C9  UNL     1       4.860 -16.858   0.196  1.00  0.00     0.109 A 
HETATM    4  N2  UNL     1       5.579 -16.202   1.118  1.00  0.00    -0.364 N 
ATOM      5  H2  UNL     1       5.153 -15.908   1.996  1.00  0.00     0.165 HD
HETATM    6  C10 UNL     1       6.872 -15.939   0.864  1.00  0.00     0.047 A 
HETATM    7  C11 UNL     1       7.586 -15.278   1.862  1.00  0.00     0.070 A 
HETATM    8  C12 UNL     1       8.892 -15.006   1.678  1.00  0.00     0.104 A 
HETATM    9  C20 UNL     1       9.507 -15.408   0.457  1.00  0.00     0.103 A 
HETATM   10  C26 UNL     1       8.772 -16.063  -0.520  1.00  0.00     0.055 A 
HETATM   11  C27 UNL     1       7.437 -16.337  -0.322  1.00  0.00     0.021 A 
ENDROOT
BRANCH   1  12
HETATM   12  N1  UNL     1       7.114 -17.452  -2.354  1.00  0.00    -0.341 N 
ATOM     13  H1  UNL     1       7.543 -18.341  -2.098  1.00  0.00     0.167 HD
BRANCH  12  14
HETATM   14  C5  UNL     1       7.293 -17.393  -3.676  1.00  0.00     0.108 A 
HETATM   15  C4  UNL     1       8.282 -16.578  -4.278  1.00  0.00     0.073 A 
HETATM   16  C3  UNL     1       8.468 -16.466  -5.624  1.00  0.00     0.013 A 
HETATM   17  N8  UNL     1       7.673 -17.166  -6.415  1.00  0.00    -0.356 N 
HETATM   18  C28 UNL     1       6.691 -17.979  -5.920  1.00  0.00     0.182 A 
ATOM     19  H8  UNL     1       7.796 -17.098  -7.426  1.00  0.00     0.166 HD
HETATM   20  N7  UNL     1       6.521 -18.077  -4.592  1.00  0.00    -0.339 N 
ATOM     21  H7  UNL     1       5.783 -18.690  -4.243  1.00  0.00     0.168 HD
BRANCH  16  22
HETATM   22  C2  UNL     1       9.531 -15.543  -6.158  1.00  0.00     0.052 C 
HETATM   23  C1  UNL     1       9.843 -14.460  -5.175  1.00  0.00     0.011 C 
ENDBRANCH  16  22
ENDBRANCH  12  14
ENDBRANCH   1  12
BRANCH   2  24
HETATM   24  C8  UNL     1       4.555 -17.990  -1.990  1.00  0.00     0.213 C 
HETATM   25  O1  UNL     1       3.779 -17.406  -2.780  1.00  0.00    -0.644 OA
HETATM   26  O2  UNL     1       4.640 -19.364  -2.090  1.00  0.00    -0.644 OA
ENDBRANCH   2  24
BRANCH   9  27
HETATM   27  O4  UNL     1      10.813 -15.142   0.272  1.00  0.00    -0.347 OA
BRANCH  27  28
HETATM   28  C21 UNL     1      12.036 -15.478   0.700  1.00  0.00     0.195 C 
BRANCH  28  29
HETATM   29  C22 UNL     1      12.883 -14.264   1.104  1.00  0.00     0.149 C 
BRANCH  29  30
HETATM   30  N4  UNL     1      12.933 -14.213   2.527  1.00  0.00    -0.363 N 
HETATM   31  C23 UNL     1      13.743 -13.567   3.254  1.00  0.00     0.185 C 
HETATM   32  N5  UNL     1      14.797 -12.738   2.811  1.00  0.00    -0.064 NA
HETATM   33  N6  UNL     1      13.579 -13.688   4.675  1.00  0.00    -0.364 N 
HETATM   34  C24 UNL     1      13.335 -12.499   5.439  1.00  0.00     0.151 C 
HETATM   35  C25 UNL     1      13.660 -15.003   5.323  1.00  0.00     0.151 C 
ATOM     36  H4  UNL     1      12.229 -14.763   3.020  1.00  0.00     0.162 HD
ENDBRANCH  29  30
ENDBRANCH  28  29
ENDBRANCH  27  28
ENDBRANCH   9  27
BRANCH   8  37
HETATM   37  O3  UNL     1       9.666 -14.375   2.576  1.00  0.00    -0.346 OA
BRANCH  37  38
HETATM   38  C13 UNL     1       9.753 -14.321   3.940  1.00  0.00     0.206 C 
BRANCH  38  39
HETATM   39  C14 UNL     1      10.055 -15.644   4.549  1.00  0.00     0.299 C 
BRANCH  39  40
HETATM   40  N3  UNL     1      10.092 -15.562   6.025  1.00  0.00     0.090 N 
HETATM   41  C15 UNL     1      10.341 -14.188   6.430  1.00  0.00     0.272 C 
HETATM   42  C16 UNL     1       9.874 -13.913   7.829  1.00  0.00     0.030 C 
HETATM   43  C17 UNL     1       9.566 -15.162   8.606  1.00  0.00     0.003 C 
HETATM   44  C18 UNL     1       8.643 -16.117   7.922  1.00  0.00     0.030 C 
HETATM   45  C19 UNL     1       8.741 -15.929   6.439  1.00  0.00     0.272 C 
ENDBRANCH  39  40
ENDBRANCH  38  39
ENDBRANCH  37  38
ENDBRANCH   8  37
TORSDOF 12
ENDMDL
MODEL 2
REMARK VINA RESULT: -9.343458233      2.115     10.402
REMARK  12 active torsions:
REMARK  status: ('A' for Active; 'I' for Inactive)
REMARK    1  A    between atoms: C2_2  and  C3_3 
REMARK    2  A    between atoms: C5_5  and  N1_6 
REMARK    3  A    between atoms: N1_6  and  C6_8 
REMARK    4  A    between atoms: C7_9  and  C8_10 
REMARK    5  A    between atoms: C12_18  and  O3_19 
REMARK    6  A    between atoms: O3_19  and  C13_20 
REMARK    7  A    between atoms: C13_20  and  C14_21 
REMARK    8  A    between atoms: C14_21  and  N3_22 
REMARK    9  A    between atoms: C20_28  and  O4_29 
REMARK   10  A    between atoms: O4_29  and  C21_30 
REMARK   11  A    between atoms: C21_30  and  C22_31 
REMARK   12  A    between atoms: C22_31  and  N4_32 
REMARK       I    between atoms: C23_34  and  N6_36 
ROOT
HETATM    1  C6  UNL     1      10.874 -13.934   2.983  1.00  0.00     0.065 A 
HETATM    2  C7  UNL     1      12.264 -13.571   3.067  1.00  0.00     0.083 A 
HETATM    3  C9  UNL     1      12.966 -13.391   1.925  1.00  0.00     0.109 A 
HETATM    4  N2  UNL     1      12.456 -13.527   0.692  1.00  0.00    -0.364 N 
ATOM      5  H2  UNL     1      13.039 -13.376  -0.130  1.00  0.00     0.165 HD
HETATM    6  C10 UNL     1      11.162 -13.865   0.561  1.00  0.00     0.047 A 
HETATM    7  C11 UNL     1      10.683 -14.019  -0.739  1.00  0.00     0.070 A 
HETATM    8  C12 UNL     1       9.400 -14.381  -0.937  1.00  0.00     0.104 A 
HETATM    9  C20 UNL     1       8.568 -14.596   0.200  1.00  0.00     0.103 A 
HETATM   10  C26 UNL     1       9.072 -14.434   1.482  1.00  0.00     0.055 A 
HETATM   11  C27 UNL     1      10.385 -14.065   1.675  1.00  0.00     0.021 A 
ENDROOT
BRANCH   1  12
HETATM   12  N1  UNL     1      10.312 -14.120   4.014  1.00  0.00    -0.341 N 
ATOM     13  H1  UNL     1      10.203 -13.181   4.395  1.00  0.00     0.167 HD
BRANCH  12  14
HETATM   14  C5  UNL     1       9.746 -14.897   4.940  1.00  0.00     0.108 A 
HETATM   15  C4  UNL     1       9.875 -14.648   6.329  1.00  0.00     0.073 A 
HETATM   16  C3  UNL     1       9.342 -15.440   7.302  1.00  0.00     0.013 A 
HETATM   17  N8  UNL     1       8.659 -16.506   6.921  1.00  0.00    -0.356 N 
HETATM   18  C28 UNL     1       8.484 -16.822   5.602  1.00  0.00     0.182 A 
ATOM     19  H8  UNL     1       8.250 -17.112   7.633  1.00  0.00     0.166 HD
HETATM   20  N7  UNL     1       9.016 -16.033   4.657  1.00  0.00    -0.339 N 
ATOM     21  H7  UNL     1       8.875 -16.286   3.679  1.00  0.00     0.168 HD
BRANCH  16  22
HETATM   22  C2  UNL     1       9.567 -15.099   8.751  1.00  0.00     0.052 C 
HETATM   23  C1  UNL     1      10.505 -13.942   8.889  1.00  0.00     0.011 C 
ENDBRANCH  16  22
ENDBRANCH  12  14
ENDBRANCH   1  12
BRANCH   2  24
HETATM   24  C8  UNL     1      12.827 -13.418   4.401  1.00  0.00     0.213 C 
HETATM   25  O1  UNL     1      12.935 -12.306   4.968  1.00  0.00    -0.644 OA
HETATM   26  O2  UNL     1      13.273 -14.524   5.096  1.00  0.00    -0.644 OA
ENDBRANCH   2  24
BRANCH   9  27
HETATM   27  O4  UNL     1       7.289 -14.962   0.005  1.00  0.00    -0.347 OA
BRANCH  27  28
HETATM   28  C21 UNL     1       6.500 -16.034  -0.135  1.00  0.00     0.195 C 
BRANCH  28  29
HETATM   29  C22 UNL     1       7.225 -17.231  -0.764  1.00  0.00     0.149 C 
BRANCH  29  30
HETATM   30  N4  UNL     1       6.605 -17.519  -2.014  1.00  0.00    -0.363 N 
HETATM   31  C23 UNL     1       5.671 -18.341  -2.248  1.00  0.00     0.185 C 
HETATM   32  N5  UNL     1       5.022 -19.169  -1.308  1.00  0.00    -0.064 NA
HETATM   33  N6  UNL     1       5.223 -18.444  -3.608  1.00  0.00    -0.364 N 
HETATM   34  C24 UNL     1       3.847 -18.167  -3.899  1.00  0.00     0.151 C 
HETATM   35  C25 UNL     1       6.162 -18.826  -4.671  1.00  0.00     0.151 C 
ATOM     36  H4  UNL     1       6.957 -16.999  -2.818  1.00  0.00     0.162 HD
ENDBRANCH  29  30
ENDBRANCH  28  29
ENDBRANCH  27  28
ENDBRANCH   9  27
BRANCH   8  37
HETATM   37  O3  UNL     1       8.843 -14.556  -2.147  1.00  0.00    -0.346 OA
BRANCH  37  38
HETATM   38  C13 UNL     1       9.292 -14.654  -3.435  1.00  0.00     0.206 C 
BRANCH  38  39
HETATM   39  C14 UNL     1       9.366 -16.061  -3.911  1.00  0.00     0.299 C 
BRANCH  39  40
HETATM   40  N3  UNL     1       8.637 -16.239  -5.185  1.00  0.00     0.090 N 
HETATM   41  C15 UNL     1       7.322 -15.627  -5.082  1.00  0.00     0.272 C 
HETATM   42  C16 UNL     1       6.746 -15.285  -6.424  1.00  0.00     0.030 C 
HETATM   43  C17 UNL     1       7.480 -15.934  -7.565  1.00  0.00     0.003 C 
HETATM   44  C18 UNL     1       8.959 -15.727  -7.560  1.00  0.00     0.030 C 
HETATM   45  C19 UNL     1       9.424 -15.484  -6.157  1.00  0.00     0.272 C 
ENDBRANCH  39  40
ENDBRANCH  38  39
ENDBRANCH  37  38
ENDBRANCH   8  37
TORSDOF 12
ENDMDL
MODEL 3
REMARK VINA RESULT: -9.319180493      2.195     10.362
REMARK  12 active torsions:
REMARK  status: ('A' for Active; 'I' for Inactive)
REMARK    1  A    between atoms: C2_2  and  C3_3 
REMARK    2  A    between atoms: C5_5  and  N1_6 
REMARK    3  A    between atoms: N1_6  and  C6_8 
REMARK    4  A    between atoms: C7_9  and  C8_10 
REMARK    5  A    between atoms: C12_18  and  O3_19 
REMARK    6  A    between atoms: O3_19  and  C13_20 
REMARK    7  A    between atoms: C13_20  and  C14_21 
REMARK    8  A    between atoms: C14_21  and  N3_22 
REMARK    9  A    between atoms: C20_28  and  O4_29 
REMARK   10  A    between atoms: O4_29  and  C21_30 
REMARK   11  A    between atoms: C21_30  and  C22_31 
REMARK   12  A    between atoms: C22_31  and  N4_32 
REMARK       I    between atoms: C23_34  and  N6_36 
ROOT
HETATM    1  C6  UNL     1      10.509 -14.006   2.756  1.00  0.00     0.065 A 
HETATM    2  C7  UNL     1      11.873 -13.583   2.585  1.00  0.00     0.083 A 
HETATM    3  C9  UNL     1      12.363 -13.437   1.333  1.00  0.00     0.109 A 
HETATM    4  N2  UNL     1      11.660 -13.660   0.213  1.00  0.00    -0.364 N 
ATOM      5  H2  UNL     1      12.089 -13.530  -0.703  1.00  0.00     0.165 HD
HETATM    6  C10 UNL     1      10.381 -14.056   0.320  1.00  0.00     0.047 A 
HETATM    7  C11 UNL     1       9.698 -14.299  -0.870  1.00  0.00     0.070 A 
HETATM    8  C12 UNL     1       8.420 -14.723  -0.830  1.00  0.00     0.104 A 
HETATM    9  C20 UNL     1       7.802 -14.909   0.441  1.00  0.00     0.103 A 
HETATM   10  C26 UNL     1       8.506 -14.657   1.610  1.00  0.00     0.055 A 
HETATM   11  C27 UNL     1       9.813 -14.226   1.558  1.00  0.00     0.021 A 
ENDROOT
BRANCH   1  12
HETATM   12  N1  UNL     1      10.137 -14.158   3.875  1.00  0.00    -0.341 N 
ATOM     13  H1  UNL     1      10.253 -13.233   4.289  1.00  0.00     0.167 HD
BRANCH  12  14
HETATM   14  C5  UNL     1       9.650 -14.888   4.881  1.00  0.00     0.108 A 
HETATM   15  C4  UNL     1       9.855 -14.549   6.241  1.00  0.00     0.073 A 
HETATM   16  C3  UNL     1       9.404 -15.290   7.292  1.00  0.00     0.013 A 
HETATM   17  N8  UNL     1       8.729 -16.395   7.021  1.00  0.00    -0.356 N 
HETATM   18  C28 UNL     1       8.485 -16.798   5.737  1.00  0.00     0.182 A 
ATOM     19  H8  UNL     1       8.381 -16.964   7.793  1.00  0.00     0.166 HD
HETATM   20  N7  UNL     1       8.937 -16.057   4.714  1.00  0.00    -0.339 N 
ATOM     21  H7  UNL     1       8.744 -16.375   3.764  1.00  0.00     0.168 HD
BRANCH  16  22
HETATM   22  C2  UNL     1       9.706 -14.853   8.701  1.00  0.00     0.052 C 
HETATM   23  C1  UNL     1      10.657 -13.698   8.710  1.00  0.00     0.011 C 
ENDBRANCH  16  22
ENDBRANCH  12  14
ENDBRANCH   1  12
BRANCH   2  24
HETATM   24  C8  UNL     1      12.645 -13.336   3.795  1.00  0.00     0.213 C 
HETATM   25  O1  UNL     1      12.912 -12.183   4.204  1.00  0.00    -0.644 OA
HETATM   26  O2  UNL     1      13.119 -14.395   4.543  1.00  0.00    -0.644 OA
ENDBRANCH   2  24
BRANCH   9  27
HETATM   27  O4  UNL     1       6.527 -15.335   0.484  1.00  0.00    -0.347 OA
BRANCH  27  28
HETATM   28  C21 UNL     1       5.779 -16.444   0.520  1.00  0.00     0.195 C 
BRANCH  28  29
HETATM   29  C22 UNL     1       6.474 -17.655  -0.117  1.00  0.00     0.149 C 
BRANCH  29  30
HETATM   30  N4  UNL     1       6.160 -17.667  -1.507  1.00  0.00    -0.363 N 
HETATM   31  C23 UNL     1       5.396 -18.464  -2.125  1.00  0.00     0.185 C 
HETATM   32  N5  UNL     1       4.669 -19.538  -1.567  1.00  0.00    -0.064 NA
HETATM   33  N6  UNL     1       5.251 -18.260  -3.539  1.00  0.00    -0.364 N 
HETATM   34  C24 UNL     1       3.940 -18.008  -4.063  1.00  0.00     0.151 C 
HETATM   35  C25 UNL     1       6.424 -18.309  -4.420  1.00  0.00     0.151 C 
ATOM     36  H4  UNL     1       6.606 -16.944  -2.073  1.00  0.00     0.162 HD
ENDBRANCH  29  30
ENDBRANCH  28  29
ENDBRANCH  27  28
ENDBRANCH   9  27
BRANCH   8  37
HETATM   37  O3  UNL     1       7.676 -14.984  -1.918  1.00  0.00    -0.346 OA
BRANCH  37  38
HETATM   38  C13 UNL     1       7.918 -15.329  -3.219  1.00  0.00     0.206 C 
BRANCH  38  39
HETATM   39  C14 UNL     1       7.613 -14.227  -4.170  1.00  0.00     0.299 C 
BRANCH  39  40
HETATM   40  N3  UNL     1       8.161 -14.509  -5.514  1.00  0.00     0.090 N 
HETATM   41  C15 UNL     1       9.458 -15.153  -5.386  1.00  0.00     0.272 C 
HETATM   42  C16 UNL     1       9.828 -15.938  -6.611  1.00  0.00     0.030 C 
HETATM   43  C17 UNL     1       8.961 -15.624  -7.798  1.00  0.00     0.003 C 
HETATM   44  C18 UNL     1       7.492 -15.710  -7.544  1.00  0.00     0.030 C 
HETATM   45  C19 UNL     1       7.222 -15.469  -6.090  1.00  0.00     0.272 C 
ENDBRANCH  39  40
ENDBRANCH  38  39
ENDBRANCH  37  38
ENDBRANCH   8  37
TORSDOF 12
ENDMDL
MODEL 4
REMARK VINA RESULT: -9.314617587      2.117     10.486
REMARK  12 active torsions:
REMARK  status: ('A' for Active; 'I' for Inactive)
REMARK    1  A    between atoms: C2_2  and  C3_3 
REMARK    2  A    between atoms: C5_5  and  N1_6 
REMARK    3  A    between atoms: N1_6  and  C6_8 
REMARK    4  A    between atoms: C7_9  and  C8_10 
REMARK    5  A    between atoms: C12_18  and  O3_19 
REMARK    6  A    between atoms: O3_19  and  C13_20 
REMARK    7  A    between atoms: C13_20  and  C14_21 
REMARK    8  A    between atoms: C14_21  and  N3_22 
REMARK    9  A    between atoms: C20_28  and  O4_29 
REMARK   10  A    between atoms: O4_29  and  C21_30 
REMARK   11  A    between atoms: C21_30  and  C22_31 
REMARK   12  A    between atoms: C22_31  and  N4_32 
REMARK       I    between atoms: C23_34  and  N6_36 
ROOT
HETATM    1  C6  UNL     1      11.569 -14.242   2.242  1.00  0.00     0.065 A 
HETATM    2  C7  UNL     1      12.493 -13.183   1.935  1.00  0.00     0.083 A 
HETATM    3  C9  UNL     1      12.401 -12.560   0.738  1.00  0.00     0.109 A 
HETATM    4  N2  UNL     1      11.495 -12.857  -0.205  1.00  0.00    -0.364 N 
ATOM      5  H2  UNL     1      11.478 -12.347  -1.088  1.00  0.00     0.165 HD
HETATM    6  C10 UNL     1      10.609 -13.839   0.036  1.00  0.00     0.047 A 
HETATM    7  C11 UNL     1       9.703 -14.129  -0.983  1.00  0.00     0.070 A 
HETATM    8  C12 UNL     1       8.805 -15.119  -0.813  1.00  0.00     0.104 A 
HETATM    9  C20 UNL     1       8.813 -15.843   0.415  1.00  0.00     0.103 A 
HETATM   10  C26 UNL     1       9.725 -15.531   1.412  1.00  0.00     0.055 A 
HETATM   11  C27 UNL     1      10.640 -14.518   1.228  1.00  0.00     0.021 A 
ENDROOT
BRANCH   1  12
HETATM   12  N1  UNL     1      11.715 -14.786   3.289  1.00  0.00    -0.341 N 
ATOM     13  H1  UNL     1      12.351 -15.552   3.070  1.00  0.00     0.167 HD
BRANCH  12  14
HETATM   14  C5  UNL     1      11.494 -14.933   4.598  1.00  0.00     0.108 A 
HETATM   15  C4  UNL     1      10.273 -15.428   5.116  1.00  0.00     0.073 A 
HETATM   16  C3  UNL     1      10.000 -15.557   6.445  1.00  0.00     0.013 A 
HETATM   17  N8  UNL     1      10.939 -15.197   7.303  1.00  0.00    -0.356 N 
HETATM   18  C28 UNL     1      12.148 -14.708   6.892  1.00  0.00     0.182 A 
ATOM     19  H8  UNL     1      10.756 -15.287   8.303  1.00  0.00     0.166 HD
HETATM   20  N7  UNL     1      12.400 -14.587   5.579  1.00  0.00    -0.339 N 
ATOM     21  H7  UNL     1      13.308 -14.220   5.293  1.00  0.00     0.168 HD
BRANCH  16  22
HETATM   22  C2  UNL     1       8.654 -16.068   6.887  1.00  0.00     0.052 C 
HETATM   23  C1  UNL     1       8.523 -16.015   8.375  1.00  0.00     0.011 C 
ENDBRANCH  16  22
ENDBRANCH  12  14
ENDBRANCH   1  12
BRANCH   2  24
HETATM   24  C8  UNL     1      13.479 -12.850   2.953  1.00  0.00     0.213 C 
HETATM   25  O1  UNL     1      13.266 -12.005   3.852  1.00  0.00    -0.644 OA
HETATM   26  O2  UNL     1      14.711 -13.473   2.952  1.00  0.00    -0.644 OA
ENDBRANCH   2  24
BRANCH   9  27
HETATM   27  O4  UNL     1       7.919 -16.834   0.585  1.00  0.00    -0.347 OA
BRANCH  27  28
HETATM   28  C21 UNL     1       6.640 -17.160   0.364  1.00  0.00     0.195 C 
BRANCH  28  29
HETATM   29  C22 UNL     1       6.479 -18.532  -0.305  1.00  0.00     0.149 C 
BRANCH  29  30
HETATM   30  N4  UNL     1       6.185 -18.321  -1.683  1.00  0.00    -0.363 N 
HETATM   31  C23 UNL     1       5.272 -18.859  -2.375  1.00  0.00     0.185 C 
HETATM   32  N5  UNL     1       4.323 -19.804  -1.929  1.00  0.00    -0.064 NA
HETATM   33  N6  UNL     1       5.189 -18.473  -3.755  1.00  0.00    -0.364 N 
HETATM   34  C24 UNL     1       3.970 -17.886  -4.230  1.00  0.00     0.151 C 
HETATM   35  C25 UNL     1       6.333 -18.678  -4.653  1.00  0.00     0.151 C 
ATOM     36  H4  UNL     1       6.784 -17.654  -2.172  1.00  0.00     0.162 HD
ENDBRANCH  29  30
ENDBRANCH  28  29
ENDBRANCH  27  28
ENDBRANCH   9  27
BRANCH   8  37
HETATM   37  O3  UNL     1       7.893 -15.476  -1.731  1.00  0.00    -0.346 OA
BRANCH  37  38
HETATM   38  C13 UNL     1       7.891 -15.729  -3.075  1.00  0.00     0.206 C 
BRANCH  38  39
HETATM   39  C14 UNL     1       7.646 -14.508  -3.888  1.00  0.00     0.299 C 
BRANCH  39  40
HETATM   40  N3  UNL     1       8.184 -14.655  -5.257  1.00  0.00     0.090 N 
HETATM   41  C15 UNL     1       9.510 -15.249  -5.198  1.00  0.00     0.272 C 
HETATM   42  C16 UNL     1       9.895 -15.915  -6.487  1.00  0.00     0.030 C 
HETATM   43  C17 UNL     1       8.996 -15.545  -7.634  1.00  0.00     0.003 C 
HETATM   44  C18 UNL     1       7.536 -15.716  -7.370  1.00  0.00     0.030 C 
HETATM   45  C19 UNL     1       7.279 -15.606  -5.899  1.00  0.00     0.272 C 
ENDBRANCH  39  40
ENDBRANCH  38  39
ENDBRANCH  37  38
ENDBRANCH   8  37
TORSDOF 12
ENDMDL
MODEL 5
REMARK VINA RESULT: -9.292614870      0.491      1.072
REMARK  12 active torsions:
REMARK  status: ('A' for Active; 'I' for Inactive)
REMARK    1  A    between atoms: C2_2  and  C3_3 
REMARK    2  A    between atoms: C5_5  and  N1_6 
REMARK    3  A    between atoms: N1_6  and  C6_8 
REMARK    4  A    between atoms: C7_9  and  C8_10 
REMARK    5  A    between atoms: C12_18  and  O3_19 
REMARK    6  A    between atoms: O3_19  and  C13_20 
REMARK    7  A    between atoms: C13_20  and  C14_21 
REMARK    8  A    between atoms: C14_21  and  N3_22 
REMARK    9  A    between atoms: C20_28  and  O4_29 
REMARK   10  A    between atoms: O4_29  and  C21_30 
REMARK   11  A    between atoms: C21_30  and  C22_31 
REMARK   12  A    between atoms: C22_31  and  N4_32 
REMARK       I    between atoms: C23_34  and  N6_36 
ROOT
HETATM    1  C6  UNL     1       6.691 -17.114  -1.294  1.00  0.00     0.065 A 
HETATM    2  C7  UNL     1       5.307 -17.347  -0.977  1.00  0.00     0.083 A 
HETATM    3  C9  UNL     1       4.831 -16.943   0.223  1.00  0.00     0.109 A 
HETATM    4  N2  UNL     1       5.564 -16.327   1.161  1.00  0.00    -0.364 N 
ATOM      5  H2  UNL     1       5.145 -16.046   2.047  1.00  0.00     0.165 HD
HETATM    6  C10 UNL     1       6.863 -16.086   0.912  1.00  0.00     0.047 A 
HETATM    7  C11 UNL     1       7.591 -15.466   1.926  1.00  0.00     0.070 A 
HETATM    8  C12 UNL     1       8.903 -15.219   1.748  1.00  0.00     0.104 A 
HETATM    9  C20 UNL     1       9.509 -15.603   0.516  1.00  0.00     0.103 A 
HETATM   10  C26 UNL     1       8.759 -16.217  -0.476  1.00  0.00     0.055 A 
HETATM   11  C27 UNL     1       7.418 -16.467  -0.284  1.00  0.00     0.021 A 
ENDROOT
BRANCH   1  12
HETATM   12  N1  UNL     1       7.070 -17.523  -2.343  1.00  0.00    -0.341 N 
ATOM     13  H1  UNL     1       7.365 -18.476  -2.133  1.00  0.00     0.167 HD
BRANCH  12  14
HETATM   14  C5  UNL     1       7.319 -17.405  -3.650  1.00  0.00     0.108 A 
HETATM   15  C4  UNL     1       8.362 -16.593  -4.159  1.00  0.00     0.073 A 
HETATM   16  C3  UNL     1       8.621 -16.422  -5.486  1.00  0.00     0.013 A 
HETATM   17  N8  UNL     1       7.848 -17.056  -6.351  1.00  0.00    -0.356 N 
HETATM   18  C28 UNL     1       6.817 -17.860  -5.948  1.00  0.00     0.182 A 
ATOM     19  H8  UNL     1       8.025 -16.942  -7.350  1.00  0.00     0.166 HD
HETATM   20  N7  UNL     1       6.576 -18.017  -4.637  1.00  0.00    -0.339 N 
ATOM     21  H7  UNL     1       5.803 -18.621  -4.357  1.00  0.00     0.168 HD
BRANCH  16  22
HETATM   22  C2  UNL     1       9.739 -15.509  -5.918  1.00  0.00     0.052 C 
HETATM   23  C1  UNL     1       9.778 -14.275  -5.075  1.00  0.00     0.011 C 
ENDBRANCH  16  22
ENDBRANCH  12  14
ENDBRANCH   1  12
BRANCH   2  24
HETATM   24  C8  UNL     1       4.500 -18.014  -1.990  1.00  0.00     0.213 C 
HETATM   25  O1  UNL     1       4.384 -19.259  -2.052  1.00  0.00    -0.644 OA
HETATM   26  O2  UNL     1       3.826 -17.270  -2.937  1.00  0.00    -0.644 OA
ENDBRANCH   2  24
BRANCH   9  27
HETATM   27  O4  UNL     1      10.820 -15.361   0.338  1.00  0.00    -0.347 OA
BRANCH  27  28
HETATM   28  C21 UNL     1      11.722 -14.373   0.308  1.00  0.00     0.195 C 
BRANCH  28  29
HETATM   29  C22 UNL     1      13.061 -14.767   0.946  1.00  0.00     0.149 C 
BRANCH  29  30
HETATM   30  N4  UNL     1      12.981 -14.506   2.344  1.00  0.00    -0.363 N 
HETATM   31  C23 UNL     1      13.799 -13.859   3.062  1.00  0.00     0.185 C 
HETATM   32  N5  UNL     1      14.993 -13.240   2.632  1.00  0.00    -0.064 NA
HETATM   33  N6  UNL     1      13.485 -13.741   4.458  1.00  0.00    -0.364 N 
HETATM   34  C24 UNL     1      13.333 -12.429   5.017  1.00  0.00     0.151 C 
HETATM   35  C25 UNL     1      13.324 -14.942   5.287  1.00  0.00     0.151 C 
ATOM     36  H4  UNL     1      12.166 -14.886   2.825  1.00  0.00     0.162 HD
ENDBRANCH  29  30
ENDBRANCH  28  29
ENDBRANCH  27  28
ENDBRANCH   9  27
BRANCH   8  37
HETATM   37  O3  UNL     1       9.691 -14.628   2.661  1.00  0.00    -0.346 OA
BRANCH  37  38
HETATM   38  C13 UNL     1       9.871 -14.714   4.014  1.00  0.00     0.206 C 
BRANCH  38  39
HETATM   39  C14 UNL     1       8.924 -13.857   4.775  1.00  0.00     0.299 C 
BRANCH  39  40
HETATM   40  N3  UNL     1       8.913 -14.208   6.211  1.00  0.00     0.090 N 
HETATM   41  C15 UNL     1       8.752 -15.645   6.359  1.00  0.00     0.272 C 
HETATM   42  C16 UNL     1       9.255 -16.142   7.683  1.00  0.00     0.030 C 
HETATM   43  C17 UNL     1       9.499 -15.038   8.674  1.00  0.00     0.003 C 
HETATM   44  C18 UNL     1      10.355 -13.921   8.172  1.00  0.00     0.030 C 
HETATM   45  C19 UNL     1      10.247 -13.841   6.681  1.00  0.00     0.272 C 
ENDBRANCH  39  40
ENDBRANCH  38  39
ENDBRANCH  37  38
ENDBRANCH   8  37
TORSDOF 12
ENDMDL
