MODEL 1
REMARK VINA RESULT: -9.349556950      0.000      0.000
REMARK  13 active torsions:
REMARK  status: ('A' for Active; 'I' for Inactive)
REMARK    1  A    between atoms: C2_2  and  N1_3 
REMARK       I    between atoms: N1_3  and  C3_5 
REMARK    2  A    between atoms: C3_5  and  C4_7 
REMARK    3  A    between atoms: C4_7  and  C5_8 
REMARK    4  A    between atoms: C5_8  and  C6_9 
REMARK    5  A    between atoms: C6_9  and  C7_10 
REMARK    6  A    between atoms: C7_10  and  C8_11 
REMARK    7  A    between atoms: C8_11  and  O2_12 
REMARK    8  A    between atoms: O2_12  and  C9_13 
REMARK    9  A    between atoms: C14_18  and  C15_19 
REMARK   10  A    between atoms: C15_19  and  O3_20 
REMARK   11  A    between atoms: O3_20  and  C16_21 
REMARK       I    between atoms: C16_21  and  N2_23 
REMARK   12  A    between atoms: C20_27  and  N3_28 
REMARK       I    between atoms: N3_28  and  C21_30 
REMARK       I    between atoms: C21_30  and  N4_32 
REMARK   13  A    between atoms: N4_32  and  C22_34 
ROOT
HETATM    1  C16 UNL     1       7.909 -16.619   1.503  1.00  0.00     0.362 C 
HETATM    2  O4  UNL     1       6.899 -16.003   1.931  1.00  0.00    -0.238 OA
HETATM    3  N2  UNL     1       9.205 -16.172   1.870  1.00  0.00    -0.328 N 
HETATM    4  C17 UNL     1      10.360 -16.889   1.367  1.00  0.00     0.128 C 
HETATM    5  C18 UNL     1      11.140 -15.929   0.498  1.00  0.00     0.022 C 
HETATM    6  C19 UNL     1      12.171 -15.146   1.232  1.00  0.00     0.027 C 
HETATM    7  C20 UNL     1      11.633 -14.302   2.363  1.00  0.00     0.087 C 
HETATM    8  C25 UNL     1      10.168 -13.976   2.187  1.00  0.00     0.045 C 
HETATM    9  C26 UNL     1       9.252 -15.012   2.736  1.00  0.00     0.130 C 
ENDROOT
BRANCH   1  10
HETATM   10  O3  UNL     1       7.682 -17.714   0.684  1.00  0.00    -0.301 OA
BRANCH  10  11
HETATM   11  C15 UNL     1       6.447 -17.881  -0.016  1.00  0.00     0.213 C 
BRANCH  11  12
HETATM   12  C14 UNL     1       6.757 -18.011  -1.475  1.00  0.00     0.157 C 
HETATM   13  C11 UNL     1       5.474 -17.982  -2.313  1.00  0.00    -0.015 C 
HETATM   14  C10 UNL     1       6.080 -17.784  -3.685  1.00  0.00     0.072 C 
HETATM   15  C12 UNL     1       4.699 -16.740  -1.949  1.00  0.00     0.018 C 
HETATM   16  C13 UNL     1       4.681 -19.233  -2.194  1.00  0.00     0.018 C 
HETATM   17  C9  UNL     1       7.283 -16.935  -3.359  1.00  0.00     0.261 C 
HETATM   18  O7  UNL     1       7.417 -16.898  -1.980  1.00  0.00    -0.353 OA
BRANCH  17  19
HETATM   19  O2  UNL     1       7.054 -15.669  -3.888  1.00  0.00    -0.361 OA
BRANCH  19  20
HETATM   20  C8  UNL     1       7.819 -14.729  -3.237  1.00  0.00     0.171 C 
BRANCH  20  21
HETATM   21  C7  UNL     1       9.282 -14.840  -3.502  1.00  0.00     0.026 C 
BRANCH  21  22
HETATM   22  C6  UNL     1       9.511 -14.461  -4.960  1.00  0.00     0.002 C 
BRANCH  22  23
HETATM   23  C5  UNL     1       9.966 -15.610  -5.780  1.00  0.00     0.009 C 
BRANCH  23  24
HETATM   24  C4  UNL     1       9.304 -15.614  -7.121  1.00  0.00     0.103 C 
BRANCH  24  25
HETATM   25  C3  UNL     1       8.028 -16.328  -7.137  1.00  0.00     0.217 C 
HETATM   26  N1  UNL     1       6.765 -15.653  -7.020  1.00  0.00    -0.361 N 
ATOM     27  H1  UNL     1       6.758 -14.637  -6.921  1.00  0.00     0.162 HD
HETATM   28  O1  UNL     1       7.979 -17.570  -7.256  1.00  0.00    -0.274 OA
BRANCH  26  29
HETATM   29  C2  UNL     1       5.508 -16.358  -7.037  1.00  0.00     0.118 C 
HETATM   30  C1  UNL     1       4.718 -16.097  -8.296  1.00  0.00     0.026 C 
ENDBRANCH  26  29
ENDBRANCH  24  25
ENDBRANCH  23  24
ENDBRANCH  22  23
ENDBRANCH  21  22
ENDBRANCH  20  21
ENDBRANCH  19  20
ENDBRANCH  17  19
ENDBRANCH  11  12
ENDBRANCH  10  11
ENDBRANCH   1  10
BRANCH   7  31
HETATM   31  N3  UNL     1      11.921 -14.863   3.652  1.00  0.00    -0.338 N 
HETATM   32  C21 UNL     1      12.565 -14.093   4.649  1.00  0.00     0.322 C 
HETATM   33  O5  UNL     1      12.911 -12.878   4.438  1.00  0.00    -0.247 OA
HETATM   34  N4  UNL     1      12.878 -14.582   5.934  1.00  0.00    -0.292 N 
ATOM     35  H4  UNL     1      13.661 -15.234   5.986  1.00  0.00     0.172 HD
ATOM     36  H3  UNL     1      11.659 -15.829   3.852  1.00  0.00     0.164 HD
BRANCH  34  37
HETATM   37  C22 UNL     1      12.308 -14.313   7.034  1.00  0.00     0.155 A 
HETATM   38  N5  UNL     1      12.771 -13.344   7.866  1.00  0.00    -0.223 N 
HETATM   39  O6  UNL     1      12.001 -13.295   8.893  1.00  0.00    -0.155 OA
ATOM     40  H5  UNL     1      13.588 -12.758   7.703  1.00  0.00     0.198 HD
HETATM   41  N6  UNL     1      11.043 -14.156   8.830  1.00  0.00    -0.242 N 
HETATM   42  C23 UNL     1      11.198 -14.828   7.662  1.00  0.00     0.076 A 
ATOM     43  H6  UNL     1      10.311 -14.304   9.525  1.00  0.00     0.196 HD
HETATM   44  C24 UNL     1      10.328 -15.904   7.182  1.00  0.00     0.074 C 
ENDBRANCH  34  37
ENDBRANCH   7  31
TORSDOF 13
ENDMDL
MODEL 2
REMARK VINA RESULT: -9.234537866      1.640      2.897
REMARK  13 active torsions:
REMARK  status: ('A' for Active; 'I' for Inactive)
REMARK    1  A    between atoms: C2_2  and  N1_3 
REMARK       I    between atoms: N1_3  and  C3_5 
REMARK    2  A    between atoms: C3_5  and  C4_7 
REMARK    3  A    between atoms: C4_7  and  C5_8 
REMARK    4  A    between atoms: C5_8  and  C6_9 
REMARK    5  A    between atoms: C6_9  and  C7_10 
REMARK    6  A    between atoms: C7_10  and  C8_11 
REMARK    7  A    between atoms: C8_11  and  O2_12 
REMARK    8  A    between atoms: O2_12  and  C9_13 
REMARK    9  A    between atoms: C14_18  and  C15_19 
REMARK   10  A    between atoms: C15_19  and  O3_20 
REMARK   11  A    between atoms: O3_20  and  C16_21 
REMARK       I    between atoms: C16_21  and  N2_23 
REMARK   12  A    between atoms: C20_27  and  N3_28 
REMARK       I    between atoms: N3_28  and  C21_30 
REMARK       I    between atoms: C21_30  and  N4_32 
REMARK   13  A    between atoms: N4_32  and  C22_34 
ROOT
HETATM    1  C16 UNL     1       8.143 -15.463   0.128  1.00  0.00     0.362 C 
HETATM    2  O4  UNL     1       7.125 -14.811   0.473  1.00  0.00    -0.238 OA
HETATM    3  N2  UNL     1       9.324 -15.378   0.910  1.00  0.00    -0.328 N 
HETATM    4  C17 UNL     1      10.491 -16.133   0.498  1.00  0.00     0.128 C 
HETATM    5  C18 UNL     1      11.580 -15.135   0.178  1.00  0.00     0.022 C 
HETATM    6  C19 UNL     1      12.441 -14.781   1.339  1.00  0.00     0.027 C 
HETATM    7  C20 UNL     1      11.700 -14.189   2.513  1.00  0.00     0.087 C 
HETATM    8  C25 UNL     1      10.387 -13.564   2.106  1.00  0.00     0.045 C 
HETATM    9  C26 UNL     1       9.249 -14.523   2.077  1.00  0.00     0.130 C 
ENDROOT
BRANCH   1  10
HETATM   10  O3  UNL     1       8.040 -16.237  -1.018  1.00  0.00    -0.301 OA
BRANCH  10  11
HETATM   11  C15 UNL     1       6.895 -16.159  -1.871  1.00  0.00     0.213 C 
BRANCH  11  12
HETATM   12  C14 UNL     1       6.539 -17.551  -2.293  1.00  0.00     0.157 C 
HETATM   13  C11 UNL     1       5.523 -18.173  -1.328  1.00  0.00    -0.015 C 
HETATM   14  C10 UNL     1       5.102 -19.371  -2.150  1.00  0.00     0.072 C 
HETATM   15  C12 UNL     1       4.347 -17.236  -1.211  1.00  0.00     0.018 C 
HETATM   16  C13 UNL     1       6.123 -18.539  -0.018  1.00  0.00     0.018 C 
HETATM   17  C9  UNL     1       5.198 -18.819  -3.551  1.00  0.00     0.261 C 
HETATM   18  O7  UNL     1       5.815 -17.580  -3.478  1.00  0.00    -0.353 OA
BRANCH  17  19
HETATM   19  O2  UNL     1       3.903 -18.720  -4.048  1.00  0.00    -0.361 OA
BRANCH  19  20
HETATM   20  C8  UNL     1       3.774 -17.602  -4.839  1.00  0.00     0.171 C 
BRANCH  20  21
HETATM   21  C7  UNL     1       4.050 -17.839  -6.285  1.00  0.00     0.026 C 
BRANCH  21  22
HETATM   22  C6  UNL     1       4.096 -16.478  -6.968  1.00  0.00     0.002 C 
BRANCH  22  23
HETATM   23  C5  UNL     1       5.481 -15.973  -7.133  1.00  0.00     0.009 C 
BRANCH  23  24
HETATM   24  C4  UNL     1       6.447 -17.097  -7.333  1.00  0.00     0.103 C 
BRANCH  24  25
HETATM   25  C3  UNL     1       7.703 -16.922  -6.605  1.00  0.00     0.217 C 
HETATM   26  N1  UNL     1       7.797 -16.134  -5.407  1.00  0.00    -0.361 N 
ATOM     27  H1  UNL     1       6.956 -15.679  -5.051  1.00  0.00     0.162 HD
HETATM   28  O1  UNL     1       8.762 -17.455  -6.997  1.00  0.00    -0.274 OA
BRANCH  26  29
HETATM   29  C2  UNL     1       9.036 -15.962  -4.691  1.00  0.00     0.118 C 
HETATM   30  C1  UNL     1       9.542 -14.542  -4.747  1.00  0.00     0.026 C 
ENDBRANCH  26  29
ENDBRANCH  24  25
ENDBRANCH  23  24
ENDBRANCH  22  23
ENDBRANCH  21  22
ENDBRANCH  20  21
ENDBRANCH  19  20
ENDBRANCH  17  19
ENDBRANCH  11  12
ENDBRANCH  10  11
ENDBRANCH   1  10
BRANCH   7  31
HETATM   31  N3  UNL     1      11.556 -15.120   3.597  1.00  0.00    -0.338 N 
HETATM   32  C21 UNL     1      11.670 -14.691   4.940  1.00  0.00     0.322 C 
HETATM   33  O5  UNL     1      11.904 -13.467   5.235  1.00  0.00    -0.247 OA
HETATM   34  N4  UNL     1      11.539 -15.551   6.050  1.00  0.00    -0.292 N 
ATOM     35  H4  UNL     1      12.325 -16.179   6.224  1.00  0.00     0.172 HD
ATOM     36  H3  UNL     1      11.369 -16.102   3.396  1.00  0.00     0.164 HD
BRANCH  34  37
HETATM   37  C22 UNL     1      10.567 -15.642   6.859  1.00  0.00     0.155 A 
HETATM   38  N5  UNL     1      10.688 -15.303   8.168  1.00  0.00    -0.223 N 
HETATM   39  O6  UNL     1       9.554 -15.496   8.739  1.00  0.00    -0.155 OA
ATOM     40  H5  UNL     1      11.533 -14.956   8.620  1.00  0.00     0.198 HD
HETATM   41  N6  UNL     1       8.661 -15.943   7.921  1.00  0.00    -0.242 N 
HETATM   42  C23 UNL     1       9.263 -16.051   6.710  1.00  0.00     0.076 A 
ATOM     43  H6  UNL     1       7.692 -16.170   8.142  1.00  0.00     0.196 HD
HETATM   44  C24 UNL     1       8.617 -16.523   5.483  1.00  0.00     0.074 C 
ENDBRANCH  34  37
ENDBRANCH   7  31
TORSDOF 13
ENDMDL
MODEL 3
REMARK VINA RESULT: -9.196107513      1.989      4.699
REMARK  13 active torsions:
REMARK  status: ('A' for Active; 'I' for Inactive)
REMARK    1  A    between atoms: C2_2  and  N1_3 
REMARK       I    between atoms: N1_3  and  C3_5 
REMARK    2  A    between atoms: C3_5  and  C4_7 
REMARK    3  A    between atoms: C4_7  and  C5_8 
REMARK    4  A    between atoms: C5_8  and  C6_9 
REMARK    5  A    between atoms: C6_9  and  C7_10 
REMARK    6  A    between atoms: C7_10  and  C8_11 
REMARK    7  A    between atoms: C8_11  and  O2_12 
REMARK    8  A    between atoms: O2_12  and  C9_13 
REMARK    9  A    between atoms: C14_18  and  C15_19 
REMARK   10  A    between atoms: C15_19  and  O3_20 
REMARK   11  A    between atoms: O3_20  and  C16_21 
REMARK       I    between atoms: C16_21  and  N2_23 
REMARK   12  A    between atoms: C20_27  and  N3_28 
REMARK       I    between atoms: N3_28  and  C21_30 
REMARK       I    between atoms: C21_30  and  N4_32 
REMARK   13  A    between atoms: N4_32  and  C22_34 
ROOT
HETATM    1  C16 UNL     1       9.772 -14.687  -0.416  1.00  0.00     0.362 C 
HETATM    2  O4  UNL     1       8.859 -13.824  -0.433  1.00  0.00    -0.238 OA
HETATM    3  N2  UNL     1      10.751 -14.648   0.611  1.00  0.00    -0.328 N 
HETATM    4  C17 UNL     1      11.800 -15.648   0.616  1.00  0.00     0.128 C 
HETATM    5  C18 UNL     1      13.113 -14.922   0.429  1.00  0.00     0.022 C 
HETATM    6  C19 UNL     1      13.759 -14.497   1.700  1.00  0.00     0.027 C 
HETATM    7  C20 UNL     1      12.921 -13.577   2.555  1.00  0.00     0.087 C 
HETATM    8  C25 UNL     1      11.880 -12.836   1.749  1.00  0.00     0.045 C 
HETATM    9  C26 UNL     1      10.604 -13.584   1.583  1.00  0.00     0.130 C 
ENDROOT
BRANCH   1  10
HETATM   10  O3  UNL     1       9.761 -15.639  -1.424  1.00  0.00    -0.301 OA
BRANCH  10  11
HETATM   11  C15 UNL     1       9.746 -15.266  -2.804  1.00  0.00     0.213 C 
BRANCH  11  12
HETATM   12  C14 UNL     1       8.370 -15.519  -3.335  1.00  0.00     0.157 C 
HETATM   13  C11 UNL     1       8.315 -15.285  -4.849  1.00  0.00    -0.015 C 
HETATM   14  C10 UNL     1       6.977 -15.922  -5.149  1.00  0.00     0.072 C 
HETATM   15  C12 UNL     1       9.395 -16.116  -5.496  1.00  0.00     0.018 C 
HETATM   16  C13 UNL     1       8.377 -13.845  -5.212  1.00  0.00     0.018 C 
HETATM   17  C9  UNL     1       6.945 -17.040  -4.137  1.00  0.00     0.261 C 
HETATM   18  O7  UNL     1       8.012 -16.859  -3.271  1.00  0.00    -0.353 OA
BRANCH  17  19
HETATM   19  O2  UNL     1       7.047 -18.237  -4.837  1.00  0.00    -0.361 OA
BRANCH  19  20
HETATM   20  C8  UNL     1       6.012 -19.081  -4.504  1.00  0.00     0.171 C 
BRANCH  20  21
HETATM   21  C7  UNL     1       4.995 -18.474  -3.598  1.00  0.00     0.026 C 
BRANCH  21  22
HETATM   22  C6  UNL     1       4.974 -19.302  -2.319  1.00  0.00     0.002 C 
BRANCH  22  23
HETATM   23  C5  UNL     1       5.612 -18.599  -1.179  1.00  0.00     0.009 C 
BRANCH  23  24
HETATM   24  C4  UNL     1       5.100 -17.200  -1.050  1.00  0.00     0.103 C 
BRANCH  24  25
HETATM   25  C3  UNL     1       5.505 -16.545   0.193  1.00  0.00     0.217 C 
HETATM   26  N1  UNL     1       6.882 -16.414   0.583  1.00  0.00    -0.361 N 
ATOM     27  H1  UNL     1       7.605 -16.792  -0.030  1.00  0.00     0.162 HD
HETATM   28  O1  UNL     1       4.663 -16.064   0.979  1.00  0.00    -0.274 OA
BRANCH  26  29
HETATM   29  C2  UNL     1       7.279 -15.767   1.809  1.00  0.00     0.118 C 
HETATM   30  C1  UNL     1       8.374 -16.516   2.527  1.00  0.00     0.026 C 
ENDBRANCH  26  29
ENDBRANCH  24  25
ENDBRANCH  23  24
ENDBRANCH  22  23
ENDBRANCH  21  22
ENDBRANCH  20  21
ENDBRANCH  19  20
ENDBRANCH  17  19
ENDBRANCH  11  12
ENDBRANCH  10  11
ENDBRANCH   1  10
BRANCH   7  31
HETATM   31  N3  UNL     1      12.360 -14.246   3.696  1.00  0.00    -0.338 N 
HETATM   32  C21 UNL     1      13.075 -14.321   4.914  1.00  0.00     0.322 C 
HETATM   33  O5  UNL     1      14.238 -13.799   5.042  1.00  0.00    -0.247 OA
HETATM   34  N4  UNL     1      12.584 -14.962   6.071  1.00  0.00    -0.292 N 
ATOM     35  H4  UNL     1      12.586 -15.982   6.051  1.00  0.00     0.172 HD
ATOM     36  H3  UNL     1      11.436 -14.672   3.627  1.00  0.00     0.164 HD
BRANCH  34  37
HETATM   37  C22 UNL     1      12.141 -14.428   7.132  1.00  0.00     0.155 A 
HETATM   38  N5  UNL     1      12.780 -13.396   7.739  1.00  0.00    -0.223 N 
HETATM   39  O6  UNL     1      12.108 -13.064   8.782  1.00  0.00    -0.155 OA
ATOM     40  H5  UNL     1      13.645 -12.959   7.421  1.00  0.00     0.198 HD
HETATM   41  N6  UNL     1      11.054 -13.791   8.938  1.00  0.00    -0.242 N 
HETATM   42  C23 UNL     1      11.034 -14.674   7.909  1.00  0.00     0.076 A 
ATOM     43  H6  UNL     1      10.368 -13.715   9.690  1.00  0.00     0.196 HD
HETATM   44  C24 UNL     1      10.007 -15.696   7.691  1.00  0.00     0.074 C 
ENDBRANCH  34  37
ENDBRANCH   7  31
TORSDOF 13
ENDMDL
MODEL 4
REMARK VINA RESULT: -9.196098467      1.574      3.040
REMARK  13 active torsions:
REMARK  status: ('A' for Active; 'I' for Inactive)
REMARK    1  A    between atoms: C2_2  and  N1_3 
REMARK       I    between atoms: N1_3  and  C3_5 
REMARK    2  A    between atoms: C3_5  and  C4_7 
REMARK    3  A    between atoms: C4_7  and  C5_8 
REMARK    4  A    between atoms: C5_8  and  C6_9 
REMARK    5  A    between atoms: C6_9  and  C7_10 
REMARK    6  A    between atoms: C7_10  and  C8_11 
REMARK    7  A    between atoms: C8_11  and  O2_12 
REMARK    8  A    between atoms: O2_12  and  C9_13 
REMARK    9  A    between atoms: C14_18  and  C15_19 
REMARK   10  A    between atoms: C15_19  and  O3_20 
REMARK   11  A    between atoms: O3_20  and  C16_21 
REMARK       I    between atoms: C16_21  and  N2_23 
REMARK   12  A    between atoms: C20_27  and  N3_28 
REMARK       I    between atoms: N3_28  and  C21_30 
REMARK       I    between atoms: C21_30  and  N4_32 
REMARK   13  A    between atoms: N4_32  and  C22_34 
ROOT
HETATM    1  C16 UNL     1       9.217 -14.365   0.202  1.00  0.00     0.362 C 
HETATM    2  O4  UNL     1       8.388 -13.454   0.454  1.00  0.00    -0.238 OA
HETATM    3  N2  UNL     1      10.396 -14.472   0.985  1.00  0.00    -0.328 N 
HETATM    4  C17 UNL     1      11.343 -15.525   0.681  1.00  0.00     0.128 C 
HETATM    5  C18 UNL     1      12.634 -14.860   0.261  1.00  0.00     0.022 C 
HETATM    6  C19 UNL     1      13.571 -14.587   1.384  1.00  0.00     0.027 C 
HETATM    7  C20 UNL     1      13.010 -13.701   2.471  1.00  0.00     0.087 C 
HETATM    8  C25 UNL     1      11.876 -12.834   1.974  1.00  0.00     0.045 C 
HETATM    9  C26 UNL     1      10.543 -13.492   2.042  1.00  0.00     0.130 C 
ENDROOT
BRANCH   1  10
HETATM   10  O3  UNL     1       8.916 -15.222  -0.846  1.00  0.00    -0.301 OA
BRANCH  10  11
HETATM   11  C15 UNL     1       7.572 -15.406  -1.298  1.00  0.00     0.213 C 
BRANCH  11  12
HETATM   12  C14 UNL     1       7.279 -16.874  -1.287  1.00  0.00     0.157 C 
HETATM   13  C11 UNL     1       6.626 -17.294   0.035  1.00  0.00    -0.015 C 
HETATM   14  C10 UNL     1       6.145 -18.674  -0.354  1.00  0.00     0.072 C 
HETATM   15  C12 UNL     1       5.422 -16.416   0.267  1.00  0.00     0.018 C 
HETATM   16  C13 UNL     1       7.583 -17.301   1.172  1.00  0.00     0.018 C 
HETATM   17  C9  UNL     1       5.811 -18.473  -1.811  1.00  0.00     0.261 C 
HETATM   18  O7  UNL     1       6.281 -17.224  -2.187  1.00  0.00    -0.353 OA
BRANCH  17  19
HETATM   19  O2  UNL     1       4.429 -18.562  -1.937  1.00  0.00    -0.361 OA
BRANCH  19  20
HETATM   20  C8  UNL     1       3.969 -17.651  -2.859  1.00  0.00     0.171 C 
BRANCH  20  21
HETATM   21  C7  UNL     1       3.438 -18.262  -4.111  1.00  0.00     0.026 C 
BRANCH  21  22
HETATM   22  C6  UNL     1       4.192 -17.636  -5.278  1.00  0.00     0.002 C 
BRANCH  22  23
HETATM   23  C5  UNL     1       5.525 -18.252  -5.487  1.00  0.00     0.009 C 
BRANCH  23  24
HETATM   24  C4  UNL     1       6.302 -17.520  -6.534  1.00  0.00     0.103 C 
BRANCH  24  25
HETATM   25  C3  UNL     1       7.647 -17.141  -6.103  1.00  0.00     0.217 C 
HETATM   26  N1  UNL     1       7.888 -16.378  -4.909  1.00  0.00    -0.361 N 
ATOM     27  H1  UNL     1       7.091 -16.089  -4.341  1.00  0.00     0.162 HD
HETATM   28  O1  UNL     1       8.656 -17.468  -6.761  1.00  0.00    -0.274 OA
BRANCH  26  29
HETATM   29  C2  UNL     1       9.215 -16.006  -4.486  1.00  0.00     0.118 C 
HETATM   30  C1  UNL     1       9.461 -14.522  -4.601  1.00  0.00     0.026 C 
ENDBRANCH  26  29
ENDBRANCH  24  25
ENDBRANCH  23  24
ENDBRANCH  22  23
ENDBRANCH  21  22
ENDBRANCH  20  21
ENDBRANCH  19  20
ENDBRANCH  17  19
ENDBRANCH  11  12
ENDBRANCH  10  11
ENDBRANCH   1  10
BRANCH   7  31
HETATM   31  N3  UNL     1      12.663 -14.436   3.655  1.00  0.00    -0.338 N 
HETATM   32  C21 UNL     1      13.294 -14.159   4.890  1.00  0.00     0.322 C 
HETATM   33  O5  UNL     1      14.189 -13.248   4.995  1.00  0.00    -0.247 OA
HETATM   34  N4  UNL     1      13.002 -14.842   6.088  1.00  0.00    -0.292 N 
ATOM     35  H4  UNL     1      13.364 -15.792   6.161  1.00  0.00     0.172 HD
ATOM     36  H3  UNL     1      11.954 -15.168   3.604  1.00  0.00     0.164 HD
BRANCH  34  37
HETATM   37  C22 UNL     1      12.344 -14.422   7.088  1.00  0.00     0.155 A 
HETATM   38  N5  UNL     1      12.779 -13.388   7.852  1.00  0.00    -0.223 N 
HETATM   39  O6  UNL     1      11.918 -13.186   8.783  1.00  0.00    -0.155 OA
ATOM     40  H5  UNL     1      13.641 -12.862   7.711  1.00  0.00     0.198 HD
HETATM   41  N6  UNL     1      10.922 -14.003   8.716  1.00  0.00    -0.242 N 
HETATM   42  C23 UNL     1      11.151 -14.810   7.650  1.00  0.00     0.076 A 
ATOM     43  H6  UNL     1      10.118 -14.036   9.344  1.00  0.00     0.196 HD
HETATM   44  C24 UNL     1      10.270 -15.892   7.203  1.00  0.00     0.074 C 
ENDBRANCH  34  37
ENDBRANCH   7  31
TORSDOF 13
ENDMDL
MODEL 5
REMARK VINA RESULT: -9.147793453      1.264      1.543
REMARK  13 active torsions:
REMARK  status: ('A' for Active; 'I' for Inactive)
REMARK    1  A    between atoms: C2_2  and  N1_3 
REMARK       I    between atoms: N1_3  and  C3_5 
REMARK    2  A    between atoms: C3_5  and  C4_7 
REMARK    3  A    between atoms: C4_7  and  C5_8 
REMARK    4  A    between atoms: C5_8  and  C6_9 
REMARK    5  A    between atoms: C6_9  and  C7_10 
REMARK    6  A    between atoms: C7_10  and  C8_11 
REMARK    7  A    between atoms: C8_11  and  O2_12 
REMARK    8  A    between atoms: O2_12  and  C9_13 
REMARK    9  A    between atoms: C14_18  and  C15_19 
REMARK   10  A    between atoms: C15_19  and  O3_20 
REMARK   11  A    between atoms: O3_20  and  C16_21 
REMARK       I    between atoms: C16_21  and  N2_23 
REMARK   12  A    between atoms: C20_27  and  N3_28 
REMARK       I    between atoms: N3_28  and  C21_30 
REMARK       I    between atoms: C21_30  and  N4_32 
REMARK   13  A    between atoms: N4_32  and  C22_34 
ROOT
HETATM    1  C16 UNL     1       9.550 -14.711   0.714  1.00  0.00     0.362 C 
HETATM    2  O4  UNL     1       8.619 -13.900   0.953  1.00  0.00    -0.238 OA
HETATM    3  N2  UNL     1      10.742 -14.650   1.482  1.00  0.00    -0.328 N 
HETATM    4  C17 UNL     1      11.807 -15.589   1.194  1.00  0.00     0.128 C 
HETATM    5  C18 UNL     1      13.003 -14.785   0.735  1.00  0.00     0.022 C 
HETATM    6  C19 UNL     1      13.912 -14.366   1.836  1.00  0.00     0.027 C 
HETATM    7  C20 UNL     1      13.259 -13.523   2.905  1.00  0.00     0.087 C 
HETATM    8  C25 UNL     1      12.023 -12.815   2.401  1.00  0.00     0.045 C 
HETATM    9  C26 UNL     1      10.781 -13.628   2.508  1.00  0.00     0.130 C 
ENDROOT
BRANCH   1  10
HETATM   10  O3  UNL     1       9.344 -15.629  -0.304  1.00  0.00    -0.301 OA
BRANCH  10  11
HETATM   11  C15 UNL     1       8.832 -16.937  -0.038  1.00  0.00     0.213 C 
BRANCH  11  12
HETATM   12  C14 UNL     1       8.225 -17.461  -1.302  1.00  0.00     0.157 C 
HETATM   13  C11 UNL     1       6.700 -17.556  -1.180  1.00  0.00    -0.015 C 
HETATM   14  C10 UNL     1       6.347 -17.762  -2.636  1.00  0.00     0.072 C 
HETATM   15  C12 UNL     1       6.175 -16.209  -0.748  1.00  0.00     0.018 C 
HETATM   16  C13 UNL     1       6.261 -18.672  -0.304  1.00  0.00     0.018 C 
HETATM   17  C9  UNL     1       7.417 -16.947  -3.320  1.00  0.00     0.261 C 
HETATM   18  O7  UNL     1       8.341 -16.567  -2.359  1.00  0.00    -0.353 OA
BRANCH  17  19
HETATM   19  O2  UNL     1       6.795 -15.847  -3.900  1.00  0.00    -0.361 OA
BRANCH  19  20
HETATM   20  C8  UNL     1       7.544 -14.710  -3.703  1.00  0.00     0.171 C 
BRANCH  20  21
HETATM   21  C7  UNL     1       8.085 -14.108  -4.955  1.00  0.00     0.026 C 
BRANCH  21  22
HETATM   22  C6  UNL     1       9.570 -14.443  -5.015  1.00  0.00     0.002 C 
BRANCH  22  23
HETATM   23  C5  UNL     1       9.842 -15.674  -5.797  1.00  0.00     0.009 C 
BRANCH  23  24
HETATM   24  C4  UNL     1       9.161 -15.633  -7.127  1.00  0.00     0.103 C 
BRANCH  24  25
HETATM   25  C3  UNL     1       8.018 -16.540  -7.224  1.00  0.00     0.217 C 
HETATM   26  N1  UNL     1       6.749 -16.128  -7.760  1.00  0.00    -0.361 N 
ATOM     27  H1  UNL     1       6.642 -15.167  -8.086  1.00  0.00     0.162 HD
HETATM   28  O1  UNL     1       8.094 -17.725  -6.841  1.00  0.00    -0.274 OA
BRANCH  26  29
HETATM   29  C2  UNL     1       5.624 -17.024  -7.856  1.00  0.00     0.118 C 
HETATM   30  C1  UNL     1       4.312 -16.332  -7.580  1.00  0.00     0.026 C 
ENDBRANCH  26  29
ENDBRANCH  24  25
ENDBRANCH  23  24
ENDBRANCH  22  23
ENDBRANCH  21  22
ENDBRANCH  20  21
ENDBRANCH  19  20
ENDBRANCH  17  19
ENDBRANCH  11  12
ENDBRANCH  10  11
ENDBRANCH   1  10
BRANCH   7  31
HETATM   31  N3  UNL     1      13.019 -14.259   4.114  1.00  0.00    -0.338 N 
HETATM   32  C21 UNL     1      13.359 -13.713   5.374  1.00  0.00     0.322 C 
HETATM   33  O5  UNL     1      13.888 -12.551   5.480  1.00  0.00    -0.247 OA
HETATM   34  N4  UNL     1      13.150 -14.381   6.598  1.00  0.00    -0.292 N 
ATOM     35  H4  UNL     1      13.789 -15.149   6.802  1.00  0.00     0.172 HD
ATOM     36  H3  UNL     1      12.599 -15.187   4.064  1.00  0.00     0.164 HD
BRANCH  34  37
HETATM   37  C22 UNL     1      12.267 -14.146   7.478  1.00  0.00     0.155 A 
HETATM   38  N5  UNL     1      12.423 -13.171   8.410  1.00  0.00    -0.223 N 
HETATM   39  O6  UNL     1      11.381 -13.163   9.160  1.00  0.00    -0.155 OA
ATOM     40  H5  UNL     1      13.229 -12.553   8.499  1.00  0.00     0.198 HD
HETATM   41  N6  UNL     1      10.519 -14.058   8.814  1.00  0.00    -0.242 N 
HETATM   42  C23 UNL     1      11.042 -14.709   7.745  1.00  0.00     0.076 A 
ATOM     43  H6  UNL     1       9.619 -14.241   9.258  1.00  0.00     0.196 HD
HETATM   44  C24 UNL     1      10.397 -15.810   7.026  1.00  0.00     0.074 C 
ENDBRANCH  34  37
ENDBRANCH   7  31
TORSDOF 13
ENDMDL
