MODEL 1
REMARK VINA RESULT: -6.130309783      0.000      0.000
REMARK  15 active torsions:
REMARK  status: ('A' for Active; 'I' for Inactive)
REMARK    1  A    between atoms: N1_1  and  C1_5 
REMARK    2  A    between atoms: C1_5  and  C2_6 
REMARK    3  A    between atoms: C2_6  and  C3_7 
REMARK    4  A    between atoms: C3_7  and  C4_8 
REMARK    5  A    between atoms: C4_8  and  C5_9 
REMARK    6  A    between atoms: C6_12  and  O1_13 
REMARK    7  A    between atoms: C8_17  and  C9_18 
REMARK    8  A    between atoms: C9_18  and  N3_19 
REMARK    9  A    between atoms: C11_26  and  C12_27 
REMARK   10  A    between atoms: C12_27  and  O5_28 
REMARK   11  A    between atoms: C14_34  and  N5_35 
REMARK   12  A    between atoms: N5_35  and  C15_36 
REMARK   13  A    between atoms: C16_38  and  N6_39 
REMARK   14  A    between atoms: C17_43  and  O8_44 
REMARK   15  A    between atoms: C18_48  and  N8_49 
ROOT
HETATM    1  C5  UNL     1     -23.812  -5.632  -5.310  1.00  0.00     0.177 C 
HETATM    2  N2  UNL     1     -24.338  -6.607  -6.287  1.00  0.00    -0.337 N 
ATOM      3  H2  UNL     1     -25.147  -7.149  -5.986  1.00  0.00     0.164 HD
HETATM    4  C6  UNL     1     -23.861  -6.878  -7.571  1.00  0.00     0.258 C 
HETATM    5  O2  UNL     1     -23.836  -6.055  -8.672  1.00  0.00    -0.314 OA
HETATM    6  C7  UNL     1     -24.935  -5.395  -9.267  1.00  0.00     0.213 C 
HETATM    7  C8  UNL     1     -26.262  -6.077  -9.025  1.00  0.00     0.181 C 
HETATM    8  O3  UNL     1     -26.696  -6.770 -10.113  1.00  0.00    -0.310 OA
HETATM    9  C10 UNL     1     -26.316  -7.714 -10.963  1.00  0.00     0.284 C 
HETATM   10  O4  UNL     1     -26.159  -7.420 -12.207  1.00  0.00    -0.263 OA
HETATM   11  C11 UNL     1     -26.023  -9.163 -10.699  1.00  0.00     0.207 C 
HETATM   12  N4  UNL     1     -26.390  -9.545  -9.375  1.00  0.00    -0.343 N 
ATOM     13  H4  UNL     1     -26.007  -8.925  -8.662  1.00  0.00     0.163 HD
HETATM   14  C13 UNL     1     -27.148 -10.567  -8.848  1.00  0.00     0.257 C 
HETATM   15  O6  UNL     1     -28.292 -10.275  -8.305  1.00  0.00    -0.270 OA
HETATM   16  C14 UNL     1     -26.878 -12.042  -8.779  1.00  0.00     0.296 C 
HETATM   17  C16 UNL     1     -27.496 -12.585  -7.465  1.00  0.00     0.301 C 
HETATM   18  C17 UNL     1     -27.406 -11.662  -6.339  1.00  0.00     0.149 C 
HETATM   19  N7  UNL     1     -26.411 -10.766  -5.967  1.00  0.00    -0.323 N 
ATOM     20  H7  UNL     1     -26.709  -9.790  -5.940  1.00  0.00     0.165 HD
HETATM   21  C18 UNL     1     -25.026 -10.980  -5.613  1.00  0.00     0.484 C 
HETATM   22  N9  UNL     1     -24.769 -10.647  -4.214  1.00  0.00    -0.027 N 
ATOM     23  H91 UNL     1     -24.302 -11.419  -3.738  1.00  0.00     0.281 HD
ATOM     24  H92 UNL     1     -25.639 -10.622  -3.682  1.00  0.00     0.281 HD
HETATM   25  C19 UNL     1     -24.030  -9.418  -4.043  1.00  0.00     0.256 C 
HETATM   26  C20 UNL     1     -24.962  -8.363  -3.501  1.00  0.00     0.150 C 
HETATM   27  N10 UNL     1     -24.347  -7.090  -3.244  1.00  0.00    -0.358 N 
ATOM     28  H10 UNL     1     -23.799  -7.049  -2.385  1.00  0.00     0.162 HD
HETATM   29  C21 UNL     1     -24.375  -5.896  -3.978  1.00  0.00     0.240 C 
HETATM   30  O9  UNL     1     -24.975  -4.891  -3.414  1.00  0.00    -0.271 OA
ENDROOT
BRANCH   1  31
HETATM   31  C4  UNL     1     -22.351  -5.457  -5.446  1.00  0.00     0.035 C 
BRANCH  31  32
HETATM   32  C3  UNL     1     -21.820  -4.130  -5.769  1.00  0.00     0.004 C 
BRANCH  32  33
HETATM   33  C2  UNL     1     -22.363  -2.924  -5.117  1.00  0.00     0.027 C 
BRANCH  33  34
HETATM   34  C1  UNL     1     -22.417  -1.758  -6.143  1.00  0.00     0.229 C 
BRANCH  34  35
HETATM   35  N1  UNL     1     -23.111  -2.315  -7.295  1.00  0.00    -0.079 N 
ATOM     36  H13 UNL     1     -22.560  -2.315  -8.154  1.00  0.00     0.274 HD
ATOM     37  H12 UNL     1     -23.248  -3.325  -7.250  1.00  0.00     0.274 HD
ATOM     38  H11 UNL     1     -23.977  -1.779  -7.356  1.00  0.00     0.274 HD
ENDBRANCH  34  35
ENDBRANCH  33  34
ENDBRANCH  32  33
ENDBRANCH  31  32
ENDBRANCH   1  31
BRANCH   4  39
HETATM   39  O1  UNL     1     -23.374  -8.074  -7.750  1.00  0.00    -0.327 OA
ATOM     40  H1  UNL     1     -22.699  -8.145  -8.414  1.00  0.00     0.221 HD
ENDBRANCH   4  39
BRANCH   7  41
HETATM   41  C9  UNL     1     -27.228  -4.923  -8.644  1.00  0.00     0.264 C 
BRANCH  41  42
HETATM   42  N3  UNL     1     -26.364  -3.820  -8.311  1.00  0.00    -0.077 N 
ATOM     43  H33 UNL     1     -25.984  -3.862  -7.365  1.00  0.00     0.274 HD
ATOM     44  H32 UNL     1     -25.467  -3.834  -8.795  1.00  0.00     0.274 HD
ATOM     45  H31 UNL     1     -26.924  -2.988  -8.497  1.00  0.00     0.274 HD
ENDBRANCH  41  42
ENDBRANCH   7  41
BRANCH  21  46
HETATM   46  N8  UNL     1     -24.557 -12.297  -5.832  1.00  0.00    -0.033 N 
ATOM     47  H83 UNL     1     -25.324 -12.964  -5.748  1.00  0.00     0.278 HD
ATOM     48  H82 UNL     1     -24.317 -12.428  -6.815  1.00  0.00     0.278 HD
ATOM     49  H81 UNL     1     -23.778 -12.577  -5.237  1.00  0.00     0.278 HD
ENDBRANCH  21  46
BRANCH  11  50
HETATM   50  C12 UNL     1     -24.579  -9.438 -11.061  1.00  0.00     0.199 C 
BRANCH  50  51
HETATM   51  O5  UNL     1     -23.847  -8.278 -10.703  1.00  0.00    -0.398 OA
ATOM     52  H5  UNL     1     -23.919  -8.193  -9.760  1.00  0.00     0.209 HD
ENDBRANCH  50  51
ENDBRANCH  11  50
BRANCH  18  53
HETATM   53  O8  UNL     1     -28.439 -11.688  -5.546  1.00  0.00    -0.348 OA
ATOM     54  H8  UNL     1     -28.305 -12.189  -4.750  1.00  0.00     0.219 HD
ENDBRANCH  18  53
BRANCH  17  55
HETATM   55  N6  UNL     1     -26.919 -13.888  -7.263  1.00  0.00    -0.064 N 
ATOM     56  H63 UNL     1     -27.322 -14.609  -7.862  1.00  0.00     0.275 HD
ATOM     57  H62 UNL     1     -25.960 -13.965  -7.602  1.00  0.00     0.275 HD
ATOM     58  H61 UNL     1     -27.015 -14.087  -6.267  1.00  0.00     0.275 HD
ENDBRANCH  17  55
BRANCH  16  59
HETATM   59  N5  UNL     1     -27.607 -12.666  -9.809  1.00  0.00    -0.405 NA
BRANCH  59  60
HETATM   60  C15 UNL     1     -28.296 -13.260 -10.783  1.00  0.00     0.436 C 
HETATM   61  O7  UNL     1     -28.677 -14.480 -10.817  1.00  0.00    -0.269 OA
ENDBRANCH  59  60
ENDBRANCH  16  59
TORSDOF 15
ENDMDL
MODEL 2
REMARK VINA RESULT: -5.926770861      1.613      1.864
REMARK  15 active torsions:
REMARK  status: ('A' for Active; 'I' for Inactive)
REMARK    1  A    between atoms: N1_1  and  C1_5 
REMARK    2  A    between atoms: C1_5  and  C2_6 
REMARK    3  A    between atoms: C2_6  and  C3_7 
REMARK    4  A    between atoms: C3_7  and  C4_8 
REMARK    5  A    between atoms: C4_8  and  C5_9 
REMARK    6  A    between atoms: C6_12  and  O1_13 
REMARK    7  A    between atoms: C8_17  and  C9_18 
REMARK    8  A    between atoms: C9_18  and  N3_19 
REMARK    9  A    between atoms: C11_26  and  C12_27 
REMARK   10  A    between atoms: C12_27  and  O5_28 
REMARK   11  A    between atoms: C14_34  and  N5_35 
REMARK   12  A    between atoms: N5_35  and  C15_36 
REMARK   13  A    between atoms: C16_38  and  N6_39 
REMARK   14  A    between atoms: C17_43  and  O8_44 
REMARK   15  A    between atoms: C18_48  and  N8_49 
ROOT
HETATM    1  C5  UNL     1     -24.185  -5.144  -5.302  1.00  0.00     0.177 C 
HETATM    2  N2  UNL     1     -24.748  -5.864  -6.462  1.00  0.00    -0.337 N 
ATOM      3  H2  UNL     1     -25.324  -6.678  -6.247  1.00  0.00     0.164 HD
HETATM    4  C6  UNL     1     -24.587  -5.568  -7.817  1.00  0.00     0.258 C 
HETATM    5  O2  UNL     1     -25.020  -4.465  -8.514  1.00  0.00    -0.314 OA
HETATM    6  C7  UNL     1     -26.347  -3.987  -8.612  1.00  0.00     0.213 C 
HETATM    7  C8  UNL     1     -27.399  -5.054  -8.411  1.00  0.00     0.181 C 
HETATM    8  O3  UNL     1     -27.961  -5.457  -9.582  1.00  0.00    -0.310 OA
HETATM    9  C10 UNL     1     -27.642  -5.936 -10.778  1.00  0.00     0.284 C 
HETATM   10  O4  UNL     1     -27.884  -5.229 -11.827  1.00  0.00    -0.263 OA
HETATM   11  C11 UNL     1     -27.007  -7.249 -11.133  1.00  0.00     0.207 C 
HETATM   12  N4  UNL     1     -26.924  -8.119 -10.006  1.00  0.00    -0.343 N 
ATOM     13  H4  UNL     1     -26.495  -7.677  -9.193  1.00  0.00     0.163 HD
HETATM   14  C13 UNL     1     -27.295  -9.425  -9.774  1.00  0.00     0.257 C 
HETATM   15  O6  UNL     1     -28.287  -9.654  -8.966  1.00  0.00    -0.270 OA
HETATM   16  C14 UNL     1     -26.730 -10.707 -10.312  1.00  0.00     0.296 C 
HETATM   17  C16 UNL     1     -26.854 -11.790  -9.209  1.00  0.00     0.301 C 
HETATM   18  C17 UNL     1     -26.651 -11.286  -7.855  1.00  0.00     0.149 C 
HETATM   19  N7  UNL     1     -25.792 -10.314  -7.359  1.00  0.00    -0.323 N 
ATOM     20  H7  UNL     1     -26.260  -9.523  -6.916  1.00  0.00     0.165 HD
HETATM   21  C18 UNL     1     -24.348 -10.232  -7.365  1.00  0.00     0.484 C 
HETATM   22  N9  UNL     1     -23.799 -10.303  -6.013  1.00  0.00    -0.027 N 
ATOM     23  H91 UNL     1     -23.078 -11.022  -5.952  1.00  0.00     0.281 HD
ATOM     24  H92 UNL     1     -24.482 -10.694  -5.365  1.00  0.00     0.281 HD
HETATM   25  C19 UNL     1     -23.300  -9.037  -5.529  1.00  0.00     0.256 C 
HETATM   26  C20 UNL     1     -24.245  -8.516  -4.474  1.00  0.00     0.150 C 
HETATM   27  N10 UNL     1     -23.849  -7.272  -3.873  1.00  0.00    -0.358 N 
ATOM     28  H10 UNL     1     -23.111  -7.354  -3.174  1.00  0.00     0.162 HD
HETATM   29  C21 UNL     1     -24.308  -5.965  -4.088  1.00  0.00     0.240 C 
HETATM   30  O9  UNL     1     -24.923  -5.403  -3.091  1.00  0.00    -0.271 OA
ENDROOT
BRANCH   1  31
HETATM   31  C4  UNL     1     -22.878  -4.533  -5.621  1.00  0.00     0.035 C 
BRANCH  31  32
HETATM   32  C3  UNL     1     -22.477  -3.307  -4.925  1.00  0.00     0.004 C 
BRANCH  32  33
HETATM   33  C2  UNL     1     -22.451  -2.015  -5.634  1.00  0.00     0.027 C 
BRANCH  33  34
HETATM   34  C1  UNL     1     -22.147  -2.254  -7.139  1.00  0.00     0.229 C 
BRANCH  34  35
HETATM   35  N1  UNL     1     -23.423  -2.045  -7.808  1.00  0.00    -0.079 N 
ATOM     36  H13 UNL     1     -23.446  -2.371  -8.775  1.00  0.00     0.274 HD
ATOM     37  H12 UNL     1     -24.174  -2.647  -7.469  1.00  0.00     0.274 HD
ATOM     38  H11 UNL     1     -23.608  -1.047  -7.700  1.00  0.00     0.274 HD
ENDBRANCH  34  35
ENDBRANCH  33  34
ENDBRANCH  32  33
ENDBRANCH  31  32
ENDBRANCH   1  31
BRANCH   4  39
HETATM   39  O1  UNL     1     -23.938  -6.457  -8.514  1.00  0.00    -0.327 OA
ATOM     40  H1  UNL     1     -24.476  -7.049  -9.026  1.00  0.00     0.221 HD
ENDBRANCH   4  39
BRANCH   7  41
HETATM   41  C9  UNL     1     -28.437  -4.401  -7.459  1.00  0.00     0.264 C 
BRANCH  41  42
HETATM   42  N3  UNL     1     -29.078  -3.389  -8.259  1.00  0.00    -0.077 N 
ATOM     43  H33 UNL     1     -29.592  -2.695  -7.717  1.00  0.00     0.274 HD
ATOM     44  H32 UNL     1     -28.430  -2.735  -8.698  1.00  0.00     0.274 HD
ATOM     45  H31 UNL     1     -29.654  -3.910  -8.920  1.00  0.00     0.274 HD
ENDBRANCH  41  42
ENDBRANCH   7  41
BRANCH  21  46
HETATM   46  N8  UNL     1     -23.704 -11.224  -8.142  1.00  0.00    -0.033 N 
ATOM     47  H83 UNL     1     -22.790 -11.444  -7.746  1.00  0.00     0.278 HD
ATOM     48  H82 UNL     1     -24.169 -12.124  -8.024  1.00  0.00     0.278 HD
ATOM     49  H81 UNL     1     -23.614 -10.998  -9.132  1.00  0.00     0.278 HD
ENDBRANCH  21  46
BRANCH  11  50
HETATM   50  C12 UNL     1     -25.687  -6.978 -11.823  1.00  0.00     0.199 C 
BRANCH  50  51
HETATM   51  O5  UNL     1     -25.173  -5.787 -11.252  1.00  0.00    -0.398 OA
ATOM     52  H5  UNL     1     -24.648  -5.370 -11.925  1.00  0.00     0.209 HD
ENDBRANCH  50  51
ENDBRANCH  11  50
BRANCH  18  53
HETATM   53  O8  UNL     1     -27.409 -11.853  -6.960  1.00  0.00    -0.348 OA
ATOM     54  H8  UNL     1     -27.877 -11.240  -6.404  1.00  0.00     0.219 HD
ENDBRANCH  18  53
BRANCH  17  55
HETATM   55  N6  UNL     1     -25.997 -12.872  -9.617  1.00  0.00    -0.064 N 
ATOM     56  H63 UNL     1     -26.504 -13.723  -9.862  1.00  0.00     0.275 HD
ATOM     57  H62 UNL     1     -25.558 -12.723 -10.525  1.00  0.00     0.275 HD
ATOM     58  H61 UNL     1     -25.328 -13.003  -8.858  1.00  0.00     0.275 HD
ENDBRANCH  17  55
BRANCH  16  59
HETATM   59  N5  UNL     1     -27.568 -11.149 -11.353  1.00  0.00    -0.405 NA
BRANCH  59  60
HETATM   60  C15 UNL     1     -28.359 -11.569 -12.340  1.00  0.00     0.436 C 
HETATM   61  O7  UNL     1     -28.738 -12.770 -12.559  1.00  0.00    -0.269 OA
ENDBRANCH  59  60
ENDBRANCH  16  59
TORSDOF 15
ENDMDL
MODEL 3
REMARK VINA RESULT: -5.843825864      3.041      4.711
REMARK  15 active torsions:
REMARK  status: ('A' for Active; 'I' for Inactive)
REMARK    1  A    between atoms: N1_1  and  C1_5 
REMARK    2  A    between atoms: C1_5  and  C2_6 
REMARK    3  A    between atoms: C2_6  and  C3_7 
REMARK    4  A    between atoms: C3_7  and  C4_8 
REMARK    5  A    between atoms: C4_8  and  C5_9 
REMARK    6  A    between atoms: C6_12  and  O1_13 
REMARK    7  A    between atoms: C8_17  and  C9_18 
REMARK    8  A    between atoms: C9_18  and  N3_19 
REMARK    9  A    between atoms: C11_26  and  C12_27 
REMARK   10  A    between atoms: C12_27  and  O5_28 
REMARK   11  A    between atoms: C14_34  and  N5_35 
REMARK   12  A    between atoms: N5_35  and  C15_36 
REMARK   13  A    between atoms: C16_38  and  N6_39 
REMARK   14  A    between atoms: C17_43  and  O8_44 
REMARK   15  A    between atoms: C18_48  and  N8_49 
ROOT
HETATM    1  C5  UNL     1     -24.553  -5.758  -6.844  1.00  0.00     0.177 C 
HETATM    2  N2  UNL     1     -25.171  -5.894  -8.179  1.00  0.00    -0.337 N 
ATOM      3  H2  UNL     1     -25.669  -6.767  -8.354  1.00  0.00     0.164 HD
HETATM    4  C6  UNL     1     -25.157  -4.975  -9.229  1.00  0.00     0.258 C 
HETATM    5  O2  UNL     1     -25.724  -3.725  -9.288  1.00  0.00    -0.314 OA
HETATM    6  C7  UNL     1     -27.083  -3.396  -9.078  1.00  0.00     0.213 C 
HETATM    7  C8  UNL     1     -28.039  -4.532  -9.363  1.00  0.00     0.181 C 
HETATM    8  O3  UNL     1     -28.678  -4.386 -10.555  1.00  0.00    -0.310 OA
HETATM    9  C10 UNL     1     -28.440  -4.203 -11.848  1.00  0.00     0.284 C 
HETATM   10  O4  UNL     1     -28.824  -3.112 -12.414  1.00  0.00    -0.263 OA
HETATM   11  C11 UNL     1     -27.755  -5.118 -12.822  1.00  0.00     0.207 C 
HETATM   12  N4  UNL     1     -27.510  -6.404 -12.258  1.00  0.00    -0.343 N 
ATOM     13  H4  UNL     1     -27.039  -6.360 -11.355  1.00  0.00     0.163 HD
HETATM   14  C13 UNL     1     -27.771  -7.695 -12.666  1.00  0.00     0.257 C 
HETATM   15  O6  UNL     1     -28.667  -8.380 -12.020  1.00  0.00    -0.270 OA
HETATM   16  C14 UNL     1     -27.174  -8.501 -13.782  1.00  0.00     0.296 C 
HETATM   17  C16 UNL     1     -27.123  -9.984 -13.332  1.00  0.00     0.301 C 
HETATM   18  C17 UNL     1     -26.831 -10.167 -11.914  1.00  0.00     0.149 C 
HETATM   19  N7  UNL     1     -25.996  -9.464 -11.054  1.00  0.00    -0.323 N 
ATOM     20  H7  UNL     1     -26.472  -9.031 -10.262  1.00  0.00     0.165 HD
HETATM   21  C18 UNL     1     -24.568  -9.242 -11.091  1.00  0.00     0.484 C 
HETATM   22  N9  UNL     1     -23.892  -9.890  -9.968  1.00  0.00    -0.027 N 
ATOM     23  H91 UNL     1     -23.123 -10.473 -10.297  1.00  0.00     0.281 HD
ATOM     24  H92 UNL     1     -24.485 -10.609  -9.556  1.00  0.00     0.281 HD
HETATM   25  C19 UNL     1     -23.436  -8.962  -8.960  1.00  0.00     0.256 C 
HETATM   26  C20 UNL     1     -24.311  -9.104  -7.740  1.00  0.00     0.150 C 
HETATM   27  N10 UNL     1     -23.946  -8.262  -6.635  1.00  0.00    -0.358 N 
ATOM     28  H10 UNL     1     -23.142  -8.590  -6.098  1.00  0.00     0.162 HD
HETATM   29  C21 UNL     1     -24.508  -7.064  -6.171  1.00  0.00     0.240 C 
HETATM   30  O9  UNL     1     -25.065  -7.110  -4.998  1.00  0.00    -0.271 OA
ENDROOT
BRANCH   1  31
HETATM   31  C4  UNL     1     -23.325  -4.938  -6.893  1.00  0.00     0.035 C 
BRANCH  31  32
HETATM   32  C3  UNL     1     -22.536  -4.763  -5.670  1.00  0.00     0.004 C 
BRANCH  32  33
HETATM   33  C2  UNL     1     -22.870  -3.697  -4.708  1.00  0.00     0.027 C 
BRANCH  33  34
HETATM   34  C1  UNL     1     -23.594  -4.315  -3.478  1.00  0.00     0.229 C 
BRANCH  34  35
HETATM   35  N1  UNL     1     -22.898  -5.571  -3.238  1.00  0.00    -0.079 N 
ATOM     36  H13 UNL     1     -23.421  -6.234  -2.665  1.00  0.00     0.274 HD
ATOM     37  H12 UNL     1     -22.823  -6.169  -4.061  1.00  0.00     0.274 HD
ATOM     38  H11 UNL     1     -22.000  -5.295  -2.840  1.00  0.00     0.274 HD
ENDBRANCH  34  35
ENDBRANCH  33  34
ENDBRANCH  32  33
ENDBRANCH  31  32
ENDBRANCH   1  31
BRANCH   4  39
HETATM   39  O1  UNL     1     -24.517  -5.354 -10.300  1.00  0.00    -0.327 OA
ATOM     40  H1  UNL     1     -24.864  -5.029 -11.121  1.00  0.00     0.221 HD
ENDBRANCH   4  39
BRANCH   7  41
HETATM   41  C9  UNL     1     -29.026  -4.519  -8.166  1.00  0.00     0.264 C 
BRANCH  41  42
HETATM   42  N3  UNL     1     -28.232  -4.088  -7.044  1.00  0.00    -0.077 N 
ATOM     43  H33 UNL     1     -28.665  -4.262  -6.137  1.00  0.00     0.274 HD
ATOM     44  H32 UNL     1     -27.399  -4.653  -6.884  1.00  0.00     0.274 HD
ATOM     45  H31 UNL     1     -28.038  -3.104  -7.230  1.00  0.00     0.274 HD
ENDBRANCH  41  42
ENDBRANCH   7  41
BRANCH  21  46
HETATM   46  N8  UNL     1     -23.933  -9.674 -12.279  1.00  0.00    -0.033 N 
ATOM     47  H83 UNL     1     -23.046 -10.128 -12.062  1.00  0.00     0.278 HD
ATOM     48  H82 UNL     1     -24.439 -10.461 -12.685  1.00  0.00     0.278 HD
ATOM     49  H81 UNL     1     -23.794  -8.943 -12.978  1.00  0.00     0.278 HD
ENDBRANCH  21  46
BRANCH  11  50
HETATM   50  C12 UNL     1     -26.525  -4.418 -13.360  1.00  0.00     0.199 C 
BRANCH  50  51
HETATM   51  O5  UNL     1     -26.006  -3.642 -12.293  1.00  0.00    -0.398 OA
ATOM     52  H5  UNL     1     -25.174  -4.033 -12.055  1.00  0.00     0.209 HD
ENDBRANCH  50  51
ENDBRANCH  11  50
BRANCH  18  53
HETATM   53  O8  UNL     1     -27.464 -11.164 -11.366  1.00  0.00    -0.348 OA
ATOM     54  H8  UNL     1     -27.238 -11.313 -10.455  1.00  0.00     0.219 HD
ENDBRANCH  18  53
BRANCH  17  55
HETATM   55  N6  UNL     1     -26.238 -10.649 -14.251  1.00  0.00    -0.064 N 
ATOM     56  H63 UNL     1     -26.725 -11.149 -14.995  1.00  0.00     0.275 HD
ATOM     57  H62 UNL     1     -25.719 -10.008 -14.851  1.00  0.00     0.275 HD
ATOM     58  H61 UNL     1     -25.640 -11.249 -13.683  1.00  0.00     0.275 HD
ENDBRANCH  17  55
BRANCH  16  59
HETATM   59  N5  UNL     1     -28.074  -8.480 -14.865  1.00  0.00    -0.405 NA
BRANCH  59  60
HETATM   60  C15 UNL     1     -28.923  -8.461 -15.891  1.00  0.00     0.436 C 
HETATM   61  O7  UNL     1     -29.077  -9.373 -16.774  1.00  0.00    -0.269 OA
ENDBRANCH  59  60
ENDBRANCH  16  59
TORSDOF 15
ENDMDL
MODEL 4
REMARK VINA RESULT: -5.836525401      3.449      7.445
REMARK  15 active torsions:
REMARK  status: ('A' for Active; 'I' for Inactive)
REMARK    1  A    between atoms: N1_1  and  C1_5 
REMARK    2  A    between atoms: C1_5  and  C2_6 
REMARK    3  A    between atoms: C2_6  and  C3_7 
REMARK    4  A    between atoms: C3_7  and  C4_8 
REMARK    5  A    between atoms: C4_8  and  C5_9 
REMARK    6  A    between atoms: C6_12  and  O1_13 
REMARK    7  A    between atoms: C8_17  and  C9_18 
REMARK    8  A    between atoms: C9_18  and  N3_19 
REMARK    9  A    between atoms: C11_26  and  C12_27 
REMARK   10  A    between atoms: C12_27  and  O5_28 
REMARK   11  A    between atoms: C14_34  and  N5_35 
REMARK   12  A    between atoms: N5_35  and  C15_36 
REMARK   13  A    between atoms: C16_38  and  N6_39 
REMARK   14  A    between atoms: C17_43  and  O8_44 
REMARK   15  A    between atoms: C18_48  and  N8_49 
ROOT
HETATM    1  C5  UNL     1     -25.044  -7.407  -6.914  1.00  0.00     0.177 C 
HETATM    2  N2  UNL     1     -25.253  -8.323  -5.774  1.00  0.00    -0.337 N 
ATOM      3  H2  UNL     1     -25.739  -7.930  -4.968  1.00  0.00     0.164 HD
HETATM    4  C6  UNL     1     -24.866  -9.659  -5.664  1.00  0.00     0.258 C 
HETATM    5  O2  UNL     1     -25.301 -10.744  -6.388  1.00  0.00    -0.314 OA
HETATM    6  C7  UNL     1     -26.634 -11.189  -6.537  1.00  0.00     0.213 C 
HETATM    7  C8  UNL     1     -27.544 -10.791  -5.397  1.00  0.00     0.181 C 
HETATM    8  O3  UNL     1     -27.794 -11.824  -4.548  1.00  0.00    -0.310 OA
HETATM    9  C10 UNL     1     -27.176 -12.728  -3.798  1.00  0.00     0.284 C 
HETATM   10  O4  UNL     1     -27.299 -13.978  -4.084  1.00  0.00    -0.263 OA
HETATM   11  C11 UNL     1     -26.304 -12.521  -2.594  1.00  0.00     0.207 C 
HETATM   12  N4  UNL     1     -26.328 -11.166  -2.150  1.00  0.00    -0.343 N 
ATOM     13  H4  UNL     1     -26.139 -10.499  -2.897  1.00  0.00     0.163 HD
HETATM   14  C13 UNL     1     -26.550 -10.561  -0.932  1.00  0.00     0.257 C 
HETATM   15  O6  UNL     1     -27.642  -9.875  -0.769  1.00  0.00    -0.270 OA
HETATM   16  C14 UNL     1     -25.712 -10.545   0.313  1.00  0.00     0.296 C 
HETATM   17  C16 UNL     1     -25.901  -9.171   1.005  1.00  0.00     0.301 C 
HETATM   18  C17 UNL     1     -26.050  -8.053   0.079  1.00  0.00     0.149 C 
HETATM   19  N7  UNL     1     -25.455  -7.798  -1.150  1.00  0.00    -0.323 N 
ATOM     20  H7  UNL     1     -26.110  -7.722  -1.929  1.00  0.00     0.165 HD
HETATM   21  C18 UNL     1     -24.066  -7.623  -1.513  1.00  0.00     0.484 C 
HETATM   22  N9  UNL     1     -23.797  -6.263  -1.974  1.00  0.00    -0.027 N 
ATOM     23  H91 UNL     1     -23.009  -5.859  -1.468  1.00  0.00     0.281 HD
ATOM     24  H92 UNL     1     -24.534  -5.626  -1.674  1.00  0.00     0.281 HD
HETATM   25  C19 UNL     1     -23.590  -6.170  -3.401  1.00  0.00     0.256 C 
HETATM   26  C20 UNL     1     -24.792  -5.503  -4.022  1.00  0.00     0.150 C 
HETATM   27  N10 UNL     1     -24.706  -5.309  -5.443  1.00  0.00    -0.358 N 
ATOM     28  H10 UNL     1     -24.120  -4.525  -5.730  1.00  0.00     0.162 HD
HETATM   29  C21 UNL     1     -25.292  -6.018  -6.501  1.00  0.00     0.240 C 
HETATM   30  O9  UNL     1     -26.169  -5.371  -7.208  1.00  0.00    -0.271 OA
ENDROOT
BRANCH   1  31
HETATM   31  C4  UNL     1     -23.799  -7.723  -7.645  1.00  0.00     0.035 C 
BRANCH  31  32
HETATM   32  C3  UNL     1     -23.778  -7.587  -9.105  1.00  0.00     0.004 C 
BRANCH  32  33
HETATM   33  C2  UNL     1     -23.591  -8.768  -9.967  1.00  0.00     0.027 C 
BRANCH  33  34
HETATM   34  C1  UNL     1     -24.904  -9.600 -10.000  1.00  0.00     0.229 C 
BRANCH  34  35
HETATM   35  N1  UNL     1     -24.548 -10.869  -9.382  1.00  0.00    -0.079 N 
ATOM     36  H13 UNL     1     -23.546 -11.061  -9.372  1.00  0.00     0.274 HD
ATOM     37  H12 UNL     1     -24.677 -10.889  -8.370  1.00  0.00     0.274 HD
ATOM     38  H11 UNL     1     -25.101 -11.563  -9.886  1.00  0.00     0.274 HD
ENDBRANCH  34  35
ENDBRANCH  33  34
ENDBRANCH  32  33
ENDBRANCH  31  32
ENDBRANCH   1  31
BRANCH   4  39
HETATM   39  O1  UNL     1     -23.970  -9.913  -4.752  1.00  0.00    -0.327 OA
ATOM     40  H1  UNL     1     -23.991 -10.790  -4.390  1.00  0.00     0.221 HD
ENDBRANCH   4  39
BRANCH   7  41
HETATM   41  C9  UNL     1     -28.834 -10.278  -6.090  1.00  0.00     0.264 C 
BRANCH  41  42
HETATM   42  N3  UNL     1     -29.638  -9.751  -5.018  1.00  0.00    -0.077 N 
ATOM     43  H33 UNL     1     -30.583  -9.489  -5.298  1.00  0.00     0.274 HD
ATOM     44  H32 UNL     1     -29.913 -10.447  -4.325  1.00  0.00     0.274 HD
ATOM     45  H31 UNL     1     -29.088  -8.980  -4.639  1.00  0.00     0.274 HD
ENDBRANCH  41  42
ENDBRANCH   7  41
BRANCH  21  46
HETATM   46  N8  UNL     1     -23.144  -7.916  -0.481  1.00  0.00    -0.033 N 
ATOM     47  H83 UNL     1     -22.617  -7.079  -0.230  1.00  0.00     0.278 HD
ATOM     48  H82 UNL     1     -23.637  -8.083   0.397  1.00  0.00     0.278 HD
ATOM     49  H81 UNL     1     -22.508  -8.687  -0.683  1.00  0.00     0.278 HD
ENDBRANCH  21  46
BRANCH  11  50
HETATM   50  C12 UNL     1     -24.924 -13.064  -2.898  1.00  0.00     0.199 C 
BRANCH  50  51
HETATM   51  O5  UNL     1     -24.679 -12.797  -4.269  1.00  0.00    -0.398 OA
ATOM     52  H5  UNL     1     -24.128 -13.502  -4.586  1.00  0.00     0.209 HD
ENDBRANCH  50  51
ENDBRANCH  11  50
BRANCH  18  53
HETATM   53  O8  UNL     1     -26.885  -7.138   0.481  1.00  0.00    -0.348 OA
ATOM     54  H8  UNL     1     -26.665  -6.755   1.322  1.00  0.00     0.219 HD
ENDBRANCH  18  53
BRANCH  17  55
HETATM   55  N6  UNL     1     -24.836  -9.059   1.966  1.00  0.00    -0.064 N 
ATOM     56  H63 UNL     1     -24.815  -8.160   2.449  1.00  0.00     0.275 HD
ATOM     57  H62 UNL     1     -24.971  -9.641   2.792  1.00  0.00     0.275 HD
ATOM     58  H61 UNL     1     -23.976  -9.266   1.458  1.00  0.00     0.275 HD
ENDBRANCH  17  55
BRANCH  16  59
HETATM   59  N5  UNL     1     -26.252 -11.484   1.213  1.00  0.00    -0.405 NA
BRANCH  59  60
HETATM   60  C15 UNL     1     -26.765 -12.372   2.063  1.00  0.00     0.436 C 
HETATM   61  O7  UNL     1     -27.721 -12.176   2.890  1.00  0.00    -0.269 OA
ENDBRANCH  59  60
ENDBRANCH  16  59
TORSDOF 15
ENDMDL
MODEL 5
REMARK VINA RESULT: -5.741757670      2.258      3.110
REMARK  15 active torsions:
REMARK  status: ('A' for Active; 'I' for Inactive)
REMARK    1  A    between atoms: N1_1  and  C1_5 
REMARK    2  A    between atoms: C1_5  and  C2_6 
REMARK    3  A    between atoms: C2_6  and  C3_7 
REMARK    4  A    between atoms: C3_7  and  C4_8 
REMARK    5  A    between atoms: C4_8  and  C5_9 
REMARK    6  A    between atoms: C6_12  and  O1_13 
REMARK    7  A    between atoms: C8_17  and  C9_18 
REMARK    8  A    between atoms: C9_18  and  N3_19 
REMARK    9  A    between atoms: C11_26  and  C12_27 
REMARK   10  A    between atoms: C12_27  and  O5_28 
REMARK   11  A    between atoms: C14_34  and  N5_35 
REMARK   12  A    between atoms: N5_35  and  C15_36 
REMARK   13  A    between atoms: C16_38  and  N6_39 
REMARK   14  A    between atoms: C17_43  and  O8_44 
REMARK   15  A    between atoms: C18_48  and  N8_49 
ROOT
HETATM    1  C5  UNL     1     -23.784  -5.904  -4.722  1.00  0.00     0.177 C 
HETATM    2  N2  UNL     1     -24.214  -7.263  -5.109  1.00  0.00    -0.337 N 
ATOM      3  H2  UNL     1     -25.009  -7.644  -4.596  1.00  0.00     0.164 HD
HETATM    4  C6  UNL     1     -23.666  -8.090  -6.091  1.00  0.00     0.258 C 
HETATM    5  O2  UNL     1     -23.630  -7.905  -7.452  1.00  0.00    -0.314 OA
HETATM    6  C7  UNL     1     -24.732  -7.691  -8.311  1.00  0.00     0.213 C 
HETATM    7  C8  UNL     1     -26.034  -8.256  -7.790  1.00  0.00     0.181 C 
HETATM    8  O3  UNL     1     -26.381  -9.416  -8.409  1.00  0.00    -0.310 OA
HETATM    9  C10 UNL     1     -25.916 -10.628  -8.686  1.00  0.00     0.284 C 
HETATM   10  O4  UNL     1     -25.715 -10.963  -9.913  1.00  0.00    -0.263 OA
HETATM   11  C11 UNL     1     -25.563 -11.743  -7.745  1.00  0.00     0.207 C 
HETATM   12  N4  UNL     1     -25.971 -11.458  -6.409  1.00  0.00    -0.343 N 
ATOM     13  H4  UNL     1     -25.653 -10.546  -6.082  1.00  0.00     0.163 HD
HETATM   14  C13 UNL     1     -26.701 -12.144  -5.463  1.00  0.00     0.257 C 
HETATM   15  O6  UNL     1     -27.883 -11.702  -5.150  1.00  0.00    -0.270 OA
HETATM   16  C14 UNL     1     -26.362 -13.379  -4.680  1.00  0.00     0.296 C 
HETATM   17  C16 UNL     1     -27.012 -13.256  -3.278  1.00  0.00     0.301 C 
HETATM   18  C17 UNL     1     -27.020 -11.899  -2.743  1.00  0.00     0.149 C 
HETATM   19  N7  UNL     1     -26.090 -10.871  -2.839  1.00  0.00    -0.323 N 
ATOM     20  H7  UNL     1     -26.438 -10.028  -3.295  1.00  0.00     0.165 HD
HETATM   21  C18 UNL     1     -24.714 -10.795  -2.402  1.00  0.00     0.484 C 
HETATM   22  N9  UNL     1     -24.539  -9.809  -1.338  1.00  0.00    -0.027 N 
ATOM     23  H91 UNL     1     -24.056 -10.220  -0.539  1.00  0.00     0.281 HD
ATOM     24  H92 UNL     1     -25.433  -9.587  -0.900  1.00  0.00     0.281 HD
HETATM   25  C19 UNL     1     -23.871  -8.605  -1.775  1.00  0.00     0.256 C 
HETATM   26  C20 UNL     1     -24.879  -7.484  -1.831  1.00  0.00     0.150 C 
HETATM   27  N10 UNL     1     -24.341  -6.209  -2.217  1.00  0.00    -0.358 N 
ATOM     28  H10 UNL     1     -23.836  -5.720  -1.478  1.00  0.00     0.162 HD
HETATM   29  C21 UNL     1     -24.394  -5.525  -3.439  1.00  0.00     0.240 C 
HETATM   30  O9  UNL     1     -25.070  -4.415  -3.446  1.00  0.00    -0.271 OA
ENDROOT
BRANCH   1  31
HETATM   31  C4  UNL     1     -22.329  -5.721  -4.902  1.00  0.00     0.035 C 
BRANCH  31  32
HETATM   32  C3  UNL     1     -21.845  -4.551  -5.642  1.00  0.00     0.004 C 
BRANCH  32  33
HETATM   33  C2  UNL     1     -22.670  -3.935  -6.696  1.00  0.00     0.027 C 
BRANCH  33  34
HETATM   34  C1  UNL     1     -22.350  -2.416  -6.786  1.00  0.00     0.229 C 
BRANCH  34  35
HETATM   35  N1  UNL     1     -22.855  -1.861  -5.538  1.00  0.00    -0.079 N 
ATOM     36  H13 UNL     1     -23.594  -1.168  -5.660  1.00  0.00     0.274 HD
ATOM     37  H12 UNL     1     -23.405  -2.517  -4.984  1.00  0.00     0.274 HD
ATOM     38  H11 UNL     1     -22.025  -1.506  -5.062  1.00  0.00     0.274 HD
ENDBRANCH  34  35
ENDBRANCH  33  34
ENDBRANCH  32  33
ENDBRANCH  31  32
ENDBRANCH   1  31
BRANCH   4  39
HETATM   39  O1  UNL     1     -23.111  -9.187  -5.656  1.00  0.00    -0.327 OA
ATOM     40  H1  UNL     1     -23.206  -9.945  -6.221  1.00  0.00     0.221 HD
ENDBRANCH   4  39
BRANCH   7  41
HETATM   41  C9  UNL     1     -27.073  -7.129  -8.035  1.00  0.00     0.264 C 
BRANCH  41  42
HETATM   42  N3  UNL     1     -26.408  -5.923  -7.613  1.00  0.00    -0.077 N 
ATOM     43  H33 UNL     1     -25.839  -5.487  -8.338  1.00  0.00     0.274 HD
ATOM     44  H32 UNL     1     -27.036  -5.132  -7.468  1.00  0.00     0.274 HD
ATOM     45  H31 UNL     1     -25.883  -6.196  -6.781  1.00  0.00     0.274 HD
ENDBRANCH  41  42
ENDBRANCH   7  41
BRANCH  21  46
HETATM   46  N8  UNL     1     -24.170 -12.019  -1.945  1.00  0.00    -0.033 N 
ATOM     47  H83 UNL     1     -24.914 -12.695  -1.776  1.00  0.00     0.278 HD
ATOM     48  H82 UNL     1     -23.672 -12.490  -2.701  1.00  0.00     0.278 HD
ATOM     49  H81 UNL     1     -23.572 -11.939  -1.122  1.00  0.00     0.278 HD
ENDBRANCH  21  46
BRANCH  11  50
HETATM   50  C12 UNL     1     -24.092 -12.062  -7.903  1.00  0.00     0.199 C 
BRANCH  50  51
HETATM   51  O5  UNL     1     -23.451 -10.845  -8.246  1.00  0.00    -0.398 OA
ATOM     52  H5  UNL     1     -23.652 -10.682  -9.159  1.00  0.00     0.209 HD
ENDBRANCH  50  51
ENDBRANCH  11  50
BRANCH  18  53
HETATM   53  O8  UNL     1     -28.087 -11.606  -2.055  1.00  0.00    -0.348 OA
ATOM     54  H8  UNL     1     -28.883 -12.005  -2.386  1.00  0.00     0.219 HD
ENDBRANCH  18  53
BRANCH  17  55
HETATM   55  N6  UNL     1     -26.380 -14.256  -2.458  1.00  0.00    -0.064 N 
ATOM     56  H63 UNL     1     -26.133 -15.104  -2.968  1.00  0.00     0.275 HD
ATOM     57  H62 UNL     1     -25.436 -14.006  -2.166  1.00  0.00     0.275 HD
ATOM     58  H61 UNL     1     -27.016 -14.422  -1.677  1.00  0.00     0.275 HD
ENDBRANCH  17  55
BRANCH  16  59
HETATM   59  N5  UNL     1     -27.010 -14.472  -5.288  1.00  0.00    -0.405 NA
BRANCH  59  60
HETATM   60  C15 UNL     1     -27.622 -15.507  -5.860  1.00  0.00     0.436 C 
HETATM   61  O7  UNL     1     -27.645 -15.788  -7.108  1.00  0.00    -0.269 OA
ENDBRANCH  59  60
ENDBRANCH  16  59
TORSDOF 15
ENDMDL
