MODEL 1
REMARK VINA RESULT: -7.891862940      0.000      0.000
REMARK  18 active torsions:
REMARK  status: ('A' for Active; 'I' for Inactive)
REMARK    1  A    between atoms: C2_2  and  C3_3 
REMARK       I    between atoms: C3_3  and  N1_5 
REMARK    2  A    between atoms: N1_5  and  C4_7 
REMARK    3  A    between atoms: C7_14  and  N4_15 
REMARK    4  A    between atoms: N5_18  and  C8_19 
REMARK    5  A    between atoms: C8_19  and  C9_20 
REMARK    6  A    between atoms: C9_20  and  O2_21 
REMARK    7  A    between atoms: N6_25  and  C11_26 
REMARK    8  A    between atoms: C11_26  and  C12_27 
REMARK       I    between atoms: C12_27  and  N7_29 
REMARK    9  A    between atoms: N7_29  and  N8_31 
REMARK       I    between atoms: N8_31  and  C13_33 
REMARK   10  A    between atoms: C13_33  and  C14_35 
REMARK   11  A    between atoms: C14_35  and  O6_36 
REMARK   12  A    between atoms: C14_35  and  C15_38 
REMARK   13  A    between atoms: C15_38  and  S1_40 
REMARK   14  A    between atoms: S1_40  and  O8_41 
REMARK   15  A    between atoms: S1_40  and  O9_43 
REMARK   16  A    between atoms: S1_40  and  O10_45 
REMARK   17  A    between atoms: S1_40  and  N9_47 
REMARK   18  A    between atoms: N9_47  and  N10_48 
REMARK       I    between atoms: N10_48  and  C16_50 
ROOT
HETATM    1  C11 UNL     1     -22.528  -3.830  -7.543  1.00  0.00     0.255 C 
ENDROOT
BRANCH   1   2
HETATM    2  N6  UNL     1     -23.087  -4.740  -6.588  1.00  0.00    -0.136 N 
HETATM    3  C4  UNL     1     -23.531  -5.947  -6.953  1.00  0.00     0.692 A 
HETATM    4  N2  UNL     1     -24.065  -6.827  -6.079  1.00  0.00    -0.173 N 
HETATM    5  C5  UNL     1     -24.156  -6.480  -4.785  1.00  0.00     0.172 A 
ATOM      6  H2  UNL     1     -24.394  -7.738  -6.396  1.00  0.00     0.186 HD
HETATM    7  C6  UNL     1     -23.713  -5.251  -4.361  1.00  0.00     0.163 A 
HETATM    8  N5  UNL     1     -24.631  -7.134  -3.703  1.00  0.00    -0.164 N 
HETATM    9  N3  UNL     1     -23.933  -5.194  -3.027  1.00  0.00    -0.182 N 
HETATM   10  C10 UNL     1     -23.176  -4.389  -5.297  1.00  0.00     0.293 A 
HETATM   11  C7  UNL     1     -24.496  -6.343  -2.620  1.00  0.00     0.680 A 
ATOM     12  H3  UNL     1     -23.708  -4.402  -2.425  1.00  0.00     0.184 HD
HETATM   13  O3  UNL     1     -22.771  -3.253  -4.878  1.00  0.00    -0.265 OA
BRANCH   3  14
HETATM   14  N1  UNL     1     -23.426  -6.250  -8.197  1.00  0.00    -0.159 N 
HETATM   15  C3  UNL     1     -24.438  -6.795  -9.002  1.00  0.00     0.235 C 
HETATM   16  O1  UNL     1     -24.985  -6.101  -9.904  1.00  0.00    -0.273 OA
ATOM     17  H1  UNL     1     -22.524  -6.077  -8.641  1.00  0.00     0.187 HD
BRANCH  15  18
HETATM   18  C2  UNL     1     -24.921  -8.193  -8.848  1.00  0.00     0.099 C 
HETATM   19  C1  UNL     1     -23.776  -9.190  -8.891  1.00  0.00     0.014 C 
ENDBRANCH  15  18
ENDBRANCH   3  14
BRANCH  11  20
HETATM   20  N4  UNL     1     -24.846  -6.638  -1.393  1.00  0.00    -0.234 N 
ATOM     21  H42 UNL     1     -24.922  -5.987  -0.612  1.00  0.00     0.174 HD
ATOM     22  H41 UNL     1     -25.096  -7.565  -1.046  1.00  0.00     0.174 HD
ENDBRANCH  11  20
BRANCH   8  23
HETATM   23  C8  UNL     1     -25.193  -8.454  -3.688  1.00  0.00     0.175 C 
BRANCH  23  24
HETATM   24  C9  UNL     1     -24.130  -9.527  -3.514  1.00  0.00     0.185 C 
BRANCH  24  25
HETATM   25  O2  UNL     1     -23.100  -9.317  -4.409  1.00  0.00    -0.399 OA
ATOM     26  H2  UNL     1     -22.616  -8.536  -4.166  1.00  0.00     0.209 HD
ENDBRANCH  24  25
ENDBRANCH  23  24
ENDBRANCH   8  23
ENDBRANCH   1   2
BRANCH   1  27
HETATM   27  C12 UNL     1     -23.477  -3.454  -8.617  1.00  0.00     0.255 C 
HETATM   28  O4  UNL     1     -23.061  -3.319  -9.794  1.00  0.00    -0.270 OA
HETATM   29  N7  UNL     1     -24.861  -3.241  -8.349  1.00  0.00    -0.266 N 
ATOM     30  H7  UNL     1     -25.212  -3.349  -7.398  1.00  0.00     0.190 HD
BRANCH  29  31
HETATM   31  N8  UNL     1     -25.753  -2.883  -9.386  1.00  0.00    -0.265 N 
HETATM   32  C13 UNL     1     -27.079  -3.376  -9.420  1.00  0.00     0.273 C 
HETATM   33  O5  UNL     1     -27.464  -4.142  -8.510  1.00  0.00    -0.268 OA
ATOM     34  H8  UNL     1     -25.434  -2.257 -10.125  1.00  0.00     0.190 HD
BRANCH  32  35
HETATM   35  C14 UNL     1     -27.992  -3.000 -10.500  1.00  0.00     0.298 C 
BRANCH  35  36
HETATM   36  O6  UNL     1     -28.018  -1.599 -10.619  1.00  0.00    -0.378 OA
ATOM     37  H6  UNL     1     -28.787  -1.341 -11.112  1.00  0.00     0.211 HD
ENDBRANCH  35  36
BRANCH  35  38
HETATM   38  C15 UNL     1     -27.681  -3.588 -11.783  1.00  0.00     0.280 C 
HETATM   39  O7  UNL     1     -28.280  -4.507 -12.235  1.00  0.00    -0.277 OA
BRANCH  38  40
HETATM   40  S1  UNL     1     -26.180  -2.841 -12.866  1.00  0.00     0.156 SA
BRANCH  40  41
HETATM   41  O8  UNL     1     -27.292  -1.777 -13.448  1.00  0.00    -0.299 OA
ATOM     42  H8  UNL     1     -26.979  -2.030 -14.308  1.00  0.00     0.231 HD
ENDBRANCH  40  41
BRANCH  40  43
HETATM   43  O9  UNL     1     -25.814  -3.369 -14.409  1.00  0.00    -0.299 OA
ATOM     44  H9  UNL     1     -24.972  -3.222 -14.823  1.00  0.00     0.231 HD
ENDBRANCH  40  43
BRANCH  40  45
HETATM   45  O10 UNL     1     -25.145  -3.893 -12.168  1.00  0.00    -0.299 OA
ATOM     46  H10 UNL     1     -24.457  -3.617 -12.763  1.00  0.00     0.231 HD
ENDBRANCH  40  45
BRANCH  40  47
HETATM   47  N9  UNL     1     -25.358  -1.328 -12.001  1.00  0.00    -0.015 NA
BRANCH  47  48
HETATM   48  N10 UNL     1     -26.093  -0.176 -12.080  1.00  0.00    -0.243 N 
HETATM   49  C16 UNL     1     -25.706   0.943 -11.322  1.00  0.00     0.345 C 
HETATM   50  N11 UNL     1     -26.426   2.168 -11.359  1.00  0.00    -0.039 NA
HETATM   51  O11 UNL     1     -24.697   0.909 -10.574  1.00  0.00    -0.250 OA
ATOM     52  H10 UNL     1     -26.915  -0.131 -12.682  1.00  0.00     0.188 HD
ENDBRANCH  47  48
ENDBRANCH  40  47
ENDBRANCH  38  40
ENDBRANCH  35  38
ENDBRANCH  32  35
ENDBRANCH  29  31
ENDBRANCH   1  27
TORSDOF 18
ENDMDL
MODEL 2
REMARK VINA RESULT: -7.787619620      1.540      2.539
REMARK  18 active torsions:
REMARK  status: ('A' for Active; 'I' for Inactive)
REMARK    1  A    between atoms: C2_2  and  C3_3 
REMARK       I    between atoms: C3_3  and  N1_5 
REMARK    2  A    between atoms: N1_5  and  C4_7 
REMARK    3  A    between atoms: C7_14  and  N4_15 
REMARK    4  A    between atoms: N5_18  and  C8_19 
REMARK    5  A    between atoms: C8_19  and  C9_20 
REMARK    6  A    between atoms: C9_20  and  O2_21 
REMARK    7  A    between atoms: N6_25  and  C11_26 
REMARK    8  A    between atoms: C11_26  and  C12_27 
REMARK       I    between atoms: C12_27  and  N7_29 
REMARK    9  A    between atoms: N7_29  and  N8_31 
REMARK       I    between atoms: N8_31  and  C13_33 
REMARK   10  A    between atoms: C13_33  and  C14_35 
REMARK   11  A    between atoms: C14_35  and  O6_36 
REMARK   12  A    between atoms: C14_35  and  C15_38 
REMARK   13  A    between atoms: C15_38  and  S1_40 
REMARK   14  A    between atoms: S1_40  and  O8_41 
REMARK   15  A    between atoms: S1_40  and  O9_43 
REMARK   16  A    between atoms: S1_40  and  O10_45 
REMARK   17  A    between atoms: S1_40  and  N9_47 
REMARK   18  A    between atoms: N9_47  and  N10_48 
REMARK       I    between atoms: N10_48  and  C16_50 
ROOT
HETATM    1  C11 UNL     1     -22.501  -3.966  -7.571  1.00  0.00     0.255 C 
ENDROOT
BRANCH   1   2
HETATM    2  N6  UNL     1     -23.087  -4.848  -6.607  1.00  0.00    -0.136 N 
HETATM    3  C4  UNL     1     -23.523  -6.064  -6.949  1.00  0.00     0.692 A 
HETATM    4  N2  UNL     1     -24.083  -6.918  -6.066  1.00  0.00    -0.173 N 
HETATM    5  C5  UNL     1     -24.208  -6.535  -4.785  1.00  0.00     0.172 A 
ATOM      6  H2  UNL     1     -24.405  -7.838  -6.366  1.00  0.00     0.186 HD
HETATM    7  C6  UNL     1     -23.774  -5.295  -4.384  1.00  0.00     0.163 A 
HETATM    8  N5  UNL     1     -24.714  -7.157  -3.698  1.00  0.00    -0.164 N 
HETATM    9  N3  UNL     1     -24.030  -5.200  -3.058  1.00  0.00    -0.182 N 
HETATM   10  C10 UNL     1     -23.210  -4.461  -5.329  1.00  0.00     0.293 A 
HETATM   11  C7  UNL     1     -24.606  -6.336  -2.635  1.00  0.00     0.680 A 
ATOM     12  H3  UNL     1     -23.819  -4.391  -2.473  1.00  0.00     0.184 HD
HETATM   13  O3  UNL     1     -22.814  -3.313  -4.931  1.00  0.00    -0.265 OA
BRANCH   3  14
HETATM   14  N1  UNL     1     -23.386  -6.402  -8.181  1.00  0.00    -0.159 N 
HETATM   15  C3  UNL     1     -24.334  -7.082  -8.961  1.00  0.00     0.235 C 
HETATM   16  O1  UNL     1     -24.950  -6.486  -9.887  1.00  0.00    -0.273 OA
ATOM     17  H1  UNL     1     -22.507  -6.152  -8.634  1.00  0.00     0.187 HD
BRANCH  15  18
HETATM   18  C2  UNL     1     -24.665  -8.516  -8.752  1.00  0.00     0.099 C 
HETATM   19  C1  UNL     1     -23.438  -9.402  -8.887  1.00  0.00     0.014 C 
ENDBRANCH  15  18
ENDBRANCH   3  14
BRANCH  11  20
HETATM   20  N4  UNL     1     -24.990  -6.596  -1.410  1.00  0.00    -0.234 N 
ATOM     21  H42 UNL     1     -24.572  -6.231  -0.554  1.00  0.00     0.174 HD
ATOM     22  H41 UNL     1     -25.765  -7.202  -1.140  1.00  0.00     0.174 HD
ENDBRANCH  11  20
BRANCH   8  23
HETATM   23  C8  UNL     1     -25.279  -8.475  -3.661  1.00  0.00     0.175 C 
BRANCH  23  24
HETATM   24  C9  UNL     1     -24.224  -9.544  -3.415  1.00  0.00     0.185 C 
BRANCH  24  25
HETATM   25  O2  UNL     1     -23.148  -9.344  -4.256  1.00  0.00    -0.399 OA
ATOM     26  H2  UNL     1     -23.425  -8.860  -5.026  1.00  0.00     0.209 HD
ENDBRANCH  24  25
ENDBRANCH  23  24
ENDBRANCH   8  23
ENDBRANCH   1   2
BRANCH   1  27
HETATM   27  C12 UNL     1     -23.495  -3.117  -8.268  1.00  0.00     0.255 C 
HETATM   28  O4  UNL     1     -23.193  -1.940  -8.585  1.00  0.00    -0.270 OA
HETATM   29  N7  UNL     1     -24.795  -3.603  -8.592  1.00  0.00    -0.266 N 
ATOM     30  H7  UNL     1     -25.053  -4.557  -8.341  1.00  0.00     0.190 HD
BRANCH  29  31
HETATM   31  N8  UNL     1     -25.732  -2.779  -9.258  1.00  0.00    -0.265 N 
HETATM   32  C13 UNL     1     -25.889  -2.828 -10.663  1.00  0.00     0.273 C 
HETATM   33  O5  UNL     1     -25.183  -3.620 -11.324  1.00  0.00    -0.268 OA
ATOM     34  H8  UNL     1     -26.306  -2.136  -8.713  1.00  0.00     0.190 HD
BRANCH  32  35
HETATM   35  C14 UNL     1     -26.861  -1.969 -11.340  1.00  0.00     0.298 C 
BRANCH  35  36
HETATM   36  O6  UNL     1     -28.104  -2.623 -11.388  1.00  0.00    -0.378 OA
ATOM     37  H6  UNL     1     -28.258  -3.064 -10.561  1.00  0.00     0.211 HD
ENDBRANCH  35  36
BRANCH  35  38
HETATM   38  C15 UNL     1     -27.025  -0.662 -10.747  1.00  0.00     0.280 C 
HETATM   39  O7  UNL     1     -27.699  -0.466  -9.790  1.00  0.00    -0.277 OA
BRANCH  38  40
HETATM   40  S1  UNL     1     -26.088   0.906 -11.552  1.00  0.00     0.156 SA
BRANCH  40  41
HETATM   41  O8  UNL     1     -24.934   0.648 -10.409  1.00  0.00    -0.299 OA
ATOM     42  H8  UNL     1     -24.552   1.463 -10.712  1.00  0.00     0.231 HD
ENDBRANCH  40  41
BRANCH  40  43
HETATM   43  O9  UNL     1     -26.317   2.477 -11.029  1.00  0.00    -0.299 OA
ATOM     44  H9  UNL     1     -26.130   2.763 -10.143  1.00  0.00     0.231 HD
ENDBRANCH  40  43
BRANCH  40  45
HETATM   45  O10 UNL     1     -27.253   1.025 -12.691  1.00  0.00    -0.299 OA
ATOM     46  H10 UNL     1     -26.610   1.327 -13.322  1.00  0.00     0.231 HD
ENDBRANCH  40  45
BRANCH  40  47
HETATM   47  N9  UNL     1     -24.765   0.363 -12.844  1.00  0.00    -0.015 NA
BRANCH  47  48
HETATM   48  N10 UNL     1     -25.293  -0.153 -13.996  1.00  0.00    -0.243 N 
HETATM   49  C16 UNL     1     -24.816  -1.382 -14.485  1.00  0.00     0.345 C 
HETATM   50  N11 UNL     1     -25.323  -1.971 -15.675  1.00  0.00    -0.039 NA
HETATM   51  O11 UNL     1     -23.914  -2.017 -13.885  1.00  0.00    -0.250 OA
ATOM     52  H10 UNL     1     -26.027   0.351 -14.496  1.00  0.00     0.188 HD
ENDBRANCH  47  48
ENDBRANCH  40  47
ENDBRANCH  38  40
ENDBRANCH  35  38
ENDBRANCH  32  35
ENDBRANCH  29  31
ENDBRANCH   1  27
TORSDOF 18
ENDMDL
MODEL 3
REMARK VINA RESULT: -7.645572475      0.978      1.185
REMARK  18 active torsions:
REMARK  status: ('A' for Active; 'I' for Inactive)
REMARK    1  A    between atoms: C2_2  and  C3_3 
REMARK       I    between atoms: C3_3  and  N1_5 
REMARK    2  A    between atoms: N1_5  and  C4_7 
REMARK    3  A    between atoms: C7_14  and  N4_15 
REMARK    4  A    between atoms: N5_18  and  C8_19 
REMARK    5  A    between atoms: C8_19  and  C9_20 
REMARK    6  A    between atoms: C9_20  and  O2_21 
REMARK    7  A    between atoms: N6_25  and  C11_26 
REMARK    8  A    between atoms: C11_26  and  C12_27 
REMARK       I    between atoms: C12_27  and  N7_29 
REMARK    9  A    between atoms: N7_29  and  N8_31 
REMARK       I    between atoms: N8_31  and  C13_33 
REMARK   10  A    between atoms: C13_33  and  C14_35 
REMARK   11  A    between atoms: C14_35  and  O6_36 
REMARK   12  A    between atoms: C14_35  and  C15_38 
REMARK   13  A    between atoms: C15_38  and  S1_40 
REMARK   14  A    between atoms: S1_40  and  O8_41 
REMARK   15  A    between atoms: S1_40  and  O9_43 
REMARK   16  A    between atoms: S1_40  and  O10_45 
REMARK   17  A    between atoms: S1_40  and  N9_47 
REMARK   18  A    between atoms: N9_47  and  N10_48 
REMARK       I    between atoms: N10_48  and  C16_50 
ROOT
HETATM    1  C11 UNL     1     -22.436  -4.008  -7.140  1.00  0.00     0.255 C 
ENDROOT
BRANCH   1   2
HETATM    2  N6  UNL     1     -23.057  -4.914  -6.220  1.00  0.00    -0.136 N 
HETATM    3  C4  UNL     1     -23.504  -6.111  -6.615  1.00  0.00     0.692 A 
HETATM    4  N2  UNL     1     -24.096  -6.986  -5.775  1.00  0.00    -0.173 N 
HETATM    5  C5  UNL     1     -24.244  -6.647  -4.485  1.00  0.00     0.172 A 
ATOM      6  H2  UNL     1     -24.425  -7.890  -6.115  1.00  0.00     0.186 HD
HETATM    7  C6  UNL     1     -23.800  -5.428  -4.030  1.00  0.00     0.163 A 
HETATM    8  N5  UNL     1     -24.783  -7.298  -3.432  1.00  0.00    -0.164 N 
HETATM    9  N3  UNL     1     -24.085  -5.376  -2.708  1.00  0.00    -0.182 N 
HETATM   10  C10 UNL     1     -23.203  -4.570  -4.932  1.00  0.00     0.293 A 
HETATM   11  C7  UNL     1     -24.686  -6.517  -2.338  1.00  0.00     0.680 A 
ATOM     12  H3  UNL     1     -23.874  -4.592  -2.090  1.00  0.00     0.184 HD
HETATM   13  O3  UNL     1     -22.799  -3.444  -4.486  1.00  0.00    -0.265 OA
BRANCH   3  14
HETATM   14  N1  UNL     1     -23.344  -6.407  -7.855  1.00  0.00    -0.159 N 
HETATM   15  C3  UNL     1     -24.297  -7.013  -8.688  1.00  0.00     0.235 C 
HETATM   16  O1  UNL     1     -24.857  -6.355  -9.607  1.00  0.00    -0.273 OA
ATOM     17  H1  UNL     1     -22.442  -6.180  -8.273  1.00  0.00     0.187 HD
BRANCH  15  18
HETATM   18  C2  UNL     1     -24.697  -8.438  -8.545  1.00  0.00     0.099 C 
HETATM   19  C1  UNL     1     -23.526  -9.377  -8.777  1.00  0.00     0.014 C 
ENDBRANCH  15  18
ENDBRANCH   3  14
BRANCH  11  20
HETATM   20  N4  UNL     1     -25.102  -6.814  -1.132  1.00  0.00    -0.234 N 
ATOM     21  H42 UNL     1     -24.825  -6.353  -0.265  1.00  0.00     0.174 HD
ATOM     22  H41 UNL     1     -25.764  -7.552  -0.889  1.00  0.00     0.174 HD
ENDBRANCH  11  20
BRANCH   8  23
HETATM   23  C8  UNL     1     -25.368  -8.608  -3.453  1.00  0.00     0.175 C 
BRANCH  23  24
HETATM   24  C9  UNL     1     -24.326  -9.699  -3.651  1.00  0.00     0.185 C 
BRANCH  24  25
HETATM   25  O2  UNL     1     -23.529  -9.795  -2.527  1.00  0.00    -0.399 OA
ATOM     26  H2  UNL     1     -23.236  -8.930  -2.264  1.00  0.00     0.209 HD
ENDBRANCH  24  25
ENDBRANCH  23  24
ENDBRANCH   8  23
ENDBRANCH   1   2
BRANCH   1  27
HETATM   27  C12 UNL     1     -23.281  -3.701  -8.318  1.00  0.00     0.255 C 
HETATM   28  O4  UNL     1     -22.774  -3.719  -9.467  1.00  0.00    -0.270 OA
HETATM   29  N7  UNL     1     -24.664  -3.386  -8.183  1.00  0.00    -0.266 N 
ATOM     30  H7  UNL     1     -25.089  -3.370  -7.256  1.00  0.00     0.190 HD
BRANCH  29  31
HETATM   31  N8  UNL     1     -25.456  -3.096  -9.318  1.00  0.00    -0.265 N 
HETATM   32  C13 UNL     1     -26.788  -3.561  -9.426  1.00  0.00     0.273 C 
HETATM   33  O5  UNL     1     -27.270  -4.240  -8.493  1.00  0.00    -0.268 OA
ATOM     34  H8  UNL     1     -25.059  -2.541 -10.075  1.00  0.00     0.190 HD
BRANCH  32  35
HETATM   35  C14 UNL     1     -27.597  -3.257 -10.607  1.00  0.00     0.298 C 
BRANCH  35  36
HETATM   36  O6  UNL     1     -28.951  -3.186 -10.235  1.00  0.00    -0.378 OA
ATOM     37  H6  UNL     1     -29.062  -2.502  -9.584  1.00  0.00     0.211 HD
ENDBRANCH  35  36
BRANCH  35  38
HETATM   38  C15 UNL     1     -27.221  -2.044 -11.297  1.00  0.00     0.280 C 
HETATM   39  O7  UNL     1     -27.395  -0.961 -10.844  1.00  0.00    -0.277 OA
BRANCH  38  40
HETATM   40  S1  UNL     1     -26.370  -2.164 -13.098  1.00  0.00     0.156 SA
BRANCH  40  41
HETATM   41  O8  UNL     1     -27.814  -1.635 -13.681  1.00  0.00    -0.299 OA
ATOM     42  H8  UNL     1     -27.442  -0.764 -13.613  1.00  0.00     0.231 HD
ENDBRANCH  40  41
BRANCH  40  43
HETATM   43  O9  UNL     1     -26.437  -3.534 -14.053  1.00  0.00    -0.299 OA
ATOM     44  H9  UNL     1     -26.493  -3.507 -15.001  1.00  0.00     0.231 HD
ENDBRANCH  40  43
BRANCH  40  45
HETATM   45  O10 UNL     1     -24.958  -2.611 -12.409  1.00  0.00    -0.299 OA
ATOM     46  H10 UNL     1     -24.642  -1.717 -12.470  1.00  0.00     0.231 HD
ENDBRANCH  40  45
BRANCH  40  47
HETATM   47  N9  UNL     1     -25.652  -0.467 -13.665  1.00  0.00    -0.015 NA
BRANCH  47  48
HETATM   48  N10 UNL     1     -25.516   0.443 -12.653  1.00  0.00    -0.243 N 
HETATM   49  C16 UNL     1     -26.528   1.397 -12.441  1.00  0.00     0.345 C 
HETATM   50  N11 UNL     1     -26.448   2.369 -11.408  1.00  0.00    -0.039 NA
HETATM   51  O11 UNL     1     -27.555   1.431 -13.164  1.00  0.00    -0.250 OA
ATOM     52  H10 UNL     1     -24.688   0.430 -12.057  1.00  0.00     0.188 HD
ENDBRANCH  47  48
ENDBRANCH  40  47
ENDBRANCH  38  40
ENDBRANCH  35  38
ENDBRANCH  32  35
ENDBRANCH  29  31
ENDBRANCH   1  27
TORSDOF 18
ENDMDL
MODEL 4
REMARK VINA RESULT: -7.611172643      1.977      2.957
REMARK  18 active torsions:
REMARK  status: ('A' for Active; 'I' for Inactive)
REMARK    1  A    between atoms: C2_2  and  C3_3 
REMARK       I    between atoms: C3_3  and  N1_5 
REMARK    2  A    between atoms: N1_5  and  C4_7 
REMARK    3  A    between atoms: C7_14  and  N4_15 
REMARK    4  A    between atoms: N5_18  and  C8_19 
REMARK    5  A    between atoms: C8_19  and  C9_20 
REMARK    6  A    between atoms: C9_20  and  O2_21 
REMARK    7  A    between atoms: N6_25  and  C11_26 
REMARK    8  A    between atoms: C11_26  and  C12_27 
REMARK       I    between atoms: C12_27  and  N7_29 
REMARK    9  A    between atoms: N7_29  and  N8_31 
REMARK       I    between atoms: N8_31  and  C13_33 
REMARK   10  A    between atoms: C13_33  and  C14_35 
REMARK   11  A    between atoms: C14_35  and  O6_36 
REMARK   12  A    between atoms: C14_35  and  C15_38 
REMARK   13  A    between atoms: C15_38  and  S1_40 
REMARK   14  A    between atoms: S1_40  and  O8_41 
REMARK   15  A    between atoms: S1_40  and  O9_43 
REMARK   16  A    between atoms: S1_40  and  O10_45 
REMARK   17  A    between atoms: S1_40  and  N9_47 
REMARK   18  A    between atoms: N9_47  and  N10_48 
REMARK       I    between atoms: N10_48  and  C16_50 
ROOT
HETATM    1  C11 UNL     1     -22.722  -5.976  -5.449  1.00  0.00     0.255 C 
ENDROOT
BRANCH   1   2
HETATM    2  N6  UNL     1     -23.427  -6.718  -4.446  1.00  0.00    -0.136 N 
HETATM    3  C4  UNL     1     -23.562  -8.045  -4.527  1.00  0.00     0.692 A 
HETATM    4  N2  UNL     1     -24.223  -8.773  -3.602  1.00  0.00    -0.173 N 
HETATM    5  C5  UNL     1     -24.770  -8.142  -2.552  1.00  0.00     0.172 A 
ATOM      6  H2  UNL     1     -24.305  -9.785  -3.700  1.00  0.00     0.186 HD
HETATM    7  C6  UNL     1     -24.658  -6.779  -2.423  1.00  0.00     0.163 A 
HETATM    8  N5  UNL     1     -25.473  -8.591  -1.490  1.00  0.00    -0.164 N 
HETATM    9  N3  UNL     1     -25.300  -6.439  -1.281  1.00  0.00    -0.182 N 
HETATM   10  C10 UNL     1     -23.972  -6.083  -3.399  1.00  0.00     0.293 A 
HETATM   11  C7  UNL     1     -25.800  -7.544  -0.707  1.00  0.00     0.680 A 
ATOM     12  H3  UNL     1     -25.389  -5.491  -0.914  1.00  0.00     0.184 HD
HETATM   13  O3  UNL     1     -23.882  -4.816  -3.257  1.00  0.00    -0.265 OA
BRANCH   3  14
HETATM   14  N1  UNL     1     -23.024  -8.620  -5.543  1.00  0.00    -0.159 N 
HETATM   15  C3  UNL     1     -23.709  -9.217  -6.612  1.00  0.00     0.235 C 
HETATM   16  O1  UNL     1     -23.706  -8.683  -7.755  1.00  0.00    -0.273 OA
ATOM     17  H1  UNL     1     -22.005  -8.644  -5.576  1.00  0.00     0.187 HD
BRANCH  15  18
HETATM   18  C2  UNL     1     -24.465 -10.490  -6.471  1.00  0.00     0.099 C 
HETATM   19  C1  UNL     1     -24.266 -11.398  -7.672  1.00  0.00     0.014 C 
ENDBRANCH  15  18
ENDBRANCH   3  14
BRANCH  11  20
HETATM   20  N4  UNL     1     -26.482  -7.592   0.410  1.00  0.00    -0.234 N 
ATOM     21  H42 UNL     1     -26.357  -6.988   1.222  1.00  0.00     0.174 HD
ATOM     22  H41 UNL     1     -27.238  -8.243   0.625  1.00  0.00     0.174 HD
ENDBRANCH  11  20
BRANCH   8  23
HETATM   23  C8  UNL     1     -25.825  -9.956  -1.220  1.00  0.00     0.175 C 
BRANCH  23  24
HETATM   24  C9  UNL     1     -24.657 -10.747  -0.649  1.00  0.00     0.185 C 
BRANCH  24  25
HETATM   25  O2  UNL     1     -23.893 -11.264  -1.676  1.00  0.00    -0.399 OA
ATOM     26  H2  UNL     1     -23.847 -12.210  -1.600  1.00  0.00     0.209 HD
ENDBRANCH  24  25
ENDBRANCH  23  24
ENDBRANCH   8  23
ENDBRANCH   1   2
BRANCH   1  27
HETATM   27  C12 UNL     1     -23.618  -5.293  -6.410  1.00  0.00     0.255 C 
HETATM   28  O4  UNL     1     -24.700  -5.836  -6.744  1.00  0.00    -0.270 OA
HETATM   29  N7  UNL     1     -23.286  -4.025  -6.970  1.00  0.00    -0.266 N 
ATOM     30  H7  UNL     1     -22.411  -3.573  -6.706  1.00  0.00     0.190 HD
BRANCH  29  31
HETATM   31  N8  UNL     1     -24.153  -3.387  -7.885  1.00  0.00    -0.265 N 
HETATM   32  C13 UNL     1     -23.806  -3.239  -9.249  1.00  0.00     0.273 C 
HETATM   33  O5  UNL     1     -22.708  -3.686  -9.647  1.00  0.00    -0.268 OA
ATOM     34  H8  UNL     1     -25.048  -3.025  -7.556  1.00  0.00     0.190 HD
BRANCH  32  35
HETATM   35  C14 UNL     1     -24.711  -2.574 -10.187  1.00  0.00     0.298 C 
BRANCH  35  36
HETATM   36  O6  UNL     1     -24.059  -2.407 -11.421  1.00  0.00    -0.378 OA
ATOM     37  H6  UNL     1     -23.704  -3.242 -11.703  1.00  0.00     0.211 HD
ENDBRANCH  35  36
BRANCH  35  38
HETATM   38  C15 UNL     1     -25.970  -3.254 -10.394  1.00  0.00     0.280 C 
HETATM   39  O7  UNL     1     -26.302  -4.204  -9.765  1.00  0.00    -0.277 OA
BRANCH  38  40
HETATM   40  S1  UNL     1     -27.226  -2.587 -11.794  1.00  0.00     0.156 SA
BRANCH  40  41
HETATM   41  O8  UNL     1     -27.768  -1.549 -10.639  1.00  0.00    -0.299 OA
ATOM     42  H8  UNL     1     -28.616  -1.959 -10.770  1.00  0.00     0.231 HD
ENDBRANCH  40  41
BRANCH  40  43
HETATM   43  O9  UNL     1     -28.761  -3.209 -12.018  1.00  0.00    -0.299 OA
ATOM     44  H9  UNL     1     -29.166  -3.301 -12.873  1.00  0.00     0.231 HD
ENDBRANCH  40  43
BRANCH  40  45
HETATM   45  O10 UNL     1     -26.561  -3.606 -12.884  1.00  0.00    -0.299 OA
ATOM     46  H10 UNL     1     -27.354  -3.570 -13.407  1.00  0.00     0.231 HD
ENDBRANCH  40  45
BRANCH  40  47
HETATM   47  N9  UNL     1     -26.530  -1.033 -12.698  1.00  0.00    -0.015 NA
BRANCH  47  48
HETATM   48  N10 UNL     1     -26.219   0.003 -11.860  1.00  0.00    -0.243 N 
HETATM   49  C16 UNL     1     -26.721   1.288 -12.134  1.00  0.00     0.345 C 
HETATM   50  N11 UNL     1     -26.435   2.405 -11.304  1.00  0.00    -0.039 NA
HETATM   51  O11 UNL     1     -27.449   1.504 -13.135  1.00  0.00    -0.250 OA
ATOM     52  H10 UNL     1     -25.628  -0.156 -11.043  1.00  0.00     0.188 HD
ENDBRANCH  47  48
ENDBRANCH  40  47
ENDBRANCH  38  40
ENDBRANCH  35  38
ENDBRANCH  32  35
ENDBRANCH  29  31
ENDBRANCH   1  27
TORSDOF 18
ENDMDL
MODEL 5
REMARK VINA RESULT: -7.552076169      2.022      2.745
REMARK  18 active torsions:
REMARK  status: ('A' for Active; 'I' for Inactive)
REMARK    1  A    between atoms: C2_2  and  C3_3 
REMARK       I    between atoms: C3_3  and  N1_5 
REMARK    2  A    between atoms: N1_5  and  C4_7 
REMARK    3  A    between atoms: C7_14  and  N4_15 
REMARK    4  A    between atoms: N5_18  and  C8_19 
REMARK    5  A    between atoms: C8_19  and  C9_20 
REMARK    6  A    between atoms: C9_20  and  O2_21 
REMARK    7  A    between atoms: N6_25  and  C11_26 
REMARK    8  A    between atoms: C11_26  and  C12_27 
REMARK       I    between atoms: C12_27  and  N7_29 
REMARK    9  A    between atoms: N7_29  and  N8_31 
REMARK       I    between atoms: N8_31  and  C13_33 
REMARK   10  A    between atoms: C13_33  and  C14_35 
REMARK   11  A    between atoms: C14_35  and  O6_36 
REMARK   12  A    between atoms: C14_35  and  C15_38 
REMARK   13  A    between atoms: C15_38  and  S1_40 
REMARK   14  A    between atoms: S1_40  and  O8_41 
REMARK   15  A    between atoms: S1_40  and  O9_43 
REMARK   16  A    between atoms: S1_40  and  O10_45 
REMARK   17  A    between atoms: S1_40  and  N9_47 
REMARK   18  A    between atoms: N9_47  and  N10_48 
REMARK       I    between atoms: N10_48  and  C16_50 
ROOT
HETATM    1  C11 UNL     1     -23.232  -5.922  -6.020  1.00  0.00     0.255 C 
ENDROOT
BRANCH   1   2
HETATM    2  N6  UNL     1     -23.682  -6.653  -4.874  1.00  0.00    -0.136 N 
HETATM    3  C4  UNL     1     -23.591  -7.986  -4.819  1.00  0.00     0.692 A 
HETATM    4  N2  UNL     1     -24.007  -8.706  -3.755  1.00  0.00    -0.173 N 
HETATM    5  C5  UNL     1     -24.536  -8.061  -2.704  1.00  0.00     0.172 A 
ATOM      6  H2  UNL     1     -23.922  -9.722  -3.751  1.00  0.00     0.186 HD
HETATM    7  C6  UNL     1     -24.650  -6.692  -2.712  1.00  0.00     0.163 A 
HETATM    8  N5  UNL     1     -25.027  -8.499  -1.525  1.00  0.00    -0.164 N 
HETATM    9  N3  UNL     1     -25.211  -6.337  -1.532  1.00  0.00    -0.182 N 
HETATM   10  C10 UNL     1     -24.209  -6.004  -3.826  1.00  0.00     0.293 A 
HETATM   11  C7  UNL     1     -25.444  -7.440  -0.803  1.00  0.00     0.680 A 
ATOM     12  H3  UNL     1     -25.423  -5.382  -1.243  1.00  0.00     0.184 HD
HETATM   13  O3  UNL     1     -24.326  -4.733  -3.810  1.00  0.00    -0.265 OA
BRANCH   3  14
HETATM   14  N1  UNL     1     -23.077  -8.573  -5.840  1.00  0.00    -0.159 N 
HETATM   15  C3  UNL     1     -23.783  -9.268  -6.834  1.00  0.00     0.235 C 
HETATM   16  O1  UNL     1     -23.887  -8.791  -7.998  1.00  0.00    -0.273 OA
ATOM     17  H1  UNL     1     -22.062  -8.531  -5.936  1.00  0.00     0.187 HD
BRANCH  15  18
HETATM   18  C2  UNL     1     -24.438 -10.579  -6.587  1.00  0.00     0.099 C 
HETATM   19  C1  UNL     1     -24.242 -11.534  -7.752  1.00  0.00     0.014 C 
ENDBRANCH  15  18
ENDBRANCH   3  14
BRANCH  11  20
HETATM   20  N4  UNL     1     -25.978  -7.475   0.392  1.00  0.00    -0.234 N 
ATOM     21  H42 UNL     1     -26.974  -7.450   0.611  1.00  0.00     0.174 HD
ATOM     22  H41 UNL     1     -25.471  -7.534   1.276  1.00  0.00     0.174 HD
ENDBRANCH  11  20
BRANCH   8  23
HETATM   23  C8  UNL     1     -25.104  -9.865  -1.092  1.00  0.00     0.175 C 
BRANCH  23  24
HETATM   24  C9  UNL     1     -23.805 -10.338  -0.456  1.00  0.00     0.185 C 
BRANCH  24  25
HETATM   25  O2  UNL     1     -22.821 -10.442  -1.419  1.00  0.00    -0.399 OA
ATOM     26  H2  UNL     1     -22.602 -11.355  -1.560  1.00  0.00     0.209 HD
ENDBRANCH  24  25
ENDBRANCH  23  24
ENDBRANCH   8  23
ENDBRANCH   1   2
BRANCH   1  27
HETATM   27  C12 UNL     1     -24.341  -5.404  -6.856  1.00  0.00     0.255 C 
HETATM   28  O4  UNL     1     -25.449  -5.996  -6.852  1.00  0.00    -0.270 OA
HETATM   29  N7  UNL     1     -24.186  -4.244  -7.668  1.00  0.00    -0.266 N 
ATOM     30  H7  UNL     1     -23.292  -3.754  -7.679  1.00  0.00     0.190 HD
BRANCH  29  31
HETATM   31  N8  UNL     1     -25.255  -3.764  -8.459  1.00  0.00    -0.265 N 
HETATM   32  C13 UNL     1     -25.427  -4.183  -9.799  1.00  0.00     0.273 C 
HETATM   33  O5  UNL     1     -24.613  -4.997 -10.288  1.00  0.00    -0.268 OA
ATOM     34  H8  UNL     1     -25.916  -3.101  -8.055  1.00  0.00     0.190 HD
BRANCH  32  35
HETATM   35  C14 UNL     1     -26.536  -3.677 -10.608  1.00  0.00     0.298 C 
BRANCH  35  36
HETATM   36  O6  UNL     1     -27.738  -3.835  -9.897  1.00  0.00    -0.378 OA
ATOM     37  H6  UNL     1     -28.234  -3.026  -9.936  1.00  0.00     0.211 HD
ENDBRANCH  35  36
BRANCH  35  38
HETATM   38  C15 UNL     1     -26.398  -2.300 -11.024  1.00  0.00     0.280 C 
HETATM   39  O7  UNL     1     -27.303  -1.532 -11.028  1.00  0.00    -0.277 OA
BRANCH  38  40
HETATM   40  S1  UNL     1     -24.616  -1.629 -11.623  1.00  0.00     0.156 SA
BRANCH  40  41
HETATM   41  O8  UNL     1     -25.062  -2.148 -13.119  1.00  0.00    -0.299 OA
ATOM     42  H8  UNL     1     -24.265  -1.729 -13.424  1.00  0.00     0.231 HD
ENDBRANCH  40  41
BRANCH  40  43
HETATM   43  O9  UNL     1     -23.243  -2.581 -11.654  1.00  0.00    -0.299 OA
ATOM     44  H9  UNL     1     -22.582  -2.520 -12.333  1.00  0.00     0.231 HD
ENDBRANCH  40  43
BRANCH  40  45
HETATM   45  O10 UNL     1     -24.307  -1.083 -10.115  1.00  0.00    -0.299 OA
ATOM     46  H10 UNL     1     -23.527  -1.624 -10.075  1.00  0.00     0.231 HD
ENDBRANCH  40  45
BRANCH  40  47
HETATM   47  N9  UNL     1     -24.727   0.158 -12.337  1.00  0.00    -0.015 NA
BRANCH  47  48
HETATM   48  N10 UNL     1     -25.758   0.339 -13.219  1.00  0.00    -0.243 N 
HETATM   49  C16 UNL     1     -26.770   1.269 -12.917  1.00  0.00     0.345 C 
HETATM   50  N11 UNL     1     -27.867   1.504 -13.789  1.00  0.00    -0.039 NA
HETATM   51  O11 UNL     1     -26.747   1.936 -11.852  1.00  0.00    -0.250 OA
ATOM     52  H10 UNL     1     -25.792  -0.194 -14.088  1.00  0.00     0.188 HD
ENDBRANCH  47  48
ENDBRANCH  40  47
ENDBRANCH  38  40
ENDBRANCH  35  38
ENDBRANCH  32  35
ENDBRANCH  29  31
ENDBRANCH   1  27
TORSDOF 18
ENDMDL
