MODEL 1
REMARK VINA RESULT: -10.072146814      0.000      0.000
REMARK  12 active torsions:
REMARK  status: ('A' for Active; 'I' for Inactive)
REMARK    1  A    between atoms: N2_5  and  C3_6 
REMARK    2  A    between atoms: C3_6  and  C4_7 
REMARK       I    between atoms: C4_7  and  N3_9 
REMARK    3  A    between atoms: N3_9  and  N4_11 
REMARK       I    between atoms: N4_11  and  C5_13 
REMARK    4  A    between atoms: C12_32  and  C13_33 
REMARK    5  A    between atoms: C13_33  and  O4_34 
REMARK    6  A    between atoms: C13_33  and  C14_36 
REMARK    7  A    between atoms: C14_36  and  N10_37 
REMARK    8  A    between atoms: N10_37  and  S2_39 
REMARK    9  A    between atoms: S2_39  and  N11_42 
REMARK   10  A    between atoms: C15_44  and  C16_46 
REMARK   11  A    between atoms: C16_46  and  N13_47 
REMARK   12  A    between atoms: C16_46  and  O7_51 
ROOT
HETATM    1  C1  UNL     1     -24.628  -6.879  -9.671  1.00  0.00     0.161 C 
HETATM    2  N1  UNL     1     -24.163  -5.649  -9.081  1.00  0.00    -0.300 N 
HETATM    3  C2  UNL     1     -24.173  -4.485  -9.782  1.00  0.00     0.332 A 
HETATM    4  O1  UNL     1     -24.602  -4.521 -10.960  1.00  0.00    -0.246 OA
HETATM    5  N2  UNL     1     -23.765  -3.296  -9.330  1.00  0.00    -0.256 N 
HETATM    6  C6  UNL     1     -23.297  -3.179  -8.085  1.00  0.00     0.267 A 
HETATM    7  O3  UNL     1     -22.893  -2.108  -7.571  1.00  0.00    -0.267 OA
HETATM    8  C7  UNL     1     -23.254  -4.308  -7.314  1.00  0.00     0.100 A 
HETATM    9  C8  UNL     1     -22.777  -4.291  -6.027  1.00  0.00     0.120 A 
HETATM   10  S1  UNL     1     -22.260  -2.867  -5.400  1.00  0.00    -0.059 SA
HETATM   11  N7  UNL     1     -22.712  -5.387  -5.258  1.00  0.00    -0.331 N 
ATOM     12  H7  UNL     1     -22.349  -5.324  -4.307  1.00  0.00     0.168 HD
HETATM   13  C9  UNL     1     -23.131  -6.577  -5.749  1.00  0.00     0.135 A 
HETATM   14  C10 UNL     1     -23.627  -6.670  -7.036  1.00  0.00     0.120 A 
HETATM   15  C11 UNL     1     -23.689  -5.545  -7.820  1.00  0.00     0.089 A 
HETATM   16  N8  UNL     1     -24.063  -7.787  -7.453  1.00  0.00    -0.297 N 
ATOM     17  H8  UNL     1     -24.426  -7.849  -8.404  1.00  0.00     0.187 HD
HETATM   18  N9  UNL     1     -24.064  -8.923  -6.664  1.00  0.00    -0.310 N 
ATOM     19  H9  UNL     1     -24.531  -9.765  -7.002  1.00  0.00     0.182 HD
HETATM   20  C12 UNL     1     -23.423  -8.944  -5.382  1.00  0.00     0.229 C 
HETATM   21  N14 UNL     1     -23.031  -7.611  -5.010  1.00  0.00    -0.350 N 
ATOM     22  H14 UNL     1     -22.640  -7.482  -4.077  1.00  0.00     0.163 HD
ENDROOT
BRANCH  20  23
HETATM   23  C13 UNL     1     -24.370  -9.476  -4.309  1.00  0.00     0.180 C 
BRANCH  23  24
HETATM   24  O4  UNL     1     -23.601  -9.865  -3.190  1.00  0.00    -0.390 OA
ATOM     25  H4  UNL     1     -23.907 -10.716  -2.898  1.00  0.00     0.210 HD
ENDBRANCH  23  24
BRANCH  23  26
HETATM   26  C14 UNL     1     -25.308  -8.351  -3.943  1.00  0.00     0.169 C 
BRANCH  26  27
HETATM   27  N10 UNL     1     -25.696  -8.350  -2.571  1.00  0.00    -0.300 N 
ATOM     28  H10 UNL     1     -26.338  -9.029  -2.162  1.00  0.00     0.173 HD
BRANCH  27  29
HETATM   29  S2  UNL     1     -24.954  -7.070  -1.682  1.00  0.00     0.320 S 
HETATM   30  O5  UNL     1     -25.969  -6.424  -0.750  1.00  0.00    -0.182 OA
HETATM   31  O6  UNL     1     -24.457  -6.001  -2.608  1.00  0.00    -0.182 OA
BRANCH  29  32
HETATM   32  N11 UNL     1     -23.690  -7.702  -0.737  1.00  0.00    -0.255 N 
HETATM   33  C15 UNL     1     -23.742  -8.690   0.047  1.00  0.00     0.160 C 
HETATM   34  N12 UNL     1     -24.886  -9.488   0.305  1.00  0.00    -0.082 NA
ATOM     35  H11 UNL     1     -22.789  -7.231  -0.813  1.00  0.00     0.181 HD
BRANCH  33  36
HETATM   36  C16 UNL     1     -22.490  -9.080   0.780  1.00  0.00     0.382 C 
BRANCH  36  37
HETATM   37  N13 UNL     1     -22.146  -8.038   1.712  1.00  0.00    -0.046 N 
ATOM     38 3H13 UNL     1     -21.184  -7.717   1.597  1.00  0.00     0.277 HD
ATOM     39 2H13 UNL     1     -22.617  -7.158   1.501  1.00  0.00     0.277 HD
ATOM     40 1H13 UNL     1     -22.336  -8.362   2.660  1.00  0.00     0.277 HD
ENDBRANCH  36  37
BRANCH  36  41
HETATM   41  O7  UNL     1     -21.509  -9.324  -0.171  1.00  0.00    -0.365 OA
ATOM     42  H7  UNL     1     -21.342  -8.508  -0.626  1.00  0.00     0.212 HD
ENDBRANCH  36  41
ENDBRANCH  33  36
ENDBRANCH  29  32
ENDBRANCH  27  29
ENDBRANCH  26  27
ENDBRANCH  23  26
ENDBRANCH  20  23
BRANCH   5  43
HETATM   43  C3  UNL     1     -23.782  -2.092 -10.145  1.00  0.00     0.241 C 
BRANCH  43  44
HETATM   44  C4  UNL     1     -25.132  -1.676 -10.561  1.00  0.00     0.254 C 
HETATM   45  O2  UNL     1     -26.125  -2.005  -9.891  1.00  0.00    -0.270 OA
HETATM   46  N3  UNL     1     -25.313  -0.896 -11.725  1.00  0.00    -0.266 N 
ATOM     47  H3  UNL     1     -24.477  -0.642 -12.252  1.00  0.00     0.190 HD
BRANCH  46  48
HETATM   48  N4  UNL     1     -26.528  -0.450 -12.209  1.00  0.00    -0.271 N 
HETATM   49  C5  UNL     1     -26.768   0.929 -12.379  1.00  0.00     0.200 C 
HETATM   50  N5  UNL     1     -27.345   1.325 -13.459  1.00  0.00    -0.372 N 
HETATM   51  N6  UNL     1     -26.405   1.908 -11.418  1.00  0.00    -0.062 NA
ATOM     52  H52 UNL     1     -27.606   0.622 -14.150  1.00  0.00     0.158 HD
ATOM     53  H51 UNL     1     -27.519   2.323 -13.582  1.00  0.00     0.158 HD
ATOM     54  H4  UNL     1     -27.258  -1.122 -12.444  1.00  0.00     0.189 HD
ENDBRANCH  46  48
ENDBRANCH  43  44
ENDBRANCH   5  43
TORSDOF 12
ENDMDL
MODEL 2
REMARK VINA RESULT: -9.967629025      1.464      1.807
REMARK  12 active torsions:
REMARK  status: ('A' for Active; 'I' for Inactive)
REMARK    1  A    between atoms: N2_5  and  C3_6 
REMARK    2  A    between atoms: C3_6  and  C4_7 
REMARK       I    between atoms: C4_7  and  N3_9 
REMARK    3  A    between atoms: N3_9  and  N4_11 
REMARK       I    between atoms: N4_11  and  C5_13 
REMARK    4  A    between atoms: C12_32  and  C13_33 
REMARK    5  A    between atoms: C13_33  and  O4_34 
REMARK    6  A    between atoms: C13_33  and  C14_36 
REMARK    7  A    between atoms: C14_36  and  N10_37 
REMARK    8  A    between atoms: N10_37  and  S2_39 
REMARK    9  A    between atoms: S2_39  and  N11_42 
REMARK   10  A    between atoms: C15_44  and  C16_46 
REMARK   11  A    between atoms: C16_46  and  N13_47 
REMARK   12  A    between atoms: C16_46  and  O7_51 
ROOT
HETATM    1  C1  UNL     1     -24.865  -7.157  -9.657  1.00  0.00     0.161 C 
HETATM    2  N1  UNL     1     -24.367  -5.909  -9.136  1.00  0.00    -0.300 N 
HETATM    3  C2  UNL     1     -24.408  -4.771  -9.877  1.00  0.00     0.332 A 
HETATM    4  O1  UNL     1     -24.897  -4.847 -11.030  1.00  0.00    -0.246 OA
HETATM    5  N2  UNL     1     -23.974  -3.569  -9.490  1.00  0.00    -0.256 N 
HETATM    6  C6  UNL     1     -23.443  -3.410  -8.275  1.00  0.00     0.267 A 
HETATM    7  O3  UNL     1     -23.009  -2.323  -7.821  1.00  0.00    -0.267 OA
HETATM    8  C7  UNL     1     -23.365  -4.510  -7.467  1.00  0.00     0.100 A 
HETATM    9  C8  UNL     1     -22.823  -4.450  -6.207  1.00  0.00     0.120 A 
HETATM   10  S1  UNL     1     -22.270  -3.007  -5.659  1.00  0.00    -0.059 SA
HETATM   11  N7  UNL     1     -22.723  -5.518  -5.403  1.00  0.00    -0.331 N 
ATOM     12  H7  UNL     1     -22.312  -5.423  -4.474  1.00  0.00     0.168 HD
HETATM   13  C9  UNL     1     -23.170  -6.723  -5.829  1.00  0.00     0.135 A 
HETATM   14  C10 UNL     1     -23.731  -6.859  -7.085  1.00  0.00     0.120 A 
HETATM   15  C11 UNL     1     -23.830  -5.762  -7.905  1.00  0.00     0.089 A 
HETATM   16  N8  UNL     1     -24.192  -7.988  -7.439  1.00  0.00    -0.297 N 
ATOM     17  H8  UNL     1     -24.603  -8.082  -8.368  1.00  0.00     0.187 HD
HETATM   18  N9  UNL     1     -24.157  -9.095  -6.611  1.00  0.00    -0.310 N 
ATOM     19  H9  UNL     1     -24.643  -9.946  -6.894  1.00  0.00     0.182 HD
HETATM   20  C12 UNL     1     -23.452  -9.073  -5.363  1.00  0.00     0.229 C 
HETATM   21  N14 UNL     1     -23.036  -7.730  -5.059  1.00  0.00    -0.350 N 
ATOM     22  H14 UNL     1     -22.598  -7.570  -4.152  1.00  0.00     0.163 HD
ENDROOT
BRANCH  20  23
HETATM   23  C13 UNL     1     -24.345  -9.561  -4.225  1.00  0.00     0.180 C 
BRANCH  23  24
HETATM   24  O4  UNL     1     -23.528  -9.837  -3.105  1.00  0.00    -0.390 OA
ATOM     25  H4  UNL     1     -23.960 -10.496  -2.575  1.00  0.00     0.210 HD
ENDBRANCH  23  24
BRANCH  23  26
HETATM   26  C14 UNL     1     -25.318  -8.450  -3.913  1.00  0.00     0.169 C 
BRANCH  26  27
HETATM   27  N10 UNL     1     -25.712  -8.400  -2.543  1.00  0.00    -0.300 N 
ATOM     28  H10 UNL     1     -26.359  -9.061  -2.113  1.00  0.00     0.173 HD
BRANCH  27  29
HETATM   29  S2  UNL     1     -24.966  -7.093  -1.696  1.00  0.00     0.320 S 
HETATM   30  O5  UNL     1     -25.978  -6.419  -0.780  1.00  0.00    -0.182 OA
HETATM   31  O6  UNL     1     -24.473  -6.052  -2.657  1.00  0.00    -0.182 OA
BRANCH  29  32
HETATM   32  N11 UNL     1     -23.697  -7.696  -0.738  1.00  0.00    -0.255 N 
HETATM   33  C15 UNL     1     -23.747  -8.654   0.081  1.00  0.00     0.160 C 
HETATM   34  N12 UNL     1     -24.892  -9.439   0.376  1.00  0.00    -0.082 NA
ATOM     35  H11 UNL     1     -22.795  -7.231  -0.838  1.00  0.00     0.181 HD
BRANCH  33  36
HETATM   36  C16 UNL     1     -22.491  -9.023   0.818  1.00  0.00     0.382 C 
BRANCH  36  37
HETATM   37  N13 UNL     1     -22.165  -7.973   1.748  1.00  0.00    -0.046 N 
ATOM     38 3H13 UNL     1     -22.948  -7.738   2.357  1.00  0.00     0.277 HD
ATOM     39 2H13 UNL     1     -21.511  -8.281   2.467  1.00  0.00     0.277 HD
ATOM     40 1H13 UNL     1     -21.819  -7.164   1.230  1.00  0.00     0.277 HD
ENDBRANCH  36  37
BRANCH  36  41
HETATM   41  O7  UNL     1     -21.504  -9.255  -0.129  1.00  0.00    -0.365 OA
ATOM     42  H7  UNL     1     -20.859  -8.563  -0.047  1.00  0.00     0.212 HD
ENDBRANCH  36  41
ENDBRANCH  33  36
ENDBRANCH  29  32
ENDBRANCH  27  29
ENDBRANCH  26  27
ENDBRANCH  23  26
ENDBRANCH  20  23
BRANCH   5  43
HETATM   43  C3  UNL     1     -24.028  -2.394 -10.345  1.00  0.00     0.241 C 
BRANCH  43  44
HETATM   44  C4  UNL     1     -25.327  -1.701 -10.320  1.00  0.00     0.254 C 
HETATM   45  O2  UNL     1     -25.387  -0.473 -10.498  1.00  0.00    -0.270 OA
HETATM   46  N3  UNL     1     -26.520  -2.425 -10.095  1.00  0.00    -0.266 N 
ATOM     47  H3  UNL     1     -26.436  -3.431  -9.953  1.00  0.00     0.190 HD
BRANCH  46  48
HETATM   48  N4  UNL     1     -27.790  -1.881 -10.052  1.00  0.00    -0.271 N 
HETATM   49  C5  UNL     1     -28.898  -2.680  -9.702  1.00  0.00     0.200 C 
HETATM   50  N5  UNL     1     -29.768  -2.201  -8.883  1.00  0.00    -0.372 N 
HETATM   51  N6  UNL     1     -29.107  -3.988 -10.208  1.00  0.00    -0.062 NA
ATOM     52  H52 UNL     1     -29.618  -1.260  -8.519  1.00  0.00     0.158 HD
ATOM     53  H51 UNL     1     -30.570  -2.779  -8.631  1.00  0.00     0.158 HD
ATOM     54  H4  UNL     1     -27.927  -0.896 -10.275  1.00  0.00     0.189 HD
ENDBRANCH  46  48
ENDBRANCH  43  44
ENDBRANCH   5  43
TORSDOF 12
ENDMDL
MODEL 3
REMARK VINA RESULT: -9.853010916      1.049      1.197
REMARK  12 active torsions:
REMARK  status: ('A' for Active; 'I' for Inactive)
REMARK    1  A    between atoms: N2_5  and  C3_6 
REMARK    2  A    between atoms: C3_6  and  C4_7 
REMARK       I    between atoms: C4_7  and  N3_9 
REMARK    3  A    between atoms: N3_9  and  N4_11 
REMARK       I    between atoms: N4_11  and  C5_13 
REMARK    4  A    between atoms: C12_32  and  C13_33 
REMARK    5  A    between atoms: C13_33  and  O4_34 
REMARK    6  A    between atoms: C13_33  and  C14_36 
REMARK    7  A    between atoms: C14_36  and  N10_37 
REMARK    8  A    between atoms: N10_37  and  S2_39 
REMARK    9  A    between atoms: S2_39  and  N11_42 
REMARK   10  A    between atoms: C15_44  and  C16_46 
REMARK   11  A    between atoms: C16_46  and  N13_47 
REMARK   12  A    between atoms: C16_46  and  O7_51 
ROOT
HETATM    1  C1  UNL     1     -24.821  -6.828  -9.415  1.00  0.00     0.161 C 
HETATM    2  N1  UNL     1     -24.276  -5.551  -9.027  1.00  0.00    -0.300 N 
HETATM    3  C2  UNL     1     -24.276  -4.497  -9.884  1.00  0.00     0.332 A 
HETATM    4  O1  UNL     1     -24.769  -4.676 -11.024  1.00  0.00    -0.246 OA
HETATM    5  N2  UNL     1     -23.797  -3.278  -9.625  1.00  0.00    -0.256 N 
HETATM    6  C6  UNL     1     -23.259  -3.011  -8.432  1.00  0.00     0.267 A 
HETATM    7  O3  UNL     1     -22.785  -1.899  -8.093  1.00  0.00    -0.267 OA
HETATM    8  C7  UNL     1     -23.220  -4.023  -7.512  1.00  0.00     0.100 A 
HETATM    9  C8  UNL     1     -22.675  -3.850  -6.264  1.00  0.00     0.120 A 
HETATM   10  S1  UNL     1     -22.069  -2.379  -5.870  1.00  0.00    -0.059 SA
HETATM   11  N7  UNL     1     -22.614  -4.830  -5.352  1.00  0.00    -0.331 N 
ATOM     12  H7  UNL     1     -22.199  -4.653  -4.437  1.00  0.00     0.168 HD
HETATM   13  C9  UNL     1     -23.107  -6.056  -5.650  1.00  0.00     0.135 A 
HETATM   14  C10 UNL     1     -23.674  -6.302  -6.886  1.00  0.00     0.120 A 
HETATM   15  C11 UNL     1     -23.732  -5.296  -7.817  1.00  0.00     0.089 A 
HETATM   16  N8  UNL     1     -24.177  -7.444  -7.120  1.00  0.00    -0.297 N 
ATOM     17  H8  UNL     1     -24.592  -7.621  -8.035  1.00  0.00     0.187 HD
HETATM   18  N9  UNL     1     -24.182  -8.459  -6.180  1.00  0.00    -0.310 N 
ATOM     19  H9  UNL     1     -24.700  -9.316  -6.373  1.00  0.00     0.182 HD
HETATM   20  C12 UNL     1     -23.475  -8.332  -4.939  1.00  0.00     0.229 C 
HETATM   21  N14 UNL     1     -23.010  -6.980  -4.778  1.00  0.00    -0.350 N 
ATOM     22  H14 UNL     1     -22.565  -6.742  -3.891  1.00  0.00     0.163 HD
ENDROOT
BRANCH  20  23
HETATM   23  C13 UNL     1     -24.385  -8.664  -3.759  1.00  0.00     0.180 C 
BRANCH  23  24
HETATM   24  O4  UNL     1     -23.723  -9.605  -2.938  1.00  0.00    -0.390 OA
ATOM     25  H4  UNL     1     -24.128  -9.590  -2.080  1.00  0.00     0.210 HD
ENDBRANCH  23  24
BRANCH  23  26
HETATM   26  C14 UNL     1     -24.626  -7.378  -3.005  1.00  0.00     0.169 C 
BRANCH  26  27
HETATM   27  N10 UNL     1     -24.056  -7.364  -1.698  1.00  0.00    -0.300 N 
ATOM     28  H10 UNL     1     -23.077  -7.151  -1.507  1.00  0.00     0.173 HD
BRANCH  27  29
HETATM   29  S2  UNL     1     -25.213  -7.748  -0.475  1.00  0.00     0.320 S 
HETATM   30  O5  UNL     1     -25.965  -9.017  -0.848  1.00  0.00    -0.182 OA
HETATM   31  O6  UNL     1     -26.228  -6.652  -0.343  1.00  0.00    -0.182 OA
BRANCH  29  32
HETATM   32  N11 UNL     1     -24.406  -8.020   0.996  1.00  0.00    -0.255 N 
HETATM   33  C15 UNL     1     -23.382  -8.734   1.186  1.00  0.00     0.160 C 
HETATM   34  N12 UNL     1     -22.684  -9.468   0.194  1.00  0.00    -0.082 NA
ATOM     35  H11 UNL     1     -24.791  -7.553   1.817  1.00  0.00     0.181 HD
BRANCH  33  36
HETATM   36  C16 UNL     1     -22.829  -8.823   2.580  1.00  0.00     0.382 C 
BRANCH  36  37
HETATM   37  N13 UNL     1     -23.504  -7.865   3.417  1.00  0.00    -0.046 N 
ATOM     38 3H13 UNL     1     -23.286  -6.903   3.158  1.00  0.00     0.277 HD
ATOM     39 2H13 UNL     1     -24.508  -7.836   3.241  1.00  0.00     0.277 HD
ATOM     40 1H13 UNL     1     -23.286  -8.063   4.394  1.00  0.00     0.277 HD
ENDBRANCH  36  37
BRANCH  36  41
HETATM   41  O7  UNL     1     -21.458  -8.626   2.499  1.00  0.00    -0.365 OA
ATOM     42  H7  UNL     1     -21.077  -8.928   3.315  1.00  0.00     0.212 HD
ENDBRANCH  36  41
ENDBRANCH  33  36
ENDBRANCH  29  32
ENDBRANCH  27  29
ENDBRANCH  26  27
ENDBRANCH  23  26
ENDBRANCH  20  23
BRANCH   5  43
HETATM   43  C3  UNL     1     -23.808  -2.199 -10.599  1.00  0.00     0.241 C 
BRANCH  43  44
HETATM   44  C4  UNL     1     -25.156  -1.687 -10.902  1.00  0.00     0.254 C 
HETATM   45  O2  UNL     1     -26.090  -1.869 -10.105  1.00  0.00    -0.270 OA
HETATM   46  N3  UNL     1     -25.399  -0.980 -12.101  1.00  0.00    -0.266 N 
ATOM     47  H3  UNL     1     -24.610  -0.846 -12.733  1.00  0.00     0.190 HD
BRANCH  46  48
HETATM   48  N4  UNL     1     -26.618  -0.455 -12.487  1.00  0.00    -0.271 N 
HETATM   49  C5  UNL     1     -26.804   0.941 -12.565  1.00  0.00     0.200 C 
HETATM   50  N5  UNL     1     -27.422   1.423 -13.586  1.00  0.00    -0.372 N 
HETATM   51  N6  UNL     1     -26.345   1.845 -11.574  1.00  0.00    -0.062 NA
ATOM     52  H52 UNL     1     -27.753   0.773 -14.298  1.00  0.00     0.158 HD
ATOM     53  H51 UNL     1     -27.557   2.433 -13.642  1.00  0.00     0.158 HD
ATOM     54  H4  UNL     1     -27.389  -1.082 -12.716  1.00  0.00     0.189 HD
ENDBRANCH  46  48
ENDBRANCH  43  44
ENDBRANCH   5  43
TORSDOF 12
ENDMDL
MODEL 4
REMARK VINA RESULT: -9.749766295      1.736      2.103
REMARK  12 active torsions:
REMARK  status: ('A' for Active; 'I' for Inactive)
REMARK    1  A    between atoms: N2_5  and  C3_6 
REMARK    2  A    between atoms: C3_6  and  C4_7 
REMARK       I    between atoms: C4_7  and  N3_9 
REMARK    3  A    between atoms: N3_9  and  N4_11 
REMARK       I    between atoms: N4_11  and  C5_13 
REMARK    4  A    between atoms: C12_32  and  C13_33 
REMARK    5  A    between atoms: C13_33  and  O4_34 
REMARK    6  A    between atoms: C13_33  and  C14_36 
REMARK    7  A    between atoms: C14_36  and  N10_37 
REMARK    8  A    between atoms: N10_37  and  S2_39 
REMARK    9  A    between atoms: S2_39  and  N11_42 
REMARK   10  A    between atoms: C15_44  and  C16_46 
REMARK   11  A    between atoms: C16_46  and  N13_47 
REMARK   12  A    between atoms: C16_46  and  O7_51 
ROOT
HETATM    1  C1  UNL     1     -24.960  -7.093  -9.256  1.00  0.00     0.161 C 
HETATM    2  N1  UNL     1     -24.389  -5.820  -8.894  1.00  0.00    -0.300 N 
HETATM    3  C2  UNL     1     -24.405  -4.771  -9.757  1.00  0.00     0.332 A 
HETATM    4  O1  UNL     1     -24.936  -4.952 -10.879  1.00  0.00    -0.246 OA
HETATM    5  N2  UNL     1     -23.905  -3.555  -9.522  1.00  0.00    -0.256 N 
HETATM    6  C6  UNL     1     -23.327  -3.287  -8.349  1.00  0.00     0.267 A 
HETATM    7  O3  UNL     1     -22.830  -2.178  -8.033  1.00  0.00    -0.267 OA
HETATM    8  C7  UNL     1     -23.269  -4.293  -7.424  1.00  0.00     0.100 A 
HETATM    9  C8  UNL     1     -22.682  -4.118  -6.195  1.00  0.00     0.120 A 
HETATM   10  S1  UNL     1     -22.048  -2.651  -5.830  1.00  0.00    -0.059 SA
HETATM   11  N7  UNL     1     -22.602  -5.094  -5.278  1.00  0.00    -0.331 N 
ATOM     12  H7  UNL     1     -22.156  -4.915  -4.379  1.00  0.00     0.168 HD
HETATM   13  C9  UNL     1     -23.117  -6.316  -5.553  1.00  0.00     0.135 A 
HETATM   14  C10 UNL     1     -23.726  -6.564  -6.769  1.00  0.00     0.120 A 
HETATM   15  C11 UNL     1     -23.804  -5.562  -7.703  1.00  0.00     0.089 A 
HETATM   16  N8  UNL     1     -24.248  -7.702  -6.979  1.00  0.00    -0.297 N 
ATOM     17  H8  UNL     1     -24.695  -7.879  -7.879  1.00  0.00     0.187 HD
HETATM   18  N9  UNL     1     -24.233  -8.711  -6.032  1.00  0.00    -0.310 N 
ATOM     19  H9  UNL     1     -24.767  -9.563  -6.203  1.00  0.00     0.182 HD
HETATM   20  C12 UNL     1     -23.486  -8.583  -4.815  1.00  0.00     0.229 C 
HETATM   21  N14 UNL     1     -23.001  -7.235  -4.678  1.00  0.00    -0.350 N 
ATOM     22  H14 UNL     1     -22.526  -6.996  -3.808  1.00  0.00     0.163 HD
ENDROOT
BRANCH  20  23
HETATM   23  C13 UNL     1     -24.361  -8.898  -3.604  1.00  0.00     0.180 C 
BRANCH  23  24
HETATM   24  O4  UNL     1     -23.633  -9.745  -2.739  1.00  0.00    -0.390 OA
ATOM     25  H4  UNL     1     -23.291  -9.221  -2.025  1.00  0.00     0.210 HD
ENDBRANCH  23  24
BRANCH  23  26
HETATM   26  C14 UNL     1     -24.673  -7.586  -2.925  1.00  0.00     0.169 C 
BRANCH  26  27
HETATM   27  N10 UNL     1     -24.105  -7.465  -1.622  1.00  0.00    -0.300 N 
ATOM     28  H10 UNL     1     -23.135  -7.206  -1.447  1.00  0.00     0.173 HD
BRANCH  27  29
HETATM   29  S2  UNL     1     -25.251  -7.808  -0.376  1.00  0.00     0.320 S 
HETATM   30  O5  UNL     1     -26.030  -9.070  -0.715  1.00  0.00    -0.182 OA
HETATM   31  O6  UNL     1     -26.244  -6.692  -0.249  1.00  0.00    -0.182 OA
BRANCH  29  32
HETATM   32  N11 UNL     1     -24.427  -8.067   1.088  1.00  0.00    -0.255 N 
HETATM   33  C15 UNL     1     -23.365  -8.727   1.261  1.00  0.00     0.160 C 
HETATM   34  N12 UNL     1     -22.629  -9.400   0.251  1.00  0.00    -0.082 NA
ATOM     35  H11 UNL     1     -24.836  -7.641   1.919  1.00  0.00     0.181 HD
BRANCH  33  36
HETATM   36  C16 UNL     1     -22.805  -8.818   2.652  1.00  0.00     0.382 C 
BRANCH  36  37
HETATM   37  N13 UNL     1     -23.500  -7.885   3.501  1.00  0.00    -0.046 N 
ATOM     38 3H13 UNL     1     -23.141  -6.935   3.408  1.00  0.00     0.277 HD
ATOM     39 2H13 UNL     1     -24.454  -7.710   3.184  1.00  0.00     0.277 HD
ATOM     40 1H13 UNL     1     -23.466  -8.221   4.464  1.00  0.00     0.277 HD
ENDBRANCH  36  37
BRANCH  36  41
HETATM   41  O7  UNL     1     -21.439  -8.585   2.568  1.00  0.00    -0.365 OA
ATOM     42  H7  UNL     1     -21.319  -7.715   2.208  1.00  0.00     0.212 HD
ENDBRANCH  36  41
ENDBRANCH  33  36
ENDBRANCH  29  32
ENDBRANCH  27  29
ENDBRANCH  26  27
ENDBRANCH  23  26
ENDBRANCH  20  23
BRANCH   5  43
HETATM   43  C3  UNL     1     -23.937  -2.482 -10.502  1.00  0.00     0.241 C 
BRANCH  43  44
HETATM   44  C4  UNL     1     -25.191  -1.709 -10.496  1.00  0.00     0.254 C 
HETATM   45  O2  UNL     1     -25.187  -0.506 -10.803  1.00  0.00    -0.270 OA
HETATM   46  N3  UNL     1     -26.411  -2.328 -10.144  1.00  0.00    -0.266 N 
ATOM     47  H3  UNL     1     -26.379  -3.318  -9.898  1.00  0.00     0.190 HD
BRANCH  46  48
HETATM   48  N4  UNL     1     -27.643  -1.704 -10.105  1.00  0.00    -0.271 N 
HETATM   49  C5  UNL     1     -28.804  -2.431  -9.770  1.00  0.00     0.200 C 
HETATM   50  N5  UNL     1     -29.646  -1.903  -8.953  1.00  0.00    -0.372 N 
HETATM   51  N6  UNL     1     -29.093  -3.719 -10.288  1.00  0.00    -0.062 NA
ATOM     52  H52 UNL     1     -29.439  -0.977  -8.580  1.00  0.00     0.158 HD
ATOM     53  H51 UNL     1     -30.486  -2.429  -8.711  1.00  0.00     0.158 HD
ATOM     54  H4  UNL     1     -27.714  -0.709 -10.320  1.00  0.00     0.189 HD
ENDBRANCH  46  48
ENDBRANCH  43  44
ENDBRANCH   5  43
TORSDOF 12
ENDMDL
MODEL 5
REMARK VINA RESULT: -9.244323485      1.323      1.549
REMARK  12 active torsions:
REMARK  status: ('A' for Active; 'I' for Inactive)
REMARK    1  A    between atoms: N2_5  and  C3_6 
REMARK    2  A    between atoms: C3_6  and  C4_7 
REMARK       I    between atoms: C4_7  and  N3_9 
REMARK    3  A    between atoms: N3_9  and  N4_11 
REMARK       I    between atoms: N4_11  and  C5_13 
REMARK    4  A    between atoms: C12_32  and  C13_33 
REMARK    5  A    between atoms: C13_33  and  O4_34 
REMARK    6  A    between atoms: C13_33  and  C14_36 
REMARK    7  A    between atoms: C14_36  and  N10_37 
REMARK    8  A    between atoms: N10_37  and  S2_39 
REMARK    9  A    between atoms: S2_39  and  N11_42 
REMARK   10  A    between atoms: C15_44  and  C16_46 
REMARK   11  A    between atoms: C16_46  and  N13_47 
REMARK   12  A    between atoms: C16_46  and  O7_51 
ROOT
HETATM    1  C1  UNL     1     -26.018  -6.985  -9.060  1.00  0.00     0.161 C 
HETATM    2  N1  UNL     1     -25.246  -5.831  -8.671  1.00  0.00    -0.300 N 
HETATM    3  C2  UNL     1     -25.344  -4.659  -9.351  1.00  0.00     0.332 A 
HETATM    4  O1  UNL     1     -26.130  -4.619 -10.329  1.00  0.00    -0.246 OA
HETATM    5  N2  UNL     1     -24.675  -3.536  -9.076  1.00  0.00    -0.256 N 
HETATM    6  C6  UNL     1     -23.823  -3.502  -8.049  1.00  0.00     0.267 A 
HETATM    7  O3  UNL     1     -23.151  -2.496  -7.710  1.00  0.00    -0.267 OA
HETATM    8  C7  UNL     1     -23.667  -4.644  -7.314  1.00  0.00     0.100 A 
HETATM    9  C8  UNL     1     -22.804  -4.711  -6.248  1.00  0.00     0.120 A 
HETATM   10  S1  UNL     1     -21.950  -3.371  -5.845  1.00  0.00    -0.059 SA
HETATM   11  N7  UNL     1     -22.625  -5.824  -5.522  1.00  0.00    -0.331 N 
ATOM     12  H7  UNL     1     -21.971  -5.825  -4.739  1.00  0.00     0.168 HD
HETATM   13  C9  UNL     1     -23.317  -6.946  -5.832  1.00  0.00     0.135 A 
HETATM   14  C10 UNL     1     -24.207  -6.952  -6.890  1.00  0.00     0.120 A 
HETATM   15  C11 UNL     1     -24.385  -5.811  -7.631  1.00  0.00     0.089 A 
HETATM   16  N8  UNL     1     -24.882  -8.001  -7.125  1.00  0.00    -0.297 N 
ATOM     17  H8  UNL     1     -25.536  -7.999  -7.909  1.00  0.00     0.187 HD
HETATM   18  N9  UNL     1     -24.763  -9.147  -6.359  1.00  0.00    -0.310 N 
ATOM     19  H9  UNL     1     -25.410  -9.920  -6.515  1.00  0.00     0.182 HD
HETATM   20  C12 UNL     1     -23.752  -9.270  -5.351  1.00  0.00     0.229 C 
HETATM   21  N14 UNL     1     -23.107  -8.000  -5.147  1.00  0.00    -0.350 N 
ATOM     22  H14 UNL     1     -22.425  -7.938  -4.391  1.00  0.00     0.163 HD
ENDROOT
BRANCH  20  23
HETATM   23  C13 UNL     1     -24.361  -9.711  -4.022  1.00  0.00     0.180 C 
BRANCH  23  24
HETATM   24  O4  UNL     1     -23.351  -9.668  -3.034  1.00  0.00    -0.390 OA
ATOM     25  H4  UNL     1     -22.876 -10.490  -3.057  1.00  0.00     0.210 HD
ENDBRANCH  23  24
BRANCH  23  26
HETATM   26  C14 UNL     1     -25.467  -8.738  -3.692  1.00  0.00     0.169 C 
BRANCH  26  27
HETATM   27  N10 UNL     1     -25.728  -8.616  -2.295  1.00  0.00    -0.300 N 
ATOM     28  H10 UNL     1     -26.311  -9.266  -1.767  1.00  0.00     0.173 HD
BRANCH  27  29
HETATM   29  S2  UNL     1     -24.943  -7.244  -1.600  1.00  0.00     0.320 S 
HETATM   30  O5  UNL     1     -25.927  -6.454  -0.750  1.00  0.00    -0.182 OA
HETATM   31  O6  UNL     1     -24.440  -6.323  -2.672  1.00  0.00    -0.182 OA
BRANCH  29  32
HETATM   32  N11 UNL     1     -23.675  -7.771  -0.598  1.00  0.00    -0.255 N 
HETATM   33  C15 UNL     1     -23.707  -8.710   0.245  1.00  0.00     0.160 C 
HETATM   34  N12 UNL     1     -24.826  -9.531   0.534  1.00  0.00    -0.082 NA
ATOM     35  H11 UNL     1     -22.789  -7.274  -0.689  1.00  0.00     0.181 HD
BRANCH  33  36
HETATM   36  C16 UNL     1     -22.455  -9.009   1.021  1.00  0.00     0.382 C 
BRANCH  36  37
HETATM   37  N13 UNL     1     -22.159  -7.895   1.884  1.00  0.00    -0.046 N 
ATOM     38 3H13 UNL     1     -21.158  -7.711   1.949  1.00  0.00     0.277 HD
ATOM     39 2H13 UNL     1     -22.443  -7.004   1.478  1.00  0.00     0.277 HD
ATOM     40 1H13 UNL     1     -22.584  -8.059   2.797  1.00  0.00     0.277 HD
ENDBRANCH  36  37
BRANCH  36  41
HETATM   41  O7  UNL     1     -21.452  -9.286   0.103  1.00  0.00    -0.365 OA
ATOM     42  H7  UNL     1     -21.830  -9.828  -0.579  1.00  0.00     0.212 HD
ENDBRANCH  36  41
ENDBRANCH  33  36
ENDBRANCH  29  32
ENDBRANCH  27  29
ENDBRANCH  26  27
ENDBRANCH  23  26
ENDBRANCH  20  23
BRANCH   5  43
HETATM   43  C3  UNL     1     -24.811  -2.321  -9.862  1.00  0.00     0.241 C 
BRANCH  43  44
HETATM   44  C4  UNL     1     -24.268  -2.433 -11.226  1.00  0.00     0.254 C 
HETATM   45  O2  UNL     1     -23.048  -2.580 -11.407  1.00  0.00    -0.270 OA
HETATM   46  N3  UNL     1     -25.130  -2.377 -12.345  1.00  0.00    -0.266 N 
ATOM     47  H3  UNL     1     -26.126  -2.257 -12.163  1.00  0.00     0.190 HD
BRANCH  46  48
HETATM   48  N4  UNL     1     -24.733  -2.472 -13.666  1.00  0.00    -0.271 N 
HETATM   49  C5  UNL     1     -24.753  -1.337 -14.502  1.00  0.00     0.200 C 
HETATM   50  N5  UNL     1     -23.747  -1.124 -15.276  1.00  0.00    -0.372 N 
HETATM   51  N6  UNL     1     -25.829  -0.413 -14.537  1.00  0.00    -0.062 NA
ATOM     52  H52 UNL     1     -22.973  -1.788 -15.251  1.00  0.00     0.158 HD
ATOM     53  H51 UNL     1     -23.762  -0.304 -15.881  1.00  0.00     0.158 HD
ATOM     54  H4  UNL     1     -24.424  -3.369 -14.038  1.00  0.00     0.189 HD
ENDBRANCH  46  48
ENDBRANCH  43  44
ENDBRANCH   5  43
TORSDOF 12
ENDMDL
