MODEL 1
REMARK VINA RESULT: -8.963084509      0.000      0.000
REMARK  12 active torsions:
REMARK  status: ('A' for Active; 'I' for Inactive)
REMARK    1  A    between atoms: C1_2  and  C2_4 
REMARK    2  A    between atoms: C4_6  and  N2_7 
REMARK    3  A    between atoms: C6_12  and  O2_13 
REMARK    4  A    between atoms: C9_20  and  C10_21 
REMARK       I    between atoms: C10_21  and  N5_23 
REMARK    5  A    between atoms: N5_23  and  N6_25 
REMARK    6  A    between atoms: N6_25  and  C11_27 
REMARK    7  A    between atoms: C13_32  and  C14_33 
REMARK    8  A    between atoms: C14_33  and  O6_34 
REMARK    9  A    between atoms: C14_33  and  O7_36 
REMARK   10  A    between atoms: C16_43  and  O9_44 
REMARK   11  A    between atoms: C16_43  and  C17_46 
REMARK   12  A    between atoms: C17_46  and  C18_48 
ROOT
HETATM    1  C2  UNL     1     -23.987  -8.669  -7.474  1.00  0.00     0.178 C 
HETATM    2  C3  UNL     1     -24.098  -7.314  -8.215  1.00  0.00     0.063 C 
HETATM    3  C4  UNL     1     -24.862  -6.501  -7.167  1.00  0.00     0.134 C 
HETATM    4  C9  UNL     1     -25.464  -7.508  -6.216  1.00  0.00     0.204 C 
HETATM    5  N9  UNL     1     -25.210  -8.751  -6.912  1.00  0.00    -0.330 N 
HETATM    6  C16 UNL     1     -26.109  -9.758  -6.750  1.00  0.00     0.189 C 
ENDROOT
BRANCH   4   7
HETATM    7  C10 UNL     1     -24.825  -7.579  -4.900  1.00  0.00     0.261 C 
HETATM    8  O4  UNL     1     -24.727  -6.550  -4.143  1.00  0.00    -0.269 OA
HETATM    9  N5  UNL     1     -24.282  -8.782  -4.389  1.00  0.00    -0.270 N 
ATOM     10  H5  UNL     1     -24.319  -9.642  -4.937  1.00  0.00     0.189 HD
BRANCH   9  11
HETATM   11  N6  UNL     1     -23.703  -8.773  -3.140  1.00  0.00    -0.301 N 
ATOM     12  H6  UNL     1     -22.884  -8.204  -2.924  1.00  0.00     0.183 HD
BRANCH  11  13
HETATM   13  C11 UNL     1     -24.325  -9.615  -2.165  1.00  0.00     0.293 C 
HETATM   14  N7  UNL     1     -23.312 -10.368  -1.457  1.00  0.00    -0.329 N 
HETATM   15  C12 UNL     1     -22.891  -9.940  -0.161  1.00  0.00     0.247 C 
ATOM     16  H7  UNL     1     -22.901 -11.201  -1.881  1.00  0.00     0.165 HD
HETATM   17  O5  UNL     1     -22.312 -10.738   0.587  1.00  0.00    -0.271 OA
HETATM   18  C13 UNL     1     -23.162  -8.543   0.248  1.00  0.00     0.231 C 
HETATM   19  N8  UNL     1     -24.504  -8.198  -0.117  1.00  0.00    -0.340 N 
HETATM   20  C15 UNL     1     -25.141  -8.808  -1.211  1.00  0.00     0.262 C 
ATOM     21  H8  UNL     1     -25.006  -7.497   0.427  1.00  0.00     0.163 HD
HETATM   22  O8  UNL     1     -26.359  -8.691  -1.401  1.00  0.00    -0.269 OA
BRANCH  18  23
HETATM   23  C14 UNL     1     -22.931  -8.449   1.742  1.00  0.00     0.285 C 
BRANCH  23  24
HETATM   24  O6  UNL     1     -23.565  -7.261   2.177  1.00  0.00    -0.369 OA
ATOM     25  H6  UNL     1     -23.081  -6.538   1.794  1.00  0.00     0.212 HD
ENDBRANCH  23  24
BRANCH  23  26
HETATM   26  O7  UNL     1     -21.576  -8.417   1.972  1.00  0.00    -0.369 OA
ATOM     27  H7  UNL     1     -21.428  -8.485   2.907  1.00  0.00     0.212 HD
ENDBRANCH  23  26
ENDBRANCH  18  23
ENDBRANCH  11  13
ENDBRANCH   9  11
ENDBRANCH   4   7
BRANCH   3  28
HETATM   28  N2  UNL     1     -24.128  -5.516  -6.606  1.00  0.00    -0.219 N 
HETATM   29  C5  UNL     1     -23.589  -4.429  -6.593  1.00  0.00     0.683 A 
HETATM   30  N3  UNL     1     -22.910  -4.070  -5.461  1.00  0.00    -0.171 N 
HETATM   31  N4  UNL     1     -23.616  -3.567  -7.636  1.00  0.00    -0.156 N 
HETATM   32  C6  UNL     1     -22.278  -2.927  -5.334  1.00  0.00     0.160 A 
ATOM     33  H3  UNL     1     -22.894  -4.723  -4.677  1.00  0.00     0.186 HD
HETATM   34  C7  UNL     1     -22.300  -2.045  -6.392  1.00  0.00     0.131 A 
HETATM   35  C8  UNL     1     -22.974  -2.381  -7.534  1.00  0.00     0.263 A 
HETATM   36  O3  UNL     1     -23.043  -1.630  -8.546  1.00  0.00    -0.268 OA
ATOM     37  H4  UNL     1     -24.115  -3.811  -8.492  1.00  0.00     0.187 HD
ATOM     38  H2  UNL     1     -23.901  -5.894  -5.686  1.00  0.00     0.178 HD
BRANCH  32  39
HETATM   39  O2  UNL     1     -21.584  -2.560  -4.178  1.00  0.00    -0.346 OA
ATOM     40  H2  UNL     1     -20.651  -2.699  -4.066  1.00  0.00     0.219 HD
ENDBRANCH  32  39
ENDBRANCH   3  28
BRANCH   1  41
HETATM   41  C1  UNL     1     -23.335  -9.645  -8.287  1.00  0.00     0.254 C 
HETATM   42  N1  UNL     1     -23.638  -9.685  -9.684  1.00  0.00    -0.060 NA
HETATM   43  O1  UNL     1     -22.516 -10.477  -7.889  1.00  0.00    -0.275 OA
ENDBRANCH   1  41
BRANCH   6  44
HETATM   44  O9  UNL     1     -25.833 -10.693  -5.710  1.00  0.00    -0.343 OA
ATOM     45  H9  UNL     1     -25.283 -10.385  -5.000  1.00  0.00     0.219 HD
ENDBRANCH   6  44
BRANCH   6  46
HETATM   46  C17 UNL     1     -26.714 -10.428  -7.913  1.00  0.00     0.230 C 
HETATM   47  O10 UNL     1     -27.453  -9.832  -8.638  1.00  0.00    -0.286 OA
BRANCH  46  48
HETATM   48  C18 UNL     1     -26.404 -11.842  -8.181  1.00  0.00     0.265 C 
HETATM   49  C19 UNL     1     -26.253 -12.171  -9.670  1.00  0.00     0.069 C 
HETATM   50  C20 UNL     1     -25.341 -13.266  -9.084  1.00  0.00     0.235 C 
HETATM   51  N10 UNL     1     -25.021 -12.261  -8.052  1.00  0.00    -0.064 N 
ATOM     52 2H10 UNL     1     -24.247 -11.604  -8.162  1.00  0.00     0.278 HD
ATOM     53 1H10 UNL     1     -24.620 -12.523  -7.151  1.00  0.00     0.278 HD
ENDBRANCH  46  48
ENDBRANCH   6  46
TORSDOF 12
ENDMDL
MODEL 2
REMARK VINA RESULT: -8.621979916      0.964      1.058
REMARK  12 active torsions:
REMARK  status: ('A' for Active; 'I' for Inactive)
REMARK    1  A    between atoms: C1_2  and  C2_4 
REMARK    2  A    between atoms: C4_6  and  N2_7 
REMARK    3  A    between atoms: C6_12  and  O2_13 
REMARK    4  A    between atoms: C9_20  and  C10_21 
REMARK       I    between atoms: C10_21  and  N5_23 
REMARK    5  A    between atoms: N5_23  and  N6_25 
REMARK    6  A    between atoms: N6_25  and  C11_27 
REMARK    7  A    between atoms: C13_32  and  C14_33 
REMARK    8  A    between atoms: C14_33  and  O6_34 
REMARK    9  A    between atoms: C14_33  and  O7_36 
REMARK   10  A    between atoms: C16_43  and  O9_44 
REMARK   11  A    between atoms: C16_43  and  C17_46 
REMARK   12  A    between atoms: C17_46  and  C18_48 
ROOT
HETATM    1  C2  UNL     1     -23.986  -8.581  -7.544  1.00  0.00     0.178 C 
HETATM    2  C3  UNL     1     -24.255  -7.209  -8.207  1.00  0.00     0.063 C 
HETATM    3  C4  UNL     1     -24.896  -6.467  -7.031  1.00  0.00     0.134 C 
HETATM    4  C9  UNL     1     -25.317  -7.532  -6.046  1.00  0.00     0.204 C 
HETATM    5  N9  UNL     1     -25.114  -8.738  -6.820  1.00  0.00    -0.330 N 
HETATM    6  C16 UNL     1     -25.940  -9.790  -6.574  1.00  0.00     0.189 C 
ENDROOT
BRANCH   4   7
HETATM    7  C10 UNL     1     -24.496  -7.619  -4.836  1.00  0.00     0.261 C 
HETATM    8  O4  UNL     1     -23.291  -7.184  -4.808  1.00  0.00    -0.269 OA
HETATM    9  N5  UNL     1     -24.982  -8.185  -3.634  1.00  0.00    -0.270 N 
ATOM     10  H5  UNL     1     -25.931  -8.557  -3.582  1.00  0.00     0.189 HD
BRANCH   9  11
HETATM   11  N6  UNL     1     -24.153  -8.227  -2.534  1.00  0.00    -0.301 N 
ATOM     12  H6  UNL     1     -23.506  -7.470  -2.312  1.00  0.00     0.183 HD
BRANCH  11  13
HETATM   13  C11 UNL     1     -24.260  -9.401  -1.725  1.00  0.00     0.293 C 
HETATM   14  N7  UNL     1     -23.143  -9.461  -0.808  1.00  0.00    -0.329 N 
HETATM   15  C12 UNL     1     -23.322  -9.055   0.550  1.00  0.00     0.247 C 
ATOM     16  H7  UNL     1     -22.232  -9.792  -1.129  1.00  0.00     0.165 HD
HETATM   17  O5  UNL     1     -22.511  -9.422   1.410  1.00  0.00    -0.271 OA
HETATM   18  C13 UNL     1     -24.482  -8.198   0.888  1.00  0.00     0.231 C 
HETATM   19  N8  UNL     1     -25.649  -8.706   0.230  1.00  0.00    -0.340 N 
HETATM   20  C15 UNL     1     -25.553  -9.416  -0.980  1.00  0.00     0.262 C 
ATOM     21  H8  UNL     1     -26.566  -8.550   0.648  1.00  0.00     0.163 HD
HETATM   22  O8  UNL     1     -26.513 -10.048  -1.439  1.00  0.00    -0.269 OA
BRANCH  18  23
HETATM   23  C14 UNL     1     -24.627  -8.197   2.396  1.00  0.00     0.285 C 
BRANCH  23  24
HETATM   24  O6  UNL     1     -25.967  -7.836   2.674  1.00  0.00    -0.369 OA
ATOM     25  H6  UNL     1     -26.345  -8.552   3.170  1.00  0.00     0.212 HD
ENDBRANCH  23  24
BRANCH  23  26
HETATM   26  O7  UNL     1     -23.736  -7.289   2.918  1.00  0.00    -0.369 OA
ATOM     27  H7  UNL     1     -24.042  -7.029   3.779  1.00  0.00     0.212 HD
ENDBRANCH  23  26
ENDBRANCH  18  23
ENDBRANCH  11  13
ENDBRANCH   9  11
ENDBRANCH   4   7
BRANCH   3  28
HETATM   28  N2  UNL     1     -24.131  -5.469  -6.539  1.00  0.00    -0.219 N 
HETATM   29  C5  UNL     1     -23.584  -4.387  -6.589  1.00  0.00     0.683 A 
HETATM   30  N3  UNL     1     -22.853  -3.994  -5.502  1.00  0.00    -0.171 N 
HETATM   31  N4  UNL     1     -23.651  -3.564  -7.660  1.00  0.00    -0.156 N 
HETATM   32  C6  UNL     1     -22.207  -2.853  -5.444  1.00  0.00     0.160 A 
ATOM     33  H3  UNL     1     -22.807  -4.619  -4.697  1.00  0.00     0.186 HD
HETATM   34  C7  UNL     1     -22.270  -2.010  -6.531  1.00  0.00     0.131 A 
HETATM   35  C8  UNL     1     -22.996  -2.381  -7.630  1.00  0.00     0.263 A 
HETATM   36  O3  UNL     1     -23.104  -1.666  -8.664  1.00  0.00    -0.268 OA
ATOM     37  H4  UNL     1     -24.189  -3.833  -8.484  1.00  0.00     0.187 HD
ATOM     38  H2  UNL     1     -23.866  -5.816  -5.617  1.00  0.00     0.178 HD
BRANCH  32  39
HETATM   39  O2  UNL     1     -21.459  -2.451  -4.335  1.00  0.00    -0.346 OA
ATOM     40  H2  UNL     1     -21.534  -1.590  -3.940  1.00  0.00     0.219 HD
ENDBRANCH  32  39
ENDBRANCH   3  28
BRANCH   1  41
HETATM   41  C1  UNL     1     -23.418  -9.499  -8.479  1.00  0.00     0.254 C 
HETATM   42  N1  UNL     1     -22.567 -10.537  -7.987  1.00  0.00    -0.060 NA
HETATM   43  O1  UNL     1     -23.595  -9.479  -9.699  1.00  0.00    -0.275 OA
ENDBRANCH   1  41
BRANCH   6  44
HETATM   44  O9  UNL     1     -25.482 -10.746  -5.622  1.00  0.00    -0.343 OA
ATOM     45  H9  UNL     1     -26.066 -10.932  -4.896  1.00  0.00     0.219 HD
ENDBRANCH   6  44
BRANCH   6  46
HETATM   46  C17 UNL     1     -26.675 -10.447  -7.668  1.00  0.00     0.230 C 
HETATM   47  O10 UNL     1     -27.503  -9.847  -8.286  1.00  0.00    -0.286 OA
BRANCH  46  48
HETATM   48  C18 UNL     1     -26.386 -11.852  -7.998  1.00  0.00     0.265 C 
HETATM   49  C19 UNL     1     -26.268 -12.123  -9.501  1.00  0.00     0.069 C 
HETATM   50  C20 UNL     1     -25.357 -13.249  -8.978  1.00  0.00     0.235 C 
HETATM   51  N10 UNL     1     -25.005 -12.289  -7.913  1.00  0.00    -0.064 N 
ATOM     52 2H10 UNL     1     -24.227 -11.637  -8.013  1.00  0.00     0.278 HD
ATOM     53 1H10 UNL     1     -24.590 -12.592  -7.032  1.00  0.00     0.278 HD
ENDBRANCH  46  48
ENDBRANCH   6  46
TORSDOF 12
ENDMDL
MODEL 3
REMARK VINA RESULT: -8.617548611      1.837      6.449
REMARK  12 active torsions:
REMARK  status: ('A' for Active; 'I' for Inactive)
REMARK    1  A    between atoms: C1_2  and  C2_4 
REMARK    2  A    between atoms: C4_6  and  N2_7 
REMARK    3  A    between atoms: C6_12  and  O2_13 
REMARK    4  A    between atoms: C9_20  and  C10_21 
REMARK       I    between atoms: C10_21  and  N5_23 
REMARK    5  A    between atoms: N5_23  and  N6_25 
REMARK    6  A    between atoms: N6_25  and  C11_27 
REMARK    7  A    between atoms: C13_32  and  C14_33 
REMARK    8  A    between atoms: C14_33  and  O6_34 
REMARK    9  A    between atoms: C14_33  and  O7_36 
REMARK   10  A    between atoms: C16_43  and  O9_44 
REMARK   11  A    between atoms: C16_43  and  C17_46 
REMARK   12  A    between atoms: C17_46  and  C18_48 
ROOT
HETATM    1  C2  UNL     1     -25.231  -6.497  -7.864  1.00  0.00     0.178 C 
HETATM    2  C3  UNL     1     -24.679  -7.336  -9.041  1.00  0.00     0.063 C 
HETATM    3  C4  UNL     1     -23.711  -8.250  -8.284  1.00  0.00     0.134 C 
HETATM    4  C9  UNL     1     -23.480  -7.594  -6.944  1.00  0.00     0.204 C 
HETATM    5  N9  UNL     1     -24.108  -6.305  -7.141  1.00  0.00    -0.330 N 
HETATM    6  C16 UNL     1     -23.583  -5.241  -6.477  1.00  0.00     0.189 C 
ENDROOT
BRANCH   4   7
HETATM    7  C10 UNL     1     -24.129  -8.252  -5.809  1.00  0.00     0.261 C 
HETATM    8  O4  UNL     1     -25.346  -8.652  -5.869  1.00  0.00    -0.269 OA
HETATM    9  N5  UNL     1     -23.457  -8.486  -4.585  1.00  0.00    -0.270 N 
ATOM     10  H5  UNL     1     -22.489  -8.191  -4.462  1.00  0.00     0.189 HD
BRANCH   9  11
HETATM   11  N6  UNL     1     -24.132  -9.117  -3.564  1.00  0.00    -0.301 N 
ATOM     12  H6  UNL     1     -24.028 -10.115  -3.379  1.00  0.00     0.183 HD
BRANCH  11  13
HETATM   13  C11 UNL     1     -24.988  -8.281  -2.780  1.00  0.00     0.293 C 
HETATM   14  N7  UNL     1     -25.627  -9.071  -1.750  1.00  0.00    -0.329 N 
HETATM   15  C12 UNL     1     -25.118  -9.035  -0.416  1.00  0.00     0.247 C 
ATOM     16  H7  UNL     1     -26.437  -9.650  -1.976  1.00  0.00     0.165 HD
HETATM   17  O5  UNL     1     -25.838  -9.405   0.522  1.00  0.00    -0.271 OA
HETATM   18  C13 UNL     1     -23.736  -8.554  -0.195  1.00  0.00     0.231 C 
HETATM   19  N8  UNL     1     -23.518  -7.373  -0.977  1.00  0.00    -0.340 N 
HETATM   20  C15 UNL     1     -24.219  -7.153  -2.176  1.00  0.00     0.262 C 
ATOM     21  H8  UNL     1     -22.843  -6.679  -0.658  1.00  0.00     0.163 HD
HETATM   22  O8  UNL     1     -24.212  -6.051  -2.740  1.00  0.00    -0.269 OA
BRANCH  18  23
HETATM   23  C14 UNL     1     -23.569  -8.299   1.289  1.00  0.00     0.285 C 
BRANCH  23  24
HETATM   24  O6  UNL     1     -24.528  -7.319   1.642  1.00  0.00    -0.369 OA
ATOM     25  H6  UNL     1     -25.138  -7.738   2.238  1.00  0.00     0.212 HD
ENDBRANCH  23  24
BRANCH  23  26
HETATM   26  O7  UNL     1     -22.286  -7.860   1.513  1.00  0.00    -0.369 OA
ATOM     27  H7  UNL     1     -22.300  -7.249   2.240  1.00  0.00     0.212 HD
ENDBRANCH  23  26
ENDBRANCH  18  23
ENDBRANCH  11  13
ENDBRANCH   9  11
ENDBRANCH   4   7
BRANCH   3  28
HETATM   28  N2  UNL     1     -24.099  -9.544  -8.256  1.00  0.00    -0.219 N 
HETATM   29  C5  UNL     1     -24.561 -10.554  -8.740  1.00  0.00     0.683 A 
HETATM   30  N3  UNL     1     -24.646 -11.661  -7.941  1.00  0.00    -0.171 N 
HETATM   31  N4  UNL     1     -25.005 -10.639 -10.015  1.00  0.00    -0.156 N 
HETATM   32  C6  UNL     1     -25.139 -12.807  -8.349  1.00  0.00     0.160 A 
ATOM     33  H3  UNL     1     -24.308 -11.593  -6.980  1.00  0.00     0.186 HD
HETATM   34  C7  UNL     1     -25.593 -12.900  -9.645  1.00  0.00     0.131 A 
HETATM   35  C8  UNL     1     -25.519 -11.807 -10.464  1.00  0.00     0.263 A 
HETATM   36  O3  UNL     1     -25.912 -11.809 -11.663  1.00  0.00    -0.268 OA
ATOM     37  H4  UNL     1     -24.954  -9.828 -10.633  1.00  0.00     0.187 HD
ATOM     38  H2  UNL     1     -23.884  -9.826  -7.299  1.00  0.00     0.178 HD
BRANCH  32  39
HETATM   39  O2  UNL     1     -25.226 -13.938  -7.532  1.00  0.00    -0.346 OA
ATOM     40  H2  UNL     1     -25.987 -14.506  -7.510  1.00  0.00     0.219 HD
ENDBRANCH  32  39
ENDBRANCH   3  28
BRANCH   1  41
HETATM   41  C1  UNL     1     -26.148  -5.506  -8.327  1.00  0.00     0.254 C 
HETATM   42  N1  UNL     1     -26.195  -5.218  -9.727  1.00  0.00    -0.060 NA
HETATM   43  O1  UNL     1     -26.922  -4.860  -7.617  1.00  0.00    -0.275 OA
ENDBRANCH   1  41
BRANCH   6  44
HETATM   44  O9  UNL     1     -24.162  -4.934  -5.211  1.00  0.00    -0.343 OA
ATOM     45  H9  UNL     1     -23.718  -4.275  -4.692  1.00  0.00     0.219 HD
ENDBRANCH   6  44
BRANCH   6  46
HETATM   46  C17 UNL     1     -23.207  -4.012  -7.195  1.00  0.00     0.230 C 
HETATM   47  O10 UNL     1     -23.809  -3.671  -8.169  1.00  0.00    -0.286 OA
BRANCH  46  48
HETATM   48  C18 UNL     1     -22.079  -3.200  -6.708  1.00  0.00     0.265 C 
HETATM   49  C19 UNL     1     -22.486  -1.809  -6.213  1.00  0.00     0.069 C 
HETATM   50  C20 UNL     1     -21.226  -2.015  -5.351  1.00  0.00     0.235 C 
HETATM   51  N10 UNL     1     -21.620  -3.438  -5.352  1.00  0.00    -0.064 N 
ATOM     52 2H10 UNL     1     -22.234  -3.826  -4.636  1.00  0.00     0.278 HD
ATOM     53 1H10 UNL     1     -20.956  -4.180  -5.132  1.00  0.00     0.278 HD
ENDBRANCH  46  48
ENDBRANCH   6  46
TORSDOF 12
ENDMDL
MODEL 4
REMARK VINA RESULT: -8.534134288      0.939      1.485
REMARK  12 active torsions:
REMARK  status: ('A' for Active; 'I' for Inactive)
REMARK    1  A    between atoms: C1_2  and  C2_4 
REMARK    2  A    between atoms: C4_6  and  N2_7 
REMARK    3  A    between atoms: C6_12  and  O2_13 
REMARK    4  A    between atoms: C9_20  and  C10_21 
REMARK       I    between atoms: C10_21  and  N5_23 
REMARK    5  A    between atoms: N5_23  and  N6_25 
REMARK    6  A    between atoms: N6_25  and  C11_27 
REMARK    7  A    between atoms: C13_32  and  C14_33 
REMARK    8  A    between atoms: C14_33  and  O6_34 
REMARK    9  A    between atoms: C14_33  and  O7_36 
REMARK   10  A    between atoms: C16_43  and  O9_44 
REMARK   11  A    between atoms: C16_43  and  C17_46 
REMARK   12  A    between atoms: C17_46  and  C18_48 
ROOT
HETATM    1  C2  UNL     1     -24.061  -8.693  -7.431  1.00  0.00     0.178 C 
HETATM    2  C3  UNL     1     -24.162  -7.346  -8.186  1.00  0.00     0.063 C 
HETATM    3  C4  UNL     1     -24.909  -6.511  -7.143  1.00  0.00     0.134 C 
HETATM    4  C9  UNL     1     -25.516  -7.500  -6.176  1.00  0.00     0.204 C 
HETATM    5  N9  UNL     1     -25.281  -8.754  -6.859  1.00  0.00    -0.330 N 
HETATM    6  C16 UNL     1     -26.191  -9.749  -6.678  1.00  0.00     0.189 C 
ENDROOT
BRANCH   4   7
HETATM    7  C10 UNL     1     -24.869  -7.563  -4.864  1.00  0.00     0.261 C 
HETATM    8  O4  UNL     1     -24.770  -6.530  -4.111  1.00  0.00    -0.269 OA
HETATM    9  N5  UNL     1     -24.317  -8.761  -4.351  1.00  0.00    -0.270 N 
ATOM     10  H5  UNL     1     -24.353  -9.623  -4.896  1.00  0.00     0.189 HD
BRANCH   9  11
HETATM   11  N6  UNL     1     -23.729  -8.745  -3.106  1.00  0.00    -0.301 N 
ATOM     12  H6  UNL     1     -22.919  -8.162  -2.894  1.00  0.00     0.183 HD
BRANCH  11  13
HETATM   13  C11 UNL     1     -24.330  -9.599  -2.129  1.00  0.00     0.293 C 
HETATM   14  N7  UNL     1     -23.300 -10.338  -1.431  1.00  0.00    -0.329 N 
HETATM   15  C12 UNL     1     -22.876  -9.905  -0.136  1.00  0.00     0.247 C 
ATOM     16  H7  UNL     1     -22.879 -11.162  -1.860  1.00  0.00     0.165 HD
HETATM   17  O5  UNL     1     -22.279 -10.696   0.605  1.00  0.00    -0.271 OA
HETATM   18  C13 UNL     1     -23.167  -8.514   0.278  1.00  0.00     0.231 C 
HETATM   19  N8  UNL     1     -24.517  -8.190  -0.075  1.00  0.00    -0.340 N 
HETATM   20  C15 UNL     1     -25.153  -8.808  -1.167  1.00  0.00     0.262 C 
ATOM     21  H8  UNL     1     -25.026  -7.499   0.474  1.00  0.00     0.163 HD
HETATM   22  O8  UNL     1     -26.374  -8.710  -1.348  1.00  0.00    -0.269 OA
BRANCH  18  23
HETATM   23  C14 UNL     1     -22.927  -8.421   1.772  1.00  0.00     0.285 C 
BRANCH  23  24
HETATM   24  O6  UNL     1     -23.587  -7.250   2.216  1.00  0.00    -0.369 OA
ATOM     25  H6  UNL     1     -23.348  -7.133   3.128  1.00  0.00     0.212 HD
ENDBRANCH  23  24
BRANCH  23  26
HETATM   26  O7  UNL     1     -21.571  -8.356   1.990  1.00  0.00    -0.369 OA
ATOM     27  H7  UNL     1     -21.368  -7.507   2.364  1.00  0.00     0.212 HD
ENDBRANCH  23  26
ENDBRANCH  18  23
ENDBRANCH  11  13
ENDBRANCH   9  11
ENDBRANCH   4   7
BRANCH   3  28
HETATM   28  N2  UNL     1     -24.160  -5.528  -6.599  1.00  0.00    -0.219 N 
HETATM   29  C5  UNL     1     -23.612  -4.446  -6.602  1.00  0.00     0.683 A 
HETATM   30  N3  UNL     1     -22.916  -4.084  -5.481  1.00  0.00    -0.171 N 
HETATM   31  N4  UNL     1     -23.643  -3.593  -7.651  1.00  0.00    -0.156 N 
HETATM   32  C6  UNL     1     -22.273  -2.945  -5.371  1.00  0.00     0.160 A 
ATOM     33  H3  UNL     1     -22.897  -4.730  -4.692  1.00  0.00     0.186 HD
HETATM   34  C7  UNL     1     -22.300  -2.072  -6.435  1.00  0.00     0.131 A 
HETATM   35  C8  UNL     1     -22.989  -2.412  -7.567  1.00  0.00     0.263 A 
HETATM   36  O3  UNL     1     -23.063  -1.669  -8.584  1.00  0.00    -0.268 OA
ATOM     37  H4  UNL     1     -24.155  -3.839  -8.499  1.00  0.00     0.187 HD
ATOM     38  H2  UNL     1     -23.926  -5.900  -5.679  1.00  0.00     0.178 HD
BRANCH  32  39
HETATM   39  O2  UNL     1     -21.562  -2.575  -4.226  1.00  0.00    -0.346 OA
ATOM     40  H2  UNL     1     -21.567  -1.693  -3.873  1.00  0.00     0.219 HD
ENDBRANCH  32  39
ENDBRANCH   3  28
BRANCH   1  41
HETATM   41  C1  UNL     1     -23.427  -9.686  -8.237  1.00  0.00     0.254 C 
HETATM   42  N1  UNL     1     -23.794  -9.787  -9.614  1.00  0.00    -0.060 NA
HETATM   43  O1  UNL     1     -22.570 -10.484  -7.846  1.00  0.00    -0.275 OA
ENDBRANCH   1  41
BRANCH   6  44
HETATM   44  O9  UNL     1     -25.918 -10.674  -5.629  1.00  0.00    -0.343 OA
ATOM     45  H9  UNL     1     -25.400 -10.349  -4.903  1.00  0.00     0.219 HD
ENDBRANCH   6  44
BRANCH   6  46
HETATM   46  C17 UNL     1     -26.811 -10.425  -7.829  1.00  0.00     0.230 C 
HETATM   47  O10 UNL     1     -26.619 -11.588  -8.024  1.00  0.00    -0.286 OA
BRANCH  46  48
HETATM   48  C18 UNL     1     -27.672  -9.659  -8.746  1.00  0.00     0.265 C 
HETATM   49  C19 UNL     1     -28.343  -8.446  -8.095  1.00  0.00     0.069 C 
HETATM   50  C20 UNL     1     -28.292  -7.945  -9.552  1.00  0.00     0.235 C 
HETATM   51  N10 UNL     1     -27.028  -8.704  -9.628  1.00  0.00    -0.064 N 
ATOM     52 2H10 UNL     1     -26.130  -8.278  -9.397  1.00  0.00     0.278 HD
ATOM     53 1H10 UNL     1     -26.622  -8.985 -10.521  1.00  0.00     0.278 HD
ENDBRANCH  46  48
ENDBRANCH   6  46
TORSDOF 12
ENDMDL
MODEL 5
REMARK VINA RESULT: -8.434389246      1.199      2.344
REMARK  12 active torsions:
REMARK  status: ('A' for Active; 'I' for Inactive)
REMARK    1  A    between atoms: C1_2  and  C2_4 
REMARK    2  A    between atoms: C4_6  and  N2_7 
REMARK    3  A    between atoms: C6_12  and  O2_13 
REMARK    4  A    between atoms: C9_20  and  C10_21 
REMARK       I    between atoms: C10_21  and  N5_23 
REMARK    5  A    between atoms: N5_23  and  N6_25 
REMARK    6  A    between atoms: N6_25  and  C11_27 
REMARK    7  A    between atoms: C13_32  and  C14_33 
REMARK    8  A    between atoms: C14_33  and  O6_34 
REMARK    9  A    between atoms: C14_33  and  O7_36 
REMARK   10  A    between atoms: C16_43  and  O9_44 
REMARK   11  A    between atoms: C16_43  and  C17_46 
REMARK   12  A    between atoms: C17_46  and  C18_48 
ROOT
HETATM    1  C2  UNL     1     -23.972  -8.670  -7.354  1.00  0.00     0.178 C 
HETATM    2  C3  UNL     1     -24.236  -7.315  -8.054  1.00  0.00     0.063 C 
HETATM    3  C4  UNL     1     -24.881  -6.542  -6.901  1.00  0.00     0.134 C 
HETATM    4  C9  UNL     1     -25.307  -7.580  -5.890  1.00  0.00     0.204 C 
HETATM    5  N9  UNL     1     -25.103  -8.806  -6.631  1.00  0.00    -0.330 N 
HETATM    6  C16 UNL     1     -25.931  -9.850  -6.361  1.00  0.00     0.189 C 
ENDROOT
BRANCH   4   7
HETATM    7  C10 UNL     1     -24.492  -7.637  -4.675  1.00  0.00     0.261 C 
HETATM    8  O4  UNL     1     -23.390  -8.292  -4.633  1.00  0.00    -0.269 OA
HETATM    9  N5  UNL     1     -24.868  -6.976  -3.481  1.00  0.00    -0.270 N 
ATOM     10  H5  UNL     1     -25.734  -6.439  -3.437  1.00  0.00     0.189 HD
BRANCH   9  11
HETATM   11  N6  UNL     1     -24.046  -7.070  -2.380  1.00  0.00    -0.301 N 
ATOM     12  H6  UNL     1     -23.093  -6.705  -2.380  1.00  0.00     0.183 HD
BRANCH  11  13
HETATM   13  C11 UNL     1     -24.617  -7.712  -1.237  1.00  0.00     0.293 C 
HETATM   14  N7  UNL     1     -25.797  -8.450  -1.633  1.00  0.00    -0.329 N 
HETATM   15  C12 UNL     1     -25.714  -9.864  -1.825  1.00  0.00     0.247 C 
ATOM     16  H7  UNL     1     -26.683  -7.964  -1.775  1.00  0.00     0.165 HD
HETATM   17  O5  UNL     1     -26.748 -10.543  -1.813  1.00  0.00    -0.271 OA
HETATM   18  C13 UNL     1     -24.382 -10.475  -2.036  1.00  0.00     0.231 C 
HETATM   19  N8  UNL     1     -23.455  -9.918  -1.096  1.00  0.00    -0.340 N 
HETATM   20  C15 UNL     1     -23.625  -8.618  -0.587  1.00  0.00     0.262 C 
ATOM     21  H8  UNL     1     -22.658 -10.475  -0.789  1.00  0.00     0.163 HD
HETATM   22  O8  UNL     1     -22.972  -8.210   0.383  1.00  0.00    -0.269 OA
BRANCH  18  23
HETATM   23  C14 UNL     1     -24.533 -11.973  -1.874  1.00  0.00     0.285 C 
BRANCH  23  24
HETATM   24  O6  UNL     1     -23.308 -12.451  -1.351  1.00  0.00    -0.369 OA
ATOM     25  H6  UNL     1     -23.410 -13.388  -1.231  1.00  0.00     0.212 HD
ENDBRANCH  23  24
BRANCH  23  26
HETATM   26  O7  UNL     1     -24.809 -12.518  -3.106  1.00  0.00    -0.369 OA
ATOM     27  H7  UNL     1     -23.987 -12.672  -3.556  1.00  0.00     0.212 HD
ENDBRANCH  23  26
ENDBRANCH  18  23
ENDBRANCH  11  13
ENDBRANCH   9  11
ENDBRANCH   4   7
BRANCH   3  28
HETATM   28  N2  UNL     1     -24.116  -5.532  -6.432  1.00  0.00    -0.219 N 
HETATM   29  C5  UNL     1     -23.570  -4.452  -6.506  1.00  0.00     0.683 A 
HETATM   30  N3  UNL     1     -22.838  -4.034  -5.429  1.00  0.00    -0.171 N 
HETATM   31  N4  UNL     1     -23.639  -3.652  -7.595  1.00  0.00    -0.156 N 
HETATM   32  C6  UNL     1     -22.194  -2.891  -5.397  1.00  0.00     0.160 A 
ATOM     33  H3  UNL     1     -22.790  -4.641  -4.610  1.00  0.00     0.186 HD
HETATM   34  C7  UNL     1     -22.259  -2.072  -6.502  1.00  0.00     0.131 A 
HETATM   35  C8  UNL     1     -22.986  -2.467  -7.591  1.00  0.00     0.263 A 
HETATM   36  O3  UNL     1     -23.096  -1.775  -8.641  1.00  0.00    -0.268 OA
ATOM     37  H4  UNL     1     -24.179  -3.939  -8.411  1.00  0.00     0.187 HD
ATOM     38  H2  UNL     1     -23.849  -5.859  -5.502  1.00  0.00     0.178 HD
BRANCH  32  39
HETATM   39  O2  UNL     1     -21.444  -2.464  -4.298  1.00  0.00    -0.346 OA
ATOM     40  H2  UNL     1     -20.907  -1.681  -4.306  1.00  0.00     0.219 HD
ENDBRANCH  32  39
ENDBRANCH   3  28
BRANCH   1  41
HETATM   41  C1  UNL     1     -23.401  -9.612  -8.262  1.00  0.00     0.254 C 
HETATM   42  N1  UNL     1     -23.871  -9.634  -9.612  1.00  0.00    -0.060 NA
HETATM   43  O1  UNL     1     -22.519 -10.429  -7.985  1.00  0.00    -0.275 OA
ENDBRANCH   1  41
BRANCH   6  44
HETATM   44  O9  UNL     1     -25.479 -10.782  -5.382  1.00  0.00    -0.343 OA
ATOM     45  H9  UNL     1     -25.003 -10.421  -4.644  1.00  0.00     0.219 HD
ENDBRANCH   6  44
BRANCH   6  46
HETATM   46  C17 UNL     1     -26.663 -10.534  -7.440  1.00  0.00     0.230 C 
HETATM   47  O10 UNL     1     -27.532  -9.970  -8.034  1.00  0.00    -0.286 OA
BRANCH  46  48
HETATM   48  C18 UNL     1     -26.319 -11.923  -7.786  1.00  0.00     0.265 C 
HETATM   49  C19 UNL     1     -26.318 -12.204  -9.292  1.00  0.00     0.069 C 
HETATM   50  C20 UNL     1     -25.297 -13.268  -8.845  1.00  0.00     0.235 C 
HETATM   51  N10 UNL     1     -24.912 -12.276  -7.821  1.00  0.00    -0.064 N 
ATOM     52 2H10 UNL     1     -24.187 -11.579  -7.993  1.00  0.00     0.278 HD
ATOM     53 1H10 UNL     1     -24.403 -12.542  -6.978  1.00  0.00     0.278 HD
ENDBRANCH  46  48
ENDBRANCH   6  46
TORSDOF 12
ENDMDL
