MODEL 1
REMARK VINA RESULT: -8.256550808      0.000      0.000
REMARK  13 active torsions:
REMARK  status: ('A' for Active; 'I' for Inactive)
REMARK    1  A    between atoms: N1_1  and  C1_4 
REMARK    2  A    between atoms: C2_7  and  C3_8 
REMARK    3  A    between atoms: C3_8  and  S1_9 
REMARK    4  A    between atoms: S1_9  and  C4_12 
REMARK    5  A    between atoms: C4_12  and  C5_13 
REMARK    6  A    between atoms: C5_13  and  N3_14 
REMARK    7  A    between atoms: C5_13  and  C6_18 
REMARK    8  A    between atoms: C8_22  and  O3_23 
REMARK    9  A    between atoms: C9_27  and  C10_28 
REMARK   10  A    between atoms: C13_34  and  C14_35 
REMARK   11  A    between atoms: C14_35  and  C15_36 
REMARK   12  A    between atoms: C15_36  and  O7_37 
REMARK   13  A    between atoms: C16_41  and  O8_42 
ROOT
HETATM    1  C6  UNL     1     -25.553  -5.497  -8.245  1.00  0.00     0.205 C 
HETATM    2  N4  UNL     1     -26.684  -6.336  -8.528  1.00  0.00    -0.381 N 
ATOM      3  H4  UNL     1     -26.569  -7.297  -8.847  1.00  0.00     0.160 HD
HETATM    4  C7  UNL     1     -27.981  -5.759  -8.341  1.00  0.00     0.139 C 
HETATM    5  C8  UNL     1     -28.019  -4.357  -7.979  1.00  0.00     0.151 C 
HETATM    6  N5  UNL     1     -27.800  -3.187  -8.702  1.00  0.00    -0.355 N 
ATOM      7  H5  UNL     1     -27.105  -2.583  -8.262  1.00  0.00     0.162 HD
HETATM    8  C9  UNL     1     -28.308  -2.642  -9.891  1.00  0.00     0.191 C 
HETATM    9  C11 UNL     1     -27.649  -1.284 -10.160  1.00  0.00     0.116 C 
HETATM   10  C12 UNL     1     -26.660  -1.284 -11.229  1.00  0.00     0.151 C 
HETATM   11  O6  UNL     1     -26.996  -0.717 -12.283  1.00  0.00    -0.296 OA
HETATM   12  C13 UNL     1     -25.296  -1.881 -11.205  1.00  0.00     0.152 C 
HETATM   13  N6  UNL     1     -24.719  -1.836  -9.915  1.00  0.00    -0.370 N 
ATOM     14  H6  UNL     1     -24.848  -1.021  -9.317  1.00  0.00     0.158 HD
HETATM   15  C16 UNL     1     -23.956  -2.946  -9.466  1.00  0.00     0.325 C 
HETATM   16  N7  UNL     1     -24.236  -4.212 -10.076  1.00  0.00    -0.317 N 
ATOM     17  H7  UNL     1     -24.005  -4.289 -11.067  1.00  0.00     0.166 HD
HETATM   18  C17 UNL     1     -24.789  -5.360  -9.486  1.00  0.00     0.245 C 
HETATM   19  O9  UNL     1     -24.590  -6.447 -10.139  1.00  0.00    -0.271 OA
ENDROOT
BRANCH   1  20
HETATM   20  C5  UNL     1     -24.767  -6.192  -7.123  1.00  0.00     0.229 C 
BRANCH  20  21
HETATM   21  C4  UNL     1     -25.455  -7.384  -6.554  1.00  0.00     0.176 C 
BRANCH  21  22
HETATM   22  S1  UNL     1     -24.158  -8.559  -6.149  1.00  0.00     0.153 S 
HETATM   23  O1  UNL     1     -22.837  -7.883  -5.981  1.00  0.00    -0.227 OA
HETATM   24  O2  UNL     1     -24.013  -9.596  -7.226  1.00  0.00    -0.227 OA
BRANCH  22  25
HETATM   25  C3  UNL     1     -24.555  -9.379  -4.613  1.00  0.00     0.217 C 
BRANCH  25  26
HETATM   26  C2  UNL     1     -24.613  -8.408  -3.495  1.00  0.00     0.115 A 
HETATM   27  N2  UNL     1     -23.841  -7.310  -3.554  1.00  0.00    -0.180 N 
HETATM   28  C1  UNL     1     -23.876  -6.409  -2.547  1.00  0.00     0.681 A 
ATOM     29  H2  UNL     1     -23.231  -7.156  -4.358  1.00  0.00     0.185 HD
HETATM   30  N9  UNL     1     -24.675  -6.624  -1.509  1.00  0.00    -0.141 N 
HETATM   31  C18 UNL     1     -25.442  -7.719  -1.454  1.00  0.00     0.339 A 
ATOM     32  H9  UNL     1     -24.704  -5.947  -0.746  1.00  0.00     0.189 HD
HETATM   33  N8  UNL     1     -25.418  -8.613  -2.436  1.00  0.00    -0.296 N 
HETATM   34  O10 UNL     1     -26.185  -7.867  -0.436  1.00  0.00    -0.246 OA
ATOM     35  H8  UNL     1     -26.005  -9.446  -2.389  1.00  0.00     0.172 HD
BRANCH  28  36
HETATM   36  N1  UNL     1     -23.132  -5.346  -2.601  1.00  0.00    -0.234 N 
ATOM     37  H12 UNL     1     -22.705  -5.054  -3.479  1.00  0.00     0.174 HD
ATOM     38  H11 UNL     1     -22.969  -4.794  -1.758  1.00  0.00     0.174 HD
ENDBRANCH  28  36
ENDBRANCH  25  26
ENDBRANCH  22  25
ENDBRANCH  21  22
ENDBRANCH  20  21
BRANCH  20  39
HETATM   39  N3  UNL     1     -24.564  -5.253  -6.029  1.00  0.00    -0.072 N 
ATOM     40  H33 UNL     1     -25.429  -4.812  -5.715  1.00  0.00     0.274 HD
ATOM     41  H32 UNL     1     -24.322  -5.709  -5.149  1.00  0.00     0.274 HD
ATOM     42  H31 UNL     1     -23.861  -4.580  -6.338  1.00  0.00     0.274 HD
ENDBRANCH  20  39
ENDBRANCH   1  20
BRANCH   5  43
HETATM   43  O3  UNL     1     -28.314  -4.146  -6.723  1.00  0.00    -0.345 OA
ATOM     44  H3  UNL     1     -27.625  -3.710  -6.237  1.00  0.00     0.219 HD
ENDBRANCH   5  43
BRANCH  15  45
HETATM   45  O8  UNL     1     -24.039  -2.981  -8.068  1.00  0.00    -0.360 OA
ATOM     46  H8  UNL     1     -24.589  -3.717  -7.829  1.00  0.00     0.214 HD
ENDBRANCH  15  45
BRANCH   8  47
HETATM   47  C10 UNL     1     -28.261  -3.393 -11.131  1.00  0.00     0.197 C 
HETATM   48  O4  UNL     1     -27.481  -4.318 -11.454  1.00  0.00    -0.646 OA
HETATM   49  O5  UNL     1     -29.195  -3.100 -12.167  1.00  0.00    -0.646 OA
ENDBRANCH   8  47
BRANCH  12  50
HETATM   50  C14 UNL     1     -24.489  -1.065 -12.225  1.00  0.00     0.058 C 
BRANCH  50  51
HETATM   51  C15 UNL     1     -23.815  -1.898 -13.257  1.00  0.00     0.166 C 
BRANCH  51  52
HETATM   52  O7  UNL     1     -23.260  -1.090 -14.278  1.00  0.00    -0.401 OA
ATOM     53  H7  UNL     1     -23.113  -1.595 -15.069  1.00  0.00     0.209 HD
ENDBRANCH  51  52
ENDBRANCH  50  51
ENDBRANCH  12  50
TORSDOF 13
ENDMDL
MODEL 2
REMARK VINA RESULT: -8.080348374      0.917      1.199
REMARK  13 active torsions:
REMARK  status: ('A' for Active; 'I' for Inactive)
REMARK    1  A    between atoms: N1_1  and  C1_4 
REMARK    2  A    between atoms: C2_7  and  C3_8 
REMARK    3  A    between atoms: C3_8  and  S1_9 
REMARK    4  A    between atoms: S1_9  and  C4_12 
REMARK    5  A    between atoms: C4_12  and  C5_13 
REMARK    6  A    between atoms: C5_13  and  N3_14 
REMARK    7  A    between atoms: C5_13  and  C6_18 
REMARK    8  A    between atoms: C8_22  and  O3_23 
REMARK    9  A    between atoms: C9_27  and  C10_28 
REMARK   10  A    between atoms: C13_34  and  C14_35 
REMARK   11  A    between atoms: C14_35  and  C15_36 
REMARK   12  A    between atoms: C15_36  and  O7_37 
REMARK   13  A    between atoms: C16_41  and  O8_42 
ROOT
HETATM    1  C6  UNL     1     -25.564  -5.517  -8.416  1.00  0.00     0.205 C 
HETATM    2  N4  UNL     1     -26.707  -6.343  -8.690  1.00  0.00    -0.381 N 
ATOM      3  H4  UNL     1     -26.606  -7.301  -9.024  1.00  0.00     0.160 HD
HETATM    4  C7  UNL     1     -27.995  -5.759  -8.471  1.00  0.00     0.139 C 
HETATM    5  C8  UNL     1     -28.014  -4.362  -8.089  1.00  0.00     0.151 C 
HETATM    6  N5  UNL     1     -27.800  -3.184  -8.799  1.00  0.00    -0.355 N 
ATOM      7  H5  UNL     1     -27.092  -2.591  -8.365  1.00  0.00     0.162 HD
HETATM    8  C9  UNL     1     -28.325  -2.618  -9.972  1.00  0.00     0.191 C 
HETATM    9  C11 UNL     1     -27.660  -1.262 -10.234  1.00  0.00     0.116 C 
HETATM   10  C12 UNL     1     -26.691  -1.255 -11.321  1.00  0.00     0.151 C 
HETATM   11  O6  UNL     1     -27.042  -0.670 -12.361  1.00  0.00    -0.296 OA
HETATM   12  C13 UNL     1     -25.332  -1.863 -11.331  1.00  0.00     0.152 C 
HETATM   13  N6  UNL     1     -24.730  -1.841 -10.051  1.00  0.00    -0.370 N 
ATOM     14  H6  UNL     1     -24.842  -1.033  -9.440  1.00  0.00     0.158 HD
HETATM   15  C16 UNL     1     -23.969  -2.962  -9.632  1.00  0.00     0.325 C 
HETATM   16  N7  UNL     1     -24.271  -4.217 -10.254  1.00  0.00    -0.317 N 
ATOM     17  H7  UNL     1     -24.058  -4.282 -11.250  1.00  0.00     0.166 HD
HETATM   18  C17 UNL     1     -24.822  -5.370  -9.669  1.00  0.00     0.245 C 
HETATM   19  O9  UNL     1     -24.643  -6.448 -10.341  1.00  0.00    -0.271 OA
ENDROOT
BRANCH   1  20
HETATM   20  C5  UNL     1     -24.762  -6.235  -7.320  1.00  0.00     0.229 C 
BRANCH  20  21
HETATM   21  C4  UNL     1     -25.290  -7.583  -6.972  1.00  0.00     0.176 C 
BRANCH  21  22
HETATM   22  S1  UNL     1     -23.879  -8.533  -6.395  1.00  0.00     0.153 S 
HETATM   23  O1  UNL     1     -22.796  -7.648  -5.875  1.00  0.00    -0.227 OA
HETATM   24  O2  UNL     1     -23.303  -9.369  -7.502  1.00  0.00    -0.227 OA
BRANCH  22  25
HETATM   25  C3  UNL     1     -24.390  -9.614  -5.068  1.00  0.00     0.217 C 
BRANCH  25  26
HETATM   26  C2  UNL     1     -24.312  -8.920  -3.761  1.00  0.00     0.115 A 
HETATM   27  N2  UNL     1     -23.848  -9.599  -2.698  1.00  0.00    -0.180 N 
HETATM   28  C1  UNL     1     -23.766  -8.988  -1.494  1.00  0.00     0.681 A 
ATOM     29  H2  UNL     1     -23.557 -10.572  -2.799  1.00  0.00     0.185 HD
HETATM   30  N9  UNL     1     -24.149  -7.723  -1.380  1.00  0.00    -0.141 N 
HETATM   31  C18 UNL     1     -24.610  -7.050  -2.441  1.00  0.00     0.339 A 
ATOM     32  H9  UNL     1     -24.090  -7.258  -0.473  1.00  0.00     0.189 HD
HETATM   33  N8  UNL     1     -24.696  -7.637  -3.630  1.00  0.00    -0.296 N 
HETATM   34  O10 UNL     1     -24.959  -5.843  -2.267  1.00  0.00    -0.246 OA
ATOM     35  H8  UNL     1     -25.049  -7.120  -4.435  1.00  0.00     0.172 HD
BRANCH  28  36
HETATM   36  N1  UNL     1     -23.318  -9.641  -0.465  1.00  0.00    -0.234 N 
ATOM     37  H12 UNL     1     -22.704 -10.445  -0.586  1.00  0.00     0.174 HD
ATOM     38  H11 UNL     1     -23.580  -9.349   0.477  1.00  0.00     0.174 HD
ENDBRANCH  28  36
ENDBRANCH  25  26
ENDBRANCH  22  25
ENDBRANCH  21  22
ENDBRANCH  20  21
BRANCH  20  39
HETATM   39  N3  UNL     1     -24.798  -5.435  -6.103  1.00  0.00    -0.072 N 
ATOM     40  H33 UNL     1     -25.210  -5.929  -5.311  1.00  0.00     0.274 HD
ATOM     41  H32 UNL     1     -23.874  -5.284  -5.696  1.00  0.00     0.274 HD
ATOM     42  H31 UNL     1     -25.282  -4.566  -6.330  1.00  0.00     0.274 HD
ENDBRANCH  20  39
ENDBRANCH   1  20
BRANCH   5  43
HETATM   43  O3  UNL     1     -28.285  -4.166  -6.825  1.00  0.00    -0.345 OA
ATOM     44  H3  UNL     1     -28.784  -3.375  -6.659  1.00  0.00     0.219 HD
ENDBRANCH   5  43
BRANCH  15  45
HETATM   45  O8  UNL     1     -24.026  -3.016  -8.233  1.00  0.00    -0.360 OA
ATOM     46  H8  UNL     1     -23.193  -3.351  -7.923  1.00  0.00     0.214 HD
ENDBRANCH  15  45
BRANCH   8  47
HETATM   47  C10 UNL     1     -28.307  -3.352 -11.222  1.00  0.00     0.197 C 
HETATM   48  O4  UNL     1     -27.524  -4.259 -11.584  1.00  0.00    -0.646 OA
HETATM   49  O5  UNL     1     -29.281  -3.062 -12.222  1.00  0.00    -0.646 OA
ENDBRANCH   8  47
BRANCH  12  50
HETATM   50  C14 UNL     1     -24.538  -1.039 -12.354  1.00  0.00     0.058 C 
BRANCH  50  51
HETATM   51  C15 UNL     1     -23.783  -1.869 -13.332  1.00  0.00     0.166 C 
BRANCH  51  52
HETATM   52  O7  UNL     1     -23.081  -1.054 -14.253  1.00  0.00    -0.401 OA
ATOM     53  H7  UNL     1     -23.206  -0.134 -14.057  1.00  0.00     0.209 HD
ENDBRANCH  51  52
ENDBRANCH  50  51
ENDBRANCH  12  50
TORSDOF 13
ENDMDL
MODEL 3
REMARK VINA RESULT: -8.037351214      2.157      4.036
REMARK  13 active torsions:
REMARK  status: ('A' for Active; 'I' for Inactive)
REMARK    1  A    between atoms: N1_1  and  C1_4 
REMARK    2  A    between atoms: C2_7  and  C3_8 
REMARK    3  A    between atoms: C3_8  and  S1_9 
REMARK    4  A    between atoms: S1_9  and  C4_12 
REMARK    5  A    between atoms: C4_12  and  C5_13 
REMARK    6  A    between atoms: C5_13  and  N3_14 
REMARK    7  A    between atoms: C5_13  and  C6_18 
REMARK    8  A    between atoms: C8_22  and  O3_23 
REMARK    9  A    between atoms: C9_27  and  C10_28 
REMARK   10  A    between atoms: C13_34  and  C14_35 
REMARK   11  A    between atoms: C14_35  and  C15_36 
REMARK   12  A    between atoms: C15_36  and  O7_37 
REMARK   13  A    between atoms: C16_41  and  O8_42 
ROOT
HETATM    1  C6  UNL     1     -26.005  -4.766  -9.637  1.00  0.00     0.205 C 
HETATM    2  N4  UNL     1     -25.780  -3.766  -8.630  1.00  0.00    -0.381 N 
ATOM      3  H4  UNL     1     -26.455  -3.596  -7.885  1.00  0.00     0.160 HD
HETATM    4  C7  UNL     1     -24.562  -3.019  -8.720  1.00  0.00     0.139 C 
HETATM    5  C8  UNL     1     -23.727  -3.281  -9.874  1.00  0.00     0.151 C 
HETATM    6  N5  UNL     1     -23.832  -2.930 -11.217  1.00  0.00    -0.355 N 
ATOM      7  H5  UNL     1     -23.769  -3.738 -11.837  1.00  0.00     0.162 HD
HETATM    8  C9  UNL     1     -24.004  -1.728 -11.921  1.00  0.00     0.191 C 
HETATM    9  C11 UNL     1     -24.042  -2.012 -13.427  1.00  0.00     0.116 C 
HETATM   10  C12 UNL     1     -25.362  -1.917 -14.036  1.00  0.00     0.151 C 
HETATM   11  O6  UNL     1     -25.556  -0.933 -14.769  1.00  0.00    -0.296 OA
HETATM   12  C13 UNL     1     -26.502  -2.863 -13.884  1.00  0.00     0.152 C 
HETATM   13  N6  UNL     1     -26.066  -4.197 -13.706  1.00  0.00    -0.370 N 
ATOM     14  H6  UNL     1     -25.269  -4.556 -14.229  1.00  0.00     0.158 HD
HETATM   15  C16 UNL     1     -26.758  -5.027 -12.785  1.00  0.00     0.325 C 
HETATM   16  N7  UNL     1     -27.479  -4.368 -11.736  1.00  0.00    -0.317 N 
ATOM     17  H7  UNL     1     -28.279  -3.808 -12.031  1.00  0.00     0.166 HD
HETATM   18  C17 UNL     1     -27.225  -4.394 -10.355  1.00  0.00     0.245 C 
HETATM   19  O9  UNL     1     -28.216  -4.038  -9.622  1.00  0.00    -0.271 OA
ENDROOT
BRANCH   1  20
HETATM   20  C5  UNL     1     -26.122  -6.107  -8.897  1.00  0.00     0.229 C 
BRANCH  20  21
HETATM   21  C4  UNL     1     -24.922  -6.977  -9.033  1.00  0.00     0.176 C 
BRANCH  21  22
HETATM   22  S1  UNL     1     -24.069  -6.895  -7.454  1.00  0.00     0.153 S 
HETATM   23  O1  UNL     1     -23.021  -5.833  -7.450  1.00  0.00    -0.227 OA
HETATM   24  O2  UNL     1     -23.405  -8.202  -7.131  1.00  0.00    -0.227 OA
BRANCH  22  25
HETATM   25  C3  UNL     1     -25.243  -6.514  -6.162  1.00  0.00     0.217 C 
BRANCH  25  26
HETATM   26  C2  UNL     1     -24.559  -5.937  -4.980  1.00  0.00     0.115 A 
HETATM   27  N2  UNL     1     -24.523  -6.654  -3.844  1.00  0.00    -0.180 N 
HETATM   28  C1  UNL     1     -23.905  -6.150  -2.752  1.00  0.00     0.681 A 
ATOM     29  H2  UNL     1     -24.959  -7.575  -3.805  1.00  0.00     0.185 HD
HETATM   30  N9  UNL     1     -23.342  -4.950  -2.818  1.00  0.00    -0.141 N 
HETATM   31  C18 UNL     1     -23.381  -4.240  -3.952  1.00  0.00     0.339 A 
ATOM     32  H9  UNL     1     -22.876  -4.565  -1.996  1.00  0.00     0.189 HD
HETATM   33  N8  UNL     1     -23.984  -4.722  -5.033  1.00  0.00    -0.296 N 
HETATM   34  O10 UNL     1     -22.824  -3.100  -3.952  1.00  0.00    -0.246 OA
ATOM     35  H8  UNL     1     -24.011  -4.177  -5.894  1.00  0.00     0.172 HD
BRANCH  28  36
HETATM   36  N1  UNL     1     -23.867  -6.839  -1.651  1.00  0.00    -0.234 N 
ATOM     37  H12 UNL     1     -23.257  -6.561  -0.883  1.00  0.00     0.174 HD
ATOM     38  H11 UNL     1     -24.453  -7.668  -1.550  1.00  0.00     0.174 HD
ENDBRANCH  28  36
ENDBRANCH  25  26
ENDBRANCH  22  25
ENDBRANCH  21  22
ENDBRANCH  20  21
BRANCH  20  39
HETATM   39  N3  UNL     1     -27.253  -6.851  -9.436  1.00  0.00    -0.072 N 
ATOM     40  H33 UNL     1     -27.840  -6.293 -10.057  1.00  0.00     0.274 HD
ATOM     41  H32 UNL     1     -26.978  -7.560 -10.116  1.00  0.00     0.274 HD
ATOM     42  H31 UNL     1     -27.764  -7.236  -8.641  1.00  0.00     0.274 HD
ENDBRANCH  20  39
ENDBRANCH   1  20
BRANCH   5  43
HETATM   43  O3  UNL     1     -22.664  -3.992  -9.603  1.00  0.00    -0.345 OA
ATOM     44  H3  UNL     1     -22.056  -4.063 -10.330  1.00  0.00     0.219 HD
ENDBRANCH   5  43
BRANCH  15  45
HETATM   45  O8  UNL     1     -25.850  -5.983 -12.310  1.00  0.00    -0.360 OA
ATOM     46  H8  UNL     1     -25.430  -6.381 -13.063  1.00  0.00     0.214 HD
ENDBRANCH  15  45
BRANCH   8  47
HETATM   47  C10 UNL     1     -25.118  -0.847 -11.624  1.00  0.00     0.197 C 
HETATM   48  O4  UNL     1     -26.228  -1.135 -11.120  1.00  0.00    -0.646 OA
HETATM   49  O5  UNL     1     -25.011   0.545 -11.913  1.00  0.00    -0.646 OA
ENDBRANCH   8  47
BRANCH  12  50
HETATM   50  C14 UNL     1     -27.329  -2.694 -15.165  1.00  0.00     0.058 C 
BRANCH  50  51
HETATM   51  C15 UNL     1     -28.795  -2.611 -14.924  1.00  0.00     0.166 C 
BRANCH  51  52
HETATM   52  O7  UNL     1     -29.085  -2.656 -13.539  1.00  0.00    -0.401 OA
ATOM     53  H7  UNL     1     -28.769  -1.875 -13.099  1.00  0.00     0.209 HD
ENDBRANCH  51  52
ENDBRANCH  50  51
ENDBRANCH  12  50
TORSDOF 13
ENDMDL
MODEL 4
REMARK VINA RESULT: -8.011589622      2.460      4.385
REMARK  13 active torsions:
REMARK  status: ('A' for Active; 'I' for Inactive)
REMARK    1  A    between atoms: N1_1  and  C1_4 
REMARK    2  A    between atoms: C2_7  and  C3_8 
REMARK    3  A    between atoms: C3_8  and  S1_9 
REMARK    4  A    between atoms: S1_9  and  C4_12 
REMARK    5  A    between atoms: C4_12  and  C5_13 
REMARK    6  A    between atoms: C5_13  and  N3_14 
REMARK    7  A    between atoms: C5_13  and  C6_18 
REMARK    8  A    between atoms: C8_22  and  O3_23 
REMARK    9  A    between atoms: C9_27  and  C10_28 
REMARK   10  A    between atoms: C13_34  and  C14_35 
REMARK   11  A    between atoms: C14_35  and  C15_36 
REMARK   12  A    between atoms: C15_36  and  O7_37 
REMARK   13  A    between atoms: C16_41  and  O8_42 
ROOT
HETATM    1  C6  UNL     1     -26.127  -4.672  -9.837  1.00  0.00     0.205 C 
HETATM    2  N4  UNL     1     -25.956  -3.653  -8.839  1.00  0.00    -0.381 N 
ATOM      3  H4  UNL     1     -26.661  -3.484  -8.123  1.00  0.00     0.160 HD
HETATM    4  C7  UNL     1     -24.749  -2.886  -8.897  1.00  0.00     0.139 C 
HETATM    5  C8  UNL     1     -23.867  -3.152 -10.016  1.00  0.00     0.151 C 
HETATM    6  N5  UNL     1     -23.929  -2.823 -11.367  1.00  0.00    -0.355 N 
ATOM      7  H5  UNL     1     -23.829  -3.640 -11.970  1.00  0.00     0.162 HD
HETATM    8  C9  UNL     1     -24.096  -1.636 -12.097  1.00  0.00     0.191 C 
HETATM    9  C11 UNL     1     -24.073  -1.944 -13.598  1.00  0.00     0.116 C 
HETATM   10  C12 UNL     1     -25.371  -1.883 -14.256  1.00  0.00     0.151 C 
HETATM   11  O6  UNL     1     -25.555  -0.914 -15.012  1.00  0.00    -0.296 OA
HETATM   12  C13 UNL     1     -26.500  -2.847 -14.130  1.00  0.00     0.152 C 
HETATM   13  N6  UNL     1     -26.048  -4.169 -13.914  1.00  0.00    -0.370 N 
ATOM     14  H6  UNL     1     -25.226  -4.523 -14.402  1.00  0.00     0.158 HD
HETATM   15  C16 UNL     1     -26.759  -4.997 -13.006  1.00  0.00     0.325 C 
HETATM   16  N7  UNL     1     -27.528  -4.335 -11.995  1.00  0.00    -0.317 N 
ATOM     17  H7  UNL     1     -28.327  -3.793 -12.328  1.00  0.00     0.166 HD
HETATM   18  C17 UNL     1     -27.326  -4.334 -10.605  1.00  0.00     0.245 C 
HETATM   19  O9  UNL     1     -28.349  -3.984  -9.915  1.00  0.00    -0.271 OA
ENDROOT
BRANCH   1  20
HETATM   20  C5  UNL     1     -26.248  -6.004  -9.080  1.00  0.00     0.229 C 
BRANCH  20  21
HETATM   21  C4  UNL     1     -25.014  -6.836  -9.124  1.00  0.00     0.176 C 
BRANCH  21  22
HETATM   22  S1  UNL     1     -24.781  -7.464  -7.457  1.00  0.00     0.153 S 
HETATM   23  O1  UNL     1     -23.339  -7.701  -7.155  1.00  0.00    -0.227 OA
HETATM   24  O2  UNL     1     -25.514  -8.760  -7.261  1.00  0.00    -0.227 OA
BRANCH  22  25
HETATM   25  C3  UNL     1     -25.401  -6.272  -6.279  1.00  0.00     0.217 C 
BRANCH  25  26
HETATM   26  C2  UNL     1     -24.304  -5.419  -5.764  1.00  0.00     0.115 A 
HETATM   27  N2  UNL     1     -24.175  -5.269  -4.435  1.00  0.00    -0.180 N 
HETATM   28  C1  UNL     1     -23.182  -4.495  -3.940  1.00  0.00     0.681 A 
ATOM     29  H2  UNL     1     -24.823  -5.737  -3.801  1.00  0.00     0.185 HD
HETATM   30  N9  UNL     1     -22.347  -3.893  -4.777  1.00  0.00    -0.141 N 
HETATM   31  C18 UNL     1     -22.480  -4.046  -6.100  1.00  0.00     0.339 A 
ATOM     32  H9  UNL     1     -21.598  -3.308  -4.408  1.00  0.00     0.189 HD
HETATM   33  N8  UNL     1     -23.449  -4.802  -6.601  1.00  0.00    -0.296 N 
HETATM   34  O10 UNL     1     -21.649  -3.445  -6.848  1.00  0.00    -0.246 OA
ATOM     35  H8  UNL     1     -23.546  -4.915  -7.610  1.00  0.00     0.172 HD
BRANCH  28  36
HETATM   36  N1  UNL     1     -23.054  -4.347  -2.655  1.00  0.00    -0.234 N 
ATOM     37  H12 UNL     1     -22.861  -5.149  -2.056  1.00  0.00     0.174 HD
ATOM     38  H11 UNL     1     -23.146  -3.421  -2.238  1.00  0.00     0.174 HD
ENDBRANCH  28  36
ENDBRANCH  25  26
ENDBRANCH  22  25
ENDBRANCH  21  22
ENDBRANCH  20  21
BRANCH  20  39
HETATM   39  N3  UNL     1     -27.318  -6.793  -9.674  1.00  0.00    -0.072 N 
ATOM     40  H33 UNL     1     -27.063  -7.771  -9.815  1.00  0.00     0.274 HD
ATOM     41  H32 UNL     1     -28.099  -6.953  -9.036  1.00  0.00     0.274 HD
ATOM     42  H31 UNL     1     -27.595  -6.323 -10.536  1.00  0.00     0.274 HD
ENDBRANCH  20  39
ENDBRANCH   1  20
BRANCH   5  43
HETATM   43  O3  UNL     1     -22.803  -3.839  -9.694  1.00  0.00    -0.345 OA
ATOM     44  H3  UNL     1     -22.349  -4.211 -10.441  1.00  0.00     0.219 HD
ENDBRANCH   5  43
BRANCH  15  45
HETATM   45  O8  UNL     1     -25.853  -5.929 -12.483  1.00  0.00    -0.360 OA
ATOM     46  H8  UNL     1     -25.360  -6.291 -13.209  1.00  0.00     0.214 HD
ENDBRANCH  15  45
BRANCH   8  47
HETATM   47  C10 UNL     1     -25.235  -0.771 -11.855  1.00  0.00     0.197 C 
HETATM   48  O4  UNL     1     -26.359  -1.071 -11.392  1.00  0.00    -0.646 OA
HETATM   49  O5  UNL     1     -25.139   0.619 -12.157  1.00  0.00    -0.646 OA
ENDBRANCH   8  47
BRANCH  12  50
HETATM   50  C14 UNL     1     -27.282  -2.713 -15.443  1.00  0.00     0.058 C 
BRANCH  50  51
HETATM   51  C15 UNL     1     -28.755  -2.618 -15.255  1.00  0.00     0.166 C 
BRANCH  51  52
HETATM   52  O7  UNL     1     -29.087  -2.533 -13.881  1.00  0.00    -0.401 OA
ATOM     53  H7  UNL     1     -29.486  -1.696 -13.679  1.00  0.00     0.209 HD
ENDBRANCH  51  52
ENDBRANCH  50  51
ENDBRANCH  12  50
TORSDOF 13
ENDMDL
MODEL 5
REMARK VINA RESULT: -7.965757788      2.019      3.532
REMARK  13 active torsions:
REMARK  status: ('A' for Active; 'I' for Inactive)
REMARK    1  A    between atoms: N1_1  and  C1_4 
REMARK    2  A    between atoms: C2_7  and  C3_8 
REMARK    3  A    between atoms: C3_8  and  S1_9 
REMARK    4  A    between atoms: S1_9  and  C4_12 
REMARK    5  A    between atoms: C4_12  and  C5_13 
REMARK    6  A    between atoms: C5_13  and  N3_14 
REMARK    7  A    between atoms: C5_13  and  C6_18 
REMARK    8  A    between atoms: C8_22  and  O3_23 
REMARK    9  A    between atoms: C9_27  and  C10_28 
REMARK   10  A    between atoms: C13_34  and  C14_35 
REMARK   11  A    between atoms: C14_35  and  C15_36 
REMARK   12  A    between atoms: C15_36  and  O7_37 
REMARK   13  A    between atoms: C16_41  and  O8_42 
ROOT
HETATM    1  C6  UNL     1     -25.451  -5.426  -8.257  1.00  0.00     0.205 C 
HETATM    2  N4  UNL     1     -26.560  -6.301  -8.520  1.00  0.00    -0.381 N 
ATOM      3  H4  UNL     1     -26.420  -7.264  -8.826  1.00  0.00     0.160 HD
HETATM    4  C7  UNL     1     -27.872  -5.759  -8.333  1.00  0.00     0.139 C 
HETATM    5  C8  UNL     1     -27.947  -4.354  -7.991  1.00  0.00     0.151 C 
HETATM    6  N5  UNL     1     -27.766  -3.189  -8.732  1.00  0.00    -0.355 N 
ATOM      7  H5  UNL     1     -27.087  -2.559  -8.306  1.00  0.00     0.162 HD
HETATM    8  C9  UNL     1     -28.298  -2.676  -9.925  1.00  0.00     0.191 C 
HETATM    9  C11 UNL     1     -27.679  -1.304 -10.218  1.00  0.00     0.116 C 
HETATM   10  C12 UNL     1     -26.698  -1.291 -11.294  1.00  0.00     0.151 C 
HETATM   11  O6  UNL     1     -27.056  -0.749 -12.354  1.00  0.00    -0.296 OA
HETATM   12  C13 UNL     1     -25.317  -1.848 -11.270  1.00  0.00     0.152 C 
HETATM   13  N6  UNL     1     -24.733  -1.768  -9.985  1.00  0.00    -0.370 N 
ATOM     14  H6  UNL     1     -24.882  -0.949  -9.398  1.00  0.00     0.158 HD
HETATM   15  C16 UNL     1     -23.936  -2.849  -9.526  1.00  0.00     0.325 C 
HETATM   16  N7  UNL     1     -24.184  -4.131 -10.115  1.00  0.00    -0.317 N 
ATOM     17  H7  UNL     1     -23.957  -4.216 -11.107  1.00  0.00     0.166 HD
HETATM   18  C17 UNL     1     -24.700  -5.286  -9.505  1.00  0.00     0.245 C 
HETATM   19  O9  UNL     1     -24.474  -6.376 -10.144  1.00  0.00    -0.271 OA
ENDROOT
BRANCH   1  20
HETATM   20  C5  UNL     1     -24.639  -6.083  -7.131  1.00  0.00     0.229 C 
BRANCH  20  21
HETATM   21  C4  UNL     1     -25.391  -7.118  -6.369  1.00  0.00     0.176 C 
BRANCH  21  22
HETATM   22  S1  UNL     1     -24.162  -8.030  -5.428  1.00  0.00     0.153 S 
HETATM   23  O1  UNL     1     -24.386  -7.898  -3.958  1.00  0.00    -0.227 OA
HETATM   24  O2  UNL     1     -22.776  -7.539  -5.731  1.00  0.00    -0.227 OA
BRANCH  22  25
HETATM   25  C3  UNL     1     -24.259  -9.764  -5.845  1.00  0.00     0.217 C 
BRANCH  25  26
HETATM   26  C2  UNL     1     -24.402  -9.949  -7.308  1.00  0.00     0.115 A 
HETATM   27  N2  UNL     1     -23.500  -9.376  -8.121  1.00  0.00    -0.180 N 
HETATM   28  C1  UNL     1     -23.608  -9.530  -9.460  1.00  0.00     0.681 A 
ATOM     29  H2  UNL     1     -22.735  -8.826  -7.730  1.00  0.00     0.185 HD
HETATM   30  N9  UNL     1     -24.609 -10.248  -9.954  1.00  0.00    -0.141 N 
HETATM   31  C18 UNL     1     -25.506 -10.818  -9.140  1.00  0.00     0.339 A 
ATOM     32  H9  UNL     1     -24.696 -10.366 -10.963  1.00  0.00     0.189 HD
HETATM   33  N8  UNL     1     -25.412 -10.676  -7.823  1.00  0.00    -0.296 N 
HETATM   34  O10 UNL     1     -26.439 -11.493  -9.672  1.00  0.00    -0.246 OA
ATOM     35  H8  UNL     1     -26.098 -11.112  -7.207  1.00  0.00     0.172 HD
BRANCH  28  36
HETATM   36  N1  UNL     1     -22.737  -8.977 -10.250  1.00  0.00    -0.234 N 
ATOM     37  H12 UNL     1     -21.763  -8.882  -9.965  1.00  0.00     0.174 HD
ATOM     38  H11 UNL     1     -23.027  -8.632 -11.165  1.00  0.00     0.174 HD
ENDBRANCH  28  36
ENDBRANCH  25  26
ENDBRANCH  22  25
ENDBRANCH  21  22
ENDBRANCH  20  21
BRANCH  20  39
HETATM   39  N3  UNL     1     -24.232  -5.060  -6.178  1.00  0.00    -0.072 N 
ATOM     40  H33 UNL     1     -24.873  -4.971  -5.389  1.00  0.00     0.274 HD
ATOM     41  H32 UNL     1     -23.402  -5.318  -5.643  1.00  0.00     0.274 HD
ATOM     42  H31 UNL     1     -24.117  -4.192  -6.701  1.00  0.00     0.274 HD
ENDBRANCH  20  39
ENDBRANCH   1  20
BRANCH   5  43
HETATM   43  O3  UNL     1     -28.240  -4.133  -6.736  1.00  0.00    -0.345 OA
ATOM     44  H3  UNL     1     -27.479  -4.077  -6.170  1.00  0.00     0.219 HD
ENDBRANCH   5  43
BRANCH  15  45
HETATM   45  O8  UNL     1     -24.009  -2.866  -8.127  1.00  0.00    -0.360 OA
ATOM     46  H8  UNL     1     -23.805  -3.747  -7.838  1.00  0.00     0.214 HD
ENDBRANCH  15  45
BRANCH   8  47
HETATM   47  C10 UNL     1     -28.237  -3.443 -11.155  1.00  0.00     0.197 C 
HETATM   48  O4  UNL     1     -27.430  -4.346 -11.472  1.00  0.00    -0.646 OA
HETATM   49  O5  UNL     1     -29.190  -3.197 -12.186  1.00  0.00    -0.646 OA
ENDBRANCH   8  47
BRANCH  12  50
HETATM   50  C14 UNL     1     -24.541  -1.025 -12.307  1.00  0.00     0.058 C 
BRANCH  50  51
HETATM   51  C15 UNL     1     -23.762  -1.854 -13.267  1.00  0.00     0.166 C 
BRANCH  51  52
HETATM   52  O7  UNL     1     -23.146  -1.045 -14.252  1.00  0.00    -0.401 OA
ATOM     53  H7  UNL     1     -22.536  -1.551 -14.776  1.00  0.00     0.209 HD
ENDBRANCH  51  52
ENDBRANCH  50  51
ENDBRANCH  12  50
TORSDOF 13
ENDMDL
