MODEL 1
REMARK VINA RESULT: -7.961992159      0.000      0.000
REMARK  16 active torsions:
REMARK  status: ('A' for Active; 'I' for Inactive)
REMARK       I    between atoms: C1_4  and  N3_6 
REMARK    1  A    between atoms: N3_6  and  C2_8 
REMARK    2  A    between atoms: C2_8  and  C10_45 
REMARK    3  A    between atoms: N4_9  and  S1_11 
REMARK    4  A    between atoms: S1_11  and  C3_14 
REMARK    5  A    between atoms: C5_16  and  S2_17 
REMARK    6  A    between atoms: S2_17  and  N5_18 
REMARK    7  A    between atoms: C7_27  and  S3_28 
REMARK    8  A    between atoms: S3_28  and  N7_29 
REMARK    9  A    between atoms: S3_28  and  O6_32 
REMARK   10  A    between atoms: S3_28  and  O7_34 
REMARK   11  A    between atoms: S3_28  and  S4_36 
REMARK   12  A    between atoms: S4_36  and  C8_37 
REMARK   13  A    between atoms: C8_37  and  C9_38 
REMARK       I    between atoms: C9_38  and  N8_40 
REMARK   14  A    between atoms: N8_40  and  N9_42 
REMARK   15  A    between atoms: C10_45  and  N10_46 
REMARK   16  A    between atoms: C10_45  and  C11_50 
ROOT
HETATM    1  C3  UNL     1     -26.531  -4.598  -8.343  1.00  0.00     0.119 A 
HETATM    2  C4  UNL     1     -27.824  -4.876  -7.925  1.00  0.00     0.059 A 
HETATM    3  C5  UNL     1     -28.805  -4.023  -8.337  1.00  0.00     0.148 A 
HETATM    4  C6  UNL     1     -28.577  -2.930  -9.127  1.00  0.00     0.269 A 
HETATM    5  O5  UNL     1     -29.522  -2.177  -9.475  1.00  0.00    -0.266 OA
HETATM    6  N6  UNL     1     -27.326  -2.700  -9.506  1.00  0.00    -0.312 N 
ATOM      7  H6  UNL     1     -27.131  -1.891 -10.096  1.00  0.00     0.170 HD
HETATM    8  C7  UNL     1     -26.302  -3.500  -9.137  1.00  0.00     0.141 A 
ENDROOT
BRANCH   1   9
HETATM    9  S1  UNL     1     -25.266  -5.608  -7.792  1.00  0.00     0.267 S 
HETATM   10  O1  UNL     1     -25.855  -6.636  -6.862  1.00  0.00    -0.200 OA
HETATM   11  O2  UNL     1     -24.836  -6.507  -8.980  1.00  0.00    -0.200 OA
BRANCH   9  12
HETATM   12  N4  UNL     1     -23.916  -4.983  -7.089  1.00  0.00    -0.267 N 
HETATM   13  C2  UNL     1     -23.479  -5.259  -5.954  1.00  0.00     0.133 C 
ATOM     14  H4  UNL     1     -23.385  -4.304  -7.634  1.00  0.00     0.180 HD
BRANCH  13  15
HETATM   15  N3  UNL     1     -22.264  -4.581  -5.540  1.00  0.00    -0.318 N 
HETATM   16  C1  UNL     1     -22.098  -3.191  -5.761  1.00  0.00     0.187 C 
HETATM   17  N1  UNL     1     -23.102  -2.397  -5.613  1.00  0.00    -0.373 N 
HETATM   18  N2  UNL     1     -20.831  -2.694  -6.141  1.00  0.00    -0.064 NA
ATOM     19  H12 UNL     1     -22.982  -1.396  -5.772  1.00  0.00     0.158 HD
ATOM     20  H11 UNL     1     -24.017  -2.756  -5.339  1.00  0.00     0.158 HD
ATOM     21  H3  UNL     1     -21.522  -5.112  -5.085  1.00  0.00     0.169 HD
ENDBRANCH  13  15
BRANCH  13  22
HETATM   22  C10 UNL     1     -24.085  -6.200  -5.017  1.00  0.00     0.339 C 
BRANCH  22  23
HETATM   23  N10 UNL     1     -23.183  -7.342  -4.900  1.00  0.00    -0.060 N 
ATOM     24 3H10 UNL     1     -22.733  -7.586  -5.783  1.00  0.00     0.275 HD
ATOM     25 2H10 UNL     1     -22.336  -7.129  -4.374  1.00  0.00     0.275 HD
ATOM     26 1H10 UNL     1     -23.717  -8.113  -4.499  1.00  0.00     0.275 HD
ENDBRANCH  22  23
BRANCH  22  27
HETATM   27  C11 UNL     1     -24.207  -5.589  -3.649  1.00  0.00     0.269 C 
HETATM   28  N11 UNL     1     -24.247  -6.379  -2.476  1.00  0.00    -0.060 NA
HETATM   29  O9  UNL     1     -24.274  -4.348  -3.558  1.00  0.00    -0.274 OA
ENDBRANCH  22  27
ENDBRANCH  13  22
ENDBRANCH   9  12
ENDBRANCH   1   9
BRANCH   8  30
HETATM   30  S3  UNL     1     -24.565  -3.033  -9.821  1.00  0.00     0.058 SA
BRANCH  30  31
HETATM   31  N7  UNL     1     -24.867  -4.317 -11.048  1.00  0.00    -0.349 N 
ATOM     32  H72 UNL     1     -25.186  -4.361 -12.015  1.00  0.00     0.167 HD
ATOM     33  H71 UNL     1     -24.569  -4.965 -10.319  1.00  0.00     0.167 HD
ENDBRANCH  30  31
BRANCH  30  34
HETATM   34  O6  UNL     1     -24.216  -2.406  -8.401  1.00  0.00    -0.310 OA
ATOM     35  H6  UNL     1     -23.556  -3.080  -8.290  1.00  0.00     0.230 HD
ENDBRANCH  30  34
BRANCH  30  36
HETATM   36  O7  UNL     1     -23.053  -3.300  -9.967  1.00  0.00    -0.310 OA
ATOM     37  H7  UNL     1     -22.159  -3.220  -9.654  1.00  0.00     0.230 HD
ENDBRANCH  30  36
BRANCH  30  38
HETATM   38  S4  UNL     1     -24.803  -1.540 -11.229  1.00  0.00    -0.045 SA
BRANCH  38  39
HETATM   39  C8  UNL     1     -25.016   0.014 -10.795  1.00  0.00     0.194 C 
BRANCH  39  40
HETATM   40  C9  UNL     1     -25.744   0.787 -11.872  1.00  0.00     0.245 C 
HETATM   41  O8  UNL     1     -26.499   1.745 -11.622  1.00  0.00    -0.271 OA
HETATM   42  N8  UNL     1     -25.569   0.414 -13.238  1.00  0.00    -0.276 N 
ATOM     43  H8  UNL     1     -24.955  -0.369 -13.464  1.00  0.00     0.189 HD
BRANCH  42  44
HETATM   44  N9  UNL     1     -26.215   1.091 -14.273  1.00  0.00    -0.343 N 
ATOM     45  H92 UNL     1     -26.734   1.938 -14.044  1.00  0.00     0.176 HD
ATOM     46  H91 UNL     1     -26.177   0.760 -15.237  1.00  0.00     0.176 HD
ENDBRANCH  42  44
ENDBRANCH  39  40
ENDBRANCH  38  39
ENDBRANCH  30  38
ENDBRANCH   8  30
BRANCH   3  47
HETATM   47  S2  UNL     1     -30.438  -4.353  -7.826  1.00  0.00     0.262 S 
HETATM   48  O3  UNL     1     -30.472  -5.297  -6.659  1.00  0.00    -0.201 OA
HETATM   49  O4  UNL     1     -31.175  -5.024  -8.944  1.00  0.00    -0.201 OA
BRANCH  47  50
HETATM   50  N5  UNL     1     -31.298  -2.893  -7.475  1.00  0.00    -0.324 N 
ATOM     51  H52 UNL     1     -31.078  -1.994  -7.904  1.00  0.00     0.169 HD
ATOM     52  H51 UNL     1     -32.040  -3.053  -6.794  1.00  0.00     0.169 HD
ENDBRANCH  47  50
ENDBRANCH   3  47
TORSDOF 16
ENDMDL
MODEL 2
REMARK VINA RESULT: -7.719947038      0.970      1.048
REMARK  16 active torsions:
REMARK  status: ('A' for Active; 'I' for Inactive)
REMARK       I    between atoms: C1_4  and  N3_6 
REMARK    1  A    between atoms: N3_6  and  C2_8 
REMARK    2  A    between atoms: C2_8  and  C10_45 
REMARK    3  A    between atoms: N4_9  and  S1_11 
REMARK    4  A    between atoms: S1_11  and  C3_14 
REMARK    5  A    between atoms: C5_16  and  S2_17 
REMARK    6  A    between atoms: S2_17  and  N5_18 
REMARK    7  A    between atoms: C7_27  and  S3_28 
REMARK    8  A    between atoms: S3_28  and  N7_29 
REMARK    9  A    between atoms: S3_28  and  O6_32 
REMARK   10  A    between atoms: S3_28  and  O7_34 
REMARK   11  A    between atoms: S3_28  and  S4_36 
REMARK   12  A    between atoms: S4_36  and  C8_37 
REMARK   13  A    between atoms: C8_37  and  C9_38 
REMARK       I    between atoms: C9_38  and  N8_40 
REMARK   14  A    between atoms: N8_40  and  N9_42 
REMARK   15  A    between atoms: C10_45  and  N10_46 
REMARK   16  A    between atoms: C10_45  and  C11_50 
ROOT
HETATM    1  C3  UNL     1     -26.674  -4.694  -8.304  1.00  0.00     0.119 A 
HETATM    2  C4  UNL     1     -27.959  -4.921  -7.834  1.00  0.00     0.059 A 
HETATM    3  C5  UNL     1     -28.941  -4.089  -8.288  1.00  0.00     0.148 A 
HETATM    4  C6  UNL     1     -28.720  -3.065  -9.168  1.00  0.00     0.269 A 
HETATM    5  O5  UNL     1     -29.665  -2.330  -9.550  1.00  0.00    -0.266 OA
HETATM    6  N6  UNL     1     -27.477  -2.884  -9.594  1.00  0.00    -0.312 N 
ATOM      7  H6  UNL     1     -27.287  -2.126 -10.251  1.00  0.00     0.170 HD
HETATM    8  C7  UNL     1     -26.453  -3.667  -9.189  1.00  0.00     0.141 A 
ENDROOT
BRANCH   1   9
HETATM    9  S1  UNL     1     -25.408  -5.676  -7.707  1.00  0.00     0.267 S 
HETATM   10  O1  UNL     1     -25.978  -6.595  -6.659  1.00  0.00    -0.200 OA
HETATM   11  O2  UNL     1     -25.044  -6.696  -8.816  1.00  0.00    -0.200 OA
BRANCH   9  12
HETATM   12  N4  UNL     1     -24.019  -5.017  -7.121  1.00  0.00    -0.267 N 
HETATM   13  C2  UNL     1     -23.509  -5.239  -6.004  1.00  0.00     0.133 C 
ATOM     14  H4  UNL     1     -23.526  -4.364  -7.730  1.00  0.00     0.180 HD
BRANCH  13  15
HETATM   15  N3  UNL     1     -22.273  -4.541  -5.701  1.00  0.00    -0.318 N 
HETATM   16  C1  UNL     1     -22.100  -3.181  -6.063  1.00  0.00     0.187 C 
HETATM   17  N1  UNL     1     -23.090  -2.363  -5.959  1.00  0.00    -0.373 N 
HETATM   18  N2  UNL     1     -20.842  -2.742  -6.533  1.00  0.00    -0.064 NA
ATOM     19  H12 UNL     1     -22.965  -1.384  -6.219  1.00  0.00     0.158 HD
ATOM     20  H11 UNL     1     -23.998  -2.680  -5.620  1.00  0.00     0.158 HD
ATOM     21  H3  UNL     1     -21.521  -5.035  -5.221  1.00  0.00     0.169 HD
ENDBRANCH  13  15
BRANCH  13  22
HETATM   22  C10 UNL     1     -24.051  -6.136  -4.988  1.00  0.00     0.339 C 
BRANCH  22  23
HETATM   23  N10 UNL     1     -23.154  -7.284  -4.896  1.00  0.00    -0.060 N 
ATOM     24 3H10 UNL     1     -22.457  -7.187  -4.158  1.00  0.00     0.275 HD
ATOM     25 2H10 UNL     1     -23.613  -8.121  -4.536  1.00  0.00     0.275 HD
ATOM     26 1H10 UNL     1     -22.741  -7.423  -5.819  1.00  0.00     0.275 HD
ENDBRANCH  22  23
BRANCH  22  27
HETATM   27  C11 UNL     1     -24.061  -5.472  -3.639  1.00  0.00     0.269 C 
HETATM   28  N11 UNL     1     -23.937  -6.210  -2.438  1.00  0.00    -0.060 NA
HETATM   29  O9  UNL     1     -24.182  -4.232  -3.590  1.00  0.00    -0.274 OA
ENDBRANCH  22  27
ENDBRANCH  13  22
ENDBRANCH   9  12
ENDBRANCH   1   9
BRANCH   8  30
HETATM   30  S3  UNL     1     -24.729  -3.279  -9.951  1.00  0.00     0.058 SA
BRANCH  30  31
HETATM   31  N7  UNL     1     -24.965  -4.800 -10.885  1.00  0.00    -0.349 N 
ATOM     32  H72 UNL     1     -24.371  -5.515 -11.306  1.00  0.00     0.167 HD
ATOM     33  H71 UNL     1     -25.962  -4.604 -10.790  1.00  0.00     0.167 HD
ENDBRANCH  30  31
BRANCH  30  34
HETATM   34  O6  UNL     1     -24.421  -2.357  -8.690  1.00  0.00    -0.310 OA
ATOM     35  H6  UNL     1     -25.292  -2.551  -8.363  1.00  0.00     0.230 HD
ENDBRANCH  30  34
BRANCH  30  36
HETATM   36  O7  UNL     1     -23.205  -3.507 -10.034  1.00  0.00    -0.310 OA
ATOM     37  H7  UNL     1     -22.455  -4.065 -10.201  1.00  0.00     0.230 HD
ENDBRANCH  30  36
BRANCH  30  38
HETATM   38  S4  UNL     1     -25.012  -2.122 -11.638  1.00  0.00    -0.045 SA
BRANCH  38  39
HETATM   39  C8  UNL     1     -24.651  -0.534 -11.652  1.00  0.00     0.194 C 
BRANCH  39  40
HETATM   40  C9  UNL     1     -25.740   0.279 -10.989  1.00  0.00     0.245 C 
HETATM   41  O8  UNL     1     -26.895  -0.154 -10.818  1.00  0.00    -0.271 OA
HETATM   42  N8  UNL     1     -25.448   1.599 -10.535  1.00  0.00    -0.276 N 
ATOM     43  H8  UNL     1     -24.507   1.972 -10.666  1.00  0.00     0.189 HD
BRANCH  42  44
HETATM   44  N9  UNL     1     -26.413   2.394  -9.915  1.00  0.00    -0.343 N 
ATOM     45  H92 UNL     1     -27.059   2.914 -10.508  1.00  0.00     0.176 HD
ATOM     46  H91 UNL     1     -26.481   2.463  -8.900  1.00  0.00     0.176 HD
ENDBRANCH  42  44
ENDBRANCH  39  40
ENDBRANCH  38  39
ENDBRANCH  30  38
ENDBRANCH   8  30
BRANCH   3  47
HETATM   47  S2  UNL     1     -30.564  -4.355  -7.711  1.00  0.00     0.262 S 
HETATM   48  O3  UNL     1     -30.582  -5.247  -6.503  1.00  0.00    -0.201 OA
HETATM   49  O4  UNL     1     -31.352  -5.055  -8.775  1.00  0.00    -0.201 OA
BRANCH  47  50
HETATM   50  N5  UNL     1     -31.376  -2.860  -7.399  1.00  0.00    -0.324 N 
ATOM     51  H52 UNL     1     -30.889  -1.985  -7.206  1.00  0.00     0.169 HD
ATOM     52  H51 UNL     1     -32.390  -2.973  -7.433  1.00  0.00     0.169 HD
ENDBRANCH  47  50
ENDBRANCH   3  47
TORSDOF 16
ENDMDL
MODEL 3
REMARK VINA RESULT: -7.469689109      3.347      5.676
REMARK  16 active torsions:
REMARK  status: ('A' for Active; 'I' for Inactive)
REMARK       I    between atoms: C1_4  and  N3_6 
REMARK    1  A    between atoms: N3_6  and  C2_8 
REMARK    2  A    between atoms: C2_8  and  C10_45 
REMARK    3  A    between atoms: N4_9  and  S1_11 
REMARK    4  A    between atoms: S1_11  and  C3_14 
REMARK    5  A    between atoms: C5_16  and  S2_17 
REMARK    6  A    between atoms: S2_17  and  N5_18 
REMARK    7  A    between atoms: C7_27  and  S3_28 
REMARK    8  A    between atoms: S3_28  and  N7_29 
REMARK    9  A    between atoms: S3_28  and  O6_32 
REMARK   10  A    between atoms: S3_28  and  O7_34 
REMARK   11  A    between atoms: S3_28  and  S4_36 
REMARK   12  A    between atoms: S4_36  and  C8_37 
REMARK   13  A    between atoms: C8_37  and  C9_38 
REMARK       I    between atoms: C9_38  and  N8_40 
REMARK   14  A    between atoms: N8_40  and  N9_42 
REMARK   15  A    between atoms: C10_45  and  N10_46 
REMARK   16  A    between atoms: C10_45  and  C11_50 
ROOT
HETATM    1  C3  UNL     1     -25.342  -6.497  -6.864  1.00  0.00     0.119 A 
HETATM    2  C4  UNL     1     -25.175  -6.774  -5.515  1.00  0.00     0.059 A 
HETATM    3  C5  UNL     1     -24.353  -5.945  -4.809  1.00  0.00     0.148 A 
HETATM    4  C6  UNL     1     -23.701  -4.875  -5.360  1.00  0.00     0.269 A 
HETATM    5  O5  UNL     1     -22.954  -4.146  -4.658  1.00  0.00    -0.266 OA
HETATM    6  N6  UNL     1     -23.888  -4.645  -6.653  1.00  0.00    -0.312 N 
ATOM      7  H6  UNL     1     -23.413  -3.853  -7.086  1.00  0.00     0.170 HD
HETATM    8  C7  UNL     1     -24.687  -5.422  -7.416  1.00  0.00     0.141 A 
ENDROOT
BRANCH   1   9
HETATM    9  S1  UNL     1     -26.312  -7.553  -7.794  1.00  0.00     0.267 S 
HETATM   10  O1  UNL     1     -26.958  -8.545  -6.862  1.00  0.00    -0.200 OA
HETATM   11  O2  UNL     1     -27.554  -6.752  -8.265  1.00  0.00    -0.200 OA
BRANCH   9  12
HETATM   12  N4  UNL     1     -25.695  -8.373  -9.080  1.00  0.00    -0.267 N 
HETATM   13  C2  UNL     1     -25.116  -9.477  -9.043  1.00  0.00     0.133 C 
ATOM     14  H4  UNL     1     -25.797  -7.937  -9.996  1.00  0.00     0.180 HD
BRANCH  13  15
HETATM   15  N3  UNL     1     -24.652 -10.013 -10.310  1.00  0.00    -0.318 N 
HETATM   16  C1  UNL     1     -23.651  -9.344 -11.058  1.00  0.00     0.187 C 
HETATM   17  N1  UNL     1     -22.666  -8.782 -10.445  1.00  0.00    -0.373 N 
HETATM   18  N2  UNL     1     -23.747  -9.304 -12.467  1.00  0.00    -0.064 NA
ATOM     19  H12 UNL     1     -21.946  -8.300 -10.984  1.00  0.00     0.158 HD
ATOM     20  H11 UNL     1     -22.598  -8.811  -9.428  1.00  0.00     0.158 HD
ATOM     21  H3  UNL     1     -25.051 -10.882 -10.665  1.00  0.00     0.169 HD
ENDBRANCH  13  15
BRANCH  13  22
HETATM   22  C10 UNL     1     -24.869 -10.266  -7.840  1.00  0.00     0.339 C 
BRANCH  22  23
HETATM   23  N10 UNL     1     -24.987 -11.674  -8.209  1.00  0.00    -0.060 N 
ATOM     24 3H10 UNL     1     -25.863 -12.094  -7.900  1.00  0.00     0.275 HD
ATOM     25 2H10 UNL     1     -25.118 -11.814  -9.210  1.00  0.00     0.275 HD
ATOM     26 1H10 UNL     1     -24.164 -12.154  -7.843  1.00  0.00     0.275 HD
ENDBRANCH  22  23
BRANCH  22  27
HETATM   27  C11 UNL     1     -23.467 -10.054  -7.340  1.00  0.00     0.269 C 
HETATM   28  N11 UNL     1     -23.196  -9.351  -6.142  1.00  0.00    -0.060 NA
HETATM   29  O9  UNL     1     -22.523 -10.515  -8.010  1.00  0.00    -0.274 OA
ENDBRANCH  22  27
ENDBRANCH  13  22
ENDBRANCH   9  12
ENDBRANCH   1   9
BRANCH   8  30
HETATM   30  S3  UNL     1     -24.871  -4.905  -9.260  1.00  0.00     0.058 SA
BRANCH  30  31
HETATM   31  N7  UNL     1     -26.360  -4.049  -8.717  1.00  0.00    -0.349 N 
ATOM     32  H72 UNL     1     -27.262  -4.306  -8.316  1.00  0.00     0.167 HD
ATOM     33  H71 UNL     1     -25.872  -3.198  -8.999  1.00  0.00     0.167 HD
ENDBRANCH  30  31
BRANCH  30  34
HETATM   34  O6  UNL     1     -23.942  -6.133  -9.659  1.00  0.00    -0.310 OA
ATOM     35  H6  UNL     1     -23.226  -5.713  -9.197  1.00  0.00     0.230 HD
ENDBRANCH  30  34
BRANCH  30  36
HETATM   36  O7  UNL     1     -25.517  -5.067 -10.652  1.00  0.00    -0.310 OA
ATOM     37  H7  UNL     1     -26.264  -5.258 -11.206  1.00  0.00     0.230 HD
ENDBRANCH  30  36
BRANCH  30  38
HETATM   38  S4  UNL     1     -23.867  -3.121  -9.536  1.00  0.00    -0.045 SA
BRANCH  38  39
HETATM   39  C8  UNL     1     -24.050  -2.241 -10.893  1.00  0.00     0.194 C 
BRANCH  39  40
HETATM   40  C9  UNL     1     -25.082  -1.152 -10.703  1.00  0.00     0.245 C 
HETATM   41  O8  UNL     1     -26.270  -1.392 -10.415  1.00  0.00    -0.271 OA
HETATM   42  N8  UNL     1     -24.694   0.212 -10.855  1.00  0.00    -0.276 N 
ATOM     43  H8  UNL     1     -23.726   0.429 -11.091  1.00  0.00     0.189 HD
BRANCH  42  44
HETATM   44  N9  UNL     1     -25.603   1.258 -10.690  1.00  0.00    -0.343 N 
ATOM     45  H92 UNL     1     -26.010   1.399  -9.766  1.00  0.00     0.176 HD
ATOM     46  H91 UNL     1     -25.862   1.872 -11.462  1.00  0.00     0.176 HD
ENDBRANCH  42  44
ENDBRANCH  39  40
ENDBRANCH  38  39
ENDBRANCH  30  38
ENDBRANCH   8  30
BRANCH   3  47
HETATM   47  S2  UNL     1     -24.130  -6.272  -3.112  1.00  0.00     0.262 S 
HETATM   48  O3  UNL     1     -24.203  -7.743  -2.818  1.00  0.00    -0.201 OA
HETATM   49  O4  UNL     1     -25.236  -5.623  -2.339  1.00  0.00    -0.201 OA
BRANCH  47  50
HETATM   50  N5  UNL     1     -22.652  -5.590  -2.526  1.00  0.00    -0.324 N 
ATOM     51  H52 UNL     1     -21.729  -5.905  -2.826  1.00  0.00     0.169 HD
ATOM     52  H51 UNL     1     -22.827  -4.843  -1.853  1.00  0.00     0.169 HD
ENDBRANCH  47  50
ENDBRANCH   3  47
TORSDOF 16
ENDMDL
MODEL 4
REMARK VINA RESULT: -7.344248922      3.684      8.867
REMARK  16 active torsions:
REMARK  status: ('A' for Active; 'I' for Inactive)
REMARK       I    between atoms: C1_4  and  N3_6 
REMARK    1  A    between atoms: N3_6  and  C2_8 
REMARK    2  A    between atoms: C2_8  and  C10_45 
REMARK    3  A    between atoms: N4_9  and  S1_11 
REMARK    4  A    between atoms: S1_11  and  C3_14 
REMARK    5  A    between atoms: C5_16  and  S2_17 
REMARK    6  A    between atoms: S2_17  and  N5_18 
REMARK    7  A    between atoms: C7_27  and  S3_28 
REMARK    8  A    between atoms: S3_28  and  N7_29 
REMARK    9  A    between atoms: S3_28  and  O6_32 
REMARK   10  A    between atoms: S3_28  and  O7_34 
REMARK   11  A    between atoms: S3_28  and  S4_36 
REMARK   12  A    between atoms: S4_36  and  C8_37 
REMARK   13  A    between atoms: C8_37  and  C9_38 
REMARK       I    between atoms: C9_38  and  N8_40 
REMARK   14  A    between atoms: N8_40  and  N9_42 
REMARK   15  A    between atoms: C10_45  and  N10_46 
REMARK   16  A    between atoms: C10_45  and  C11_50 
ROOT
HETATM    1  C3  UNL     1     -23.776  -6.642  -6.890  1.00  0.00     0.119 A 
HETATM    2  C4  UNL     1     -23.220  -5.417  -7.228  1.00  0.00     0.059 A 
HETATM    3  C5  UNL     1     -23.038  -4.519  -6.218  1.00  0.00     0.148 A 
HETATM    4  C6  UNL     1     -23.372  -4.766  -4.914  1.00  0.00     0.269 A 
HETATM    5  O5  UNL     1     -23.182  -3.898  -4.025  1.00  0.00    -0.266 OA
HETATM    6  N6  UNL     1     -23.900  -5.950  -4.633  1.00  0.00    -0.312 N 
ATOM      7  H6  UNL     1     -24.157  -6.159  -3.668  1.00  0.00     0.170 HD
HETATM    8  C7  UNL     1     -24.110  -6.890  -5.580  1.00  0.00     0.141 A 
ENDROOT
BRANCH   1   9
HETATM    9  S1  UNL     1     -24.078  -7.768  -8.140  1.00  0.00     0.267 S 
HETATM   10  O1  UNL     1     -23.286  -7.351  -9.352  1.00  0.00    -0.200 OA
HETATM   11  O2  UNL     1     -23.355  -9.087  -7.765  1.00  0.00    -0.200 OA
BRANCH   9  12
HETATM   12  N4  UNL     1     -25.611  -8.124  -8.619  1.00  0.00    -0.267 N 
HETATM   13  C2  UNL     1     -26.421  -7.338  -9.150  1.00  0.00     0.133 C 
ATOM     14  H4  UNL     1     -25.930  -9.081  -8.467  1.00  0.00     0.180 HD
BRANCH  13  15
HETATM   15  N3  UNL     1     -27.726  -7.877  -9.490  1.00  0.00    -0.318 N 
HETATM   16  C1  UNL     1     -28.553  -8.457  -8.495  1.00  0.00     0.187 C 
HETATM   17  N1  UNL     1     -28.600  -7.931  -7.319  1.00  0.00    -0.373 N 
HETATM   18  N2  UNL     1     -29.315  -9.604  -8.808  1.00  0.00    -0.064 NA
ATOM     19  H12 UNL     1     -29.196  -8.348  -6.604  1.00  0.00     0.158 HD
ATOM     20  H11 UNL     1     -28.050  -7.103  -7.094  1.00  0.00     0.158 HD
ATOM     21  H3  UNL     1     -28.050  -7.837 -10.456  1.00  0.00     0.169 HD
ENDBRANCH  13  15
BRANCH  13  22
HETATM   22  C10 UNL     1     -26.165  -5.934  -9.454  1.00  0.00     0.339 C 
BRANCH  22  23
HETATM   23  N10 UNL     1     -26.810  -5.638 -10.730  1.00  0.00    -0.060 N 
ATOM     24 3H10 UNL     1     -27.815  -5.815 -10.719  1.00  0.00     0.275 HD
ATOM     25 2H10 UNL     1     -26.854  -4.640 -10.933  1.00  0.00     0.275 HD
ATOM     26 1H10 UNL     1     -26.320  -6.170 -11.449  1.00  0.00     0.275 HD
ENDBRANCH  22  23
BRANCH  22  27
HETATM   27  C11 UNL     1     -26.795  -5.040  -8.421  1.00  0.00     0.269 C 
HETATM   28  N11 UNL     1     -27.177  -3.710  -8.714  1.00  0.00    -0.060 NA
HETATM   29  O9  UNL     1     -26.980  -5.496  -7.276  1.00  0.00    -0.274 OA
ENDBRANCH  22  27
ENDBRANCH  13  22
ENDBRANCH   9  12
ENDBRANCH   1   9
BRANCH   8  30
HETATM   30  S3  UNL     1     -24.843  -8.564  -4.975  1.00  0.00     0.058 SA
BRANCH  30  31
HETATM   31  N7  UNL     1     -23.127  -9.058  -4.736  1.00  0.00    -0.349 N 
ATOM     32  H72 UNL     1     -22.538  -9.346  -3.955  1.00  0.00     0.167 HD
ATOM     33  H71 UNL     1     -23.033  -8.912  -5.741  1.00  0.00     0.167 HD
ENDBRANCH  30  31
BRANCH  30  34
HETATM   34  O6  UNL     1     -26.180  -8.222  -5.767  1.00  0.00    -0.310 OA
ATOM     35  H6  UNL     1     -26.152  -9.092  -6.145  1.00  0.00     0.230 HD
ENDBRANCH  30  34
BRANCH  30  36
HETATM   36  O7  UNL     1     -25.200 -10.046  -5.207  1.00  0.00    -0.310 OA
ATOM     37  H7  UNL     1     -25.252 -10.947  -4.908  1.00  0.00     0.230 HD
ENDBRANCH  30  36
BRANCH  30  38
HETATM   38  S4  UNL     1     -25.157  -8.433  -2.937  1.00  0.00    -0.045 SA
BRANCH  38  39
HETATM   39  C8  UNL     1     -24.916  -9.709  -1.955  1.00  0.00     0.194 C 
BRANCH  39  40
HETATM   40  C9  UNL     1     -23.737  -9.475  -1.037  1.00  0.00     0.245 C 
HETATM   41  O8  UNL     1     -22.995 -10.395  -0.645  1.00  0.00    -0.271 OA
HETATM   42  N8  UNL     1     -23.451  -8.151  -0.592  1.00  0.00    -0.276 N 
ATOM     43  H8  UNL     1     -24.048  -7.384  -0.901  1.00  0.00     0.189 HD
BRANCH  42  44
HETATM   44  N9  UNL     1     -22.376  -7.876   0.255  1.00  0.00    -0.343 N 
ATOM     45  H92 UNL     1     -22.025  -6.919   0.290  1.00  0.00     0.176 HD
ATOM     46  H91 UNL     1     -21.944  -8.600   0.828  1.00  0.00     0.176 HD
ENDBRANCH  42  44
ENDBRANCH  39  40
ENDBRANCH  38  39
ENDBRANCH  30  38
ENDBRANCH   8  30
BRANCH   3  47
HETATM   47  S2  UNL     1     -22.340  -2.973  -6.618  1.00  0.00     0.262 S 
HETATM   48  O3  UNL     1     -22.538  -2.636  -8.069  1.00  0.00    -0.201 OA
HETATM   49  O4  UNL     1     -20.861  -3.030  -6.389  1.00  0.00    -0.201 OA
BRANCH  47  50
HETATM   50  N5  UNL     1     -22.951  -1.719  -5.595  1.00  0.00    -0.324 N 
ATOM     51  H52 UNL     1     -23.893  -1.337  -5.675  1.00  0.00     0.169 HD
ATOM     52  H51 UNL     1     -22.252  -1.421  -4.913  1.00  0.00     0.169 HD
ENDBRANCH  47  50
ENDBRANCH   3  47
TORSDOF 16
ENDMDL
MODEL 5
REMARK VINA RESULT: -7.270356352      3.833      6.795
REMARK  16 active torsions:
REMARK  status: ('A' for Active; 'I' for Inactive)
REMARK       I    between atoms: C1_4  and  N3_6 
REMARK    1  A    between atoms: N3_6  and  C2_8 
REMARK    2  A    between atoms: C2_8  and  C10_45 
REMARK    3  A    between atoms: N4_9  and  S1_11 
REMARK    4  A    between atoms: S1_11  and  C3_14 
REMARK    5  A    between atoms: C5_16  and  S2_17 
REMARK    6  A    between atoms: S2_17  and  N5_18 
REMARK    7  A    between atoms: C7_27  and  S3_28 
REMARK    8  A    between atoms: S3_28  and  N7_29 
REMARK    9  A    between atoms: S3_28  and  O6_32 
REMARK   10  A    between atoms: S3_28  and  O7_34 
REMARK   11  A    between atoms: S3_28  and  S4_36 
REMARK   12  A    between atoms: S4_36  and  C8_37 
REMARK   13  A    between atoms: C8_37  and  C9_38 
REMARK       I    between atoms: C9_38  and  N8_40 
REMARK   14  A    between atoms: N8_40  and  N9_42 
REMARK   15  A    between atoms: C10_45  and  N10_46 
REMARK   16  A    between atoms: C10_45  and  C11_50 
ROOT
HETATM    1  C3  UNL     1     -25.641  -7.468  -7.314  1.00  0.00     0.119 A 
HETATM    2  C4  UNL     1     -25.719  -8.050  -6.058  1.00  0.00     0.059 A 
HETATM    3  C5  UNL     1     -24.832  -7.614  -5.117  1.00  0.00     0.148 A 
HETATM    4  C6  UNL     1     -23.892  -6.649  -5.352  1.00  0.00     0.269 A 
HETATM    5  O5  UNL     1     -23.099  -6.288  -4.445  1.00  0.00    -0.266 OA
HETATM    6  N6  UNL     1     -23.852  -6.117  -6.567  1.00  0.00    -0.312 N 
ATOM      7  H6  UNL     1     -23.159  -5.395  -6.766  1.00  0.00     0.170 HD
HETATM    8  C7  UNL     1     -24.697  -6.498  -7.549  1.00  0.00     0.141 A 
ENDROOT
BRANCH   1   9
HETATM    9  S1  UNL     1     -26.693  -8.036  -8.536  1.00  0.00     0.267 S 
HETATM   10  O1  UNL     1     -27.829  -8.773  -7.877  1.00  0.00    -0.200 OA
HETATM   11  O2  UNL     1     -27.444  -6.808  -9.114  1.00  0.00    -0.200 OA
BRANCH   9  12
HETATM   12  N4  UNL     1     -26.137  -8.949  -9.787  1.00  0.00    -0.267 N 
HETATM   13  C2  UNL     1     -25.428  -9.971  -9.698  1.00  0.00     0.133 C 
ATOM     14  H4  UNL     1     -26.399  -8.651 -10.727  1.00  0.00     0.180 HD
BRANCH  13  15
HETATM   15  N3  UNL     1     -25.056 -10.619 -10.943  1.00  0.00    -0.318 N 
HETATM   16  C1  UNL     1     -24.409  -9.891 -11.973  1.00  0.00     0.187 C 
HETATM   17  N1  UNL     1     -23.521  -9.007 -11.669  1.00  0.00    -0.373 N 
HETATM   18  N2  UNL     1     -24.745 -10.147 -13.321  1.00  0.00    -0.064 NA
ATOM     19  H12 UNL     1     -23.056  -8.483 -12.410  1.00  0.00     0.158 HD
ATOM     20  H11 UNL     1     -23.279  -8.822 -10.695  1.00  0.00     0.158 HD
ATOM     21  H3  UNL     1     -25.263 -11.608 -11.077  1.00  0.00     0.169 HD
ENDBRANCH  13  15
BRANCH  13  22
HETATM   22  C10 UNL     1     -24.947 -10.564  -8.453  1.00  0.00     0.339 C 
BRANCH  22  23
HETATM   23  N10 UNL     1     -24.777 -11.995  -8.688  1.00  0.00    -0.060 N 
ATOM     24 3H10 UNL     1     -25.504 -12.390  -9.286  1.00  0.00     0.275 HD
ATOM     25 2H10 UNL     1     -23.981 -12.209  -9.289  1.00  0.00     0.275 HD
ATOM     26 1H10 UNL     1     -24.722 -12.449  -7.776  1.00  0.00     0.275 HD
ENDBRANCH  22  23
BRANCH  22  27
HETATM   27  C11 UNL     1     -23.598 -10.011  -8.085  1.00  0.00     0.269 C 
HETATM   28  N11 UNL     1     -23.062 -10.147  -6.783  1.00  0.00    -0.060 NA
HETATM   29  O9  UNL     1     -22.941  -9.417  -8.962  1.00  0.00    -0.274 OA
ENDBRANCH  22  27
ENDBRANCH  13  22
ENDBRANCH   9  12
ENDBRANCH   1   9
BRANCH   8  30
HETATM   30  S3  UNL     1     -24.518  -5.581  -9.232  1.00  0.00     0.058 SA
BRANCH  30  31
HETATM   31  N7  UNL     1     -25.789  -4.476  -8.595  1.00  0.00    -0.349 N 
ATOM     32  H72 UNL     1     -26.012  -4.033  -7.703  1.00  0.00     0.167 HD
ATOM     33  H71 UNL     1     -26.171  -4.508  -9.540  1.00  0.00     0.167 HD
ENDBRANCH  30  31
BRANCH  30  34
HETATM   34  O6  UNL     1     -23.895  -6.910  -9.847  1.00  0.00    -0.310 OA
ATOM     35  H6  UNL     1     -23.313  -6.370 -10.368  1.00  0.00     0.230 HD
ENDBRANCH  30  34
BRANCH  30  36
HETATM   36  O7  UNL     1     -25.011  -5.267 -10.659  1.00  0.00    -0.310 OA
ATOM     37  H7  UNL     1     -24.961  -4.769 -11.467  1.00  0.00     0.230 HD
ENDBRANCH  30  36
BRANCH  30  38
HETATM   38  S4  UNL     1     -23.062  -4.130  -9.027  1.00  0.00    -0.045 SA
BRANCH  38  39
HETATM   39  C8  UNL     1     -23.256  -2.865  -8.021  1.00  0.00     0.194 C 
BRANCH  39  40
HETATM   40  C9  UNL     1     -22.379  -3.003  -6.796  1.00  0.00     0.245 C 
HETATM   41  O8  UNL     1     -21.136  -3.004  -6.854  1.00  0.00    -0.271 OA
HETATM   42  N8  UNL     1     -22.989  -3.137  -5.514  1.00  0.00    -0.276 N 
ATOM     43  H8  UNL     1     -24.006  -3.138  -5.445  1.00  0.00     0.189 HD
BRANCH  42  44
HETATM   44  N9  UNL     1     -22.230  -3.267  -4.349  1.00  0.00    -0.343 N 
ATOM     45  H92 UNL     1     -21.425  -3.892  -4.368  1.00  0.00     0.176 HD
ATOM     46  H91 UNL     1     -22.463  -2.758  -3.497  1.00  0.00     0.176 HD
ENDBRANCH  42  44
ENDBRANCH  39  40
ENDBRANCH  38  39
ENDBRANCH  30  38
ENDBRANCH   8  30
BRANCH   3  47
HETATM   47  S2  UNL     1     -24.912  -8.330  -3.530  1.00  0.00     0.262 S 
HETATM   48  O3  UNL     1     -23.875  -9.402  -3.355  1.00  0.00    -0.201 OA
HETATM   49  O4  UNL     1     -26.245  -8.989  -3.357  1.00  0.00    -0.201 OA
BRANCH  47  50
HETATM   50  N5  UNL     1     -24.789  -7.131  -2.289  1.00  0.00    -0.324 N 
ATOM     51  H52 UNL     1     -24.030  -6.452  -2.236  1.00  0.00     0.169 HD
ATOM     52  H51 UNL     1     -25.566  -7.195  -1.631  1.00  0.00     0.169 HD
ENDBRANCH  47  50
ENDBRANCH   3  47
TORSDOF 16
ENDMDL
