MODEL 1
REMARK VINA RESULT: -8.513852744      0.000      0.000
REMARK  3 active torsions:
REMARK  status: ('A' for Active; 'I' for Inactive)
REMARK    1  A    between atoms: C3_6  and  N3_7 
REMARK       I    between atoms: N3_7  and  C4_9 
REMARK    2  A    between atoms: C4_9  and  C5_11 
REMARK    3  A    between atoms: C9_16  and  N4_17 
ROOT
HETATM    1  C1  UNL     1      -1.555   4.978  11.252  1.00  0.00     0.179 C 
HETATM    2  N1  UNL     1      -2.279   4.622  12.454  1.00  0.00    -0.280 N 
HETATM    3  N2  UNL     1      -2.310   5.488  13.499  1.00  0.00    -0.306 N 
ATOM      4  H2  UNL     1      -1.840   6.392  13.530  1.00  0.00     0.186 HD
HETATM    5  C2  UNL     1      -3.043   4.978  14.464  1.00  0.00     0.141 A 
HETATM    6  C3  UNL     1      -3.524   3.723  14.064  1.00  0.00     0.098 A 
HETATM    7  C9  UNL     1      -3.010   3.533  12.760  1.00  0.00     0.152 A 
ENDROOT
BRANCH   7   8
HETATM    8  N4  UNL     1      -3.192   2.337  12.001  1.00  0.00    -0.315 N 
HETATM    9  C10 UNL     1      -2.073   1.882  11.150  1.00  0.00     0.135 C 
HETATM   10  C11 UNL     1      -2.009   0.343  11.229  1.00  0.00     0.099 C 
HETATM   11  C12 UNL     1      -3.192  -0.293  10.584  1.00  0.00     0.251 C 
HETATM   12  F1  UNL     1      -3.557  -1.481  11.164  1.00  0.00    -0.206 F 
HETATM   13  F2  UNL     1      -2.929  -0.578   9.234  1.00  0.00    -0.206 F 
HETATM   14  C13 UNL     1      -4.299   0.736  10.601  1.00  0.00     0.163 C 
HETATM   15  C14 UNL     1      -4.275   1.423  12.036  1.00  0.00     0.263 C 
HETATM   16  F3  UNL     1      -5.526   2.022  12.019  1.00  0.00    -0.200 F 
HETATM   17 CL1  UNL     1      -4.141   0.049  13.120  1.00  0.00    -0.059 Cl
ENDBRANCH   7   8
BRANCH   6  18
HETATM   18  N3  UNL     1      -4.220   2.837  14.908  1.00  0.00    -0.322 N 
HETATM   19  C4  UNL     1      -5.624   2.944  15.060  1.00  0.00     0.228 C 
HETATM   20  O1  UNL     1      -6.383   3.756  14.518  1.00  0.00    -0.273 OA
ATOM     21  H3  UNL     1      -3.710   2.112  15.412  1.00  0.00     0.169 HD
BRANCH  19  22
HETATM   22  C5  UNL     1      -6.295   1.964  15.991  1.00  0.00     0.104 C 
HETATM   23  C6  UNL     1      -6.603   2.754  17.253  1.00  0.00     0.042 C 
HETATM   24  C7  UNL     1      -6.172   1.785  18.328  1.00  0.00     0.168 C 
HETATM   25  O2  UNL     1      -5.157   1.022  17.798  1.00  0.00    -0.390 OA
HETATM   26  C8  UNL     1      -5.381   0.877  16.443  1.00  0.00     0.181 C 
ENDBRANCH  19  22
ENDBRANCH   6  18
TORSDOF 3
ENDMDL
MODEL 2
REMARK VINA RESULT: -8.359870106      2.788      4.580
REMARK  3 active torsions:
REMARK  status: ('A' for Active; 'I' for Inactive)
REMARK    1  A    between atoms: C3_6  and  N3_7 
REMARK       I    between atoms: N3_7  and  C4_9 
REMARK    2  A    between atoms: C4_9  and  C5_11 
REMARK    3  A    between atoms: C9_16  and  N4_17 
ROOT
HETATM    1  C1  UNL     1      -1.950   1.482  10.072  1.00  0.00     0.179 C 
HETATM    2  N1  UNL     1      -2.765   1.252  11.246  1.00  0.00    -0.280 N 
HETATM    3  N2  UNL     1      -3.234   0.004  11.503  1.00  0.00    -0.306 N 
ATOM      4  H2  UNL     1      -3.078  -0.816  10.918  1.00  0.00     0.186 HD
HETATM    5  C2  UNL     1      -3.918   0.019  12.626  1.00  0.00     0.141 A 
HETATM    6  C3  UNL     1      -3.918   1.320  13.149  1.00  0.00     0.098 A 
HETATM    7  C9  UNL     1      -3.160   2.083  12.230  1.00  0.00     0.152 A 
ENDROOT
BRANCH   7   8
HETATM    8  N4  UNL     1      -2.971   3.495  12.336  1.00  0.00    -0.315 N 
HETATM    9  C10 UNL     1      -4.128   4.370  12.053  1.00  0.00     0.135 C 
HETATM   10  C11 UNL     1      -4.095   5.543  13.053  1.00  0.00     0.099 C 
HETATM   11  C12 UNL     1      -2.934   6.444  12.810  1.00  0.00     0.251 C 
HETATM   12  F1  UNL     1      -2.453   7.035  13.950  1.00  0.00    -0.206 F 
HETATM   13  F2  UNL     1      -3.289   7.490  11.942  1.00  0.00    -0.206 F 
HETATM   14  C13 UNL     1      -1.891   5.620  12.089  1.00  0.00     0.163 C 
HETATM   15  C14 UNL     1      -1.838   4.203  12.808  1.00  0.00     0.263 C 
HETATM   16  F3  UNL     1      -0.630   3.742  12.307  1.00  0.00    -0.200 F 
HETATM   17 CL1  UNL     1      -1.801   4.633  14.509  1.00  0.00    -0.059 Cl
ENDBRANCH   7   8
BRANCH   6  18
HETATM   18  N3  UNL     1      -4.677   1.725  14.263  1.00  0.00    -0.322 N 
HETATM   19  C4  UNL     1      -4.394   1.207  15.550  1.00  0.00     0.228 C 
HETATM   20  O1  UNL     1      -3.512   0.399  15.863  1.00  0.00    -0.273 OA
ATOM     21  H3  UNL     1      -5.435   2.396  14.142  1.00  0.00     0.169 HD
BRANCH  19  22
HETATM   22  C5  UNL     1      -5.260   1.683  16.692  1.00  0.00     0.104 C 
HETATM   23  C6  UNL     1      -5.850   0.420  17.302  1.00  0.00     0.042 C 
HETATM   24  C7  UNL     1      -7.291   0.825  17.495  1.00  0.00     0.168 C 
HETATM   25  O2  UNL     1      -7.586   1.745  16.515  1.00  0.00    -0.390 OA
HETATM   26  C8  UNL     1      -6.442   2.466  16.233  1.00  0.00     0.181 C 
ENDBRANCH  19  22
ENDBRANCH   6  18
TORSDOF 3
ENDMDL
MODEL 3
REMARK VINA RESULT: -8.143726432      2.983      4.730
REMARK  3 active torsions:
REMARK  status: ('A' for Active; 'I' for Inactive)
REMARK    1  A    between atoms: C3_6  and  N3_7 
REMARK       I    between atoms: N3_7  and  C4_9 
REMARK    2  A    between atoms: C4_9  and  C5_11 
REMARK    3  A    between atoms: C9_16  and  N4_17 
ROOT
HETATM    1  C1  UNL     1      -1.911   2.694  10.512  1.00  0.00     0.179 C 
HETATM    2  N1  UNL     1      -2.805   2.226  11.549  1.00  0.00    -0.280 N 
HETATM    3  N2  UNL     1      -3.336   0.979  11.465  1.00  0.00    -0.306 N 
ATOM      4  H2  UNL     1      -3.177   0.321  10.702  1.00  0.00     0.186 HD
HETATM    5  C2  UNL     1      -4.088   0.754  12.520  1.00  0.00     0.141 A 
HETATM    6  C3  UNL     1      -4.069   1.885  13.349  1.00  0.00     0.098 A 
HETATM    7  C9  UNL     1      -3.227   2.809  12.687  1.00  0.00     0.152 A 
ENDROOT
BRANCH   7   8
HETATM    8  N4  UNL     1      -2.990   4.140  13.150  1.00  0.00    -0.315 N 
HETATM    9  C10 UNL     1      -1.626   4.479  13.605  1.00  0.00     0.135 C 
HETATM   10  C11 UNL     1      -1.311   5.915  13.140  1.00  0.00     0.099 C 
HETATM   11  C12 UNL     1      -2.154   6.922  13.844  1.00  0.00     0.251 C 
HETATM   12  F1  UNL     1      -2.439   8.026  13.081  1.00  0.00    -0.206 F 
HETATM   13  F2  UNL     1      -1.503   7.396  14.996  1.00  0.00    -0.206 F 
HETATM   14  C13 UNL     1      -3.392   6.195  14.316  1.00  0.00     0.163 C 
HETATM   15  C14 UNL     1      -3.864   5.255  13.123  1.00  0.00     0.263 C 
HETATM   16  F3  UNL     1      -5.154   4.979  13.550  1.00  0.00    -0.200 F 
HETATM   17 CL1  UNL     1      -3.773   6.321  11.731  1.00  0.00    -0.059 Cl
ENDBRANCH   7   8
BRANCH   6  18
HETATM   18  N3  UNL     1      -4.879   2.043  14.489  1.00  0.00    -0.322 N 
HETATM   19  C4  UNL     1      -4.422   1.615  15.759  1.00  0.00     0.228 C 
HETATM   20  O1  UNL     1      -3.336   1.091  16.035  1.00  0.00    -0.273 OA
ATOM     21  H3  UNL     1      -5.801   2.470  14.400  1.00  0.00     0.169 HD
BRANCH  19  22
HETATM   22  C5  UNL     1      -5.353   1.810  16.930  1.00  0.00     0.104 C 
HETATM   23  C6  UNL     1      -5.933   0.433  17.216  1.00  0.00     0.042 C 
HETATM   24  C7  UNL     1      -7.393   0.757  17.419  1.00  0.00     0.168 C 
HETATM   25  O2  UNL     1      -7.670   1.866  16.652  1.00  0.00    -0.390 OA
HETATM   26  C8  UNL     1      -6.536   2.652  16.595  1.00  0.00     0.181 C 
ENDBRANCH  19  22
ENDBRANCH   6  18
TORSDOF 3
ENDMDL
MODEL 4
REMARK VINA RESULT: -8.083859434      3.110      4.757
REMARK  3 active torsions:
REMARK  status: ('A' for Active; 'I' for Inactive)
REMARK    1  A    between atoms: C3_6  and  N3_7 
REMARK       I    between atoms: N3_7  and  C4_9 
REMARK    2  A    between atoms: C4_9  and  C5_11 
REMARK    3  A    between atoms: C9_16  and  N4_17 
ROOT
HETATM    1  C1  UNL     1      -3.251   3.943   9.723  1.00  0.00     0.179 C 
HETATM    2  N1  UNL     1      -3.626   3.134  10.864  1.00  0.00    -0.280 N 
HETATM    3  N2  UNL     1      -4.138   1.892  10.666  1.00  0.00    -0.306 N 
ATOM      4  H2  UNL     1      -4.311   1.463   9.758  1.00  0.00     0.186 HD
HETATM    5  C2  UNL     1      -4.377   1.330  11.831  1.00  0.00     0.141 A 
HETATM    6  C3  UNL     1      -4.017   2.218  12.854  1.00  0.00     0.098 A 
HETATM    7  C9  UNL     1      -3.534   3.368  12.187  1.00  0.00     0.152 A 
ENDROOT
BRANCH   7   8
HETATM    8  N4  UNL     1      -3.130   4.564  12.857  1.00  0.00    -0.315 N 
HETATM    9  C10 UNL     1      -1.751   4.628  13.382  1.00  0.00     0.135 C 
HETATM   10  C11 UNL     1      -1.219   6.057  13.152  1.00  0.00     0.099 C 
HETATM   11  C12 UNL     1      -1.938   7.056  13.992  1.00  0.00     0.251 C 
HETATM   12  F1  UNL     1      -2.035   8.293  13.407  1.00  0.00    -0.206 F 
HETATM   13  F2  UNL     1      -1.272   7.249  15.214  1.00  0.00    -0.206 F 
HETATM   14  C13 UNL     1      -3.284   6.454  14.323  1.00  0.00     0.163 C 
HETATM   15  C14 UNL     1      -3.837   5.785  12.990  1.00  0.00     0.263 C 
HETATM   16  F3  UNL     1      -5.168   5.637  13.348  1.00  0.00    -0.200 F 
HETATM   17 CL1  UNL     1      -3.542   7.027  11.784  1.00  0.00    -0.059 Cl
ENDBRANCH   7   8
BRANCH   6  18
HETATM   18  N3  UNL     1      -4.274   1.997  14.220  1.00  0.00    -0.322 N 
HETATM   19  C4  UNL     1      -5.420   2.558  14.834  1.00  0.00     0.228 C 
HETATM   20  O1  UNL     1      -6.294   3.257  14.308  1.00  0.00    -0.273 OA
ATOM     21  H3  UNL     1      -3.631   1.430  14.771  1.00  0.00     0.169 HD
BRANCH  19  22
HETATM   22  C5  UNL     1      -5.620   2.284  16.305  1.00  0.00     0.104 C 
HETATM   23  C6  UNL     1      -4.861   0.995  16.580  1.00  0.00     0.042 C 
HETATM   24  C7  UNL     1      -5.850   0.240  17.435  1.00  0.00     0.168 C 
HETATM   25  O2  UNL     1      -7.107   0.648  17.051  1.00  0.00    -0.390 OA
HETATM   26  C8  UNL     1      -7.035   1.966  16.648  1.00  0.00     0.181 C 
ENDBRANCH  19  22
ENDBRANCH   6  18
TORSDOF 3
ENDMDL
MODEL 5
REMARK VINA RESULT: -7.883697198      0.897      1.115
REMARK  3 active torsions:
REMARK  status: ('A' for Active; 'I' for Inactive)
REMARK    1  A    between atoms: C3_6  and  N3_7 
REMARK       I    between atoms: N3_7  and  C4_9 
REMARK    2  A    between atoms: C4_9  and  C5_11 
REMARK    3  A    between atoms: C9_16  and  N4_17 
ROOT
HETATM    1  C1  UNL     1      -2.086   5.049  10.313  1.00  0.00     0.179 C 
HETATM    2  N1  UNL     1      -2.491   4.850  11.689  1.00  0.00    -0.280 N 
HETATM    3  N2  UNL     1      -2.373   5.869  12.577  1.00  0.00    -0.306 N 
ATOM      4  H2  UNL     1      -1.994   6.793  12.368  1.00  0.00     0.186 HD
HETATM    5  C2  UNL     1      -2.823   5.479  13.749  1.00  0.00     0.141 A 
HETATM    6  C3  UNL     1      -3.261   4.150  13.656  1.00  0.00     0.098 A 
HETATM    7  C9  UNL     1      -3.031   3.784  12.309  1.00  0.00     0.152 A 
ENDROOT
BRANCH   7   8
HETATM    8  N4  UNL     1      -3.263   2.472  11.793  1.00  0.00    -0.315 N 
HETATM    9  C10 UNL     1      -2.208   1.863  10.957  1.00  0.00     0.135 C 
HETATM   10  C11 UNL     1      -2.129   0.363  11.305  1.00  0.00     0.099 C 
HETATM   11  C12 UNL     1      -3.354  -0.369  10.875  1.00  0.00     0.251 C 
HETATM   12  F1  UNL     1      -3.668  -1.431  11.685  1.00  0.00    -0.206 F 
HETATM   13  F2  UNL     1      -3.191  -0.894   9.582  1.00  0.00    -0.206 F 
HETATM   14  C13 UNL     1      -4.462   0.655  10.790  1.00  0.00     0.163 C 
HETATM   15  C14 UNL     1      -4.335   1.588  12.072  1.00  0.00     0.263 C 
HETATM   16  F3  UNL     1      -5.587   2.183  12.042  1.00  0.00    -0.200 F 
HETATM   17 CL1  UNL     1      -4.112   0.430  13.372  1.00  0.00    -0.059 Cl
ENDBRANCH   7   8
BRANCH   6  18
HETATM   18  N3  UNL     1      -3.668   3.372  14.756  1.00  0.00    -0.322 N 
HETATM   19  C4  UNL     1      -5.026   3.351  15.157  1.00  0.00     0.228 C 
HETATM   20  O1  UNL     1      -5.976   3.952  14.642  1.00  0.00    -0.273 OA
ATOM     21  H3  UNL     1      -2.980   2.821  15.268  1.00  0.00     0.169 HD
BRANCH  19  22
HETATM   22  C5  UNL     1      -5.380   2.500  16.352  1.00  0.00     0.104 C 
HETATM   23  C6  UNL     1      -4.369   1.363  16.350  1.00  0.00     0.042 C 
HETATM   24  C7  UNL     1      -5.255   0.173  16.630  1.00  0.00     0.168 C 
HETATM   25  O2  UNL     1      -6.497   0.465  16.114  1.00  0.00    -0.390 OA
HETATM   26  C8  UNL     1      -6.702   1.827  16.212  1.00  0.00     0.181 C 
ENDBRANCH  19  22
ENDBRANCH   6  18
TORSDOF 3
ENDMDL
