MODEL 1
REMARK VINA RESULT: -6.973859389      0.000      0.000
REMARK  5 active torsions:
REMARK  status: ('A' for Active; 'I' for Inactive)
REMARK    1  A    between atoms: C1_2  and  C2_3 
REMARK    2  A    between atoms: C1_2  and  C6_17 
REMARK    3  A    between atoms: C2_3  and  N1_4 
REMARK    4  A    between atoms: C3_5  and  C4_6 
REMARK    5  A    between atoms: N2_10  and  O2_11 
ROOT
HETATM    1  N1  UNL     1      -2.594   3.514  12.087  1.00  0.00    -0.273 N 
HETATM    2  C3  UNL     1      -2.716   2.251  11.726  1.00  0.00     0.190 A 
HETATM    3  N2  UNL     1      -1.448   1.789  11.517  1.00  0.00    -0.142 N 
HETATM    4  N3  UNL     1      -0.599   2.735  11.744  1.00  0.00    -0.223 N 
ATOM      5  H3  UNL     1       0.416   2.666  11.665  1.00  0.00     0.194 HD
HETATM    6  C5  UNL     1      -1.280   3.805  12.095  1.00  0.00     0.345 A 
HETATM    7  O3  UNL     1      -0.762   4.939  12.396  1.00  0.00    -0.245 OA
ENDROOT
BRANCH   1   8
HETATM    8  C2  UNL     1      -3.615   4.449  12.418  1.00  0.00     0.219 C 
BRANCH   8   9
HETATM    9  C1  UNL     1      -3.775   4.711  13.868  1.00  0.00     0.177 C 
HETATM   10  O1  UNL     1      -3.284   5.743  14.350  1.00  0.00    -0.291 OA
BRANCH   9  11
HETATM   11  C6  UNL     1      -4.496   3.764  14.687  1.00  0.00     0.011 A 
HETATM   12  C7  UNL     1      -5.855   3.909  14.924  1.00  0.00     0.017 A 
HETATM   13  C8  UNL     1      -6.560   3.030  15.716  1.00  0.00     0.025 A 
HETATM   14  C9  UNL     1      -5.918   1.949  16.314  1.00  0.00     0.034 A 
HETATM   15 CL4  UNL     1      -6.893   0.880  17.311  1.00  0.00    -0.084 Cl
HETATM   16  C10 UNL     1      -4.578   1.780  16.099  1.00  0.00     0.025 A 
HETATM   17  C11 UNL     1      -3.891   2.676  15.299  1.00  0.00     0.017 A 
ENDBRANCH   9  11
ENDBRANCH   8   9
ENDBRANCH   1   8
BRANCH   2  18
HETATM   18  C4  UNL     1      -3.864   1.366  11.548  1.00  0.00     0.251 C 
HETATM   19 CL1  UNL     1      -3.502   0.319  10.116  1.00  0.00    -0.075 Cl
HETATM   20 CL2  UNL     1      -3.990   0.192  12.917  1.00  0.00    -0.075 Cl
HETATM   21 CL3  UNL     1      -5.400   2.096  11.197  1.00  0.00    -0.075 Cl
ENDBRANCH   2  18
BRANCH   3  22
HETATM   22  O2  UNL     1      -1.068   0.516  11.123  1.00  0.00    -0.266 OA
ATOM     23  H2  UNL     1      -0.384  -0.026  11.499  1.00  0.00     0.247 HD
ENDBRANCH   3  22
TORSDOF 5
ENDMDL
MODEL 2
REMARK VINA RESULT: -6.882388504      2.389      3.494
REMARK  5 active torsions:
REMARK  status: ('A' for Active; 'I' for Inactive)
REMARK    1  A    between atoms: C1_2  and  C2_3 
REMARK    2  A    between atoms: C1_2  and  C6_17 
REMARK    3  A    between atoms: C2_3  and  N1_4 
REMARK    4  A    between atoms: C3_5  and  C4_6 
REMARK    5  A    between atoms: N2_10  and  O2_11 
ROOT
HETATM    1  N1  UNL     1      -2.576   3.050  11.658  1.00  0.00    -0.273 N 
HETATM    2  C3  UNL     1      -1.958   4.037  12.277  1.00  0.00     0.190 A 
HETATM    3  N2  UNL     1      -0.679   4.045  11.800  1.00  0.00    -0.142 N 
HETATM    4  N3  UNL     1      -0.533   3.102  10.930  1.00  0.00    -0.223 N 
ATOM      5  H3  UNL     1       0.320   2.882  10.416  1.00  0.00     0.194 HD
HETATM    6  C5  UNL     1      -1.686   2.477  10.826  1.00  0.00     0.345 A 
HETATM    7  O3  UNL     1      -1.914   1.481  10.052  1.00  0.00    -0.245 OA
ENDROOT
BRANCH   1   8
HETATM    8  C2  UNL     1      -3.926   2.618  11.796  1.00  0.00     0.219 C 
BRANCH   8   9
HETATM    9  C1  UNL     1      -4.115   1.429  12.659  1.00  0.00     0.177 C 
HETATM   10  O1  UNL     1      -3.816   0.310  12.217  1.00  0.00    -0.291 OA
BRANCH   9  11
HETATM   11  C6  UNL     1      -4.641   1.597  13.995  1.00  0.00     0.011 A 
HETATM   12  C7  UNL     1      -4.350   0.685  15.001  1.00  0.00     0.017 A 
HETATM   13  C8  UNL     1      -4.853   0.813  16.275  1.00  0.00     0.025 A 
HETATM   14  C9  UNL     1      -5.686   1.881  16.601  1.00  0.00     0.034 A 
HETATM   15 CL4  UNL     1      -6.285   1.964  18.251  1.00  0.00    -0.084 Cl
HETATM   16  C10 UNL     1      -5.991   2.795  15.631  1.00  0.00     0.025 A 
HETATM   17  C11 UNL     1      -5.472   2.646  14.357  1.00  0.00     0.017 A 
ENDBRANCH   9  11
ENDBRANCH   8   9
ENDBRANCH   1   8
BRANCH   2  18
HETATM   18  C4  UNL     1      -2.383   5.020  13.270  1.00  0.00     0.251 C 
HETATM   19 CL1  UNL     1      -4.088   5.475  12.860  1.00  0.00    -0.075 Cl
HETATM   20 CL2  UNL     1      -2.523   4.263  14.906  1.00  0.00    -0.075 Cl
HETATM   21 CL3  UNL     1      -1.519   6.524  13.341  1.00  0.00    -0.075 Cl
ENDBRANCH   2  18
BRANCH   3  22
HETATM   22  O2  UNL     1       0.350   4.905  12.155  1.00  0.00    -0.266 OA
ATOM     23  H2  UNL     1       0.517   5.777  11.818  1.00  0.00     0.247 HD
ENDBRANCH   3  22
TORSDOF 5
ENDMDL
MODEL 3
REMARK VINA RESULT: -6.819086659      2.355      3.575
REMARK  5 active torsions:
REMARK  status: ('A' for Active; 'I' for Inactive)
REMARK    1  A    between atoms: C1_2  and  C2_3 
REMARK    2  A    between atoms: C1_2  and  C6_17 
REMARK    3  A    between atoms: C2_3  and  N1_4 
REMARK    4  A    between atoms: C3_5  and  C4_6 
REMARK    5  A    between atoms: N2_10  and  O2_11 
ROOT
HETATM    1  N1  UNL     1      -2.560   2.847  11.579  1.00  0.00    -0.273 N 
HETATM    2  C3  UNL     1      -2.002   3.856  12.219  1.00  0.00     0.190 A 
HETATM    3  N2  UNL     1      -0.715   3.929  11.769  1.00  0.00    -0.142 N 
HETATM    4  N3  UNL     1      -0.508   3.001  10.894  1.00  0.00    -0.223 N 
ATOM      5  H3  UNL     1       0.365   2.827  10.397  1.00  0.00     0.194 HD
HETATM    6  C5  UNL     1      -1.627   2.324  10.761  1.00  0.00     0.345 A 
HETATM    7  O3  UNL     1      -1.792   1.326   9.973  1.00  0.00    -0.245 OA
ENDROOT
BRANCH   1   8
HETATM    8  C2  UNL     1      -3.890   2.350  11.685  1.00  0.00     0.219 C 
BRANCH   8   9
HETATM    9  C1  UNL     1      -4.056   1.203  12.607  1.00  0.00     0.177 C 
HETATM   10  O1  UNL     1      -3.745   0.067  12.218  1.00  0.00    -0.291 OA
BRANCH   9  11
HETATM   11  C6  UNL     1      -4.575   1.429  13.938  1.00  0.00     0.011 A 
HETATM   12  C7  UNL     1      -4.349   0.519  14.960  1.00  0.00     0.017 A 
HETATM   13  C8  UNL     1      -4.848   0.703  16.230  1.00  0.00     0.025 A 
HETATM   14  C9  UNL     1      -5.608   1.829  16.533  1.00  0.00     0.034 A 
HETATM   15 CL4  UNL     1      -6.207   1.982  18.178  1.00  0.00    -0.084 Cl
HETATM   16  C10 UNL     1      -5.847   2.744  15.546  1.00  0.00     0.025 A 
HETATM   17  C11 UNL     1      -5.335   2.538  14.277  1.00  0.00     0.017 A 
ENDBRANCH   9  11
ENDBRANCH   8   9
ENDBRANCH   1   8
BRANCH   2  18
HETATM   18  C4  UNL     1      -2.494   4.808  13.211  1.00  0.00     0.251 C 
HETATM   19 CL1  UNL     1      -1.446   6.280  13.089  1.00  0.00    -0.075 Cl
HETATM   20 CL2  UNL     1      -4.137   5.414  12.762  1.00  0.00    -0.075 Cl
HETATM   21 CL3  UNL     1      -2.426   4.343  14.882  1.00  0.00    -0.075 Cl
ENDBRANCH   2  18
BRANCH   3  22
HETATM   22  O2  UNL     1       0.264   4.833  12.153  1.00  0.00    -0.266 OA
ATOM     23  H2  UNL     1       0.755   5.424  11.596  1.00  0.00     0.247 HD
ENDBRANCH   3  22
TORSDOF 5
ENDMDL
MODEL 4
REMARK VINA RESULT: -6.817048348      3.185      4.936
REMARK  5 active torsions:
REMARK  status: ('A' for Active; 'I' for Inactive)
REMARK    1  A    between atoms: C1_2  and  C2_3 
REMARK    2  A    between atoms: C1_2  and  C6_17 
REMARK    3  A    between atoms: C2_3  and  N1_4 
REMARK    4  A    between atoms: C3_5  and  C4_6 
REMARK    5  A    between atoms: N2_10  and  O2_11 
ROOT
HETATM    1  N1  UNL     1      -4.423   1.550  12.384  1.00  0.00    -0.273 N 
HETATM    2  C3  UNL     1      -4.528   1.417  13.693  1.00  0.00     0.190 A 
HETATM    3  N2  UNL     1      -4.299   0.099  13.962  1.00  0.00    -0.142 N 
HETATM    4  N3  UNL     1      -4.065  -0.535  12.862  1.00  0.00    -0.223 N 
ATOM      5  H3  UNL     1      -3.862  -1.531  12.771  1.00  0.00     0.194 HD
HETATM    6  C5  UNL     1      -4.137   0.336  11.879  1.00  0.00     0.345 A 
HETATM    7  O3  UNL     1      -3.959   0.060  10.639  1.00  0.00    -0.245 OA
ENDROOT
BRANCH   1   8
HETATM    8  C2  UNL     1      -4.573   2.724  11.592  1.00  0.00     0.219 C 
BRANCH   8   9
HETATM    9  C1  UNL     1      -3.310   3.435  11.286  1.00  0.00     0.177 C 
HETATM   10  O1  UNL     1      -2.616   3.046  10.335  1.00  0.00    -0.291 OA
BRANCH   9  11
HETATM   11  C6  UNL     1      -2.914   4.564  12.097  1.00  0.00     0.011 A 
HETATM   12  C7  UNL     1      -2.092   4.400  13.203  1.00  0.00     0.017 A 
HETATM   13  C8  UNL     1      -1.717   5.457  14.001  1.00  0.00     0.025 A 
HETATM   14  C9  UNL     1      -2.158   6.747  13.718  1.00  0.00     0.034 A 
HETATM   15 CL4  UNL     1      -1.632   8.035  14.791  1.00  0.00    -0.084 Cl
HETATM   16  C10 UNL     1      -2.969   6.940  12.634  1.00  0.00     0.025 A 
HETATM   17  C11 UNL     1      -3.333   5.862  11.846  1.00  0.00     0.017 A 
ENDBRANCH   9  11
ENDBRANCH   8   9
ENDBRANCH   1   8
BRANCH   2  18
HETATM   18  C4  UNL     1      -4.806   2.357  14.776  1.00  0.00     0.251 C 
HETATM   19 CL1  UNL     1      -6.036   1.571  15.848  1.00  0.00    -0.075 Cl
HETATM   20 CL2  UNL     1      -3.363   2.548  15.848  1.00  0.00    -0.075 Cl
HETATM   21 CL3  UNL     1      -5.491   3.896  14.355  1.00  0.00    -0.075 Cl
ENDBRANCH   2  18
BRANCH   3  22
HETATM   22  O2  UNL     1      -4.303  -0.522  15.202  1.00  0.00    -0.266 OA
ATOM     23  H2  UNL     1      -4.545  -1.419  15.399  1.00  0.00     0.247 HD
ENDBRANCH   3  22
TORSDOF 5
ENDMDL
MODEL 5
REMARK VINA RESULT: -6.812864203      2.384      3.542
REMARK  5 active torsions:
REMARK  status: ('A' for Active; 'I' for Inactive)
REMARK    1  A    between atoms: C1_2  and  C2_3 
REMARK    2  A    between atoms: C1_2  and  C6_17 
REMARK    3  A    between atoms: C2_3  and  N1_4 
REMARK    4  A    between atoms: C3_5  and  C4_6 
REMARK    5  A    between atoms: N2_10  and  O2_11 
ROOT
HETATM    1  N1  UNL     1      -2.630   2.997  11.661  1.00  0.00    -0.273 N 
HETATM    2  C3  UNL     1      -2.075   4.020  12.282  1.00  0.00     0.190 A 
HETATM    3  N2  UNL     1      -0.778   4.064  11.860  1.00  0.00    -0.142 N 
HETATM    4  N3  UNL     1      -0.561   3.107  11.020  1.00  0.00    -0.223 N 
ATOM      5  H3  UNL     1       0.321   2.907  10.549  1.00  0.00     0.194 HD
HETATM    6  C5  UNL     1      -1.685   2.438  10.882  1.00  0.00     0.345 A 
HETATM    7  O3  UNL     1      -1.843   1.417  10.123  1.00  0.00    -0.245 OA
ENDROOT
BRANCH   1   8
HETATM    8  C2  UNL     1      -3.968   2.518  11.751  1.00  0.00     0.219 C 
BRANCH   8   9
HETATM    9  C1  UNL     1      -4.153   1.345  12.637  1.00  0.00     0.177 C 
HETATM   10  O1  UNL     1      -3.870   0.217  12.208  1.00  0.00    -0.291 OA
BRANCH   9  11
HETATM   11  C6  UNL     1      -4.657   1.538  13.978  1.00  0.00     0.011 A 
HETATM   12  C7  UNL     1      -4.364   0.637  14.992  1.00  0.00     0.017 A 
HETATM   13  C8  UNL     1      -4.847   0.789  16.271  1.00  0.00     0.025 A 
HETATM   14  C9  UNL     1      -5.659   1.873  16.595  1.00  0.00     0.034 A 
HETATM   15 CL4  UNL     1      -6.233   1.988  18.252  1.00  0.00    -0.084 Cl
HETATM   16  C10 UNL     1      -5.965   2.778  15.617  1.00  0.00     0.025 A 
HETATM   17  C11 UNL     1      -5.468   2.604  14.338  1.00  0.00     0.017 A 
ENDBRANCH   9  11
ENDBRANCH   8   9
ENDBRANCH   1   8
BRANCH   2  18
HETATM   18  C4  UNL     1      -2.579   5.009  13.232  1.00  0.00     0.251 C 
HETATM   19 CL1  UNL     1      -2.437   4.272  14.880  1.00  0.00    -0.075 Cl
HETATM   20 CL2  UNL     1      -1.482   6.444  13.308  1.00  0.00    -0.075 Cl
HETATM   21 CL3  UNL     1      -4.241   5.490  13.093  1.00  0.00    -0.075 Cl
ENDBRANCH   2  18
BRANCH   3  22
HETATM   22  O2  UNL     1       0.203   4.969  12.238  1.00  0.00    -0.266 OA
ATOM     23  H2  UNL     1       0.759   4.931  13.007  1.00  0.00     0.247 HD
ENDBRANCH   3  22
TORSDOF 5
ENDMDL
