MODEL 1
REMARK VINA RESULT: -7.788398267      0.000      0.000
REMARK  4 active torsions:
REMARK  status: ('A' for Active; 'I' for Inactive)
REMARK    1  A    between atoms: C2_3  and  N2_4 
REMARK    2  A    between atoms: C5_7  and  N3_8 
REMARK    3  A    between atoms: N3_8  and  C6_10 
REMARK    4  A    between atoms: C8_13  and  C9_14 
ROOT
HETATM    1  N2  UNL     1      -3.058   4.172  11.952  1.00  0.00    -0.345 N 
HETATM    2  C3  UNL     1      -3.991   3.904  10.933  1.00  0.00     0.068 C 
HETATM    3  C4  UNL     1      -4.547   2.511  11.093  1.00  0.00     0.071 C 
HETATM    4  C5  UNL     1      -3.537   1.816  11.949  1.00  0.00     0.100 C 
HETATM    5  C11 UNL     1      -2.529   2.847  12.347  1.00  0.00     0.154 C 
ENDROOT
BRANCH   4   6
HETATM    6  N3  UNL     1      -4.070   1.115  13.042  1.00  0.00    -0.409 N 
ATOM      7  H3  UNL     1      -4.222   0.111  12.946  1.00  0.00     0.154 HD
BRANCH   6   8
HETATM    8  C6  UNL     1      -4.397   1.714  14.235  1.00  0.00     0.103 C 
HETATM    9  C7  UNL     1      -5.490   2.692  14.372  1.00  0.00     0.193 C 
HETATM   10  O1  UNL     1      -5.725   2.820  15.747  1.00  0.00    -0.375 OA
HETATM   11  C8  UNL     1      -5.133   1.798  16.422  1.00  0.00     0.230 C 
HETATM   12  C10 UNL     1      -4.672   0.781  15.402  1.00  0.00     0.068 C 
BRANCH  11  13
HETATM   13  C9  UNL     1      -6.090   1.102  17.383  1.00  0.00     0.413 C 
HETATM   14  F1  UNL     1      -6.225   1.837  18.528  1.00  0.00    -0.168 F 
HETATM   15  F2  UNL     1      -7.350   1.168  16.751  1.00  0.00    -0.168 F 
HETATM   16  F3  UNL     1      -5.822  -0.217  17.554  1.00  0.00    -0.168 F 
ENDBRANCH  11  13
ENDBRANCH   6   8
ENDBRANCH   4   6
BRANCH   1  17
HETATM   17  C2  UNL     1      -2.546   5.324  12.592  1.00  0.00     0.111 A 
HETATM   18  N1  UNL     1      -1.647   6.094  11.983  1.00  0.00    -0.303 N 
HETATM   19  C1  UNL     1      -1.154   5.731  10.685  1.00  0.00     0.161 C 
HETATM   20  C15 UNL     1      -1.169   7.220  12.605  1.00  0.00     0.270 A 
HETATM   21  C14 UNL     1      -1.598   7.589  13.866  1.00  0.00     0.102 A 
HETATM   22  O2  UNL     1      -0.322   7.913  11.995  1.00  0.00    -0.266 OA
HETATM   23  C13 UNL     1      -2.526   6.805  14.502  1.00  0.00     0.033 A 
HETATM   24 CL1  UNL     1      -1.005   9.016  14.685  1.00  0.00    -0.078 Cl
HETATM   25  C12 UNL     1      -2.999   5.681  13.876  1.00  0.00     0.051 A 
ENDBRANCH   1  17
TORSDOF 4
ENDMDL
MODEL 2
REMARK VINA RESULT: -7.702508300      3.329      4.040
REMARK  4 active torsions:
REMARK  status: ('A' for Active; 'I' for Inactive)
REMARK    1  A    between atoms: C2_3  and  N2_4 
REMARK    2  A    between atoms: C5_7  and  N3_8 
REMARK    3  A    between atoms: N3_8  and  C6_10 
REMARK    4  A    between atoms: C8_13  and  C9_14 
ROOT
HETATM    1  N2  UNL     1      -4.356   6.116  12.463  1.00  0.00    -0.345 N 
HETATM    2  C3  UNL     1      -3.108   6.428  13.032  1.00  0.00     0.068 C 
HETATM    3  C4  UNL     1      -2.616   5.272  13.867  1.00  0.00     0.071 C 
HETATM    4  C5  UNL     1      -3.853   4.482  14.153  1.00  0.00     0.100 C 
HETATM    5  C11 UNL     1      -4.961   5.126  13.382  1.00  0.00     0.154 C 
ENDROOT
BRANCH   4   6
HETATM    6  N3  UNL     1      -3.743   3.103  13.914  1.00  0.00    -0.409 N 
ATOM      7  H3  UNL     1      -3.284   2.795  13.056  1.00  0.00     0.154 HD
BRANCH   6   8
HETATM    8  C6  UNL     1      -4.223   2.147  14.777  1.00  0.00     0.103 C 
HETATM    9  C7  UNL     1      -3.518   1.748  16.008  1.00  0.00     0.193 C 
HETATM   10  O1  UNL     1      -4.445   1.021  16.765  1.00  0.00    -0.375 OA
HETATM   11  C8  UNL     1      -5.703   1.221  16.288  1.00  0.00     0.230 C 
HETATM   12  C10 UNL     1      -5.639   2.354  15.288  1.00  0.00     0.068 C 
BRANCH  11  13
HETATM   13  C9  UNL     1      -6.688   1.614  17.383  1.00  0.00     0.413 C 
HETATM   14  F1  UNL     1      -6.030   1.779  18.570  1.00  0.00    -0.168 F 
HETATM   15  F2  UNL     1      -7.134   2.903  17.024  1.00  0.00    -0.168 F 
HETATM   16  F3  UNL     1      -7.795   0.830  17.424  1.00  0.00    -0.168 F 
ENDBRANCH  11  13
ENDBRANCH   6   8
ENDBRANCH   4   6
BRANCH   1  17
HETATM   17  C2  UNL     1      -5.096   6.530  11.331  1.00  0.00     0.111 A 
HETATM   18  N1  UNL     1      -4.742   6.137  10.109  1.00  0.00    -0.303 N 
HETATM   19  C1  UNL     1      -3.574   5.324   9.928  1.00  0.00     0.161 C 
HETATM   20  C15 UNL     1      -5.478   6.529   9.018  1.00  0.00     0.270 A 
HETATM   21  C14 UNL     1      -6.594   7.334   9.148  1.00  0.00     0.102 A 
HETATM   22  O2  UNL     1      -5.106   6.137   7.888  1.00  0.00    -0.266 OA
HETATM   23  C13 UNL     1      -6.969   7.743  10.402  1.00  0.00     0.033 A 
HETATM   24 CL1  UNL     1      -7.548   7.852   7.777  1.00  0.00    -0.078 Cl
HETATM   25  C12 UNL     1      -6.230   7.349  11.488  1.00  0.00     0.051 A 
ENDBRANCH   1  17
TORSDOF 4
ENDMDL
MODEL 3
REMARK VINA RESULT: -7.550229088      4.347      5.449
REMARK  4 active torsions:
REMARK  status: ('A' for Active; 'I' for Inactive)
REMARK    1  A    between atoms: C2_3  and  N2_4 
REMARK    2  A    between atoms: C5_7  and  N3_8 
REMARK    3  A    between atoms: N3_8  and  C6_10 
REMARK    4  A    between atoms: C8_13  and  C9_14 
ROOT
HETATM    1  N2  UNL     1      -4.064   6.493  12.182  1.00  0.00    -0.345 N 
HETATM    2  C3  UNL     1      -2.821   7.002  12.602  1.00  0.00     0.068 C 
HETATM    3  C4  UNL     1      -2.054   5.940  13.351  1.00  0.00     0.071 C 
HETATM    4  C5  UNL     1      -3.105   4.962  13.769  1.00  0.00     0.100 C 
HETATM    5  C11 UNL     1      -4.387   5.420  13.149  1.00  0.00     0.154 C 
ENDROOT
BRANCH   4   6
HETATM    6  N3  UNL     1      -2.807   3.619  13.493  1.00  0.00    -0.409 N 
ATOM      7  H3  UNL     1      -2.293   3.083  14.192  1.00  0.00     0.154 HD
BRANCH   6   8
HETATM    8  C6  UNL     1      -3.173   2.989  12.327  1.00  0.00     0.103 C 
HETATM    9  C7  UNL     1      -2.204   2.578  11.296  1.00  0.00     0.193 C 
HETATM   10  O1  UNL     1      -2.892   1.703  10.445  1.00  0.00    -0.375 OA
HETATM   11  C8  UNL     1      -4.049   1.291  11.031  1.00  0.00     0.230 C 
HETATM   12  C10 UNL     1      -4.014   1.733  12.477  1.00  0.00     0.068 C 
BRANCH  11  13
HETATM   13  C9  UNL     1      -4.208  -0.225  11.005  1.00  0.00     0.413 C 
HETATM   14  F1  UNL     1      -5.201  -0.579  10.134  1.00  0.00    -0.168 F 
HETATM   15  F2  UNL     1      -3.016  -0.705  10.422  1.00  0.00    -0.168 F 
HETATM   16  F3  UNL     1      -4.276  -0.784  12.239  1.00  0.00    -0.168 F 
ENDBRANCH  11  13
ENDBRANCH   6   8
ENDBRANCH   4   6
BRANCH   1  17
HETATM   17  C2  UNL     1      -4.992   6.782  11.156  1.00  0.00     0.111 A 
HETATM   18  N1  UNL     1      -4.763   6.390   9.904  1.00  0.00    -0.303 N 
HETATM   19  C1  UNL     1      -3.543   5.710   9.578  1.00  0.00     0.161 C 
HETATM   20  C15 UNL     1      -5.680   6.659   8.918  1.00  0.00     0.270 A 
HETATM   21  C14 UNL     1      -6.855   7.336   9.187  1.00  0.00     0.102 A 
HETATM   22  O2  UNL     1      -5.420   6.274   7.755  1.00  0.00    -0.266 OA
HETATM   23  C13 UNL     1      -7.103   7.742  10.472  1.00  0.00     0.033 A 
HETATM   24 CL1  UNL     1      -8.039   7.696   7.950  1.00  0.00    -0.078 Cl
HETATM   25  C12 UNL     1      -6.184   7.471  11.453  1.00  0.00     0.051 A 
ENDBRANCH   1  17
TORSDOF 4
ENDMDL
MODEL 4
REMARK VINA RESULT: -7.532088484      1.886      2.373
REMARK  4 active torsions:
REMARK  status: ('A' for Active; 'I' for Inactive)
REMARK    1  A    between atoms: C2_3  and  N2_4 
REMARK    2  A    between atoms: C5_7  and  N3_8 
REMARK    3  A    between atoms: N3_8  and  C6_10 
REMARK    4  A    between atoms: C8_13  and  C9_14 
ROOT
HETATM    1  N2  UNL     1      -2.475   6.570  13.184  1.00  0.00    -0.345 N 
HETATM    2  C3  UNL     1      -3.413   6.500  12.137  1.00  0.00     0.068 C 
HETATM    3  C4  UNL     1      -4.378   5.367  12.382  1.00  0.00     0.071 C 
HETATM    4  C5  UNL     1      -3.661   4.486  13.354  1.00  0.00     0.100 C 
HETATM    5  C11 UNL     1      -2.395   5.194  13.722  1.00  0.00     0.154 C 
ENDROOT
BRANCH   4   6
HETATM    6  N3  UNL     1      -4.418   4.094  14.469  1.00  0.00    -0.409 N 
ATOM      7  H3  UNL     1      -4.983   4.800  14.942  1.00  0.00     0.154 HD
BRANCH   6   8
HETATM    8  C6  UNL     1      -4.437   2.808  14.954  1.00  0.00     0.103 C 
HETATM    9  C7  UNL     1      -3.396   2.270  15.847  1.00  0.00     0.193 C 
HETATM   10  O1  UNL     1      -3.917   1.082  16.375  1.00  0.00    -0.375 OA
HETATM   11  C8  UNL     1      -5.259   1.021  16.162  1.00  0.00     0.230 C 
HETATM   12  C10 UNL     1      -5.707   2.378  15.668  1.00  0.00     0.068 C 
BRANCH  11  13
HETATM   13  C9  UNL     1      -6.038   0.701  17.433  1.00  0.00     0.413 C 
HETATM   14  F1  UNL     1      -5.841   1.682  18.365  1.00  0.00    -0.168 F 
HETATM   15  F2  UNL     1      -7.395   0.808  17.063  1.00  0.00    -0.168 F 
HETATM   16  F3  UNL     1      -5.865  -0.572  17.869  1.00  0.00    -0.168 F 
ENDBRANCH  11  13
ENDBRANCH   6   8
ENDBRANCH   4   6
BRANCH   1  17
HETATM   17  C2  UNL     1      -1.651   7.569  13.753  1.00  0.00     0.111 A 
HETATM   18  N1  UNL     1      -0.597   8.036  13.089  1.00  0.00    -0.303 N 
HETATM   19  C1  UNL     1      -0.260   7.494  11.804  1.00  0.00     0.161 C 
HETATM   20  C15 UNL     1       0.187   9.018  13.643  1.00  0.00     0.270 A 
HETATM   21  C14 UNL     1      -0.088   9.548  14.890  1.00  0.00     0.102 A 
HETATM   22  O2  UNL     1       1.171   9.426  12.982  1.00  0.00    -0.266 OA
HETATM   23  C13 UNL     1      -1.173   9.076  15.582  1.00  0.00     0.033 A 
HETATM   24 CL1  UNL     1       0.894  10.797  15.621  1.00  0.00    -0.078 Cl
HETATM   25  C12 UNL     1      -1.951   8.095  15.024  1.00  0.00     0.051 A 
ENDBRANCH   1  17
TORSDOF 4
ENDMDL
MODEL 5
REMARK VINA RESULT: -7.272176352      5.537      7.898
REMARK  4 active torsions:
REMARK  status: ('A' for Active; 'I' for Inactive)
REMARK    1  A    between atoms: C2_3  and  N2_4 
REMARK    2  A    between atoms: C5_7  and  N3_8 
REMARK    3  A    between atoms: N3_8  and  C6_10 
REMARK    4  A    between atoms: C8_13  and  C9_14 
ROOT
HETATM    1  N2  UNL     1      -2.694   4.335  11.922  1.00  0.00    -0.345 N 
HETATM    2  C3  UNL     1      -2.202   5.226  12.893  1.00  0.00     0.068 C 
HETATM    3  C4  UNL     1      -2.972   6.523  12.844  1.00  0.00     0.071 C 
HETATM    4  C5  UNL     1      -3.594   6.521  11.485  1.00  0.00     0.100 C 
HETATM    5  C11 UNL     1      -3.272   5.197  10.867  1.00  0.00     0.154 C 
ENDROOT
BRANCH   4   6
HETATM    6  N3  UNL     1      -4.965   6.823  11.460  1.00  0.00    -0.409 N 
ATOM      7  H3  UNL     1      -5.567   6.395  12.163  1.00  0.00     0.154 HD
BRANCH   6   8
HETATM    8  C6  UNL     1      -5.535   7.666  10.536  1.00  0.00     0.103 C 
HETATM    9  C7  UNL     1      -4.888   8.018   9.261  1.00  0.00     0.193 C 
HETATM   10  O1  UNL     1      -5.883   8.607   8.471  1.00  0.00    -0.375 OA
HETATM   11  C8  UNL     1      -7.112   8.350   8.995  1.00  0.00     0.230 C 
HETATM   12  C10 UNL     1      -6.940   7.310  10.080  1.00  0.00     0.068 C 
BRANCH  11  13
HETATM   13  C9  UNL     1      -8.083   7.795   7.960  1.00  0.00     0.413 C 
HETATM   14  F1  UNL     1      -7.924   8.447   6.768  1.00  0.00    -0.168 F 
HETATM   15  F2  UNL     1      -7.644   6.475   7.721  1.00  0.00    -0.168 F 
HETATM   16  F3  UNL     1      -9.358   7.691   8.412  1.00  0.00    -0.168 F 
ENDBRANCH  11  13
ENDBRANCH   6   8
ENDBRANCH   4   6
BRANCH   1  17
HETATM   17  C2  UNL     1      -2.721   2.933  11.741  1.00  0.00     0.111 A 
HETATM   18  N1  UNL     1      -3.622   2.185  12.375  1.00  0.00    -0.303 N 
HETATM   19  C1  UNL     1      -4.546   2.795  13.288  1.00  0.00     0.161 C 
HETATM   20  C15 UNL     1      -3.652   0.827  12.179  1.00  0.00     0.270 A 
HETATM   21  C14 UNL     1      -2.761   0.198  11.329  1.00  0.00     0.102 A 
HETATM   22  O2  UNL     1      -4.515   0.163  12.799  1.00  0.00    -0.266 OA
HETATM   23  C13 UNL     1      -1.831   0.958  10.669  1.00  0.00     0.033 A 
HETATM   24 CL1  UNL     1      -2.773  -1.531  11.063  1.00  0.00    -0.078 Cl
HETATM   25  C12 UNL     1      -1.805   2.314  10.869  1.00  0.00     0.051 A 
ENDBRANCH   1  17
TORSDOF 4
ENDMDL
