MODEL 1
REMARK VINA RESULT: -6.836838124      0.000      0.000
REMARK  6 active torsions:
REMARK  status: ('A' for Active; 'I' for Inactive)
REMARK    1  A    between atoms: C2_2  and  O1_3 
REMARK    2  A    between atoms: O1_3  and  C3_4 
REMARK    3  A    between atoms: C3_4  and  C4_6 
REMARK    4  A    between atoms: C4_6  and  O3_7 
REMARK    5  A    between atoms: N1_10  and  C6_11 
REMARK    6  A    between atoms: C7_14  and  C9_16 
ROOT
HETATM    1  C4  UNL     1      -3.924   1.901  11.369  1.00  0.00     0.180 C 
HETATM    2  C5  UNL     1      -3.645   3.128  10.535  1.00  0.00     0.174 C 
HETATM    3  N1  UNL     1      -4.148   4.227  11.335  1.00  0.00    -0.361 N 
HETATM    4  C12 UNL     1      -4.463   3.777  12.676  1.00  0.00     0.103 C 
HETATM    5  C13 UNL     1      -3.987   4.753  13.727  1.00  0.00     0.034 C 
HETATM    6  C14 UNL     1      -3.795   2.444  12.779  1.00  0.00     0.151 C 
HETATM    7 CL1  UNL     1      -4.570   1.373  13.958  1.00  0.00    -0.119 Cl
ENDROOT
BRANCH   3   8
HETATM    8  C6  UNL     1      -4.342   5.602  10.938  1.00  0.00     0.076 C 
HETATM    9  N2  UNL     1      -5.391   6.093  10.391  1.00  0.00    -0.363 N 
HETATM   10  C7  UNL     1      -5.336   7.477  10.094  1.00  0.00     0.126 C 
ATOM     11  H2  UNL     1      -6.212   5.525  10.182  1.00  0.00     0.162 HD
HETATM   12  C8  UNL     1      -5.104   7.779   8.622  1.00  0.00     0.048 C 
HETATM   13  C10 UNL     1      -4.131   7.966  10.870  1.00  0.00     0.047 C 
HETATM   14  C11 UNL     1      -3.362   6.706  11.088  1.00  0.00     0.079 C 
BRANCH  10  15
HETATM   15  C9  UNL     1      -6.540   8.257  10.550  1.00  0.00     0.412 C 
HETATM   16  F1  UNL     1      -7.043   7.805  11.742  1.00  0.00    -0.168 F 
HETATM   17  F2  UNL     1      -7.539   8.216   9.584  1.00  0.00    -0.168 F 
HETATM   18  F3  UNL     1      -6.176   9.583  10.702  1.00  0.00    -0.168 F 
ENDBRANCH  10  15
ENDBRANCH   3   8
BRANCH   1  19
HETATM   19  C3  UNL     1      -2.861   0.871  11.224  1.00  0.00     0.297 C 
HETATM   20  O2  UNL     1      -1.680   1.213  11.493  1.00  0.00    -0.262 OA
BRANCH  19  21
HETATM   21  O1  UNL     1      -3.068  -0.421  10.821  1.00  0.00    -0.319 OA
BRANCH  21  22
HETATM   22  C2  UNL     1      -3.503  -1.483  11.597  1.00  0.00     0.174 C 
HETATM   23  C1  UNL     1      -2.873  -2.802  11.281  1.00  0.00     0.034 C 
ENDBRANCH  21  22
ENDBRANCH  19  21
ENDBRANCH   1  19
BRANCH   1  24
HETATM   24  O3  UNL     1      -5.183   1.379  11.117  1.00  0.00    -0.376 OA
ATOM     25  H3  UNL     1      -5.839   1.748  11.696  1.00  0.00     0.211 HD
ENDBRANCH   1  24
TORSDOF 6
ENDMDL
MODEL 2
REMARK VINA RESULT: -6.709313538      4.372      5.404
REMARK  6 active torsions:
REMARK  status: ('A' for Active; 'I' for Inactive)
REMARK    1  A    between atoms: C2_2  and  O1_3 
REMARK    2  A    between atoms: O1_3  and  C3_4 
REMARK    3  A    between atoms: C3_4  and  C4_6 
REMARK    4  A    between atoms: C4_6  and  O3_7 
REMARK    5  A    between atoms: N1_10  and  C6_11 
REMARK    6  A    between atoms: C7_14  and  C9_16 
ROOT
HETATM    1  C4  UNL     1      -4.920   2.393  14.302  1.00  0.00     0.180 C 
HETATM    2  C5  UNL     1      -3.845   2.244  13.253  1.00  0.00     0.174 C 
HETATM    3  N1  UNL     1      -3.656   3.587  12.741  1.00  0.00    -0.361 N 
HETATM    4  C12 UNL     1      -4.342   4.551  13.577  1.00  0.00     0.103 C 
HETATM    5  C13 UNL     1      -3.499   5.778  13.835  1.00  0.00     0.034 C 
HETATM    6  C14 UNL     1      -4.658   3.792  14.825  1.00  0.00     0.151 C 
HETATM    7 CL1  UNL     1      -6.065   4.435  15.688  1.00  0.00    -0.119 Cl
ENDROOT
BRANCH   3   8
HETATM    8  C6  UNL     1      -2.910   3.998  11.574  1.00  0.00     0.076 C 
HETATM    9  N2  UNL     1      -1.678   3.743  11.333  1.00  0.00    -0.363 N 
HETATM   10  C7  UNL     1      -1.174   4.259  10.115  1.00  0.00     0.126 C 
ATOM     11  H2  UNL     1      -1.098   3.204  11.976  1.00  0.00     0.162 HD
HETATM   12  C8  UNL     1      -0.308   5.498  10.285  1.00  0.00     0.048 C 
HETATM   13  C10 UNL     1      -2.417   4.659   9.348  1.00  0.00     0.047 C 
HETATM   14  C11 UNL     1      -3.430   4.794  10.435  1.00  0.00     0.079 C 
BRANCH  10  15
HETATM   15  C9  UNL     1      -0.408   3.261   9.287  1.00  0.00     0.412 C 
HETATM   16  F1  UNL     1       0.936   3.275   9.553  1.00  0.00    -0.168 F 
HETATM   17  F2  UNL     1      -0.612   3.496   7.933  1.00  0.00    -0.168 F 
HETATM   18  F3  UNL     1      -0.897   1.996   9.557  1.00  0.00    -0.168 F 
ENDBRANCH  10  15
ENDBRANCH   3   8
BRANCH   1  19
HETATM   19  C3  UNL     1      -4.712   1.475  15.454  1.00  0.00     0.297 C 
HETATM   20  O2  UNL     1      -3.579   1.478  16.001  1.00  0.00    -0.262 OA
BRANCH  19  21
HETATM   21  O1  UNL     1      -5.657   0.628  15.966  1.00  0.00    -0.319 OA
BRANCH  21  22
HETATM   22  C2  UNL     1      -6.667   0.940  16.862  1.00  0.00     0.174 C 
HETATM   23  C1  UNL     1      -6.228   1.690  18.079  1.00  0.00     0.034 C 
ENDBRANCH  21  22
ENDBRANCH  19  21
ENDBRANCH   1  19
BRANCH   1  24
HETATM   24  O3  UNL     1      -6.191   2.261  13.764  1.00  0.00    -0.376 OA
ATOM     25  H3  UNL     1      -6.791   2.908  14.115  1.00  0.00     0.211 HD
ENDBRANCH   1  24
TORSDOF 6
ENDMDL
MODEL 3
REMARK VINA RESULT: -6.602401072      4.529      5.538
REMARK  6 active torsions:
REMARK  status: ('A' for Active; 'I' for Inactive)
REMARK    1  A    between atoms: C2_2  and  O1_3 
REMARK    2  A    between atoms: O1_3  and  C3_4 
REMARK    3  A    between atoms: C3_4  and  C4_6 
REMARK    4  A    between atoms: C4_6  and  O3_7 
REMARK    5  A    between atoms: N1_10  and  C6_11 
REMARK    6  A    between atoms: C7_14  and  C9_16 
ROOT
HETATM    1  C4  UNL     1      -4.786   2.360  14.290  1.00  0.00     0.180 C 
HETATM    2  C5  UNL     1      -3.596   2.268  13.366  1.00  0.00     0.174 C 
HETATM    3  N1  UNL     1      -3.409   3.624  12.887  1.00  0.00    -0.361 N 
HETATM    4  C12 UNL     1      -4.224   4.548  13.649  1.00  0.00     0.103 C 
HETATM    5  C13 UNL     1      -3.466   5.806  14.007  1.00  0.00     0.034 C 
HETATM    6  C14 UNL     1      -4.642   3.762  14.849  1.00  0.00     0.151 C 
HETATM    7 CL1  UNL     1      -6.162   4.337  15.555  1.00  0.00    -0.119 Cl
ENDROOT
BRANCH   3   8
HETATM    8  C6  UNL     1      -2.557   4.079  11.813  1.00  0.00     0.076 C 
HETATM    9  N2  UNL     1      -1.279   4.003  11.774  1.00  0.00    -0.363 N 
HETATM   10  C7  UNL     1      -0.670   4.522  10.606  1.00  0.00     0.126 C 
ATOM     11  H2  UNL     1      -0.735   3.595  12.535  1.00  0.00     0.162 HD
HETATM   12  C8  UNL     1      -0.027   5.886  10.804  1.00  0.00     0.048 C 
HETATM   13  C10 UNL     1      -1.823   4.683   9.637  1.00  0.00     0.047 C 
HETATM   14  C11 UNL     1      -3.001   4.721  10.552  1.00  0.00     0.079 C 
BRANCH  10  15
HETATM   15  C9  UNL     1       0.349   3.608   9.979  1.00  0.00     0.412 C 
HETATM   16  F1  UNL     1      -0.002   2.287  10.064  1.00  0.00    -0.168 F 
HETATM   17  F2  UNL     1       1.593   3.792  10.570  1.00  0.00    -0.168 F 
HETATM   18  F3  UNL     1       0.481   3.943   8.644  1.00  0.00    -0.168 F 
ENDBRANCH  10  15
ENDBRANCH   3   8
BRANCH   1  19
HETATM   19  C3  UNL     1      -4.667   1.438  15.452  1.00  0.00     0.297 C 
HETATM   20  O2  UNL     1      -3.564   1.406  16.056  1.00  0.00    -0.262 OA
BRANCH  19  21
HETATM   21  O1  UNL     1      -5.664   0.623  15.913  1.00  0.00    -0.319 OA
BRANCH  21  22
HETATM   22  C2  UNL     1      -6.672   0.952  16.806  1.00  0.00     0.174 C 
HETATM   23  C1  UNL     1      -6.224   1.690  18.027  1.00  0.00     0.034 C 
ENDBRANCH  21  22
ENDBRANCH  19  21
ENDBRANCH   1  19
BRANCH   1  24
HETATM   24  O3  UNL     1      -5.983   2.182  13.614  1.00  0.00    -0.376 OA
ATOM     25  H3  UNL     1      -6.205   2.939  13.086  1.00  0.00     0.211 HD
ENDBRANCH   1  24
TORSDOF 6
ENDMDL
MODEL 4
REMARK VINA RESULT: -6.575508866      4.403      5.117
REMARK  6 active torsions:
REMARK  status: ('A' for Active; 'I' for Inactive)
REMARK    1  A    between atoms: C2_2  and  O1_3 
REMARK    2  A    between atoms: O1_3  and  C3_4 
REMARK    3  A    between atoms: C3_4  and  C4_6 
REMARK    4  A    between atoms: C4_6  and  O3_7 
REMARK    5  A    between atoms: N1_10  and  C6_11 
REMARK    6  A    between atoms: C7_14  and  C9_16 
ROOT
HETATM    1  C4  UNL     1      -4.052   1.941  12.454  1.00  0.00     0.180 C 
HETATM    2  C5  UNL     1      -2.720   2.201  11.793  1.00  0.00     0.174 C 
HETATM    3  N1  UNL     1      -2.426   3.585  12.109  1.00  0.00    -0.361 N 
HETATM    4  C12 UNL     1      -3.345   4.082  13.113  1.00  0.00     0.103 C 
HETATM    5  C13 UNL     1      -2.640   4.902  14.169  1.00  0.00     0.034 C 
HETATM    6  C14 UNL     1      -3.983   2.849  13.667  1.00  0.00     0.151 C 
HETATM    7 CL1  UNL     1      -5.592   3.149  14.343  1.00  0.00    -0.119 Cl
ENDROOT
BRANCH   3   8
HETATM    8  C6  UNL     1      -1.391   4.425  11.554  1.00  0.00     0.076 C 
HETATM    9  N2  UNL     1      -0.142   4.376  11.836  1.00  0.00    -0.363 N 
HETATM   10  C7  UNL     1       0.676   5.309  11.155  1.00  0.00     0.126 C 
ATOM     11  H2  UNL     1       0.238   3.707  12.507  1.00  0.00     0.162 HD
HETATM   12  C8  UNL     1       1.098   6.493  12.011  1.00  0.00     0.048 C 
HETATM   13  C10 UNL     1      -0.213   5.828  10.044  1.00  0.00     0.047 C 
HETATM   14  C11 UNL     1      -1.577   5.503  10.553  1.00  0.00     0.079 C 
BRANCH  10  15
HETATM   15  C9  UNL     1       1.912   4.715  10.533  1.00  0.00     0.412 C 
HETATM   16  F1  UNL     1       2.578   5.602   9.730  1.00  0.00    -0.168 F 
HETATM   17  F2  UNL     1       1.587   3.582   9.797  1.00  0.00    -0.168 F 
HETATM   18  F3  UNL     1       2.765   4.311  11.544  1.00  0.00    -0.168 F 
ENDBRANCH  10  15
ENDBRANCH   3   8
BRANCH   1  19
HETATM   19  C3  UNL     1      -4.156   0.555  12.982  1.00  0.00     0.297 C 
HETATM   20  O2  UNL     1      -4.017   0.393  14.222  1.00  0.00    -0.262 OA
BRANCH  19  21
HETATM   21  O1  UNL     1      -4.392  -0.559  12.223  1.00  0.00    -0.319 OA
BRANCH  21  22
HETATM   22  C2  UNL     1      -3.639  -1.023  11.156  1.00  0.00     0.174 C 
HETATM   23  C1  UNL     1      -2.915  -2.309  11.400  1.00  0.00     0.034 C 
ENDBRANCH  21  22
ENDBRANCH  19  21
ENDBRANCH   1  19
BRANCH   1  24
HETATM   24  O3  UNL     1      -5.114   2.254  11.620  1.00  0.00    -0.376 OA
ATOM     25  H3  UNL     1      -5.163   3.187  11.448  1.00  0.00     0.211 HD
ENDBRANCH   1  24
TORSDOF 6
ENDMDL
MODEL 5
REMARK VINA RESULT: -6.543131934      1.476      1.934
REMARK  6 active torsions:
REMARK  status: ('A' for Active; 'I' for Inactive)
REMARK    1  A    between atoms: C2_2  and  O1_3 
REMARK    2  A    between atoms: O1_3  and  C3_4 
REMARK    3  A    between atoms: C3_4  and  C4_6 
REMARK    4  A    between atoms: C4_6  and  O3_7 
REMARK    5  A    between atoms: N1_10  and  C6_11 
REMARK    6  A    between atoms: C7_14  and  C9_16 
ROOT
HETATM    1  C4  UNL     1      -3.675   1.908  11.620  1.00  0.00     0.180 C 
HETATM    2  C5  UNL     1      -4.627   3.044  11.332  1.00  0.00     0.174 C 
HETATM    3  N1  UNL     1      -3.765   4.142  10.937  1.00  0.00    -0.361 N 
HETATM    4  C12 UNL     1      -2.412   3.672  10.721  1.00  0.00     0.103 C 
HETATM    5  C13 UNL     1      -1.798   4.269   9.476  1.00  0.00     0.034 C 
HETATM    6  C14 UNL     1      -2.549   2.186  10.643  1.00  0.00     0.151 C 
HETATM    7 CL1  UNL     1      -1.068   1.331  11.104  1.00  0.00    -0.119 Cl
ENDROOT
BRANCH   3   8
HETATM    8  C6  UNL     1      -4.118   5.531  10.762  1.00  0.00     0.076 C 
HETATM    9  N2  UNL     1      -5.207   5.980  10.260  1.00  0.00    -0.363 N 
HETATM   10  C7  UNL     1      -5.316   7.390  10.195  1.00  0.00     0.126 C 
ATOM     11  H2  UNL     1      -5.948   5.361   9.928  1.00  0.00     0.162 HD
HETATM   12  C8  UNL     1      -5.092   7.959   8.802  1.00  0.00     0.048 C 
HETATM   13  C10 UNL     1      -4.196   7.881  11.088  1.00  0.00     0.047 C 
HETATM   14  C11 UNL     1      -3.284   6.702  11.129  1.00  0.00     0.079 C 
BRANCH  10  15
HETATM   15  C9  UNL     1      -6.616   7.937  10.722  1.00  0.00     0.412 C 
HETATM   16  F1  UNL     1      -6.995   7.353  11.902  1.00  0.00    -0.168 F 
HETATM   17  F2  UNL     1      -7.627   7.775   9.782  1.00  0.00    -0.168 F 
HETATM   18  F3  UNL     1      -6.471   9.296  10.932  1.00  0.00    -0.168 F 
ENDBRANCH  10  15
ENDBRANCH   3   8
BRANCH   1  19
HETATM   19  C3  UNL     1      -4.242   0.589  11.232  1.00  0.00     0.297 C 
HETATM   20  O2  UNL     1      -4.667   0.463  10.055  1.00  0.00    -0.262 OA
BRANCH  19  21
HETATM   21  O1  UNL     1      -4.337  -0.499  12.057  1.00  0.00    -0.319 OA
BRANCH  21  22
HETATM   22  C2  UNL     1      -3.973  -1.805  11.769  1.00  0.00     0.174 C 
HETATM   23  C1  UNL     1      -2.587  -1.976  11.236  1.00  0.00     0.034 C 
ENDBRANCH  21  22
ENDBRANCH  19  21
ENDBRANCH   1  19
BRANCH   1  24
HETATM   24  O3  UNL     1      -3.245   1.914  12.938  1.00  0.00    -0.376 OA
ATOM     25  H3  UNL     1      -3.481   2.721  13.381  1.00  0.00     0.211 HD
ENDBRANCH   1  24
TORSDOF 6
ENDMDL
