MODEL 1
REMARK VINA RESULT: -8.029265114      0.000      0.000
REMARK  4 active torsions:
REMARK  status: ('A' for Active; 'I' for Inactive)
REMARK    1  A    between atoms: C2_3  and  C3_4 
REMARK    2  A    between atoms: C9_13  and  C10_14 
REMARK       I    between atoms: C10_14  and  N2_16 
REMARK    3  A    between atoms: N2_16  and  C11_18 
REMARK    4  A    between atoms: C11_18  and  C12_19 
ROOT
HETATM    1  N1  UNL     1      -5.077   5.136  10.725  1.00  0.00    -0.193 NA
HETATM    2  C1  UNL     1      -4.562   5.040  11.765  1.00  0.00     0.118 C 
HETATM    3  C2  UNL     1      -3.910   4.896  13.061  1.00  0.00     0.259 C 
HETATM    4  O1  UNL     1      -3.326   3.631  13.140  1.00  0.00    -0.197 OA
HETATM    5  O2  UNL     1      -3.200   3.180  14.340  1.00  0.00    -0.222 OA
HETATM    6  C9  UNL     1      -4.254   2.428  14.806  1.00  0.00     0.261 C 
HETATM    7  C13 UNL     1      -5.600   3.131  14.588  1.00  0.00     0.123 C 
HETATM    8  S1  UNL     1      -5.195   4.898  14.348  1.00  0.00    -0.105 SA
ENDROOT
BRANCH   3   9
HETATM    9  C3  UNL     1      -2.915   5.974  13.274  1.00  0.00     0.004 A 
HETATM   10  C4  UNL     1      -2.067   6.432  12.284  1.00  0.00     0.014 A 
HETATM   11  C5  UNL     1      -1.149   7.442  12.518  1.00  0.00     0.024 A 
HETATM   12  C6  UNL     1      -1.105   7.990  13.797  1.00  0.00     0.034 A 
HETATM   13 CL1  UNL     1       0.016   9.267  14.194  1.00  0.00    -0.084 Cl
HETATM   14  C7  UNL     1      -1.949   7.540  14.796  1.00  0.00     0.024 A 
HETATM   15  C8  UNL     1      -2.855   6.531  14.535  1.00  0.00     0.014 A 
ENDBRANCH   3   9
BRANCH   6  16
HETATM   16  C10 UNL     1      -4.294   1.066  14.281  1.00  0.00     0.250 C 
HETATM   17  O3  UNL     1      -4.687   0.124  15.002  1.00  0.00    -0.271 OA
HETATM   18  N2  UNL     1      -3.888   0.794  12.953  1.00  0.00    -0.350 N 
ATOM     19  H2  UNL     1      -3.565   1.558  12.360  1.00  0.00     0.162 HD
BRANCH  18  20
HETATM   20  C11 UNL     1      -3.924  -0.561  12.418  1.00  0.00     0.240 C 
BRANCH  20  21
HETATM   21  C12 UNL     1      -3.170  -0.680  11.126  1.00  0.00     0.403 C 
HETATM   22  F1  UNL     1      -1.998   0.038  11.264  1.00  0.00    -0.169 F 
HETATM   23  F2  UNL     1      -3.882  -0.209  10.047  1.00  0.00    -0.169 F 
HETATM   24  F3  UNL     1      -2.791  -2.006  10.935  1.00  0.00    -0.169 F 
ENDBRANCH  20  21
ENDBRANCH  18  20
ENDBRANCH   6  16
TORSDOF 4
ENDMDL
MODEL 2
REMARK VINA RESULT: -8.004872030      0.127      1.295
REMARK  4 active torsions:
REMARK  status: ('A' for Active; 'I' for Inactive)
REMARK    1  A    between atoms: C2_3  and  C3_4 
REMARK    2  A    between atoms: C9_13  and  C10_14 
REMARK       I    between atoms: C10_14  and  N2_16 
REMARK    3  A    between atoms: N2_16  and  C11_18 
REMARK    4  A    between atoms: C11_18  and  C12_19 
ROOT
HETATM    1  N1  UNL     1      -5.054   5.219  10.746  1.00  0.00    -0.193 NA
HETATM    2  C1  UNL     1      -4.551   5.097  11.789  1.00  0.00     0.118 C 
HETATM    3  C2  UNL     1      -3.913   4.919  13.089  1.00  0.00     0.259 C 
HETATM    4  O1  UNL     1      -3.326   3.654  13.141  1.00  0.00    -0.197 OA
HETATM    5  O2  UNL     1      -3.214   3.172  14.330  1.00  0.00    -0.222 OA
HETATM    6  C9  UNL     1      -4.271   2.406  14.764  1.00  0.00     0.261 C 
HETATM    7  C13 UNL     1      -5.616   3.110  14.549  1.00  0.00     0.123 C 
HETATM    8  S1  UNL     1      -5.213   4.885  14.360  1.00  0.00    -0.105 SA
ENDROOT
BRANCH   3   9
HETATM    9  C3  UNL     1      -2.923   5.994  13.341  1.00  0.00     0.004 A 
HETATM   10  C4  UNL     1      -2.788   6.632  14.558  1.00  0.00     0.014 A 
HETATM   11  C5  UNL     1      -1.851   7.632  14.759  1.00  0.00     0.024 A 
HETATM   12  C6  UNL     1      -1.039   7.980  13.683  1.00  0.00     0.034 A 
HETATM   13 CL1  UNL     1       0.173   9.227  13.833  1.00  0.00    -0.084 Cl
HETATM   14  C7  UNL     1      -1.164   7.347  12.460  1.00  0.00     0.024 A 
HETATM   15  C8  UNL     1      -2.108   6.354  12.288  1.00  0.00     0.014 A 
ENDBRANCH   3   9
BRANCH   6  16
HETATM   16  C10 UNL     1      -4.300   1.058  14.203  1.00  0.00     0.250 C 
HETATM   17  O3  UNL     1      -4.693   0.095  14.897  1.00  0.00    -0.271 OA
HETATM   18  N2  UNL     1      -3.887   0.823  12.870  1.00  0.00    -0.350 N 
ATOM     19  H2  UNL     1      -3.565   1.605  12.299  1.00  0.00     0.162 HD
BRANCH  18  20
HETATM   20  C11 UNL     1      -3.913  -0.517  12.299  1.00  0.00     0.240 C 
BRANCH  20  21
HETATM   21  C12 UNL     1      -3.035  -0.635  11.088  1.00  0.00     0.403 C 
HETATM   22  F1  UNL     1      -2.756  -1.976  10.908  1.00  0.00    -0.169 F 
HETATM   23  F2  UNL     1      -1.860   0.072  11.210  1.00  0.00    -0.169 F 
HETATM   24  F3  UNL     1      -3.747  -0.232   9.962  1.00  0.00    -0.169 F 
ENDBRANCH  20  21
ENDBRANCH  18  20
ENDBRANCH   6  16
TORSDOF 4
ENDMDL
MODEL 3
REMARK VINA RESULT: -7.896854152      3.986      4.970
REMARK  4 active torsions:
REMARK  status: ('A' for Active; 'I' for Inactive)
REMARK    1  A    between atoms: C2_3  and  C3_4 
REMARK    2  A    between atoms: C9_13  and  C10_14 
REMARK       I    between atoms: C10_14  and  N2_16 
REMARK    3  A    between atoms: N2_16  and  C11_18 
REMARK    4  A    between atoms: C11_18  and  C12_19 
ROOT
HETATM    1  N1  UNL     1      -2.589   6.496  13.799  1.00  0.00    -0.193 NA
HETATM    2  C1  UNL     1      -3.216   5.884  13.032  1.00  0.00     0.118 C 
HETATM    3  C2  UNL     1      -4.011   5.103  12.091  1.00  0.00     0.259 C 
HETATM    4  O1  UNL     1      -4.768   4.168  12.799  1.00  0.00    -0.197 OA
HETATM    5  O2  UNL     1      -5.076   3.116  12.122  1.00  0.00    -0.222 OA
HETATM    6  C9  UNL     1      -4.188   2.069  12.213  1.00  0.00     0.261 C 
HETATM    7  C13 UNL     1      -2.743   2.519  11.961  1.00  0.00     0.123 C 
HETATM    8  S1  UNL     1      -2.876   4.113  11.073  1.00  0.00    -0.105 SA
ENDROOT
BRANCH   3   9
HETATM    9  C3  UNL     1      -4.866   5.988  11.263  1.00  0.00     0.004 A 
HETATM   10  C4  UNL     1      -5.870   6.779  11.784  1.00  0.00     0.014 A 
HETATM   11  C5  UNL     1      -6.650   7.595  10.980  1.00  0.00     0.024 A 
HETATM   12  C6  UNL     1      -6.389   7.591   9.613  1.00  0.00     0.034 A 
HETATM   13 CL1  UNL     1      -7.315   8.582   8.515  1.00  0.00    -0.084 Cl
HETATM   14  C7  UNL     1      -5.386   6.803   9.080  1.00  0.00     0.024 A 
HETATM   15  C8  UNL     1      -4.624   6.000   9.905  1.00  0.00     0.014 A 
ENDBRANCH   3   9
BRANCH   6  16
HETATM   16  C10 UNL     1      -4.281   1.315  13.460  1.00  0.00     0.250 C 
HETATM   17  O3  UNL     1      -4.297   0.065  13.440  1.00  0.00    -0.271 OA
HETATM   18  N2  UNL     1      -4.355   1.985  14.704  1.00  0.00    -0.350 N 
ATOM     19  H2  UNL     1      -4.344   3.005  14.726  1.00  0.00     0.162 HD
BRANCH  18  20
HETATM   20  C11 UNL     1      -4.448   1.243  15.955  1.00  0.00     0.240 C 
BRANCH  20  21
HETATM   21  C12 UNL     1      -5.711   1.551  16.705  1.00  0.00     0.403 C 
HETATM   22  F1  UNL     1      -6.215   2.733  16.198  1.00  0.00    -0.169 F 
HETATM   23  F2  UNL     1      -5.510   1.673  18.061  1.00  0.00    -0.169 F 
HETATM   24  F3  UNL     1      -6.661   0.573  16.426  1.00  0.00    -0.169 F 
ENDBRANCH  20  21
ENDBRANCH  18  20
ENDBRANCH   6  16
TORSDOF 4
ENDMDL
MODEL 4
REMARK VINA RESULT: -7.862716507      3.939      4.805
REMARK  4 active torsions:
REMARK  status: ('A' for Active; 'I' for Inactive)
REMARK    1  A    between atoms: C2_3  and  C3_4 
REMARK    2  A    between atoms: C9_13  and  C10_14 
REMARK       I    between atoms: C10_14  and  N2_16 
REMARK    3  A    between atoms: N2_16  and  C11_18 
REMARK    4  A    between atoms: C11_18  and  C12_19 
ROOT
HETATM    1  N1  UNL     1      -2.532   6.287  13.820  1.00  0.00    -0.193 NA
HETATM    2  C1  UNL     1      -3.123   5.704  13.003  1.00  0.00     0.118 C 
HETATM    3  C2  UNL     1      -3.874   4.960  11.999  1.00  0.00     0.259 C 
HETATM    4  O1  UNL     1      -4.682   4.018  12.638  1.00  0.00    -0.197 OA
HETATM    5  O2  UNL     1      -4.966   2.988  11.917  1.00  0.00    -0.222 OA
HETATM    6  C9  UNL     1      -4.099   1.927  12.030  1.00  0.00     0.261 C 
HETATM    7  C13 UNL     1      -2.636   2.361  11.871  1.00  0.00     0.123 C 
HETATM    8  S1  UNL     1      -2.697   3.979  11.019  1.00  0.00    -0.105 SA
ENDROOT
BRANCH   3   9
HETATM    9  C3  UNL     1      -4.670   5.878  11.148  1.00  0.00     0.004 A 
HETATM   10  C4  UNL     1      -4.494   5.993   9.783  1.00  0.00     0.014 A 
HETATM   11  C5  UNL     1      -5.257   6.861   9.019  1.00  0.00     0.024 A 
HETATM   12  C6  UNL     1      -6.217   7.624   9.676  1.00  0.00     0.034 A 
HETATM   13 CL1  UNL     1      -7.229   8.747   8.803  1.00  0.00    -0.084 Cl
HETATM   14  C7  UNL     1      -6.403   7.516  11.042  1.00  0.00     0.024 A 
HETATM   15  C8  UNL     1      -5.629   6.643  11.779  1.00  0.00     0.014 A 
ENDBRANCH   3   9
BRANCH   6  16
HETATM   16  C10 UNL     1      -4.272   1.142  13.249  1.00  0.00     0.250 C 
HETATM   17  O3  UNL     1      -4.302  -0.107  13.195  1.00  0.00    -0.271 OA
HETATM   18  N2  UNL     1      -4.409   1.781  14.504  1.00  0.00    -0.350 N 
ATOM     19  H2  UNL     1      -4.386   2.799  14.554  1.00  0.00     0.162 HD
BRANCH  18  20
HETATM   20  C11 UNL     1      -4.582   1.008  15.727  1.00  0.00     0.240 C 
BRANCH  20  21
HETATM   21  C12 UNL     1      -5.762   1.471  16.529  1.00  0.00     0.403 C 
HETATM   22  F1  UNL     1      -5.347   1.598  17.840  1.00  0.00    -0.169 F 
HETATM   23  F2  UNL     1      -6.828   0.603  16.460  1.00  0.00    -0.169 F 
HETATM   24  F3  UNL     1      -6.129   2.747  16.113  1.00  0.00    -0.169 F 
ENDBRANCH  20  21
ENDBRANCH  18  20
ENDBRANCH   6  16
TORSDOF 4
ENDMDL
MODEL 5
REMARK VINA RESULT: -7.804329740      4.381      5.367
REMARK  4 active torsions:
REMARK  status: ('A' for Active; 'I' for Inactive)
REMARK    1  A    between atoms: C2_3  and  C3_4 
REMARK    2  A    between atoms: C9_13  and  C10_14 
REMARK       I    between atoms: C10_14  and  N2_16 
REMARK    3  A    between atoms: N2_16  and  C11_18 
REMARK    4  A    between atoms: C11_18  and  C12_19 
ROOT
HETATM    1  N1  UNL     1      -2.317   7.483  12.817  1.00  0.00    -0.193 NA
HETATM    2  C1  UNL     1      -3.098   6.717  12.418  1.00  0.00     0.118 C 
HETATM    3  C2  UNL     1      -4.082   5.752  11.943  1.00  0.00     0.259 C 
HETATM    4  O1  UNL     1      -4.738   5.190  13.040  1.00  0.00    -0.197 OA
HETATM    5  O2  UNL     1      -5.207   4.010  12.828  1.00  0.00    -0.222 OA
HETATM    6  C9  UNL     1      -4.363   2.969  13.139  1.00  0.00     0.261 C 
HETATM    7  C13 UNL     1      -2.969   3.158  12.526  1.00  0.00     0.123 C 
HETATM    8  S1  UNL     1      -3.193   4.366  11.170  1.00  0.00    -0.105 SA
ENDROOT
BRANCH   3   9
HETATM    9  C3  UNL     1      -5.034   6.390  11.002  1.00  0.00     0.004 A 
HETATM   10  C4  UNL     1      -4.920   6.301   9.629  1.00  0.00     0.014 A 
HETATM   11  C5  UNL     1      -5.830   6.909   8.779  1.00  0.00     0.024 A 
HETATM   12  C6  UNL     1      -6.876   7.622   9.358  1.00  0.00     0.034 A 
HETATM   13 CL1  UNL     1      -8.074   8.424   8.375  1.00  0.00    -0.084 Cl
HETATM   14  C7  UNL     1      -7.000   7.716  10.732  1.00  0.00     0.024 A 
HETATM   15  C8  UNL     1      -6.079   7.100  11.555  1.00  0.00     0.014 A 
ENDBRANCH   3   9
BRANCH   6  16
HETATM   16  C10 UNL     1      -4.261   2.691  14.569  1.00  0.00     0.250 C 
HETATM   17  O3  UNL     1      -3.309   3.152  15.235  1.00  0.00    -0.271 OA
HETATM   18  N2  UNL     1      -5.235   1.896  15.219  1.00  0.00    -0.350 N 
ATOM     19  H2  UNL     1      -6.014   1.517  14.681  1.00  0.00     0.162 HD
BRANCH  18  20
HETATM   20  C11 UNL     1      -5.145   1.612  16.645  1.00  0.00     0.240 C 
BRANCH  20  21
HETATM   21  C12 UNL     1      -6.446   1.848  17.354  1.00  0.00     0.403 C 
HETATM   22  F1  UNL     1      -6.160   2.028  18.694  1.00  0.00    -0.169 F 
HETATM   23  F2  UNL     1      -7.333   0.806  17.203  1.00  0.00    -0.169 F 
HETATM   24  F3  UNL     1      -7.001   3.045  16.912  1.00  0.00    -0.169 F 
ENDBRANCH  20  21
ENDBRANCH  18  20
ENDBRANCH   6  16
TORSDOF 4
ENDMDL
