MODEL 1
REMARK VINA RESULT: -8.041474552      0.000      0.000
REMARK  4 active torsions:
REMARK  status: ('A' for Active; 'I' for Inactive)
REMARK    1  A    between atoms: C2_3  and  N2_4 
REMARK    2  A    between atoms: C8_12  and  N3_13 
REMARK    3  A    between atoms: N3_13  and  C9_15 
REMARK    4  A    between atoms: C15_22  and  C16_23 
ROOT
HETATM    1  N1  UNL     1       1.888  -6.369  22.952  1.00  0.00    -0.195 NA
HETATM    2  C1  UNL     1       1.779  -6.935  21.947  1.00  0.00     0.089 C 
HETATM    3  C2  UNL     1       1.635  -7.642  20.648  1.00  0.00     0.396 C 
ENDROOT
BRANCH   3   4
HETATM    4  N2  UNL     1       1.885  -9.023  20.902  1.00  0.00     0.112 N 
HETATM    5  C3  UNL     1       3.347  -9.140  21.067  1.00  0.00     0.300 C 
HETATM    6  C4  UNL     1       3.729 -10.590  20.911  1.00  0.00     0.198 C 
HETATM    7  O1  UNL     1       2.684 -11.373  21.392  1.00  0.00    -0.379 OA
HETATM    8  C5  UNL     1       1.593 -11.331  20.549  1.00  0.00     0.191 C 
HETATM    9  C6  UNL     1       0.341 -11.260  21.406  1.00  0.00     0.203 C 
HETATM   10  C17 UNL     1       1.533  -9.945  19.877  1.00  0.00     0.278 C 
HETATM   11  F1  UNL     1       0.584 -10.490  22.528  1.00  0.00    -0.247 F 
HETATM   12  C7  UNL     1      -0.672 -10.581  20.550  1.00  0.00     0.067 C 
HETATM   13  C8  UNL     1       0.091  -9.873  19.419  1.00  0.00     0.120 C 
BRANCH  13  14
HETATM   14  N3  UNL     1      -0.094 -10.624  18.184  1.00  0.00    -0.382 N 
ATOM     15  H3  UNL     1       0.529 -11.412  18.007  1.00  0.00     0.160 HD
BRANCH  14  16
HETATM   16  C9  UNL     1      -1.082 -10.330  17.215  1.00  0.00     0.043 A 
HETATM   17  C10 UNL     1      -2.357 -10.909  17.294  1.00  0.00     0.031 A 
HETATM   18  C11 UNL     1      -3.343 -10.638  16.373  1.00  0.00     0.025 A 
HETATM   19  C12 UNL     1      -3.106  -9.775  15.327  1.00  0.00     0.045 A 
HETATM   20  C13 UNL     1      -4.129  -9.485  14.360  1.00  0.00     0.099 C 
HETATM   21  C14 UNL     1      -1.867  -9.198  15.229  1.00  0.00     0.041 A 
HETATM   22  N4  UNL     1      -4.943  -9.251  13.568  1.00  0.00    -0.191 NA
HETATM   23  C15 UNL     1      -0.878  -9.479  16.164  1.00  0.00     0.075 A 
BRANCH  23  24
HETATM   24  C16 UNL     1       0.438  -8.831  15.975  1.00  0.00     0.419 C 
HETATM   25  F2  UNL     1       1.398  -9.795  15.838  1.00  0.00    -0.166 F 
HETATM   26  F3  UNL     1       0.470  -8.089  14.790  1.00  0.00    -0.166 F 
HETATM   27  F4  UNL     1       0.716  -7.915  16.971  1.00  0.00    -0.166 F 
ENDBRANCH  23  24
ENDBRANCH  14  16
ENDBRANCH  13  14
ENDBRANCH   3   4
TORSDOF 4
ENDMDL
MODEL 2
REMARK VINA RESULT: -8.011551603      3.199      4.193
REMARK  4 active torsions:
REMARK  status: ('A' for Active; 'I' for Inactive)
REMARK    1  A    between atoms: C2_3  and  N2_4 
REMARK    2  A    between atoms: C8_12  and  N3_13 
REMARK    3  A    between atoms: N3_13  and  C9_15 
REMARK    4  A    between atoms: C15_22  and  C16_23 
ROOT
HETATM    1  N1  UNL     1      -1.112 -12.799  22.095  1.00  0.00    -0.195 NA
HETATM    2  C1  UNL     1       0.033 -12.797  22.275  1.00  0.00     0.089 C 
HETATM    3  C2  UNL     1       1.502 -12.816  22.500  1.00  0.00     0.396 C 
ENDROOT
BRANCH   3   4
HETATM    4  N2  UNL     1       1.889 -11.476  22.796  1.00  0.00     0.112 N 
HETATM    5  C3  UNL     1       1.316 -11.178  24.122  1.00  0.00     0.300 C 
HETATM    6  C4  UNL     1       1.308  -9.682  24.312  1.00  0.00     0.198 C 
HETATM    7  O1  UNL     1       2.407  -9.151  23.646  1.00  0.00    -0.379 OA
HETATM    8  C5  UNL     1       2.244  -9.208  22.278  1.00  0.00     0.191 C 
HETATM    9  C6  UNL     1       3.576  -9.601  21.663  1.00  0.00     0.203 C 
HETATM   10  C17 UNL     1       1.412 -10.456  21.926  1.00  0.00     0.278 C 
HETATM   11  F1  UNL     1       4.224 -10.505  22.486  1.00  0.00    -0.247 F 
HETATM   12  C7  UNL     1       3.224 -10.267  20.377  1.00  0.00     0.067 C 
HETATM   13  C8  UNL     1       1.741 -10.658  20.461  1.00  0.00     0.120 C 
BRANCH  13  14
HETATM   14  N3  UNL     1       0.966  -9.746  19.630  1.00  0.00    -0.382 N 
ATOM     15  H3  UNL     1       0.252  -9.177  20.084  1.00  0.00     0.160 HD
BRANCH  14  16
HETATM   16  C9  UNL     1       1.140  -9.600  18.234  1.00  0.00     0.043 A 
HETATM   17  C10 UNL     1       1.680 -10.642  17.466  1.00  0.00     0.031 A 
HETATM   18  C11 UNL     1       1.855 -10.536  16.105  1.00  0.00     0.025 A 
HETATM   19  C12 UNL     1       1.499  -9.383  15.441  1.00  0.00     0.045 A 
HETATM   20  C13 UNL     1       1.677  -9.262  14.020  1.00  0.00     0.099 C 
HETATM   21  C14 UNL     1       0.970  -8.351  16.171  1.00  0.00     0.041 A 
HETATM   22  N4  UNL     1       1.826  -9.148  12.876  1.00  0.00    -0.191 NA
HETATM   23  C15 UNL     1       0.798  -8.468  17.544  1.00  0.00     0.075 A 
BRANCH  23  24
HETATM   24  C16 UNL     1       0.239  -7.301  18.261  1.00  0.00     0.419 C 
HETATM   25  F2  UNL     1      -1.078  -7.537  18.545  1.00  0.00    -0.166 F 
HETATM   26  F3  UNL     1       0.869  -7.118  19.496  1.00  0.00    -0.166 F 
HETATM   27  F4  UNL     1       0.451  -6.119  17.579  1.00  0.00    -0.166 F 
ENDBRANCH  23  24
ENDBRANCH  14  16
ENDBRANCH  13  14
ENDBRANCH   3   4
TORSDOF 4
ENDMDL
MODEL 3
REMARK VINA RESULT: -7.874443949      2.782      7.006
REMARK  4 active torsions:
REMARK  status: ('A' for Active; 'I' for Inactive)
REMARK    1  A    between atoms: C2_3  and  N2_4 
REMARK    2  A    between atoms: C8_12  and  N3_13 
REMARK    3  A    between atoms: N3_13  and  C9_15 
REMARK    4  A    between atoms: C15_22  and  C16_23 
ROOT
HETATM    1  N1  UNL     1      -4.485  -9.570  16.659  1.00  0.00    -0.195 NA
HETATM    2  C1  UNL     1      -3.392  -9.955  16.635  1.00  0.00     0.089 C 
HETATM    3  C2  UNL     1      -1.997 -10.468  16.599  1.00  0.00     0.396 C 
ENDROOT
BRANCH   3   4
HETATM    4  N2  UNL     1      -1.144  -9.354  16.854  1.00  0.00     0.112 N 
HETATM    5  C3  UNL     1      -0.677  -8.898  15.531  1.00  0.00     0.300 C 
HETATM    6  C4  UNL     1       0.536  -8.025  15.730  1.00  0.00     0.198 C 
HETATM    7  O1  UNL     1       0.397  -7.350  16.938  1.00  0.00    -0.379 OA
HETATM    8  C5  UNL     1       0.550  -8.202  18.012  1.00  0.00     0.191 C 
HETATM    9  C6  UNL     1      -0.483  -7.823  19.059  1.00  0.00     0.203 C 
HETATM   10  C17 UNL     1       0.030  -9.598  17.619  1.00  0.00     0.278 C 
HETATM   11  F1  UNL     1      -1.655  -7.428  18.441  1.00  0.00    -0.247 F 
HETATM   12  C7  UNL     1      -0.727  -9.077  19.828  1.00  0.00     0.067 C 
HETATM   13  C8  UNL     1      -0.209 -10.242  18.970  1.00  0.00     0.120 C 
BRANCH  13  14
HETATM   14  N3  UNL     1       1.043 -10.724  19.538  1.00  0.00    -0.382 N 
ATOM     15  H3  UNL     1       1.842 -10.827  18.913  1.00  0.00     0.160 HD
BRANCH  14  16
HETATM   16  C9  UNL     1       1.222 -11.059  20.901  1.00  0.00     0.043 A 
HETATM   17  C10 UNL     1       0.278 -11.849  21.575  1.00  0.00     0.031 A 
HETATM   18  C11 UNL     1       0.426 -12.199  22.897  1.00  0.00     0.025 A 
HETATM   19  C12 UNL     1       1.523 -11.780  23.614  1.00  0.00     0.045 A 
HETATM   20  C13 UNL     1       1.688 -12.141  24.995  1.00  0.00     0.099 C 
HETATM   21  C14 UNL     1       2.458 -11.007  22.977  1.00  0.00     0.041 A 
HETATM   22  N4  UNL     1       1.825 -12.417  26.113  1.00  0.00    -0.191 NA
HETATM   23  C15 UNL     1       2.300 -10.658  21.642  1.00  0.00     0.075 A 
BRANCH  23  24
HETATM   24  C16 UNL     1       3.344  -9.804  21.035  1.00  0.00     0.419 C 
HETATM   25  F2  UNL     1       2.834  -8.552  20.824  1.00  0.00    -0.166 F 
HETATM   26  F3  UNL     1       4.426  -9.634  21.904  1.00  0.00    -0.166 F 
HETATM   27  F4  UNL     1       3.890 -10.374  19.901  1.00  0.00    -0.166 F 
ENDBRANCH  23  24
ENDBRANCH  14  16
ENDBRANCH  13  14
ENDBRANCH   3   4
TORSDOF 4
ENDMDL
MODEL 4
REMARK VINA RESULT: -7.736110241      2.275      2.951
REMARK  4 active torsions:
REMARK  status: ('A' for Active; 'I' for Inactive)
REMARK    1  A    between atoms: C2_3  and  N2_4 
REMARK    2  A    between atoms: C8_12  and  N3_13 
REMARK    3  A    between atoms: N3_13  and  C9_15 
REMARK    4  A    between atoms: C15_22  and  C16_23 
ROOT
HETATM    1  N1  UNL     1       1.179  -7.056  23.784  1.00  0.00    -0.195 NA
HETATM    2  C1  UNL     1       1.614  -7.519  22.815  1.00  0.00     0.089 C 
HETATM    3  C2  UNL     1       2.176  -8.092  21.564  1.00  0.00     0.396 C 
ENDROOT
BRANCH   3   4
HETATM    4  N2  UNL     1       2.218  -9.506  21.743  1.00  0.00     0.112 N 
HETATM    5  C3  UNL     1       3.649  -9.860  21.792  1.00  0.00     0.300 C 
HETATM    6  C4  UNL     1       3.782 -11.342  21.550  1.00  0.00     0.198 C 
HETATM    7  O1  UNL     1       2.661 -11.974  22.078  1.00  0.00    -0.379 OA
HETATM    8  C5  UNL     1       1.536 -11.718  21.323  1.00  0.00     0.191 C 
HETATM    9  C6  UNL     1       0.374 -11.496  22.275  1.00  0.00     0.203 C 
HETATM   10  C17 UNL     1       1.653 -10.308  20.713  1.00  0.00     0.278 C 
HETATM   11  F1  UNL     1       0.814 -10.831  23.405  1.00  0.00    -0.247 F 
HETATM   12  C7  UNL     1      -0.575 -10.623  21.527  1.00  0.00     0.067 C 
HETATM   13  C8  UNL     1       0.212  -9.987  20.370  1.00  0.00     0.120 C 
BRANCH  13  14
HETATM   14  N3  UNL     1      -0.176 -10.635  19.124  1.00  0.00    -0.382 N 
ATOM     15  H3  UNL     1      -0.825 -11.420  19.177  1.00  0.00     0.160 HD
BRANCH  14  16
HETATM   16  C9  UNL     1       0.290 -10.246  17.846  1.00  0.00     0.043 A 
HETATM   17  C10 UNL     1       1.604 -10.533  17.444  1.00  0.00     0.031 A 
HETATM   18  C11 UNL     1       2.085 -10.176  16.206  1.00  0.00     0.025 A 
HETATM   19  C12 UNL     1       1.281  -9.515  15.305  1.00  0.00     0.045 A 
HETATM   20  C13 UNL     1       1.774  -9.139  14.009  1.00  0.00     0.099 C 
HETATM   21  C14 UNL     1      -0.006  -9.224  15.676  1.00  0.00     0.041 A 
HETATM   22  N4  UNL     1       2.164  -8.821  12.964  1.00  0.00    -0.191 NA
HETATM   23  C15 UNL     1      -0.483  -9.588  16.929  1.00  0.00     0.075 A 
BRANCH  23  24
HETATM   24  C16 UNL     1      -1.876  -9.218  17.259  1.00  0.00     0.419 C 
HETATM   25  F2  UNL     1      -1.867  -8.177  18.146  1.00  0.00    -0.166 F 
HETATM   26  F3  UNL     1      -2.556  -8.751  16.129  1.00  0.00    -0.166 F 
HETATM   27  F4  UNL     1      -2.616 -10.302  17.690  1.00  0.00    -0.166 F 
ENDBRANCH  23  24
ENDBRANCH  14  16
ENDBRANCH  13  14
ENDBRANCH   3   4
TORSDOF 4
ENDMDL
MODEL 5
REMARK VINA RESULT: -7.729001417      4.313      5.313
REMARK  4 active torsions:
REMARK  status: ('A' for Active; 'I' for Inactive)
REMARK    1  A    between atoms: C2_3  and  N2_4 
REMARK    2  A    between atoms: C8_12  and  N3_13 
REMARK    3  A    between atoms: N3_13  and  C9_15 
REMARK    4  A    between atoms: C15_22  and  C16_23 
ROOT
HETATM    1  N1  UNL     1      -4.358  -3.659  21.137  1.00  0.00    -0.195 NA
HETATM    2  C1  UNL     1      -3.599  -4.535  21.148  1.00  0.00     0.089 C 
HETATM    3  C2  UNL     1      -2.608  -5.643  21.158  1.00  0.00     0.396 C 
ENDROOT
BRANCH   3   4
HETATM    4  N2  UNL     1      -3.328  -6.833  21.471  1.00  0.00     0.112 N 
HETATM    5  C3  UNL     1      -3.006  -7.136  22.879  1.00  0.00     0.300 C 
HETATM    6  C4  UNL     1      -3.368  -8.574  23.151  1.00  0.00     0.198 C 
HETATM    7  O1  UNL     1      -4.471  -8.903  22.370  1.00  0.00    -0.379 OA
HETATM    8  C5  UNL     1      -4.133  -9.001  21.037  1.00  0.00     0.191 C 
HETATM    9  C6  UNL     1      -5.253  -8.376  20.223  1.00  0.00     0.203 C 
HETATM   10  C17 UNL     1      -2.998  -8.005  20.734  1.00  0.00     0.278 C 
HETATM   11  F1  UNL     1      -5.769  -7.284  20.896  1.00  0.00    -0.247 F 
HETATM   12  C7  UNL     1      -4.602  -7.918  18.962  1.00  0.00     0.067 C 
HETATM   13  C8  UNL     1      -3.090  -7.861  19.229  1.00  0.00     0.120 C 
BRANCH  13  14
HETATM   14  N3  UNL     1      -2.452  -8.990  18.565  1.00  0.00    -0.382 N 
ATOM     15  H3  UNL     1      -2.714  -9.929  18.863  1.00  0.00     0.160 HD
BRANCH  14  16
HETATM   16  C9  UNL     1      -1.492  -8.867  17.533  1.00  0.00     0.043 A 
HETATM   17  C10 UNL     1      -0.218  -8.340  17.798  1.00  0.00     0.031 A 
HETATM   18  C11 UNL     1       0.741  -8.215  16.820  1.00  0.00     0.025 A 
HETATM   19  C12 UNL     1       0.479  -8.609  15.527  1.00  0.00     0.045 A 
HETATM   20  C13 UNL     1       1.474  -8.483  14.498  1.00  0.00     0.099 C 
HETATM   21  C14 UNL     1      -0.758  -9.127  15.245  1.00  0.00     0.041 A 
HETATM   22  N4  UNL     1       2.266  -8.377  13.657  1.00  0.00    -0.191 NA
HETATM   23  C15 UNL     1      -1.720  -9.248  16.239  1.00  0.00     0.075 A 
BRANCH  23  24
HETATM   24  C16 UNL     1      -3.036  -9.797  15.847  1.00  0.00     0.419 C 
HETATM   25  F2  UNL     1      -3.974  -8.803  15.910  1.00  0.00    -0.166 F 
HETATM   26  F3  UNL     1      -3.027 -10.230  14.517  1.00  0.00    -0.166 F 
HETATM   27  F4  UNL     1      -3.374 -10.918  16.579  1.00  0.00    -0.166 F 
ENDBRANCH  23  24
ENDBRANCH  14  16
ENDBRANCH  13  14
ENDBRANCH   3   4
TORSDOF 4
ENDMDL
