MODEL 1
REMARK VINA RESULT: -6.842659918      0.000      0.000
REMARK  5 active torsions:
REMARK  status: ('A' for Active; 'I' for Inactive)
REMARK    1  A    between atoms: C2_2  and  C3_3 
REMARK    2  A    between atoms: C3_3  and  C4_7 
REMARK       I    between atoms: C4_7  and  N2_9 
REMARK    3  A    between atoms: N2_9  and  N3_10 
REMARK    4  A    between atoms: N2_9  and  C7_18 
REMARK    5  A    between atoms: C5_12  and  C6_14 
ROOT
HETATM    1  C4  UNL     1      -1.273  -9.802  16.105  1.00  0.00     0.304 C 
HETATM    2  O1  UNL     1      -1.683  -9.786  14.872  1.00  0.00    -0.263 OA
HETATM    3  N2  UNL     1       0.082  -9.658  16.372  1.00  0.00    -0.045 N 
ENDROOT
BRANCH   3   4
HETATM    4  N3  UNL     1       0.441  -9.608  17.761  1.00  0.00    -0.265 N 
HETATM    5  C5  UNL     1       0.629  -8.529  18.386  1.00  0.00     0.150 C 
HETATM    6 CL1  UNL     1       0.464  -6.998  17.572  1.00  0.00    -0.063 Cl
ATOM      7  H3  UNL     1       0.548 -10.487  18.267  1.00  0.00     0.189 HD
BRANCH   5   8
HETATM    8  C6  UNL     1       0.986  -8.540  19.818  1.00  0.00     0.243 C 
HETATM    9 CL2  UNL     1       0.832  -6.969  20.608  1.00  0.00    -0.076 Cl
HETATM   10 CL3  UNL     1      -0.059  -9.680  20.729  1.00  0.00    -0.076 Cl
HETATM   11 CL4  UNL     1       2.661  -9.097  20.074  1.00  0.00    -0.076 Cl
ENDBRANCH   5   8
ENDBRANCH   3   4
BRANCH   3  12
HETATM   12  C7  UNL     1       1.115  -9.615  15.416  1.00  0.00     0.700 C 
HETATM   13  N4  UNL     1       1.023  -8.885  14.286  1.00  0.00    -0.223 N 
HETATM   14  C8  UNL     1       2.222  -9.037  13.500  1.00  0.00     0.158 C 
ATOM     15  H4  UNL     1       0.222  -8.310  14.026  1.00  0.00     0.177 HD
HETATM   16  C9  UNL     1       2.685 -10.435  13.996  1.00  0.00     0.161 C 
HETATM   17  N5  UNL     1       2.407 -10.161  15.433  1.00  0.00    -0.219 N 
HETATM   18  C10 UNL     1       3.366 -10.387  16.434  1.00  0.00     0.168 C 
ENDBRANCH   3  12
BRANCH   1  19
HETATM   19  C3  UNL     1      -2.362  -9.978  17.050  1.00  0.00     0.073 C 
HETATM   20  N1  UNL     1      -2.719 -11.215  17.315  1.00  0.00    -0.398 N 
ATOM     21  H12 UNL     1      -3.484 -11.338  17.978  1.00  0.00     0.156 HD
ATOM     22  H11 UNL     1      -2.196 -11.938  16.821  1.00  0.00     0.156 HD
BRANCH  19  23
HETATM   23  C2  UNL     1      -3.112  -8.941  17.759  1.00  0.00     0.058 C 
HETATM   24  C1  UNL     1      -4.179  -8.397  16.779  1.00  0.00     0.011 C 
ENDBRANCH  19  23
ENDBRANCH   1  19
TORSDOF 5
ENDMDL
MODEL 2
REMARK VINA RESULT: -6.827712244      0.042      1.103
REMARK  5 active torsions:
REMARK  status: ('A' for Active; 'I' for Inactive)
REMARK    1  A    between atoms: C2_2  and  C3_3 
REMARK    2  A    between atoms: C3_3  and  C4_7 
REMARK       I    between atoms: C4_7  and  N2_9 
REMARK    3  A    between atoms: N2_9  and  N3_10 
REMARK    4  A    between atoms: N2_9  and  C7_18 
REMARK    5  A    between atoms: C5_12  and  C6_14 
ROOT
HETATM    1  C4  UNL     1      -1.266  -9.807  16.139  1.00  0.00     0.304 C 
HETATM    2  O1  UNL     1      -1.688  -9.785  14.910  1.00  0.00    -0.263 OA
HETATM    3  N2  UNL     1       0.092  -9.665  16.394  1.00  0.00    -0.045 N 
ENDROOT
BRANCH   3   4
HETATM    4  N3  UNL     1       0.463  -9.621  17.780  1.00  0.00    -0.265 N 
HETATM    5  C5  UNL     1       0.648  -8.545  18.410  1.00  0.00     0.150 C 
HETATM    6 CL1  UNL     1       0.462  -7.010  17.608  1.00  0.00    -0.063 Cl
ATOM      7  H3  UNL     1       0.583 -10.502  18.279  1.00  0.00     0.189 HD
BRANCH   5   8
HETATM    8  C6  UNL     1       1.019  -8.563  19.839  1.00  0.00     0.243 C 
HETATM    9 CL2  UNL     1       2.690  -9.047  20.141  1.00  0.00    -0.076 Cl
HETATM   10 CL3  UNL     1       0.812  -6.939  20.573  1.00  0.00    -0.076 Cl
HETATM   11 CL4  UNL     1      -0.026  -9.663  20.775  1.00  0.00    -0.076 Cl
ENDBRANCH   5   8
ENDBRANCH   3   4
BRANCH   3  12
HETATM   12  C7  UNL     1       1.115  -9.620  15.429  1.00  0.00     0.700 C 
HETATM   13  N4  UNL     1       1.008  -8.895  14.297  1.00  0.00    -0.223 N 
HETATM   14  C8  UNL     1       2.201  -9.043  13.500  1.00  0.00     0.158 C 
ATOM     15  H4  UNL     1       0.202  -8.326  14.042  1.00  0.00     0.177 HD
HETATM   16  C9  UNL     1       2.678 -10.437  13.998  1.00  0.00     0.161 C 
HETATM   17  N5  UNL     1       2.411 -10.158  15.436  1.00  0.00    -0.219 N 
HETATM   18  C10 UNL     1       3.381 -10.374  16.430  1.00  0.00     0.168 C 
ENDBRANCH   3  12
BRANCH   1  19
HETATM   19  C3  UNL     1      -2.347  -9.984  17.094  1.00  0.00     0.073 C 
HETATM   20  N1  UNL     1      -2.696 -11.222  17.365  1.00  0.00    -0.398 N 
ATOM     21  H12 UNL     1      -3.455 -11.346  18.035  1.00  0.00     0.156 HD
ATOM     22  H11 UNL     1      -2.174 -11.944  16.869  1.00  0.00     0.156 HD
BRANCH  19  23
HETATM   23  C2  UNL     1      -3.095  -8.948  17.807  1.00  0.00     0.058 C 
HETATM   24  C1  UNL     1      -4.163  -8.401  16.829  1.00  0.00     0.011 C 
ENDBRANCH  19  23
ENDBRANCH   1  19
TORSDOF 5
ENDMDL
MODEL 3
REMARK VINA RESULT: -6.782245437      1.179      4.427
REMARK  5 active torsions:
REMARK  status: ('A' for Active; 'I' for Inactive)
REMARK    1  A    between atoms: C2_2  and  C3_3 
REMARK    2  A    between atoms: C3_3  and  C4_7 
REMARK       I    between atoms: C4_7  and  N2_9 
REMARK    3  A    between atoms: N2_9  and  N3_10 
REMARK    4  A    between atoms: N2_9  and  C7_18 
REMARK    5  A    between atoms: C5_12  and  C6_14 
ROOT
HETATM    1  C4  UNL     1      -0.017  -9.407  15.237  1.00  0.00     0.304 C 
HETATM    2  O1  UNL     1      -0.625  -9.239  14.101  1.00  0.00    -0.263 OA
HETATM    3  N2  UNL     1      -0.770  -9.611  16.386  1.00  0.00    -0.045 N 
ENDROOT
BRANCH   3   4
HETATM    4  N3  UNL     1      -0.021  -9.867  17.583  1.00  0.00    -0.265 N 
HETATM    5  C5  UNL     1       0.501  -8.955  18.279  1.00  0.00     0.150 C 
HETATM    6 CL1  UNL     1       0.340  -7.285  17.807  1.00  0.00    -0.063 Cl
ATOM      7  H3  UNL     1       0.094 -10.834  17.886  1.00  0.00     0.189 HD
BRANCH   5   8
HETATM    8  C6  UNL     1       1.251  -9.279  19.507  1.00  0.00     0.243 C 
HETATM    9 CL2  UNL     1       1.649  -7.872  20.498  1.00  0.00    -0.076 Cl
HETATM   10 CL3  UNL     1       0.316 -10.398  20.552  1.00  0.00    -0.076 Cl
HETATM   11 CL4  UNL     1       2.783 -10.114  19.140  1.00  0.00    -0.076 Cl
ENDBRANCH   5   8
ENDBRANCH   3   4
BRANCH   3  12
HETATM   12  C7  UNL     1      -2.173  -9.531  16.482  1.00  0.00     0.700 C 
HETATM   13  N4  UNL     1      -2.992 -10.196  15.643  1.00  0.00    -0.223 N 
HETATM   14  C8  UNL     1      -4.368  -9.922  15.976  1.00  0.00     0.158 C 
ATOM     15  H4  UNL     1      -2.684 -10.803  14.884  1.00  0.00     0.177 HD
HETATM   16  C9  UNL     1      -4.204  -8.530  16.648  1.00  0.00     0.161 C 
HETATM   17  N5  UNL     1      -2.996  -8.908  17.432  1.00  0.00    -0.219 N 
HETATM   18  C10 UNL     1      -2.905  -8.684  18.816  1.00  0.00     0.168 C 
ENDBRANCH   3  12
BRANCH   1  19
HETATM   19  C3  UNL     1       1.429  -9.353  15.107  1.00  0.00     0.073 C 
HETATM   20  N1  UNL     1       1.941  -8.217  14.693  1.00  0.00    -0.398 N 
ATOM     21  H12 UNL     1       2.956  -8.179  14.601  1.00  0.00     0.156 HD
ATOM     22  H11 UNL     1       1.266  -7.477  14.494  1.00  0.00     0.156 HD
BRANCH  19  23
HETATM   23  C2  UNL     1       2.397 -10.413  15.393  1.00  0.00     0.058 C 
HETATM   24  C1  UNL     1       2.909 -10.943  14.032  1.00  0.00     0.011 C 
ENDBRANCH  19  23
ENDBRANCH   1  19
TORSDOF 5
ENDMDL
MODEL 4
REMARK VINA RESULT: -6.781700915      1.173      4.566
REMARK  5 active torsions:
REMARK  status: ('A' for Active; 'I' for Inactive)
REMARK    1  A    between atoms: C2_2  and  C3_3 
REMARK    2  A    between atoms: C3_3  and  C4_7 
REMARK       I    between atoms: C4_7  and  N2_9 
REMARK    3  A    between atoms: N2_9  and  N3_10 
REMARK    4  A    between atoms: N2_9  and  C7_18 
REMARK    5  A    between atoms: C5_12  and  C6_14 
ROOT
HETATM    1  C4  UNL     1      -0.019  -9.406  15.230  1.00  0.00     0.304 C 
HETATM    2  O1  UNL     1      -0.625  -9.231  14.094  1.00  0.00    -0.263 OA
HETATM    3  N2  UNL     1      -0.772  -9.618  16.377  1.00  0.00    -0.045 N 
ENDROOT
BRANCH   3   4
HETATM    4  N3  UNL     1      -0.024  -9.881  17.573  1.00  0.00    -0.265 N 
HETATM    5  C5  UNL     1       0.498  -8.973  18.274  1.00  0.00     0.150 C 
HETATM    6 CL1  UNL     1       0.338  -7.301  17.811  1.00  0.00    -0.063 Cl
ATOM      7  H3  UNL     1       0.091 -10.850  17.871  1.00  0.00     0.189 HD
BRANCH   5   8
HETATM    8  C6  UNL     1       1.248  -9.304  19.501  1.00  0.00     0.243 C 
HETATM    9 CL2  UNL     1       2.807 -10.077  19.203  1.00  0.00    -0.076 Cl
HETATM   10 CL3  UNL     1       1.580  -7.828  20.465  1.00  0.00    -0.076 Cl
HETATM   11 CL4  UNL     1       0.317 -10.389  20.567  1.00  0.00    -0.076 Cl
ENDBRANCH   5   8
ENDBRANCH   3   4
BRANCH   3  12
HETATM   12  C7  UNL     1      -2.175  -9.540  16.472  1.00  0.00     0.700 C 
HETATM   13  N4  UNL     1      -2.993 -10.202  15.629  1.00  0.00    -0.223 N 
HETATM   14  C8  UNL     1      -4.370  -9.931  15.962  1.00  0.00     0.158 C 
ATOM     15  H4  UNL     1      -2.683 -10.805  14.867  1.00  0.00     0.177 HD
HETATM   16  C9  UNL     1      -4.207  -8.543  16.641  1.00  0.00     0.161 C 
HETATM   17  N5  UNL     1      -2.999  -8.923  17.424  1.00  0.00    -0.219 N 
HETATM   18  C10 UNL     1      -2.910  -8.704  18.809  1.00  0.00     0.168 C 
ENDBRANCH   3  12
BRANCH   1  19
HETATM   19  C3  UNL     1       1.428  -9.350  15.102  1.00  0.00     0.073 C 
HETATM   20  N1  UNL     1       1.939  -8.212  14.687  1.00  0.00    -0.398 N 
ATOM     21  H12 UNL     1       2.954  -8.173  14.597  1.00  0.00     0.156 HD
ATOM     22  H11 UNL     1       1.263  -7.474  14.488  1.00  0.00     0.156 HD
BRANCH  19  23
HETATM   23  C2  UNL     1       2.397 -10.408  15.388  1.00  0.00     0.058 C 
HETATM   24  C1  UNL     1       2.911 -10.938  14.028  1.00  0.00     0.011 C 
ENDBRANCH  19  23
ENDBRANCH   1  19
TORSDOF 5
ENDMDL
MODEL 5
REMARK VINA RESULT: -6.770423436      1.189      4.551
REMARK  5 active torsions:
REMARK  status: ('A' for Active; 'I' for Inactive)
REMARK    1  A    between atoms: C2_2  and  C3_3 
REMARK    2  A    between atoms: C3_3  and  C4_7 
REMARK       I    between atoms: C4_7  and  N2_9 
REMARK    3  A    between atoms: N2_9  and  N3_10 
REMARK    4  A    between atoms: N2_9  and  C7_18 
REMARK    5  A    between atoms: C5_12  and  C6_14 
ROOT
HETATM    1  C4  UNL     1      -0.026  -9.408  15.225  1.00  0.00     0.304 C 
HETATM    2  O1  UNL     1      -0.627  -9.226  14.088  1.00  0.00    -0.263 OA
HETATM    3  N2  UNL     1      -0.785  -9.622  16.368  1.00  0.00    -0.045 N 
ENDROOT
BRANCH   3   4
HETATM    4  N3  UNL     1      -0.043  -9.893  17.566  1.00  0.00    -0.265 N 
HETATM    5  C5  UNL     1       0.483  -8.989  18.271  1.00  0.00     0.150 C 
HETATM    6 CL1  UNL     1       0.334  -7.315  17.812  1.00  0.00    -0.063 Cl
ATOM      7  H3  UNL     1       0.066 -10.863  17.862  1.00  0.00     0.189 HD
BRANCH   5   8
HETATM    8  C6  UNL     1       1.226  -9.328  19.500  1.00  0.00     0.243 C 
HETATM    9 CL2  UNL     1       0.365 -10.427  20.581  1.00  0.00    -0.076 Cl
HETATM   10 CL3  UNL     1       2.790 -10.115  19.105  1.00  0.00    -0.076 Cl
HETATM   11 CL4  UNL     1       1.634  -7.872  20.444  1.00  0.00    -0.076 Cl
ENDBRANCH   5   8
ENDBRANCH   3   4
BRANCH   3  12
HETATM   12  C7  UNL     1      -2.188  -9.540  16.458  1.00  0.00     0.700 C 
HETATM   13  N4  UNL     1      -3.005 -10.215  15.626  1.00  0.00    -0.223 N 
HETATM   14  C8  UNL     1      -4.382  -9.936  15.950  1.00  0.00     0.158 C 
ATOM     15  H4  UNL     1      -2.695 -10.833  14.876  1.00  0.00     0.177 HD
HETATM   16  C9  UNL     1      -4.219  -8.535  16.604  1.00  0.00     0.161 C 
HETATM   17  N5  UNL     1      -3.013  -8.903  17.397  1.00  0.00    -0.219 N 
HETATM   18  C10 UNL     1      -2.927  -8.660  18.778  1.00  0.00     0.168 C 
ENDBRANCH   3  12
BRANCH   1  19
HETATM   19  C3  UNL     1       1.421  -9.356  15.103  1.00  0.00     0.073 C 
HETATM   20  N1  UNL     1       1.937  -8.221  14.688  1.00  0.00    -0.398 N 
ATOM     21  H12 UNL     1       2.952  -8.185  14.602  1.00  0.00     0.156 HD
ATOM     22  H11 UNL     1       1.264  -7.482  14.483  1.00  0.00     0.156 HD
BRANCH  19  23
HETATM   23  C2  UNL     1       2.386 -10.416  15.397  1.00  0.00     0.058 C 
HETATM   24  C1  UNL     1       2.920 -10.938  14.041  1.00  0.00     0.011 C 
ENDBRANCH  19  23
ENDBRANCH   1  19
TORSDOF 5
ENDMDL
