MODEL 1
REMARK VINA RESULT: -7.733531866      0.000      0.000
REMARK  4 active torsions:
REMARK  status: ('A' for Active; 'I' for Inactive)
REMARK    1  A    between atoms: C2_4  and  C3_5 
REMARK    2  A    between atoms: C4_7  and  O3_8 
REMARK    3  A    between atoms: C7_14  and  O5_15 
REMARK    4  A    between atoms: O5_15  and  C8_16 
ROOT
HETATM    1  O1  UNL     1      -2.957 -12.473  17.475  1.00  0.00    -0.262 OA
HETATM    2  C1  UNL     1      -3.084 -11.384  16.863  1.00  0.00     0.300 C 
HETATM    3  O2  UNL     1      -3.626 -11.208  15.597  1.00  0.00    -0.310 OA
HETATM    4  C2  UNL     1      -3.263  -9.938  15.077  1.00  0.00     0.178 C 
HETATM    5  C4  UNL     1      -2.260  -9.375  16.066  1.00  0.00     0.196 C 
HETATM    6  C5  UNL     1      -2.695 -10.033  17.322  1.00  0.00     0.210 C 
HETATM    7  O4  UNL     1      -3.750  -9.387  17.912  1.00  0.00    -0.327 OA
HETATM    8  C6  UNL     1      -2.856  -8.869  18.846  1.00  0.00     0.341 C 
HETATM    9  F1  UNL     1      -2.500  -7.603  18.503  1.00  0.00    -0.217 F 
HETATM   10  C7  UNL     1      -1.818  -9.949  18.515  1.00  0.00     0.236 C 
ENDROOT
BRANCH   5  11
HETATM   11  O3  UNL     1      -1.001  -9.831  15.625  1.00  0.00    -0.389 OA
ATOM     12  H3  UNL     1      -0.547  -9.057  15.312  1.00  0.00     0.210 HD
ENDBRANCH   5  11
BRANCH  10  13
HETATM   13  O5  UNL     1      -0.528  -9.473  18.339  1.00  0.00    -0.335 OA
BRANCH  13  14
HETATM   14  C8  UNL     1       0.555  -9.607  19.152  1.00  0.00     0.091 A 
HETATM   15  C9  UNL     1       1.148 -10.827  19.348  1.00  0.00     0.040 A 
HETATM   16  C10 UNL     1       2.259 -10.989  20.176  1.00  0.00     0.026 A 
HETATM   17  C11 UNL     1       2.799  -9.921  20.827  1.00  0.00     0.035 A 
HETATM   18 CL2  UNL     1       4.195 -10.171  21.858  1.00  0.00    -0.084 Cl
HETATM   19  C12 UNL     1       2.224  -8.681  20.650  1.00  0.00     0.050 A 
HETATM   20  C13 UNL     1       1.131  -8.535  19.831  1.00  0.00     0.069 A 
HETATM   21 CL3  UNL     1       0.419  -6.939  19.626  1.00  0.00    -0.081 Cl
ENDBRANCH  13  14
ENDBRANCH  10  13
BRANCH   4  22
HETATM   22  C3  UNL     1      -4.472  -9.037  14.924  1.00  0.00     0.150 C 
HETATM   23 CL1  UNL     1      -5.106  -9.314  13.273  1.00  0.00    -0.128 Cl
ENDBRANCH   4  22
TORSDOF 4
ENDMDL
MODEL 2
REMARK VINA RESULT: -7.672588666      1.135      1.283
REMARK  4 active torsions:
REMARK  status: ('A' for Active; 'I' for Inactive)
REMARK    1  A    between atoms: C2_4  and  C3_5 
REMARK    2  A    between atoms: C4_7  and  O3_8 
REMARK    3  A    between atoms: C7_14  and  O5_15 
REMARK    4  A    between atoms: O5_15  and  C8_16 
ROOT
HETATM    1  O1  UNL     1      -3.035 -12.539  17.454  1.00  0.00    -0.262 OA
HETATM    2  C1  UNL     1      -3.134 -11.437  16.860  1.00  0.00     0.300 C 
HETATM    3  O2  UNL     1      -3.672 -11.227  15.598  1.00  0.00    -0.310 OA
HETATM    4  C2  UNL     1      -3.277  -9.958  15.098  1.00  0.00     0.178 C 
HETATM    5  C4  UNL     1      -2.259  -9.437  16.095  1.00  0.00     0.196 C 
HETATM    6  C5  UNL     1      -2.710 -10.104  17.341  1.00  0.00     0.210 C 
HETATM    7  O4  UNL     1      -3.747  -9.441  17.942  1.00  0.00    -0.327 OA
HETATM    8  C6  UNL     1      -2.840  -8.962  18.884  1.00  0.00     0.341 C 
HETATM    9  F1  UNL     1      -2.452  -7.700  18.561  1.00  0.00    -0.217 F 
HETATM   10  C7  UNL     1      -1.830 -10.063  18.533  1.00  0.00     0.236 C 
ENDROOT
BRANCH   5  11
HETATM   11  O3  UNL     1      -1.013  -9.918  15.645  1.00  0.00    -0.389 OA
ATOM     12  H3  UNL     1      -0.680  -9.249  15.059  1.00  0.00     0.210 HD
ENDBRANCH   5  11
BRANCH  10  13
HETATM   13  O5  UNL     1      -0.529  -9.617  18.364  1.00  0.00    -0.335 OA
BRANCH  13  14
HETATM   14  C8  UNL     1       0.547  -9.776  19.183  1.00  0.00     0.091 A 
HETATM   15  C9  UNL     1       0.432  -9.635  20.542  1.00  0.00     0.040 A 
HETATM   16  C10 UNL     1       1.520  -9.794  21.399  1.00  0.00     0.026 A 
HETATM   17  C11 UNL     1       2.752 -10.101  20.906  1.00  0.00     0.035 A 
HETATM   18 CL2  UNL     1       4.091 -10.291  22.021  1.00  0.00    -0.084 Cl
HETATM   19  C12 UNL     1       2.899 -10.248  19.544  1.00  0.00     0.050 A 
HETATM   20  C13 UNL     1       1.820 -10.089  18.709  1.00  0.00     0.069 A 
HETATM   21 CL3  UNL     1       2.039 -10.284  16.974  1.00  0.00    -0.081 Cl
ENDBRANCH  13  14
ENDBRANCH  10  13
BRANCH   4  22
HETATM   22  C3  UNL     1      -4.463  -9.024  14.961  1.00  0.00     0.150 C 
HETATM   23 CL1  UNL     1      -5.120  -9.276  13.316  1.00  0.00    -0.128 Cl
ENDBRANCH   4  22
TORSDOF 4
ENDMDL
MODEL 3
REMARK VINA RESULT: -7.533069703      1.827      2.458
REMARK  4 active torsions:
REMARK  status: ('A' for Active; 'I' for Inactive)
REMARK    1  A    between atoms: C2_4  and  C3_5 
REMARK    2  A    between atoms: C4_7  and  O3_8 
REMARK    3  A    between atoms: C7_14  and  O5_15 
REMARK    4  A    between atoms: O5_15  and  C8_16 
ROOT
HETATM    1  O1  UNL     1      -3.597  -7.977  18.456  1.00  0.00    -0.262 OA
HETATM    2  C1  UNL     1      -3.400  -8.789  17.520  1.00  0.00     0.300 C 
HETATM    3  O2  UNL     1      -4.369  -9.355  16.703  1.00  0.00    -0.310 OA
HETATM    4  C2  UNL     1      -3.845 -10.491  16.030  1.00  0.00     0.178 C 
HETATM    5  C4  UNL     1      -2.478 -10.723  16.646  1.00  0.00     0.196 C 
HETATM    6  C5  UNL     1      -2.111  -9.345  17.055  1.00  0.00     0.210 C 
HETATM    7  O4  UNL     1      -1.600  -8.611  16.016  1.00  0.00    -0.327 OA
HETATM    8  C6  UNL     1      -0.334  -8.791  16.568  1.00  0.00     0.341 C 
HETATM    9  F1  UNL     1       0.313  -9.805  15.937  1.00  0.00    -0.217 F 
HETATM   10  C7  UNL     1      -0.932  -9.150  17.934  1.00  0.00     0.236 C 
ENDROOT
BRANCH   5  11
HETATM   11  O3  UNL     1      -2.702 -11.572  17.749  1.00  0.00    -0.389 OA
ATOM     12  H3  UNL     1      -2.894 -10.994  18.478  1.00  0.00     0.210 HD
ENDBRANCH   5  11
BRANCH  10  13
HETATM   13  O5  UNL     1      -0.375 -10.270  18.529  1.00  0.00    -0.335 OA
BRANCH  13  14
HETATM   14  C8  UNL     1       0.696 -10.355  19.366  1.00  0.00     0.091 A 
HETATM   15  C9  UNL     1       1.961 -10.055  18.932  1.00  0.00     0.040 A 
HETATM   16  C10 UNL     1       3.072 -10.135  19.772  1.00  0.00     0.026 A 
HETATM   17  C11 UNL     1       2.932 -10.519  21.071  1.00  0.00     0.035 A 
HETATM   18 CL2  UNL     1       4.356 -10.605  22.090  1.00  0.00    -0.084 Cl
HETATM   19  C12 UNL     1       1.672 -10.827  21.536  1.00  0.00     0.050 A 
HETATM   20  C13 UNL     1       0.586 -10.744  20.699  1.00  0.00     0.069 A 
HETATM   21 CL3  UNL     1      -1.011 -11.145  21.322  1.00  0.00    -0.081 Cl
ENDBRANCH  13  14
ENDBRANCH  10  13
BRANCH   4  22
HETATM   22  C3  UNL     1      -3.760 -10.259  14.535  1.00  0.00     0.150 C 
HETATM   23 CL1  UNL     1      -4.966  -8.995  14.148  1.00  0.00    -0.128 Cl
ENDBRANCH   4  22
TORSDOF 4
ENDMDL
MODEL 4
REMARK VINA RESULT: -7.358514756      1.941      2.595
REMARK  4 active torsions:
REMARK  status: ('A' for Active; 'I' for Inactive)
REMARK    1  A    between atoms: C2_4  and  C3_5 
REMARK    2  A    between atoms: C4_7  and  O3_8 
REMARK    3  A    between atoms: C7_14  and  O5_15 
REMARK    4  A    between atoms: O5_15  and  C8_16 
ROOT
HETATM    1  O1  UNL     1      -3.108  -7.731  18.147  1.00  0.00    -0.262 OA
HETATM    2  C1  UNL     1      -3.054  -8.592  17.234  1.00  0.00     0.300 C 
HETATM    3  O2  UNL     1      -4.135  -9.172  16.584  1.00  0.00    -0.310 OA
HETATM    4  C2  UNL     1      -3.728 -10.351  15.906  1.00  0.00     0.178 C 
HETATM    5  C4  UNL     1      -2.295 -10.587  16.343  1.00  0.00     0.196 C 
HETATM    6  C5  UNL     1      -1.850  -9.201  16.629  1.00  0.00     0.210 C 
HETATM    7  O4  UNL     1      -1.471  -8.531  15.497  1.00  0.00    -0.327 OA
HETATM    8  C6  UNL     1      -0.145  -8.715  15.882  1.00  0.00     0.341 C 
HETATM    9  F1  UNL     1       0.392  -9.775  15.222  1.00  0.00    -0.217 F 
HETATM   10  C7  UNL     1      -0.561  -8.994  17.332  1.00  0.00     0.236 C 
ENDROOT
BRANCH   5  11
HETATM   11  O3  UNL     1      -2.383 -11.377  17.508  1.00  0.00    -0.389 OA
ATOM     12  H3  UNL     1      -1.863 -10.924  18.161  1.00  0.00     0.210 HD
ENDBRANCH   5  11
BRANCH  10  13
HETATM   13  O5  UNL     1       0.052 -10.099  17.903  1.00  0.00    -0.335 OA
BRANCH  13  14
HETATM   14  C8  UNL     1       0.970 -10.148  18.906  1.00  0.00     0.091 A 
HETATM   15  C9  UNL     1       0.589 -10.092  20.222  1.00  0.00     0.040 A 
HETATM   16  C10 UNL     1       1.512 -10.142  21.265  1.00  0.00     0.026 A 
HETATM   17  C11 UNL     1       2.845 -10.250  21.007  1.00  0.00     0.035 A 
HETATM   18 CL2  UNL     1       3.970 -10.308  22.350  1.00  0.00    -0.084 Cl
HETATM   19  C12 UNL     1       3.259 -10.308  19.694  1.00  0.00     0.050 A 
HETATM   20  C13 UNL     1       2.340 -10.259  18.674  1.00  0.00     0.069 A 
HETATM   21 CL3  UNL     1       2.900 -10.335  17.008  1.00  0.00    -0.081 Cl
ENDBRANCH  13  14
ENDBRANCH  10  13
BRANCH   4  22
HETATM   22  C3  UNL     1      -3.841 -10.192  14.403  1.00  0.00     0.150 C 
HETATM   23 CL1  UNL     1      -5.031  -8.887  14.118  1.00  0.00    -0.128 Cl
ENDBRANCH   4  22
TORSDOF 4
ENDMDL
MODEL 5
REMARK VINA RESULT: -7.289016576      2.009      2.642
REMARK  4 active torsions:
REMARK  status: ('A' for Active; 'I' for Inactive)
REMARK    1  A    between atoms: C2_4  and  C3_5 
REMARK    2  A    between atoms: C4_7  and  O3_8 
REMARK    3  A    between atoms: C7_14  and  O5_15 
REMARK    4  A    between atoms: O5_15  and  C8_16 
ROOT
HETATM    1  O1  UNL     1      -3.620  -7.889  18.439  1.00  0.00    -0.262 OA
HETATM    2  C1  UNL     1      -3.394  -8.735  17.539  1.00  0.00     0.300 C 
HETATM    3  O2  UNL     1      -4.329  -9.290  16.676  1.00  0.00    -0.310 OA
HETATM    4  C2  UNL     1      -3.807 -10.463  16.070  1.00  0.00     0.178 C 
HETATM    5  C4  UNL     1      -2.492 -10.725  16.779  1.00  0.00     0.196 C 
HETATM    6  C5  UNL     1      -2.100  -9.350  17.175  1.00  0.00     0.210 C 
HETATM    7  O4  UNL     1      -1.496  -8.667  16.153  1.00  0.00    -0.327 OA
HETATM    8  C6  UNL     1      -0.275  -8.875  16.790  1.00  0.00     0.341 C 
HETATM    9  F1  UNL     1       0.372  -9.931  16.231  1.00  0.00    -0.217 F 
HETATM   10  C7  UNL     1      -0.974  -9.173  18.123  1.00  0.00     0.236 C 
ENDROOT
BRANCH   5  11
HETATM   11  O3  UNL     1      -2.819 -11.534  17.888  1.00  0.00    -0.389 OA
ATOM     12  H3  UNL     1      -3.764 -11.482  17.969  1.00  0.00     0.210 HD
ENDBRANCH   5  11
BRANCH  10  13
HETATM   13  O5  UNL     1      -0.498 -10.295  18.784  1.00  0.00    -0.335 OA
BRANCH  13  14
HETATM   14  C8  UNL     1       0.095 -10.385  20.006  1.00  0.00     0.091 A 
HETATM   15  C9  UNL     1      -0.651 -10.489  21.151  1.00  0.00     0.040 A 
HETATM   16  C10 UNL     1      -0.064 -10.583  22.412  1.00  0.00     0.026 A 
HETATM   17  C11 UNL     1       1.290 -10.575  22.549  1.00  0.00     0.035 A 
HETATM   18 CL2  UNL     1       1.984 -10.695  24.155  1.00  0.00    -0.084 Cl
HETATM   19  C12 UNL     1       2.067 -10.471  21.415  1.00  0.00     0.050 A 
HETATM   20  C13 UNL     1       1.478 -10.379  20.178  1.00  0.00     0.069 A 
HETATM   21 CL3  UNL     1       2.496 -10.247  18.749  1.00  0.00    -0.081 Cl
ENDBRANCH  13  14
ENDBRANCH  10  13
BRANCH   4  22
HETATM   22  C3  UNL     1      -3.617 -10.277  14.578  1.00  0.00     0.150 C 
HETATM   23 CL1  UNL     1      -4.891  -9.142  14.040  1.00  0.00    -0.128 Cl
ENDBRANCH   4  22
TORSDOF 4
ENDMDL
