MODEL 1
REMARK VINA RESULT: -6.931616634      0.000      0.000
REMARK  3 active torsions:
REMARK  status: ('A' for Active; 'I' for Inactive)
REMARK       I    between atoms: C1_2  and  N1_3 
REMARK    1  A    between atoms: C1_2  and  C11_19 
REMARK    2  A    between atoms: N1_3  and  C2_5 
REMARK    3  A    between atoms: N2_12  and  C8_13 
ROOT
HETATM    1  C2  UNL     1       1.234  -9.736  20.294  1.00  0.00     0.111 C 
HETATM    2  C3  UNL     1       1.218  -8.206  20.349  1.00  0.00     0.194 C 
HETATM    3  O2  UNL     1       1.121  -7.881  19.023  1.00  0.00    -0.373 OA
HETATM    4  C4  UNL     1       0.256  -8.765  18.406  1.00  0.00     0.095 C 
HETATM    5  C5  UNL     1      -1.085  -8.114  18.188  1.00  0.00     0.045 C 
HETATM    6  C6  UNL     1      -1.994  -8.975  17.381  1.00  0.00     0.023 C 
HETATM    7  C7  UNL     1      -1.321  -9.898  16.430  1.00  0.00     0.129 C 
HETATM    8  N2  UNL     1       0.017  -9.594  16.098  1.00  0.00    -0.316 N 
HETATM    9  C9  UNL     1       0.893  -9.262  17.150  1.00  0.00     0.103 C 
HETATM   10  C10 UNL     1       0.057  -9.937  19.333  1.00  0.00     0.071 C 
ENDROOT
BRANCH   1  11
HETATM   11  N1  UNL     1       0.970 -10.320  21.570  1.00  0.00    -0.349 N 
HETATM   12  C1  UNL     1       1.869 -11.315  22.063  1.00  0.00     0.270 C 
HETATM   13  O1  UNL     1       2.866 -11.670  21.389  1.00  0.00    -0.266 OA
ATOM     14  H1  UNL     1       0.159 -10.033  22.118  1.00  0.00     0.163 HD
BRANCH  12  15
HETATM   15  C11 UNL     1       1.623 -11.947  23.392  1.00  0.00     0.124 A 
HETATM   16  C12 UNL     1       1.642 -11.202  24.552  1.00  0.00     0.106 A 
HETATM   17  S1  UNL     1       1.310 -12.392  25.728  1.00  0.00    -0.008 SA
HETATM   18  N3  UNL     1       1.172 -13.719  24.704  1.00  0.00    -0.269 N 
HETATM   19  N4  UNL     1       1.380 -13.217  23.530  1.00  0.00    -0.289 N 
ATOM     20  H3  UNL     1       0.972 -14.688  24.950  1.00  0.00     0.195 HD
ATOM     21  H4  UNL     1       1.352 -13.821  22.708  1.00  0.00     0.188 HD
ENDBRANCH  12  15
ENDBRANCH   1  11
BRANCH   8  22
HETATM   22  C8  UNL     1       0.191  -8.851  14.879  1.00  0.00     0.408 C 
HETATM   23  F1  UNL     1      -0.798  -9.126  13.963  1.00  0.00    -0.166 F 
HETATM   24  F2  UNL     1       0.332  -7.511  15.065  1.00  0.00    -0.166 F 
HETATM   25 CL1  UNL     1       1.726  -9.434  14.142  1.00  0.00    -0.023 Cl
ENDBRANCH   8  22
TORSDOF 3
ENDMDL
MODEL 2
REMARK VINA RESULT: -6.858803060      5.822      7.428
REMARK  3 active torsions:
REMARK  status: ('A' for Active; 'I' for Inactive)
REMARK       I    between atoms: C1_2  and  N1_3 
REMARK    1  A    between atoms: C1_2  and  C11_19 
REMARK    2  A    between atoms: N1_3  and  C2_5 
REMARK    3  A    between atoms: N2_12  and  C8_13 
ROOT
HETATM    1  C2  UNL     1      -0.397  -7.595  18.186  1.00  0.00     0.111 C 
HETATM    2  C3  UNL     1       0.298  -7.444  19.542  1.00  0.00     0.194 C 
HETATM    3  O2  UNL     1      -0.704  -6.917  20.311  1.00  0.00    -0.373 OA
HETATM    4  C4  UNL     1      -1.897  -7.531  19.978  1.00  0.00     0.095 C 
HETATM    5  C5  UNL     1      -2.263  -8.555  21.022  1.00  0.00     0.045 C 
HETATM    6  C6  UNL     1      -3.620  -9.123  20.787  1.00  0.00     0.023 C 
HETATM    7  C7  UNL     1      -4.576  -8.223  20.090  1.00  0.00     0.129 C 
HETATM    8  N2  UNL     1      -4.261  -6.848  20.090  1.00  0.00    -0.316 N 
HETATM    9  C9  UNL     1      -2.938  -6.480  19.776  1.00  0.00     0.103 C 
HETATM   10  C10 UNL     1      -1.693  -8.255  18.672  1.00  0.00     0.071 C 
ENDROOT
BRANCH   1  11
HETATM   11  N1  UNL     1       0.327  -8.455  17.306  1.00  0.00    -0.349 N 
HETATM   12  C1  UNL     1       0.721  -7.947  16.030  1.00  0.00     0.270 C 
HETATM   13  O1  UNL     1       0.436  -6.774  15.690  1.00  0.00    -0.266 OA
ATOM     14  H1  UNL     1       0.559  -9.409  17.582  1.00  0.00     0.163 HD
BRANCH  12  15
HETATM   15  C11 UNL     1       1.480  -8.818  15.085  1.00  0.00     0.124 A 
HETATM   16  C12 UNL     1       2.127  -9.953  15.522  1.00  0.00     0.106 A 
HETATM   17  S1  UNL     1       2.804 -10.541  14.071  1.00  0.00    -0.008 SA
HETATM   18  N3  UNL     1       2.237  -9.346  13.032  1.00  0.00    -0.269 N 
HETATM   19  N4  UNL     1       1.569  -8.560  13.813  1.00  0.00    -0.289 N 
ATOM     20  H3  UNL     1       2.385  -9.260  12.027  1.00  0.00     0.195 HD
ATOM     21  H4  UNL     1       1.110  -7.733  13.430  1.00  0.00     0.188 HD
ENDBRANCH  12  15
ENDBRANCH   1  11
BRANCH   8  22
HETATM   22  C8  UNL     1      -4.901  -6.073  21.118  1.00  0.00     0.408 C 
HETATM   23  F1  UNL     1      -5.981  -5.370  20.636  1.00  0.00    -0.166 F 
HETATM   24  F2  UNL     1      -5.235  -6.792  22.223  1.00  0.00    -0.166 F 
HETATM   25 CL1  UNL     1      -3.702  -4.839  21.648  1.00  0.00    -0.023 Cl
ENDBRANCH   8  22
TORSDOF 3
ENDMDL
MODEL 3
REMARK VINA RESULT: -6.781355638      5.790      7.343
REMARK  3 active torsions:
REMARK  status: ('A' for Active; 'I' for Inactive)
REMARK       I    between atoms: C1_2  and  N1_3 
REMARK    1  A    between atoms: C1_2  and  C11_19 
REMARK    2  A    between atoms: N1_3  and  C2_5 
REMARK    3  A    between atoms: N2_12  and  C8_13 
ROOT
HETATM    1  C2  UNL     1      -4.360  -6.674  19.723  1.00  0.00     0.111 C 
HETATM    2  C3  UNL     1      -5.003  -7.970  20.226  1.00  0.00     0.194 C 
HETATM    3  O2  UNL     1      -4.823  -8.803  19.155  1.00  0.00    -0.373 OA
HETATM    4  C4  UNL     1      -3.573  -8.574  18.612  1.00  0.00     0.095 C 
HETATM    5  C5  UNL     1      -2.617  -9.662  19.030  1.00  0.00     0.045 C 
HETATM    6  C6  UNL     1      -1.304  -9.541  18.336  1.00  0.00     0.023 C 
HETATM    7  C7  UNL     1      -1.348  -8.902  16.995  1.00  0.00     0.129 C 
HETATM    8  N2  UNL     1      -2.608  -8.852  16.362  1.00  0.00    -0.316 N 
HETATM    9  C9  UNL     1      -3.711  -8.432  17.132  1.00  0.00     0.103 C 
HETATM   10  C10 UNL     1      -3.061  -7.269  19.168  1.00  0.00     0.071 C 
ENDROOT
BRANCH   1  11
HETATM   11  N1  UNL     1      -4.101  -5.758  20.787  1.00  0.00    -0.349 N 
HETATM   12  C1  UNL     1      -5.149  -4.879  21.200  1.00  0.00     0.270 C 
HETATM   13  O1  UNL     1      -6.271  -4.911  20.639  1.00  0.00    -0.266 OA
ATOM     14  H1  UNL     1      -3.188  -5.731  21.242  1.00  0.00     0.163 HD
BRANCH  12  15
HETATM   15  C11 UNL     1      -4.913  -3.909  22.309  1.00  0.00     0.124 A 
HETATM   16  C12 UNL     1      -4.295  -4.296  23.478  1.00  0.00     0.106 A 
HETATM   17  S1  UNL     1      -4.287  -2.835  24.359  1.00  0.00    -0.008 SA
HETATM   18  N3  UNL     1      -5.043  -1.855  23.221  1.00  0.00    -0.269 N 
HETATM   19  N4  UNL     1      -5.270  -2.660  22.233  1.00  0.00    -0.289 N 
ATOM     20  H3  UNL     1      -5.268  -0.863  23.291  1.00  0.00     0.195 HD
ATOM     21  H4  UNL     1      -5.731  -2.313  21.392  1.00  0.00     0.188 HD
ENDBRANCH  12  15
ENDBRANCH   1  11
BRANCH   8  22
HETATM   22  C8  UNL     1      -2.866  -9.911  15.424  1.00  0.00     0.408 C 
HETATM   23  F1  UNL     1      -1.962  -9.911  14.387  1.00  0.00    -0.166 F 
HETATM   24  F2  UNL     1      -2.959 -11.143  15.996  1.00  0.00    -0.166 F 
HETATM   25 CL1  UNL     1      -4.469  -9.561  14.686  1.00  0.00    -0.023 Cl
ENDBRANCH   8  22
TORSDOF 3
ENDMDL
MODEL 4
REMARK VINA RESULT: -6.751112785      6.190      7.767
REMARK  3 active torsions:
REMARK  status: ('A' for Active; 'I' for Inactive)
REMARK       I    between atoms: C1_2  and  N1_3 
REMARK    1  A    between atoms: C1_2  and  C11_19 
REMARK    2  A    between atoms: N1_3  and  C2_5 
REMARK    3  A    between atoms: N2_12  and  C8_13 
ROOT
HETATM    1  C2  UNL     1      -2.574  -8.944  17.558  1.00  0.00     0.111 C 
HETATM    2  C3  UNL     1      -3.935  -8.454  17.054  1.00  0.00     0.194 C 
HETATM    3  O2  UNL     1      -4.660  -8.405  18.214  1.00  0.00    -0.373 OA
HETATM    4  C4  UNL     1      -3.853  -7.925  19.228  1.00  0.00     0.095 C 
HETATM    5  C5  UNL     1      -4.176  -6.480  19.509  1.00  0.00     0.045 C 
HETATM    6  C6  UNL     1      -3.444  -5.971  20.703  1.00  0.00     0.023 C 
HETATM    7  C7  UNL     1      -3.109  -6.994  21.728  1.00  0.00     0.129 C 
HETATM    8  N2  UNL     1      -3.838  -8.200  21.677  1.00  0.00    -0.316 N 
HETATM    9  C9  UNL     1      -3.998  -8.814  20.419  1.00  0.00     0.103 C 
HETATM   10  C10 UNL     1      -2.424  -7.996  18.753  1.00  0.00     0.071 C 
ENDROOT
BRANCH   1  11
HETATM   11  N1  UNL     1      -1.541  -8.737  16.596  1.00  0.00    -0.349 N 
HETATM   12  C1  UNL     1      -0.432  -9.638  16.582  1.00  0.00     0.270 C 
HETATM   13  O1  UNL     1      -0.368 -10.589  17.397  1.00  0.00    -0.266 OA
ATOM     14  H1  UNL     1      -1.592  -7.963  15.933  1.00  0.00     0.163 HD
BRANCH  12  15
HETATM   15  C11 UNL     1       0.666  -9.451  15.589  1.00  0.00     0.124 A 
HETATM   16  C12 UNL     1       1.930  -9.949  15.819  1.00  0.00     0.106 A 
HETATM   17  S1  UNL     1       2.752  -9.461  14.406  1.00  0.00    -0.008 SA
HETATM   18  N3  UNL     1       1.477  -8.681  13.636  1.00  0.00    -0.269 N 
HETATM   19  N4  UNL     1       0.494  -8.817  14.466  1.00  0.00    -0.289 N 
ATOM     20  H3  UNL     1       1.478  -8.211  12.730  1.00  0.00     0.195 HD
ATOM     21  H4  UNL     1      -0.420  -8.425  14.239  1.00  0.00     0.188 HD
ENDBRANCH  12  15
ENDBRANCH   1  11
BRANCH   8  22
HETATM   22  C8  UNL     1      -4.973  -8.269  22.556  1.00  0.00     0.408 C 
HETATM   23  F1  UNL     1      -4.803  -9.212  23.544  1.00  0.00    -0.166 F 
HETATM   24  F2  UNL     1      -5.338  -7.068  23.081  1.00  0.00    -0.166 F 
HETATM   25 CL1  UNL     1      -6.359  -8.839  21.559  1.00  0.00    -0.023 Cl
ENDBRANCH   8  22
TORSDOF 3
ENDMDL
MODEL 5
REMARK VINA RESULT: -6.669688943      5.763      6.843
REMARK  3 active torsions:
REMARK  status: ('A' for Active; 'I' for Inactive)
REMARK       I    between atoms: C1_2  and  N1_3 
REMARK    1  A    between atoms: C1_2  and  C11_19 
REMARK    2  A    between atoms: N1_3  and  C2_5 
REMARK    3  A    between atoms: N2_12  and  C8_13 
ROOT
HETATM    1  C2  UNL     1      -3.614  -6.641  19.932  1.00  0.00     0.111 C 
HETATM    2  C3  UNL     1      -4.236  -7.842  20.650  1.00  0.00     0.194 C 
HETATM    3  O2  UNL     1      -4.579  -8.649  19.600  1.00  0.00    -0.373 OA
HETATM    4  C4  UNL     1      -3.580  -8.593  18.646  1.00  0.00     0.095 C 
HETATM    5  C5  UNL     1      -2.724  -9.832  18.718  1.00  0.00     0.045 C 
HETATM    6  C6  UNL     1      -1.737  -9.888  17.603  1.00  0.00     0.023 C 
HETATM    7  C7  UNL     1      -2.147  -9.196  16.353  1.00  0.00     0.129 C 
HETATM    8  N2  UNL     1      -3.524  -8.926  16.205  1.00  0.00    -0.316 N 
HETATM    9  C9  UNL     1      -4.204  -8.372  17.308  1.00  0.00     0.103 C 
HETATM   10  C10 UNL     1      -2.705  -7.407  18.964  1.00  0.00     0.071 C 
ENDROOT
BRANCH   1  11
HETATM   11  N1  UNL     1      -2.856  -5.820  20.820  1.00  0.00    -0.349 N 
HETATM   12  C1  UNL     1      -3.458  -4.628  21.326  1.00  0.00     0.270 C 
HETATM   13  O1  UNL     1      -4.626  -4.308  20.997  1.00  0.00    -0.266 OA
ATOM     14  H1  UNL     1      -1.906  -6.079  21.087  1.00  0.00     0.163 HD
BRANCH  12  15
HETATM   15  C11 UNL     1      -2.693  -3.746  22.256  1.00  0.00     0.124 A 
HETATM   16  C12 UNL     1      -2.913  -2.386  22.295  1.00  0.00     0.106 A 
HETATM   17  S1  UNL     1      -1.805  -1.895  23.496  1.00  0.00    -0.008 SA
HETATM   18  N3  UNL     1      -1.155  -3.401  23.862  1.00  0.00    -0.269 N 
HETATM   19  N4  UNL     1      -1.791  -4.205  23.073  1.00  0.00    -0.289 N 
ATOM     20  H3  UNL     1      -0.431  -3.628  24.544  1.00  0.00     0.195 HD
ATOM     21  H4  UNL     1      -1.583  -5.204  23.091  1.00  0.00     0.188 HD
ENDBRANCH  12  15
ENDBRANCH   1  11
BRANCH   8  22
HETATM   22  C8  UNL     1      -4.259  -9.894  15.437  1.00  0.00     0.408 C 
HETATM   23  F1  UNL     1      -3.455 -10.919  14.996  1.00  0.00    -0.166 F 
HETATM   24  F2  UNL     1      -5.366 -10.372  16.067  1.00  0.00    -0.166 F 
HETATM   25 CL1  UNL     1      -4.834  -9.043  13.959  1.00  0.00    -0.023 Cl
ENDBRANCH   8  22
TORSDOF 3
ENDMDL
