MODEL 1
REMARK VINA RESULT: -7.459943480      0.000      0.000
REMARK  5 active torsions:
REMARK  status: ('A' for Active; 'I' for Inactive)
REMARK    1  A    between atoms: C2_2  and  C3_3 
REMARK    2  A    between atoms: C2_2  and  N3_15 
REMARK       I    between atoms: C3_3  and  N1_5 
REMARK    3  A    between atoms: C11_16  and  O2_17 
REMARK    4  A    between atoms: C14_21  and  O3_22 
REMARK    5  A    between atoms: O3_22  and  C15_23 
ROOT
HETATM    1  C1  UNL     1      -1.984  -7.514  18.708  1.00  0.00     0.043 C 
HETATM    2  C2  UNL     1      -0.853  -8.436  18.392  1.00  0.00     0.182 C 
ENDROOT
BRANCH   2   3
HETATM    3  C3  UNL     1       0.302  -8.016  19.245  1.00  0.00     0.245 C 
HETATM    4  O1  UNL     1       0.335  -6.821  19.617  1.00  0.00    -0.271 OA
HETATM    5  N1  UNL     1       1.335  -8.898  19.645  1.00  0.00    -0.316 N 
HETATM    6  C4  UNL     1       2.398  -8.369  20.485  1.00  0.00     0.159 C 
HETATM    7  C10 UNL     1       1.349 -10.284  19.232  1.00  0.00     0.307 C 
HETATM    8  C5  UNL     1       2.562  -9.363  21.632  1.00  0.00     0.293 C 
HETATM    9  N2  UNL     1       2.885 -10.665  21.119  1.00  0.00     0.099 N 
HETATM   10  C6  UNL     1       3.011 -11.591  22.202  1.00  0.00     0.273 C 
HETATM   11  C9  UNL     1       1.904 -11.215  20.245  1.00  0.00     0.276 C 
HETATM   12  C7  UNL     1       1.762 -12.429  22.247  1.00  0.00     0.033 C 
HETATM   13  C8  UNL     1       0.855 -11.733  21.226  1.00  0.00     0.042 C 
HETATM   14  F1  UNL     1       2.110 -10.399  18.077  1.00  0.00    -0.224 F 
ENDBRANCH   2   3
BRANCH   2  15
HETATM   15  N3  UNL     1      -0.514  -8.559  16.994  1.00  0.00    -0.295 N 
HETATM   16  C11 UNL     1       0.134  -7.607  16.309  1.00  0.00     0.144 A 
HETATM   17  C12 UNL     1       0.249  -8.015  15.004  1.00  0.00     0.060 A 
HETATM   18  C13 UNL     1      -0.340  -9.236  14.913  1.00  0.00     0.061 A 
HETATM   19  C14 UNL     1      -0.814  -9.563  16.186  1.00  0.00     0.156 A 
BRANCH  16  20
HETATM   20  O2  UNL     1       0.646  -6.368  16.776  1.00  0.00    -0.346 OA
ATOM     21  H2  UNL     1       1.016  -5.650  16.276  1.00  0.00     0.219 HD
ENDBRANCH  16  20
BRANCH  19  22
HETATM   22  O3  UNL     1      -1.471 -10.791  16.426  1.00  0.00    -0.238 OA
BRANCH  22  23
HETATM   23  C15 UNL     1      -2.860 -10.913  16.418  1.00  0.00     0.531 C 
HETATM   24  F2  UNL     1      -3.145 -12.182  16.936  1.00  0.00    -0.144 F 
HETATM   25  F3  UNL     1      -3.317 -10.802  15.133  1.00  0.00    -0.144 F 
HETATM   26  F4  UNL     1      -3.563 -10.035  17.198  1.00  0.00    -0.144 F 
ENDBRANCH  22  23
ENDBRANCH  19  22
ENDBRANCH   2  15
TORSDOF 5
ENDMDL
MODEL 2
REMARK VINA RESULT: -7.381587478      2.161      2.924
REMARK  5 active torsions:
REMARK  status: ('A' for Active; 'I' for Inactive)
REMARK    1  A    between atoms: C2_2  and  C3_3 
REMARK    2  A    between atoms: C2_2  and  N3_15 
REMARK       I    between atoms: C3_3  and  N1_5 
REMARK    3  A    between atoms: C11_16  and  O2_17 
REMARK    4  A    between atoms: C14_21  and  O3_22 
REMARK    5  A    between atoms: O3_22  and  C15_23 
ROOT
HETATM    1  C1  UNL     1      -2.558 -10.522  19.740  1.00  0.00     0.043 C 
HETATM    2  C2  UNL     1      -1.828  -9.866  18.614  1.00  0.00     0.182 C 
ENDROOT
BRANCH   2   3
HETATM    3  C3  UNL     1      -0.969  -8.800  19.216  1.00  0.00     0.245 C 
HETATM    4  O1  UNL     1      -1.542  -7.765  19.627  1.00  0.00    -0.271 OA
HETATM    5  N1  UNL     1       0.437  -8.912  19.344  1.00  0.00    -0.316 N 
HETATM    6  C4  UNL     1       1.158  -7.809  19.958  1.00  0.00     0.159 C 
HETATM    7  C10 UNL     1       1.148 -10.082  18.875  1.00  0.00     0.307 C 
HETATM    8  C5  UNL     1       2.084  -8.438  20.996  1.00  0.00     0.293 C 
HETATM    9  N2  UNL     1       2.974  -9.373  20.367  1.00  0.00     0.099 N 
HETATM   10  C6  UNL     1       3.818  -9.973  21.354  1.00  0.00     0.273 C 
HETATM   11  C9  UNL     1       2.323 -10.451  19.701  1.00  0.00     0.276 C 
HETATM   12  C7  UNL     1       3.303 -11.360  21.630  1.00  0.00     0.033 C 
HETATM   13  C8  UNL     1       1.976 -11.382  20.860  1.00  0.00     0.042 C 
HETATM   14  F1  UNL     1       1.587  -9.848  17.579  1.00  0.00    -0.224 F 
ENDBRANCH   2   3
BRANCH   2  15
HETATM   15  N3  UNL     1      -2.649  -9.389  17.526  1.00  0.00    -0.295 N 
HETATM   16  C11 UNL     1      -3.838  -8.798  17.707  1.00  0.00     0.144 A 
HETATM   17  C12 UNL     1      -4.373  -8.518  16.475  1.00  0.00     0.060 A 
HETATM   18  C13 UNL     1      -3.483  -8.948  15.544  1.00  0.00     0.061 A 
HETATM   19  C14 UNL     1      -2.396  -9.494  16.232  1.00  0.00     0.156 A 
BRANCH  16  20
HETATM   20  O2  UNL     1      -4.497  -8.480  18.924  1.00  0.00    -0.346 OA
ATOM     21  H2  UNL     1      -5.279  -7.958  19.058  1.00  0.00     0.219 HD
ENDBRANCH  16  20
BRANCH  19  22
HETATM   22  O3  UNL     1      -1.283 -10.021  15.536  1.00  0.00    -0.238 OA
BRANCH  22  23
HETATM   23  C15 UNL     1      -0.309  -9.210  14.955  1.00  0.00     0.531 C 
HETATM   24  F2  UNL     1      -0.148  -8.116  15.813  1.00  0.00    -0.144 F 
HETATM   25  F3  UNL     1      -0.738  -8.798  13.723  1.00  0.00    -0.144 F 
HETATM   26  F4  UNL     1       0.941  -9.749  14.812  1.00  0.00    -0.144 F 
ENDBRANCH  22  23
ENDBRANCH  19  22
ENDBRANCH   2  15
TORSDOF 5
ENDMDL
MODEL 3
REMARK VINA RESULT: -7.322369113      2.787      6.383
REMARK  5 active torsions:
REMARK  status: ('A' for Active; 'I' for Inactive)
REMARK    1  A    between atoms: C2_2  and  C3_3 
REMARK    2  A    between atoms: C2_2  and  N3_15 
REMARK       I    between atoms: C3_3  and  N1_5 
REMARK    3  A    between atoms: C11_16  and  O2_17 
REMARK    4  A    between atoms: C14_21  and  O3_22 
REMARK    5  A    between atoms: O3_22  and  C15_23 
ROOT
HETATM    1  C1  UNL     1      -1.805  -9.076  21.938  1.00  0.00     0.043 C 
HETATM    2  C2  UNL     1      -0.821  -9.638  20.965  1.00  0.00     0.182 C 
ENDROOT
BRANCH   2   3
HETATM    3  C3  UNL     1      -1.596 -10.057  19.756  1.00  0.00     0.245 C 
HETATM    4  O1  UNL     1      -2.815 -10.297  19.911  1.00  0.00    -0.271 OA
HETATM    5  N1  UNL     1      -1.021 -10.185  18.469  1.00  0.00    -0.316 N 
HETATM    6  C4  UNL     1      -1.885 -10.589  17.371  1.00  0.00     0.159 C 
HETATM    7  C10 UNL     1       0.385  -9.930  18.239  1.00  0.00     0.307 C 
HETATM    8  C5  UNL     1      -1.602  -9.612  16.231  1.00  0.00     0.293 C 
HETATM    9  N2  UNL     1      -0.215  -9.664  15.865  1.00  0.00     0.099 N 
HETATM   10  C6  UNL     1       0.041  -8.727  14.815  1.00  0.00     0.273 C 
HETATM   11  C9  UNL     1       0.687  -9.329  16.917  1.00  0.00     0.276 C 
HETATM   12  C7  UNL     1       0.723  -7.527  15.415  1.00  0.00     0.033 C 
HETATM   13  C8  UNL     1       0.623  -7.804  16.920  1.00  0.00     0.042 C 
HETATM   14  F1  UNL     1       1.078 -11.129  18.337  1.00  0.00    -0.224 F 
ENDBRANCH   2   3
BRANCH   2  15
HETATM   15  N3  UNL     1       0.044 -10.676  21.475  1.00  0.00    -0.295 N 
HETATM   16  C11 UNL     1      -0.372 -11.927  21.716  1.00  0.00     0.144 A 
HETATM   17  C12 UNL     1       0.678 -12.638  22.239  1.00  0.00     0.060 A 
HETATM   18  C13 UNL     1       1.740 -11.795  22.308  1.00  0.00     0.061 A 
HETATM   19  C14 UNL     1       1.317 -10.556  21.816  1.00  0.00     0.156 A 
BRANCH  16  20
HETATM   20  O2  UNL     1      -1.654 -12.495  21.494  1.00  0.00    -0.346 OA
ATOM     21  H2  UNL     1      -2.503 -12.173  21.772  1.00  0.00     0.219 HD
ENDBRANCH  16  20
BRANCH  19  22
HETATM   22  O3  UNL     1       2.205  -9.459  21.742  1.00  0.00    -0.238 OA
BRANCH  22  23
HETATM   23  C15 UNL     1       3.358  -9.479  20.959  1.00  0.00     0.531 C 
HETATM   24  F2  UNL     1       4.397  -9.893  21.800  1.00  0.00    -0.144 F 
HETATM   25  F3  UNL     1       3.600  -8.222  20.476  1.00  0.00    -0.144 F 
HETATM   26  F4  UNL     1       3.375 -10.351  19.903  1.00  0.00    -0.144 F 
ENDBRANCH  22  23
ENDBRANCH  19  22
ENDBRANCH   2  15
TORSDOF 5
ENDMDL
MODEL 4
REMARK VINA RESULT: -7.152054568      2.916      4.878
REMARK  5 active torsions:
REMARK  status: ('A' for Active; 'I' for Inactive)
REMARK    1  A    between atoms: C2_2  and  C3_3 
REMARK    2  A    between atoms: C2_2  and  N3_15 
REMARK       I    between atoms: C3_3  and  N1_5 
REMARK    3  A    between atoms: C11_16  and  O2_17 
REMARK    4  A    between atoms: C14_21  and  O3_22 
REMARK    5  A    between atoms: O3_22  and  C15_23 
ROOT
HETATM    1  C1  UNL     1      -1.301  -9.123  15.720  1.00  0.00     0.043 C 
HETATM    2  C2  UNL     1      -0.161  -9.238  16.677  1.00  0.00     0.182 C 
ENDROOT
BRANCH   2   3
HETATM    3  C3  UNL     1      -0.189  -8.014  17.537  1.00  0.00     0.245 C 
HETATM    4  O1  UNL     1       0.373  -6.988  17.092  1.00  0.00    -0.271 OA
HETATM    5  N1  UNL     1      -0.819  -7.968  18.804  1.00  0.00    -0.316 N 
HETATM    6  C4  UNL     1      -0.788  -6.712  19.537  1.00  0.00     0.159 C 
HETATM    7  C10 UNL     1      -1.472  -9.129  19.368  1.00  0.00     0.307 C 
HETATM    8  C5  UNL     1      -2.219  -6.462  20.005  1.00  0.00     0.293 C 
HETATM    9  N2  UNL     1      -2.671  -7.548  20.827  1.00  0.00     0.099 N 
HETATM   10  C6  UNL     1      -4.021  -7.312  21.236  1.00  0.00     0.273 C 
HETATM   11  C9  UNL     1      -2.674  -8.817  20.179  1.00  0.00     0.276 C 
HETATM   12  C7  UNL     1      -4.922  -8.182  20.400  1.00  0.00     0.033 C 
HETATM   13  C8  UNL     1      -3.957  -8.753  19.354  1.00  0.00     0.042 C 
HETATM   14  F1  UNL     1      -0.567  -9.802  20.178  1.00  0.00    -0.224 F 
ENDBRANCH   2   3
BRANCH   2  15
HETATM   15  N3  UNL     1       1.133  -9.489  16.087  1.00  0.00    -0.295 N 
HETATM   16  C11 UNL     1       1.508  -8.993  14.900  1.00  0.00     0.144 A 
HETATM   17  C12 UNL     1       2.764  -9.462  14.612  1.00  0.00     0.060 A 
HETATM   18  C13 UNL     1       3.146 -10.251  15.650  1.00  0.00     0.061 A 
HETATM   19  C14 UNL     1       2.098 -10.252  16.576  1.00  0.00     0.156 A 
BRANCH  16  20
HETATM   20  O2  UNL     1       0.792  -8.126  14.033  1.00  0.00    -0.346 OA
ATOM     21  H2  UNL     1       1.081  -7.316  13.630  1.00  0.00     0.219 HD
ENDBRANCH  16  20
BRANCH  19  22
HETATM   22  O3  UNL     1       2.194 -10.976  17.786  1.00  0.00    -0.238 OA
BRANCH  22  23
HETATM   23  C15 UNL     1       2.622 -10.393  18.977  1.00  0.00     0.531 C 
HETATM   24  F2  UNL     1       4.010 -10.252  18.867  1.00  0.00    -0.144 F 
HETATM   25  F3  UNL     1       2.302 -11.214  20.024  1.00  0.00    -0.144 F 
HETATM   26  F4  UNL     1       2.149  -9.140  19.259  1.00  0.00    -0.144 F 
ENDBRANCH  22  23
ENDBRANCH  19  22
ENDBRANCH   2  15
TORSDOF 5
ENDMDL
MODEL 5
REMARK VINA RESULT: -7.120269260      2.548      6.032
REMARK  5 active torsions:
REMARK  status: ('A' for Active; 'I' for Inactive)
REMARK    1  A    between atoms: C2_2  and  C3_3 
REMARK    2  A    between atoms: C2_2  and  N3_15 
REMARK       I    between atoms: C3_3  and  N1_5 
REMARK    3  A    between atoms: C11_16  and  O2_17 
REMARK    4  A    between atoms: C14_21  and  O3_22 
REMARK    5  A    between atoms: O3_22  and  C15_23 
ROOT
HETATM    1  C1  UNL     1       1.890  -7.553  20.977  1.00  0.00     0.043 C 
HETATM    2  C2  UNL     1       1.545  -8.688  20.070  1.00  0.00     0.182 C 
ENDROOT
BRANCH   2   3
HETATM    3  C3  UNL     1       0.823  -8.104  18.897  1.00  0.00     0.245 C 
HETATM    4  O1  UNL     1       0.295  -6.979  19.051  1.00  0.00    -0.271 OA
HETATM    5  N1  UNL     1       0.720  -8.754  17.644  1.00  0.00    -0.316 N 
HETATM    6  C4  UNL     1       0.001  -8.074  16.578  1.00  0.00     0.159 C 
HETATM    7  C10 UNL     1       1.302 -10.059  17.418  1.00  0.00     0.307 C 
HETATM    8  C5  UNL     1       0.898  -8.156  15.346  1.00  0.00     0.293 C 
HETATM    9  N2  UNL     1       1.168  -9.528  15.017  1.00  0.00     0.099 N 
HETATM   10  C6  UNL     1       2.030  -9.589  13.878  1.00  0.00     0.273 C 
HETATM   11  C9  UNL     1       1.826 -10.263  16.046  1.00  0.00     0.276 C 
HETATM   12  C7  UNL     1       3.418  -9.916  14.358  1.00  0.00     0.033 C 
HETATM   13  C8  UNL     1       3.276  -9.816  15.881  1.00  0.00     0.042 C 
HETATM   14  F1  UNL     1       0.337 -11.027  17.661  1.00  0.00    -0.224 F 
ENDBRANCH   2   3
BRANCH   2  15
HETATM   15  N3  UNL     1       0.839  -9.789  20.682  1.00  0.00    -0.295 N 
HETATM   16  C11 UNL     1      -0.433  -9.707  21.097  1.00  0.00     0.144 A 
HETATM   17  C12 UNL     1      -0.778 -10.903  21.675  1.00  0.00     0.060 A 
HETATM   18  C13 UNL     1       0.310 -11.713  21.598  1.00  0.00     0.061 A 
HETATM   19  C14 UNL     1       1.322 -10.989  20.962  1.00  0.00     0.156 A 
BRANCH  16  20
HETATM   20  O2  UNL     1      -1.333  -8.613  20.994  1.00  0.00    -0.346 OA
ATOM     21  H2  UNL     1      -2.282  -8.624  20.980  1.00  0.00     0.219 HD
ENDBRANCH  16  20
BRANCH  19  22
HETATM   22  O3  UNL     1       2.589 -11.567  20.717  1.00  0.00    -0.238 OA
BRANCH  22  23
HETATM   23  C15 UNL     1       3.776 -10.992  21.169  1.00  0.00     0.531 C 
HETATM   24  F2  UNL     1       4.256 -10.206  20.116  1.00  0.00    -0.144 F 
HETATM   25  F3  UNL     1       4.669 -11.981  21.480  1.00  0.00    -0.144 F 
HETATM   26  F4  UNL     1       3.685 -10.147  22.243  1.00  0.00    -0.144 F 
ENDBRANCH  22  23
ENDBRANCH  19  22
ENDBRANCH   2  15
TORSDOF 5
ENDMDL
