MODEL 1
REMARK VINA RESULT: -6.591981460      0.000      0.000
REMARK  6 active torsions:
REMARK  status: ('A' for Active; 'I' for Inactive)
REMARK    1  A    between atoms: C2_2  and  O1_3 
REMARK    2  A    between atoms: O1_3  and  C3_4 
REMARK    3  A    between atoms: C3_4  and  N1_5 
REMARK    4  A    between atoms: C3_4  and  C5_9 
REMARK       I    between atoms: C5_9  and  N2_11 
REMARK    5  A    between atoms: C8_15  and  N3_16 
REMARK    6  A    between atoms: C8_15  and  C11_21 
REMARK       I    between atoms: N3_16  and  C9_18 
ROOT
HETATM    1  C5  UNL     1     -38.779 -34.870  24.278  1.00  0.00     0.280 C 
HETATM    2  O2  UNL     1     -37.787 -34.678  25.052  1.00  0.00    -0.268 OA
HETATM    3  N2  UNL     1     -38.592 -35.514  23.022  1.00  0.00    -0.289 N 
HETATM    4  C6  UNL     1     -39.748 -35.820  22.162  1.00  0.00     0.157 C 
HETATM    5  C7  UNL     1     -39.299 -37.136  21.616  1.00  0.00     0.193 C 
HETATM    6  O3  UNL     1     -37.984 -37.311  21.955  1.00  0.00    -0.335 OA
HETATM    7  C8  UNL     1     -37.468 -35.987  22.314  1.00  0.00     0.325 C 
ENDROOT
BRANCH   1   8
HETATM    8  C3  UNL     1     -40.076 -34.386  24.775  1.00  0.00     0.414 C 
BRANCH   8   9
HETATM    9  O1  UNL     1     -40.673 -33.511  23.828  1.00  0.00    -0.353 OA
BRANCH   9  10
HETATM   10  C2  UNL     1     -42.038 -33.593  23.893  1.00  0.00     0.166 C 
HETATM   11  C1  UNL     1     -42.505 -34.994  24.267  1.00  0.00     0.033 C 
ENDBRANCH   9  10
ENDBRANCH   8   9
BRANCH   8  12
HETATM   12  N1  UNL     1     -39.770 -33.524  25.965  1.00  0.00    -0.044 N 
HETATM   13  C4  UNL     1     -40.392 -34.019  27.150  1.00  0.00     0.270 C 
ATOM     14  H12 UNL     1     -38.765 -33.409  26.093  1.00  0.00     0.280 HD
ATOM     15  H11 UNL     1     -40.021 -32.550  25.793  1.00  0.00     0.280 HD
ENDBRANCH   8  12
ENDBRANCH   1   8
BRANCH   7  16
HETATM   16  N3  UNL     1     -36.290 -36.183  23.066  1.00  0.00    -0.304 N 
HETATM   17  C9  UNL     1     -35.859 -37.187  23.937  1.00  0.00     0.217 C 
HETATM   18  C10 UNL     1     -34.484 -37.087  24.589  1.00  0.00     0.117 C 
HETATM   19  O4  UNL     1     -36.460 -38.226  24.290  1.00  0.00    -0.274 OA
ATOM     20  H3  UNL     1     -35.609 -35.434  22.948  1.00  0.00     0.167 HD
ENDBRANCH   7  16
BRANCH   7  21
HETATM   21  C11 UNL     1     -37.148 -35.318  20.998  1.00  0.00     0.460 C 
HETATM   22  F1  UNL     1     -37.590 -34.015  20.899  1.00  0.00    -0.164 F 
HETATM   23  F2  UNL     1     -37.673 -36.033  19.965  1.00  0.00    -0.164 F 
HETATM   24  F3  UNL     1     -35.746 -35.325  20.848  1.00  0.00    -0.164 F 
ENDBRANCH   7  21
TORSDOF 6
ENDMDL
MODEL 2
REMARK VINA RESULT: -6.425370528      0.962      1.755
REMARK  6 active torsions:
REMARK  status: ('A' for Active; 'I' for Inactive)
REMARK    1  A    between atoms: C2_2  and  O1_3 
REMARK    2  A    between atoms: O1_3  and  C3_4 
REMARK    3  A    between atoms: C3_4  and  N1_5 
REMARK    4  A    between atoms: C3_4  and  C5_9 
REMARK       I    between atoms: C5_9  and  N2_11 
REMARK    5  A    between atoms: C8_15  and  N3_16 
REMARK    6  A    between atoms: C8_15  and  C11_21 
REMARK       I    between atoms: N3_16  and  C9_18 
ROOT
HETATM    1  C5  UNL     1     -38.666 -34.966  24.392  1.00  0.00     0.280 C 
HETATM    2  O2  UNL     1     -37.675 -34.855  25.184  1.00  0.00    -0.268 OA
HETATM    3  N2  UNL     1     -38.487 -35.530  23.098  1.00  0.00    -0.289 N 
HETATM    4  C6  UNL     1     -39.644 -35.745  22.212  1.00  0.00     0.157 C 
HETATM    5  C7  UNL     1     -39.229 -37.034  21.582  1.00  0.00     0.193 C 
HETATM    6  O3  UNL     1     -37.922 -37.269  21.918  1.00  0.00    -0.335 OA
HETATM    7  C8  UNL     1     -37.372 -35.988  22.366  1.00  0.00     0.325 C 
ENDROOT
BRANCH   1   8
HETATM    8  C3  UNL     1     -39.952 -34.478  24.912  1.00  0.00     0.414 C 
BRANCH   8   9
HETATM    9  O1  UNL     1     -39.747 -33.688  26.076  1.00  0.00    -0.353 OA
BRANCH   9  10
HETATM   10  C2  UNL     1     -40.281 -34.306  27.175  1.00  0.00     0.166 C 
HETATM   11  C1  UNL     1     -39.207 -34.699  28.183  1.00  0.00     0.033 C 
ENDBRANCH   9  10
ENDBRANCH   8   9
BRANCH   8  12
HETATM   12  N1  UNL     1     -40.695 -35.692  25.390  1.00  0.00    -0.044 N 
HETATM   13  C4  UNL     1     -41.941 -35.849  24.711  1.00  0.00     0.270 C 
ATOM     14  H12 UNL     1     -40.123 -36.532  25.315  1.00  0.00     0.280 HD
ATOM     15  H11 UNL     1     -40.823 -35.676  26.402  1.00  0.00     0.280 HD
ENDBRANCH   8  12
ENDBRANCH   1   8
BRANCH   7  16
HETATM   16  N3  UNL     1     -36.206 -36.268  23.111  1.00  0.00    -0.304 N 
HETATM   17  C9  UNL     1     -35.837 -37.306  23.970  1.00  0.00     0.217 C 
HETATM   18  C10 UNL     1     -34.456 -37.302  24.617  1.00  0.00     0.117 C 
HETATM   19  O4  UNL     1     -36.504 -38.307  24.317  1.00  0.00    -0.274 OA
ATOM     20  H3  UNL     1     -35.477 -35.563  22.997  1.00  0.00     0.167 HD
ENDBRANCH   7  16
BRANCH   7  21
HETATM   21  C11 UNL     1     -37.021 -35.243  21.100  1.00  0.00     0.460 C 
HETATM   22  F1  UNL     1     -37.357 -33.905  21.114  1.00  0.00    -0.164 F 
HETATM   23  F2  UNL     1     -37.623 -35.828  20.027  1.00  0.00    -0.164 F 
HETATM   24  F3  UNL     1     -35.628 -35.350  20.915  1.00  0.00    -0.164 F 
ENDBRANCH   7  21
TORSDOF 6
ENDMDL
MODEL 3
REMARK VINA RESULT: -6.422738885      2.815      5.577
REMARK  6 active torsions:
REMARK  status: ('A' for Active; 'I' for Inactive)
REMARK    1  A    between atoms: C2_2  and  O1_3 
REMARK    2  A    between atoms: O1_3  and  C3_4 
REMARK    3  A    between atoms: C3_4  and  N1_5 
REMARK    4  A    between atoms: C3_4  and  C5_9 
REMARK       I    between atoms: C5_9  and  N2_11 
REMARK    5  A    between atoms: C8_15  and  N3_16 
REMARK    6  A    between atoms: C8_15  and  C11_21 
REMARK       I    between atoms: N3_16  and  C9_18 
ROOT
HETATM    1  C5  UNL     1     -38.137 -35.558  23.557  1.00  0.00     0.280 C 
HETATM    2  O2  UNL     1     -37.483 -35.897  24.595  1.00  0.00    -0.268 OA
HETATM    3  N2  UNL     1     -39.462 -35.054  23.679  1.00  0.00    -0.289 N 
HETATM    4  C6  UNL     1     -40.190 -34.576  22.491  1.00  0.00     0.157 C 
HETATM    5  C7  UNL     1     -40.915 -33.421  23.102  1.00  0.00     0.193 C 
HETATM    6  O3  UNL     1     -40.768 -33.499  24.462  1.00  0.00    -0.335 OA
HETATM    7  C8  UNL     1     -40.353 -34.873  24.757  1.00  0.00     0.325 C 
ENDROOT
BRANCH   1   8
HETATM    8  C3  UNL     1     -37.431 -35.729  22.278  1.00  0.00     0.414 C 
BRANCH   8   9
HETATM    9  O1  UNL     1     -36.350 -36.639  22.428  1.00  0.00    -0.353 OA
BRANCH   9  10
HETATM   10  C2  UNL     1     -35.153 -35.984  22.319  1.00  0.00     0.166 C 
HETATM   11  C1  UNL     1     -34.147 -36.464  23.359  1.00  0.00     0.033 C 
ENDBRANCH   9  10
ENDBRANCH   8   9
BRANCH   8  12
HETATM   12  N1  UNL     1     -36.789 -34.406  21.977  1.00  0.00    -0.044 N 
HETATM   13  C4  UNL     1     -37.439 -33.738  20.896  1.00  0.00     0.270 C 
ATOM     14  H12 UNL     1     -36.746 -33.816  22.807  1.00  0.00     0.280 HD
ATOM     15  H11 UNL     1     -35.789 -34.509  21.803  1.00  0.00     0.280 HD
ENDBRANCH   8  12
ENDBRANCH   1   8
BRANCH   7  16
HETATM   16  N3  UNL     1     -39.784 -34.872  26.048  1.00  0.00    -0.304 N 
HETATM   17  C9  UNL     1     -40.062 -34.172  27.224  1.00  0.00     0.217 C 
HETATM   18  C10 UNL     1     -39.232 -34.430  28.477  1.00  0.00     0.117 C 
HETATM   19  O4  UNL     1     -40.946 -33.309  27.429  1.00  0.00    -0.274 OA
ATOM     20  H3  UNL     1     -39.003 -35.521  26.143  1.00  0.00     0.167 HD
ENDBRANCH   7  16
BRANCH   7  21
HETATM   21  C11 UNL     1     -41.629 -35.682  24.745  1.00  0.00     0.460 C 
HETATM   22  F1  UNL     1     -41.779 -36.492  23.638  1.00  0.00    -0.164 F 
HETATM   23  F2  UNL     1     -42.711 -34.858  24.827  1.00  0.00    -0.164 F 
HETATM   24  F3  UNL     1     -41.627 -36.496  25.895  1.00  0.00    -0.164 F 
ENDBRANCH   7  21
TORSDOF 6
ENDMDL
MODEL 4
REMARK VINA RESULT: -6.188717585      3.029      5.360
REMARK  6 active torsions:
REMARK  status: ('A' for Active; 'I' for Inactive)
REMARK    1  A    between atoms: C2_2  and  O1_3 
REMARK    2  A    between atoms: O1_3  and  C3_4 
REMARK    3  A    between atoms: C3_4  and  N1_5 
REMARK    4  A    between atoms: C3_4  and  C5_9 
REMARK       I    between atoms: C5_9  and  N2_11 
REMARK    5  A    between atoms: C8_15  and  N3_16 
REMARK    6  A    between atoms: C8_15  and  C11_21 
REMARK       I    between atoms: N3_16  and  C9_18 
ROOT
HETATM    1  C5  UNL     1     -38.869 -35.138  22.640  1.00  0.00     0.280 C 
HETATM    2  O2  UNL     1     -37.987 -35.489  23.489  1.00  0.00    -0.268 OA
HETATM    3  N2  UNL     1     -40.185 -34.810  23.069  1.00  0.00    -0.289 N 
HETATM    4  C6  UNL     1     -41.183 -34.318  22.104  1.00  0.00     0.157 C 
HETATM    5  C7  UNL     1     -41.880 -33.318  22.969  1.00  0.00     0.193 C 
HETATM    6  O3  UNL     1     -41.453 -33.500  24.257  1.00  0.00    -0.335 OA
HETATM    7  C8  UNL     1     -40.852 -34.835  24.311  1.00  0.00     0.325 C 
ENDROOT
BRANCH   1   8
HETATM    8  C3  UNL     1     -38.424 -35.107  21.238  1.00  0.00     0.414 C 
BRANCH   8   9
HETATM    9  O1  UNL     1     -38.342 -36.427  20.716  1.00  0.00    -0.353 OA
BRANCH   9  10
HETATM   10  C2  UNL     1     -39.444 -36.711  19.956  1.00  0.00     0.166 C 
HETATM   11  C1  UNL     1     -40.347 -37.739  20.626  1.00  0.00     0.033 C 
ENDBRANCH   9  10
ENDBRANCH   8   9
BRANCH   8  12
HETATM   12  N1  UNL     1     -37.008 -34.609  21.262  1.00  0.00    -0.044 N 
HETATM   13  C4  UNL     1     -36.112 -35.535  20.648  1.00  0.00     0.270 C 
ATOM     14  H12 UNL     1     -36.932 -33.684  20.841  1.00  0.00     0.280 HD
ATOM     15  H11 UNL     1     -36.711 -34.378  22.210  1.00  0.00     0.280 HD
ENDBRANCH   8  12
ENDBRANCH   1   8
BRANCH   7  16
HETATM   16  N3  UNL     1     -40.036 -34.883  25.461  1.00  0.00    -0.304 N 
HETATM   17  C9  UNL     1     -40.096 -34.265  26.713  1.00  0.00     0.217 C 
HETATM   18  C10 UNL     1     -39.023 -34.557  27.756  1.00  0.00     0.117 C 
HETATM   19  O4  UNL     1     -40.949 -33.457  27.145  1.00  0.00    -0.274 OA
ATOM     20  H3  UNL     1     -39.230 -35.499  25.356  1.00  0.00     0.167 HD
ENDBRANCH   7  16
BRANCH   7  21
HETATM   21  C11 UNL     1     -42.017 -35.787  24.453  1.00  0.00     0.460 C 
HETATM   22  F1  UNL     1     -42.176 -36.654  23.393  1.00  0.00    -0.164 F 
HETATM   23  F2  UNL     1     -43.177 -35.092  24.620  1.00  0.00    -0.164 F 
HETATM   24  F3  UNL     1     -41.806 -36.546  25.621  1.00  0.00    -0.164 F 
ENDBRANCH   7  21
TORSDOF 6
ENDMDL
MODEL 5
REMARK VINA RESULT: -6.085261290      1.896      2.518
REMARK  6 active torsions:
REMARK  status: ('A' for Active; 'I' for Inactive)
REMARK    1  A    between atoms: C2_2  and  O1_3 
REMARK    2  A    between atoms: O1_3  and  C3_4 
REMARK    3  A    between atoms: C3_4  and  N1_5 
REMARK    4  A    between atoms: C3_4  and  C5_9 
REMARK       I    between atoms: C5_9  and  N2_11 
REMARK    5  A    between atoms: C8_15  and  N3_16 
REMARK    6  A    between atoms: C8_15  and  C11_21 
REMARK       I    between atoms: N3_16  and  C9_18 
ROOT
HETATM    1  C5  UNL     1     -39.851 -34.162  22.845  1.00  0.00     0.280 C 
HETATM    2  O2  UNL     1     -39.489 -33.968  24.050  1.00  0.00    -0.268 OA
HETATM    3  N2  UNL     1     -39.071 -34.988  21.988  1.00  0.00    -0.289 N 
HETATM    4  C6  UNL     1     -39.531 -35.289  20.622  1.00  0.00     0.157 C 
HETATM    5  C7  UNL     1     -39.072 -36.707  20.520  1.00  0.00     0.193 C 
HETATM    6  O3  UNL     1     -38.259 -36.968  21.591  1.00  0.00    -0.335 OA
HETATM    7  C8  UNL     1     -37.843 -35.667  22.123  1.00  0.00     0.325 C 
ENDROOT
BRANCH   1   8
HETATM    8  C3  UNL     1     -41.091 -33.482  22.437  1.00  0.00     0.414 C 
BRANCH   8   9
HETATM    9  O1  UNL     1     -40.824 -32.127  22.104  1.00  0.00    -0.353 OA
BRANCH   9  10
HETATM   10  C2  UNL     1     -41.201 -31.867  20.813  1.00  0.00     0.166 C 
HETATM   11  C1  UNL     1     -39.996 -31.666  19.901  1.00  0.00     0.033 C 
ENDBRANCH   9  10
ENDBRANCH   8   9
BRANCH   8  12
HETATM   12  N1  UNL     1     -41.954 -33.421  23.663  1.00  0.00    -0.044 N 
HETATM   13  C4  UNL     1     -43.201 -34.088  23.464  1.00  0.00     0.270 C 
ATOM     14  H12 UNL     1     -41.465 -33.782  24.481  1.00  0.00     0.280 HD
ATOM     15  H11 UNL     1     -42.093 -32.459  23.972  1.00  0.00     0.280 HD
ENDBRANCH   8  12
ENDBRANCH   1   8
BRANCH   7  16
HETATM   16  N3  UNL     1     -37.385 -35.879  23.441  1.00  0.00    -0.304 N 
HETATM   17  C9  UNL     1     -36.618 -36.878  24.047  1.00  0.00     0.217 C 
HETATM   18  C10 UNL     1     -36.291 -36.787  25.533  1.00  0.00     0.117 C 
HETATM   19  O4  UNL     1     -36.122 -37.903  23.529  1.00  0.00    -0.274 OA
ATOM     20  H3  UNL     1     -37.674 -35.147  24.090  1.00  0.00     0.167 HD
ENDBRANCH   7  16
BRANCH   7  21
HETATM   21  C11 UNL     1     -36.704 -35.223  21.235  1.00  0.00     0.460 C 
HETATM   22  F1  UNL     1     -36.581 -35.943  20.065  1.00  0.00    -0.164 F 
HETATM   23  F2  UNL     1     -35.524 -35.291  21.911  1.00  0.00    -0.164 F 
HETATM   24  F3  UNL     1     -36.926 -33.871  20.904  1.00  0.00    -0.164 F 
ENDBRANCH   7  21
TORSDOF 6
ENDMDL
