MODEL 1
REMARK VINA RESULT: -6.561597583      0.000      0.000
REMARK  6 active torsions:
REMARK  status: ('A' for Active; 'I' for Inactive)
REMARK    1  A    between atoms: N1_1  and  N2_4 
REMARK    2  A    between atoms: N2_4  and  C1_5 
REMARK    3  A    between atoms: C1_5  and  C2_6 
REMARK    4  A    between atoms: C2_6  and  C3_8 
REMARK    5  A    between atoms: C3_8  and  O1_9 
REMARK    6  A    between atoms: C6_15  and  C7_16 
ROOT
HETATM    1  C3  UNL     1     -39.106 -34.280  24.689  1.00  0.00     0.163 C 
HETATM    2  C4  UNL     1     -40.528 -34.473  24.351  1.00  0.00     0.073 C 
HETATM    3 CL1  UNL     1     -41.852 -34.117  25.448  1.00  0.00    -0.084 Cl
HETATM    4  C5  UNL     1     -40.645 -34.942  23.127  1.00  0.00     0.080 C 
HETATM    5 CL2  UNL     1     -42.203 -35.314  22.336  1.00  0.00    -0.083 Cl
HETATM    6  C6  UNL     1     -39.344 -35.123  22.485  1.00  0.00     0.219 C 
HETATM    7  O4  UNL     1     -38.910 -36.449  22.455  1.00  0.00    -0.336 OA
HETATM    8  C8  UNL     1     -37.529 -36.283  22.525  1.00  0.00     0.341 C 
HETATM    9  O5  UNL     1     -37.279 -35.349  23.523  1.00  0.00    -0.354 OA
HETATM   10  C9  UNL     1     -38.373 -34.512  23.449  1.00  0.00     0.218 C 
ENDROOT
BRANCH   1  11
HETATM   11  C2  UNL     1     -38.802 -35.218  25.826  1.00  0.00     0.266 C 
HETATM   12  F1  UNL     1     -37.559 -35.798  25.656  1.00  0.00    -0.239 F 
BRANCH  11  13
HETATM   13  C1  UNL     1     -38.929 -34.624  27.152  1.00  0.00     0.221 C 
BRANCH  13  14
HETATM   14  N2  UNL     1     -39.308 -35.262  28.161  1.00  0.00    -0.347 NA
BRANCH  14  15
HETATM   15  N1  UNL     1     -39.470 -35.757  29.297  1.00  0.00    -0.281 N 
ATOM     16  H12 UNL     1     -39.013 -36.625  29.019  1.00  0.00     0.191 HD
ATOM     17  H11 UNL     1     -39.704 -35.953  30.271  1.00  0.00     0.191 HD
ENDBRANCH  14  15
ENDBRANCH  13  14
ENDBRANCH  11  13
ENDBRANCH   1  11
BRANCH   1  18
HETATM   18  O1  UNL     1     -38.926 -32.937  25.076  1.00  0.00    -0.378 OA
ATOM     19  H1  UNL     1     -39.544 -32.367  24.634  1.00  0.00     0.211 HD
ENDBRANCH   1  18
BRANCH   6  20
HETATM   20  C7  UNL     1     -39.284 -34.492  21.140  1.00  0.00     0.218 C 
HETATM   21  O2  UNL     1     -38.778 -33.344  21.077  1.00  0.00    -0.645 OA
HETATM   22  O3  UNL     1     -39.752 -35.112  20.014  1.00  0.00    -0.645 OA
ENDBRANCH   6  20
TORSDOF 6
ENDMDL
MODEL 2
REMARK VINA RESULT: -6.400261199      1.934      2.235
REMARK  6 active torsions:
REMARK  status: ('A' for Active; 'I' for Inactive)
REMARK    1  A    between atoms: N1_1  and  N2_4 
REMARK    2  A    between atoms: N2_4  and  C1_5 
REMARK    3  A    between atoms: C1_5  and  C2_6 
REMARK    4  A    between atoms: C2_6  and  C3_8 
REMARK    5  A    between atoms: C3_8  and  O1_9 
REMARK    6  A    between atoms: C6_15  and  C7_16 
ROOT
HETATM    1  C3  UNL     1     -39.791 -34.428  23.742  1.00  0.00     0.163 C 
HETATM    2  C4  UNL     1     -40.450 -34.959  22.535  1.00  0.00     0.073 C 
HETATM    3 CL1  UNL     1     -42.186 -34.937  22.276  1.00  0.00    -0.084 Cl
HETATM    4  C5  UNL     1     -39.552 -35.441  21.701  1.00  0.00     0.080 C 
HETATM    5 CL2  UNL     1     -39.939 -36.179  20.121  1.00  0.00    -0.083 Cl
HETATM    6  C6  UNL     1     -38.193 -35.301  22.222  1.00  0.00     0.219 C 
HETATM    7  O4  UNL     1     -37.665 -36.481  22.744  1.00  0.00    -0.336 OA
HETATM    8  C8  UNL     1     -36.832 -35.985  23.744  1.00  0.00     0.341 C 
HETATM    9  O5  UNL     1     -37.554 -35.020  24.436  1.00  0.00    -0.354 OA
HETATM   10  C9  UNL     1     -38.360 -34.473  23.460  1.00  0.00     0.218 C 
ENDROOT
BRANCH   1  11
HETATM   11  C2  UNL     1     -40.268 -35.266  24.898  1.00  0.00     0.266 C 
HETATM   12  F1  UNL     1     -39.208 -35.611  25.714  1.00  0.00    -0.239 F 
BRANCH  11  13
HETATM   13  C1  UNL     1     -41.355 -34.673  25.667  1.00  0.00     0.221 C 
BRANCH  13  14
HETATM   14  N2  UNL     1     -41.194 -33.731  26.478  1.00  0.00    -0.347 NA
BRANCH  14  15
HETATM   15  N1  UNL     1     -40.772 -32.777  27.166  1.00  0.00    -0.281 N 
ATOM     16  H12 UNL     1     -39.946 -33.305  27.447  1.00  0.00     0.191 HD
ATOM     17  H11 UNL     1     -40.624 -31.892  27.652  1.00  0.00     0.191 HD
ENDBRANCH  14  15
ENDBRANCH  13  14
ENDBRANCH  11  13
ENDBRANCH   1  11
BRANCH   1  18
HETATM   18  O1  UNL     1     -40.178 -33.082  23.895  1.00  0.00    -0.378 OA
ATOM     19  H1  UNL     1     -40.897 -32.863  23.314  1.00  0.00     0.211 HD
ENDBRANCH   1  18
BRANCH   6  20
HETATM   20  C7  UNL     1     -37.273 -34.672  21.237  1.00  0.00     0.218 C 
HETATM   21  O2  UNL     1     -37.397 -33.434  21.059  1.00  0.00    -0.645 OA
HETATM   22  O3  UNL     1     -36.331 -35.386  20.549  1.00  0.00    -0.645 OA
ENDBRANCH   6  20
TORSDOF 6
ENDMDL
MODEL 3
REMARK VINA RESULT: -6.353383630      1.189      1.272
REMARK  6 active torsions:
REMARK  status: ('A' for Active; 'I' for Inactive)
REMARK    1  A    between atoms: N1_1  and  N2_4 
REMARK    2  A    between atoms: N2_4  and  C1_5 
REMARK    3  A    between atoms: C1_5  and  C2_6 
REMARK    4  A    between atoms: C2_6  and  C3_8 
REMARK    5  A    between atoms: C3_8  and  O1_9 
REMARK    6  A    between atoms: C6_15  and  C7_16 
ROOT
HETATM    1  C3  UNL     1     -40.203 -34.373  24.853  1.00  0.00     0.163 C 
HETATM    2  C4  UNL     1     -41.127 -35.334  24.222  1.00  0.00     0.073 C 
HETATM    3 CL1  UNL     1     -42.414 -36.165  25.081  1.00  0.00    -0.084 Cl
HETATM    4  C5  UNL     1     -40.841 -35.467  22.944  1.00  0.00     0.080 C 
HETATM    5 CL2  UNL     1     -41.725 -36.539  21.821  1.00  0.00    -0.083 Cl
HETATM    6  C6  UNL     1     -39.711 -34.629  22.547  1.00  0.00     0.219 C 
HETATM    7  O4  UNL     1     -38.511 -35.327  22.412  1.00  0.00    -0.336 OA
HETATM    8  C8  UNL     1     -37.587 -34.349  22.771  1.00  0.00     0.341 C 
HETATM    9  O5  UNL     1     -38.067 -33.735  23.922  1.00  0.00    -0.354 OA
HETATM   10  C9  UNL     1     -39.435 -33.790  23.758  1.00  0.00     0.218 C 
ENDROOT
BRANCH   1  11
HETATM   11  C2  UNL     1     -39.418 -35.141  25.881  1.00  0.00     0.266 C 
HETATM   12  F1  UNL     1     -38.199 -35.535  25.363  1.00  0.00    -0.239 F 
BRANCH  11  13
HETATM   13  C1  UNL     1     -39.251 -34.452  27.155  1.00  0.00     0.221 C 
BRANCH  13  14
HETATM   14  N2  UNL     1     -39.446 -34.997  28.266  1.00  0.00    -0.347 NA
BRANCH  14  15
HETATM   15  N1  UNL     1     -39.384 -35.664  29.321  1.00  0.00    -0.281 N 
ATOM     16  H12 UNL     1     -39.274 -36.534  28.802  1.00  0.00     0.191 HD
ATOM     17  H11 UNL     1     -39.360 -35.998  30.285  1.00  0.00     0.191 HD
ENDBRANCH  14  15
ENDBRANCH  13  14
ENDBRANCH  11  13
ENDBRANCH   1  11
BRANCH   1  18
HETATM   18  O1  UNL     1     -40.973 -33.357  25.455  1.00  0.00    -0.378 OA
ATOM     19  H1  UNL     1     -40.764 -33.270  26.377  1.00  0.00     0.211 HD
ENDBRANCH   1  18
BRANCH   6  20
HETATM   20  C7  UNL     1     -40.011 -33.808  21.344  1.00  0.00     0.218 C 
HETATM   21  O2  UNL     1     -40.346 -32.614  21.543  1.00  0.00    -0.645 OA
HETATM   22  O3  UNL     1     -39.932 -34.309  20.073  1.00  0.00    -0.645 OA
ENDBRANCH   6  20
TORSDOF 6
ENDMDL
MODEL 4
REMARK VINA RESULT: -6.163266029      1.997      2.160
REMARK  6 active torsions:
REMARK  status: ('A' for Active; 'I' for Inactive)
REMARK    1  A    between atoms: N1_1  and  N2_4 
REMARK    2  A    between atoms: N2_4  and  C1_5 
REMARK    3  A    between atoms: C1_5  and  C2_6 
REMARK    4  A    between atoms: C2_6  and  C3_8 
REMARK    5  A    between atoms: C3_8  and  O1_9 
REMARK    6  A    between atoms: C6_15  and  C7_16 
ROOT
HETATM    1  C3  UNL     1     -39.683 -34.088  23.715  1.00  0.00     0.163 C 
HETATM    2  C4  UNL     1     -40.605 -35.237  23.747  1.00  0.00     0.073 C 
HETATM    3 CL1  UNL     1     -41.780 -35.516  25.022  1.00  0.00    -0.084 Cl
HETATM    4  C5  UNL     1     -40.414 -36.003  22.694  1.00  0.00     0.080 C 
HETATM    5 CL2  UNL     1     -41.330 -37.499  22.357  1.00  0.00    -0.083 Cl
HETATM    6  C6  UNL     1     -39.360 -35.483  21.825  1.00  0.00     0.219 C 
HETATM    7  O4  UNL     1     -38.142 -36.150  21.955  1.00  0.00    -0.336 OA
HETATM    8  C8  UNL     1     -37.241 -35.125  21.681  1.00  0.00     0.341 C 
HETATM    9  O5  UNL     1     -37.658 -34.011  22.399  1.00  0.00    -0.354 OA
HETATM   10  C9  UNL     1     -39.031 -34.143  22.412  1.00  0.00     0.218 C 
ENDROOT
BRANCH   1  11
HETATM   11  C2  UNL     1     -38.783 -34.223  24.914  1.00  0.00     0.266 C 
HETATM   12  F1  UNL     1     -39.312 -33.542  25.994  1.00  0.00    -0.239 F 
BRANCH  11  13
HETATM   13  C1  UNL     1     -38.450 -35.597  25.269  1.00  0.00     0.221 C 
BRANCH  13  14
HETATM   14  N2  UNL     1     -37.284 -36.055  25.238  1.00  0.00    -0.347 NA
BRANCH  14  15
HETATM   15  N1  UNL     1     -36.253 -36.748  25.102  1.00  0.00    -0.281 N 
ATOM     16  H12 UNL     1     -35.676 -36.033  25.545  1.00  0.00     0.191 HD
ATOM     17  H11 UNL     1     -35.560 -37.467  24.891  1.00  0.00     0.191 HD
ENDBRANCH  14  15
ENDBRANCH  13  14
ENDBRANCH  11  13
ENDBRANCH   1  11
BRANCH   1  18
HETATM   18  O1  UNL     1     -40.451 -32.908  23.786  1.00  0.00    -0.378 OA
ATOM     19  H1  UNL     1     -41.066 -32.855  23.064  1.00  0.00     0.211 HD
ENDBRANCH   1  18
BRANCH   6  20
HETATM   20  C7  UNL     1     -39.791 -35.391  20.405  1.00  0.00     0.218 C 
HETATM   21  O2  UNL     1     -40.283 -34.296  20.033  1.00  0.00    -0.645 OA
HETATM   22  O3  UNL     1     -39.669 -36.435  19.529  1.00  0.00    -0.645 OA
ENDBRANCH   6  20
TORSDOF 6
ENDMDL
MODEL 5
REMARK VINA RESULT: -6.098791410      2.698      3.338
REMARK  6 active torsions:
REMARK  status: ('A' for Active; 'I' for Inactive)
REMARK    1  A    between atoms: N1_1  and  N2_4 
REMARK    2  A    between atoms: N2_4  and  C1_5 
REMARK    3  A    between atoms: C1_5  and  C2_6 
REMARK    4  A    between atoms: C2_6  and  C3_8 
REMARK    5  A    between atoms: C3_8  and  O1_9 
REMARK    6  A    between atoms: C6_15  and  C7_16 
ROOT
HETATM    1  C3  UNL     1     -40.758 -33.886  24.405  1.00  0.00     0.163 C 
HETATM    2  C4  UNL     1     -41.243 -35.268  24.572  1.00  0.00     0.073 C 
HETATM    3 CL1  UNL     1     -41.268 -36.119  26.108  1.00  0.00    -0.084 Cl
HETATM    4  C5  UNL     1     -41.646 -35.752  23.416  1.00  0.00     0.080 C 
HETATM    5 CL2  UNL     1     -42.304 -37.397  23.187  1.00  0.00    -0.083 Cl
HETATM    6  C6  UNL     1     -41.492 -34.780  22.335  1.00  0.00     0.219 C 
HETATM    7  O4  UNL     1     -40.384 -35.013  21.521  1.00  0.00    -0.336 OA
HETATM    8  C8  UNL     1     -40.049 -33.715  21.142  1.00  0.00     0.341 C 
HETATM    9  O5  UNL     1     -40.088 -32.931  22.290  1.00  0.00    -0.354 OA
HETATM   10  C9  UNL     1     -41.091 -33.516  23.034  1.00  0.00     0.218 C 
ENDROOT
BRANCH   1  11
HETATM   11  C2  UNL     1     -39.295 -33.897  24.755  1.00  0.00     0.266 C 
HETATM   12  F1  UNL     1     -39.108 -33.504  26.066  1.00  0.00    -0.239 F 
BRANCH  11  13
HETATM   13  C1  UNL     1     -38.616 -35.158  24.480  1.00  0.00     0.221 C 
BRANCH  13  14
HETATM   14  N2  UNL     1     -37.803 -35.315  23.540  1.00  0.00    -0.347 NA
BRANCH  14  15
HETATM   15  N1  UNL     1     -37.230 -35.458  22.439  1.00  0.00    -0.281 N 
ATOM     16  H12 UNL     1     -38.100 -35.737  21.986  1.00  0.00     0.191 HD
ATOM     17  H11 UNL     1     -36.571 -35.508  21.662  1.00  0.00     0.191 HD
ENDBRANCH  14  15
ENDBRANCH  13  14
ENDBRANCH  11  13
ENDBRANCH   1  11
BRANCH   1  18
HETATM   18  O1  UNL     1     -41.485 -33.058  25.284  1.00  0.00    -0.378 OA
ATOM     19  H1  UNL     1     -42.037 -33.571  25.863  1.00  0.00     0.211 HD
ENDBRANCH   1  18
BRANCH   6  20
HETATM   20  C7  UNL     1     -42.738 -34.618  21.539  1.00  0.00     0.218 C 
HETATM   21  O2  UNL     1     -43.532 -33.717  21.909  1.00  0.00    -0.645 OA
HETATM   22  O3  UNL     1     -43.026 -35.401  20.454  1.00  0.00    -0.645 OA
ENDBRANCH   6  20
TORSDOF 6
ENDMDL
