MODEL 1
REMARK VINA RESULT: -6.914916079      0.000      0.000
REMARK  7 active torsions:
REMARK  status: ('A' for Active; 'I' for Inactive)
REMARK    1  A    between atoms: N1_2  and  C2_4 
REMARK    2  A    between atoms: C2_4  and  C3_8 
REMARK    3  A    between atoms: C3_8  and  C4_9 
REMARK    4  A    between atoms: C3_8  and  C9_17 
REMARK       I    between atoms: C4_9  and  N3_11 
REMARK    5  A    between atoms: C9_17  and  C10_20 
REMARK    6  A    between atoms: C10_20  and  C11_23 
REMARK    7  A    between atoms: C12_24  and  C13_25 
ROOT
HETATM    1  C3  UNL     1     -39.331 -34.191  22.702  1.00  0.00     0.224 C 
ENDROOT
BRANCH   1   2
HETATM    2  C2  UNL     1     -39.828 -34.258  24.101  1.00  0.00     0.089 C 
HETATM    3  N2  UNL     1     -39.448 -33.369  24.931  1.00  0.00    -0.388 N 
ATOM      4  H22 UNL     1     -39.789 -33.416  25.892  1.00  0.00     0.157 HD
ATOM      5  H21 UNL     1     -38.813 -32.626  24.642  1.00  0.00     0.157 HD
BRANCH   2   6
HETATM    6  N1  UNL     1     -40.718 -35.300  24.506  1.00  0.00    -0.384 N 
HETATM    7  C1  UNL     1     -41.080 -35.518  25.879  1.00  0.00     0.147 C 
ATOM      8  H1  UNL     1     -41.112 -35.912  23.792  1.00  0.00     0.160 HD
ENDBRANCH   2   6
ENDBRANCH   1   2
BRANCH   1   9
HETATM    9  C4  UNL     1     -40.510 -34.194  21.794  1.00  0.00     0.237 C 
HETATM   10  O1  UNL     1     -41.492 -34.909  22.120  1.00  0.00    -0.272 OA
HETATM   11  N3  UNL     1     -40.573 -33.437  20.610  1.00  0.00    -0.347 N 
HETATM   12  C5  UNL     1     -41.737 -33.457  19.774  1.00  0.00     0.152 C 
HETATM   13  C8  UNL     1     -39.465 -32.624  20.203  1.00  0.00     0.152 C 
HETATM   14  C6  UNL     1     -41.524 -32.759  18.467  1.00  0.00     0.187 C 
HETATM   15  O2  UNL     1     -40.756 -31.636  18.492  1.00  0.00    -0.388 OA
HETATM   16  C7  UNL     1     -40.102 -31.344  19.656  1.00  0.00     0.187 C 
ENDBRANCH   1   9
BRANCH   1  17
HETATM   17  C9  UNL     1     -38.482 -35.396  22.415  1.00  0.00     0.338 C 
HETATM   18  F1  UNL     1     -39.224 -36.374  21.810  1.00  0.00    -0.197 F 
HETATM   19  F2  UNL     1     -38.087 -35.910  23.693  1.00  0.00    -0.197 F 
BRANCH  17  20
HETATM   20  C10 UNL     1     -37.207 -35.154  21.706  1.00  0.00     0.372 C 
HETATM   21  F3  UNL     1     -36.902 -33.792  21.710  1.00  0.00    -0.184 F 
HETATM   22  F4  UNL     1     -37.091 -35.599  20.429  1.00  0.00    -0.184 F 
BRANCH  20  23
HETATM   23  C11 UNL     1     -36.131 -35.811  22.501  1.00  0.00    -0.015 C 
HETATM   24  C12 UNL     1     -35.247 -36.331  23.134  1.00  0.00    -0.032 C 
BRANCH  24  25
HETATM   25  C13 UNL     1     -34.190 -36.928  23.896  1.00  0.00     0.323 C 
HETATM   26  O3  UNL     1     -33.842 -36.375  24.966  1.00  0.00    -0.293 OA
ENDBRANCH  24  25
ENDBRANCH  20  23
ENDBRANCH  17  20
ENDBRANCH   1  17
TORSDOF 7
ENDMDL
MODEL 2
REMARK VINA RESULT: -6.847322563      1.143      1.361
REMARK  7 active torsions:
REMARK  status: ('A' for Active; 'I' for Inactive)
REMARK    1  A    between atoms: N1_2  and  C2_4 
REMARK    2  A    between atoms: C2_4  and  C3_8 
REMARK    3  A    between atoms: C3_8  and  C4_9 
REMARK    4  A    between atoms: C3_8  and  C9_17 
REMARK       I    between atoms: C4_9  and  N3_11 
REMARK    5  A    between atoms: C9_17  and  C10_20 
REMARK    6  A    between atoms: C10_20  and  C11_23 
REMARK    7  A    between atoms: C12_24  and  C13_25 
ROOT
HETATM    1  C3  UNL     1     -39.227 -34.345  21.884  1.00  0.00     0.224 C 
ENDROOT
BRANCH   1   2
HETATM    2  C2  UNL     1     -39.693 -34.607  23.271  1.00  0.00     0.089 C 
HETATM    3  N2  UNL     1     -40.776 -35.256  23.442  1.00  0.00    -0.388 N 
ATOM      4  H22 UNL     1     -41.096 -35.436  24.394  1.00  0.00     0.157 HD
ATOM      5  H21 UNL     1     -41.315 -35.588  22.643  1.00  0.00     0.157 HD
BRANCH   2   6
HETATM    6  N1  UNL     1     -38.937 -34.142  24.391  1.00  0.00    -0.384 N 
HETATM    7  C1  UNL     1     -38.828 -34.888  25.614  1.00  0.00     0.147 C 
ATOM      8  H1  UNL     1     -38.457 -33.246  24.319  1.00  0.00     0.160 HD
ENDBRANCH   2   6
ENDBRANCH   1   2
BRANCH   1   9
HETATM    9  C4  UNL     1     -40.420 -34.322  20.994  1.00  0.00     0.237 C 
HETATM   10  O1  UNL     1     -41.245 -35.264  21.106  1.00  0.00    -0.272 OA
HETATM   11  N3  UNL     1     -40.660 -33.304  20.054  1.00  0.00    -0.347 N 
HETATM   12  C5  UNL     1     -41.832 -33.313  19.229  1.00  0.00     0.152 C 
HETATM   13  C8  UNL     1     -39.730 -32.225  19.891  1.00  0.00     0.152 C 
HETATM   14  C6  UNL     1     -41.796 -32.269  18.157  1.00  0.00     0.187 C 
HETATM   15  O2  UNL     1     -41.239 -31.072  18.490  1.00  0.00    -0.388 OA
HETATM   16  C7  UNL     1     -40.605 -30.984  19.697  1.00  0.00     0.187 C 
ENDBRANCH   1   9
BRANCH   1  17
HETATM   17  C9  UNL     1     -38.305 -35.449  21.450  1.00  0.00     0.338 C 
HETATM   18  F1  UNL     1     -38.595 -35.841  20.170  1.00  0.00    -0.197 F 
HETATM   19  F2  UNL     1     -38.602 -36.563  22.300  1.00  0.00    -0.197 F 
BRANCH  17  20
HETATM   20  C10 UNL     1     -36.857 -35.215  21.640  1.00  0.00     0.372 C 
HETATM   21  F3  UNL     1     -36.623 -33.883  21.985  1.00  0.00    -0.184 F 
HETATM   22  F4  UNL     1     -36.020 -35.532  20.620  1.00  0.00    -0.184 F 
BRANCH  20  23
HETATM   23  C11 UNL     1     -36.436 -36.019  22.822  1.00  0.00    -0.015 C 
HETATM   24  C12 UNL     1     -36.097 -36.651  23.790  1.00  0.00    -0.032 C 
BRANCH  24  25
HETATM   25  C13 UNL     1     -35.716 -37.401  24.951  1.00  0.00     0.323 C 
HETATM   26  O3  UNL     1     -35.880 -36.876  26.078  1.00  0.00    -0.293 OA
ENDBRANCH  24  25
ENDBRANCH  20  23
ENDBRANCH  17  20
ENDBRANCH   1  17
TORSDOF 7
ENDMDL
MODEL 3
REMARK VINA RESULT: -6.674963693      1.813      4.424
REMARK  7 active torsions:
REMARK  status: ('A' for Active; 'I' for Inactive)
REMARK    1  A    between atoms: N1_2  and  C2_4 
REMARK    2  A    between atoms: C2_4  and  C3_8 
REMARK    3  A    between atoms: C3_8  and  C4_9 
REMARK    4  A    between atoms: C3_8  and  C9_17 
REMARK       I    between atoms: C4_9  and  N3_11 
REMARK    5  A    between atoms: C9_17  and  C10_20 
REMARK    6  A    between atoms: C10_20  and  C11_23 
REMARK    7  A    between atoms: C12_24  and  C13_25 
ROOT
HETATM    1  C3  UNL     1     -39.801 -34.281  21.351  1.00  0.00     0.224 C 
ENDROOT
BRANCH   1   2
HETATM    2  C2  UNL     1     -40.200 -33.466  20.173  1.00  0.00     0.089 C 
HETATM    3  N2  UNL     1     -41.085 -33.926  19.380  1.00  0.00    -0.388 N 
ATOM      4  H22 UNL     1     -41.359 -33.367  18.571  1.00  0.00     0.157 HD
ATOM      5  H21 UNL     1     -41.511 -34.837  19.548  1.00  0.00     0.157 HD
BRANCH   2   6
HETATM    6  N1  UNL     1     -39.604 -32.190  19.937  1.00  0.00    -0.384 N 
HETATM    7  C1  UNL     1     -40.338 -31.081  19.391  1.00  0.00     0.147 C 
ATOM      8  H1  UNL     1     -38.619 -32.059  20.165  1.00  0.00     0.160 HD
ENDBRANCH   2   6
ENDBRANCH   1   2
BRANCH   1   9
HETATM    9  C4  UNL     1     -40.398 -33.658  22.563  1.00  0.00     0.237 C 
HETATM   10  O1  UNL     1     -40.578 -32.414  22.549  1.00  0.00    -0.272 OA
HETATM   11  N3  UNL     1     -40.769 -34.394  23.703  1.00  0.00    -0.347 N 
HETATM   12  C5  UNL     1     -41.357 -33.755  24.844  1.00  0.00     0.152 C 
HETATM   13  C8  UNL     1     -40.562 -35.812  23.757  1.00  0.00     0.152 C 
HETATM   14  C6  UNL     1     -41.481 -34.670  26.022  1.00  0.00     0.187 C 
HETATM   15  O2  UNL     1     -41.806 -35.965  25.758  1.00  0.00    -0.388 OA
HETATM   16  C7  UNL     1     -41.812 -36.361  24.450  1.00  0.00     0.187 C 
ENDBRANCH   1   9
BRANCH   1  17
HETATM   17  C9  UNL     1     -38.304 -34.276  21.477  1.00  0.00     0.338 C 
HETATM   18  F1  UNL     1     -37.926 -33.771  22.692  1.00  0.00    -0.197 F 
HETATM   19  F2  UNL     1     -37.831 -33.358  20.484  1.00  0.00    -0.197 F 
BRANCH  17  20
HETATM   20  C10 UNL     1     -37.610 -35.544  21.167  1.00  0.00     0.372 C 
HETATM   21  F3  UNL     1     -36.505 -35.303  20.349  1.00  0.00    -0.184 F 
HETATM   22  F4  UNL     1     -38.331 -36.546  20.603  1.00  0.00    -0.184 F 
BRANCH  20  23
HETATM   23  C11 UNL     1     -37.057 -36.066  22.448  1.00  0.00    -0.015 C 
HETATM   24  C12 UNL     1     -36.607 -36.468  23.491  1.00  0.00    -0.032 C 
BRANCH  24  25
HETATM   25  C13 UNL     1     -36.090 -36.936  24.744  1.00  0.00     0.323 C 
HETATM   26  O3  UNL     1     -36.010 -38.174  24.930  1.00  0.00    -0.293 OA
ENDBRANCH  24  25
ENDBRANCH  20  23
ENDBRANCH  17  20
ENDBRANCH   1  17
TORSDOF 7
ENDMDL
MODEL 4
REMARK VINA RESULT: -6.596104449      3.132      5.849
REMARK  7 active torsions:
REMARK  status: ('A' for Active; 'I' for Inactive)
REMARK    1  A    between atoms: N1_2  and  C2_4 
REMARK    2  A    between atoms: C2_4  and  C3_8 
REMARK    3  A    between atoms: C3_8  and  C4_9 
REMARK    4  A    between atoms: C3_8  and  C9_17 
REMARK       I    between atoms: C4_9  and  N3_11 
REMARK    5  A    between atoms: C9_17  and  C10_20 
REMARK    6  A    between atoms: C10_20  and  C11_23 
REMARK    7  A    between atoms: C12_24  and  C13_25 
ROOT
HETATM    1  C3  UNL     1     -40.105 -35.205  24.580  1.00  0.00     0.224 C 
ENDROOT
BRANCH   1   2
HETATM    2  C2  UNL     1     -39.797 -34.500  25.852  1.00  0.00     0.089 C 
HETATM    3  N2  UNL     1     -39.299 -33.328  25.800  1.00  0.00    -0.388 N 
ATOM      4  H22 UNL     1     -39.087 -32.844  26.673  1.00  0.00     0.157 HD
ATOM      5  H21 UNL     1     -39.113 -32.882  24.902  1.00  0.00     0.157 HD
BRANCH   2   6
HETATM    6  N1  UNL     1     -40.057 -35.124  27.110  1.00  0.00    -0.384 N 
HETATM    7  C1  UNL     1     -39.212 -34.938  28.257  1.00  0.00     0.147 C 
ATOM      8  H1  UNL     1     -40.876 -35.726  27.198  1.00  0.00     0.160 HD
ENDBRANCH   2   6
ENDBRANCH   1   2
BRANCH   1   9
HETATM    9  C4  UNL     1     -39.557 -34.393  23.460  1.00  0.00     0.237 C 
HETATM   10  O1  UNL     1     -40.096 -33.280  23.232  1.00  0.00    -0.272 OA
HETATM   11  N3  UNL     1     -38.476 -34.810  22.663  1.00  0.00    -0.347 N 
HETATM   12  C5  UNL     1     -37.969 -33.987  21.605  1.00  0.00     0.152 C 
HETATM   13  C8  UNL     1     -37.849 -36.080  22.888  1.00  0.00     0.152 C 
HETATM   14  C6  UNL     1     -36.966 -34.695  20.748  1.00  0.00     0.187 C 
HETATM   15  O2  UNL     1     -36.111 -35.544  21.383  1.00  0.00    -0.388 OA
HETATM   16  C7  UNL     1     -36.353 -35.815  22.700  1.00  0.00     0.187 C 
ENDBRANCH   1   9
BRANCH   1  17
HETATM   17  C9  UNL     1     -41.594 -35.325  24.424  1.00  0.00     0.338 C 
HETATM   18  F1  UNL     1     -42.208 -34.145  24.748  1.00  0.00    -0.197 F 
HETATM   19  F2  UNL     1     -42.013 -36.289  25.397  1.00  0.00    -0.197 F 
BRANCH  17  20
HETATM   20  C10 UNL     1     -42.083 -35.865  23.137  1.00  0.00     0.372 C 
HETATM   21  F3  UNL     1     -41.413 -37.049  22.823  1.00  0.00    -0.184 F 
HETATM   22  F4  UNL     1     -42.033 -35.060  22.046  1.00  0.00    -0.184 F 
BRANCH  20  23
HETATM   23  C11 UNL     1     -43.508 -36.249  23.336  1.00  0.00    -0.015 C 
HETATM   24  C12 UNL     1     -44.666 -36.555  23.478  1.00  0.00    -0.032 C 
BRANCH  24  25
HETATM   25  C13 UNL     1     -46.040 -36.935  23.629  1.00  0.00     0.323 C 
HETATM   26  O3  UNL     1     -46.323 -37.817  24.475  1.00  0.00    -0.293 OA
ENDBRANCH  24  25
ENDBRANCH  20  23
ENDBRANCH  17  20
ENDBRANCH   1  17
TORSDOF 7
ENDMDL
MODEL 5
REMARK VINA RESULT: -6.498784349      3.342      6.193
REMARK  7 active torsions:
REMARK  status: ('A' for Active; 'I' for Inactive)
REMARK    1  A    between atoms: N1_2  and  C2_4 
REMARK    2  A    between atoms: C2_4  and  C3_8 
REMARK    3  A    between atoms: C3_8  and  C4_9 
REMARK    4  A    between atoms: C3_8  and  C9_17 
REMARK       I    between atoms: C4_9  and  N3_11 
REMARK    5  A    between atoms: C9_17  and  C10_20 
REMARK    6  A    between atoms: C10_20  and  C11_23 
REMARK    7  A    between atoms: C12_24  and  C13_25 
ROOT
HETATM    1  C3  UNL     1     -39.155 -35.360  24.609  1.00  0.00     0.224 C 
ENDROOT
BRANCH   1   2
HETATM    2  C2  UNL     1     -39.004 -34.470  25.790  1.00  0.00     0.089 C 
HETATM    3  N2  UNL     1     -39.242 -33.226  25.656  1.00  0.00    -0.388 N 
ATOM      4  H22 UNL     1     -39.138 -32.615  26.466  1.00  0.00     0.157 HD
ATOM      5  H21 UNL     1     -39.529 -32.845  24.754  1.00  0.00     0.157 HD
BRANCH   2   6
HETATM    6  N1  UNL     1     -38.602 -35.003  27.053  1.00  0.00    -0.384 N 
HETATM    7  C1  UNL     1     -39.423 -34.909  28.229  1.00  0.00     0.147 C 
ATOM      8  H1  UNL     1     -37.697 -35.468  27.124  1.00  0.00     0.160 HD
ENDBRANCH   2   6
ENDBRANCH   1   2
BRANCH   1   9
HETATM    9  C4  UNL     1     -38.157 -34.942  23.588  1.00  0.00     0.237 C 
HETATM   10  O1  UNL     1     -38.385 -33.882  22.951  1.00  0.00    -0.272 OA
HETATM   11  N3  UNL     1     -36.985 -35.670  23.314  1.00  0.00    -0.347 N 
HETATM   12  C5  UNL     1     -36.041 -35.221  22.333  1.00  0.00     0.152 C 
HETATM   13  C8  UNL     1     -36.703 -36.891  24.010  1.00  0.00     0.152 C 
HETATM   14  C6  UNL     1     -34.979 -36.235  22.042  1.00  0.00     0.187 C 
HETATM   15  O2  UNL     1     -34.527 -36.966  23.098  1.00  0.00    -0.388 OA
HETATM   16  C7  UNL     1     -35.197 -36.845  24.283  1.00  0.00     0.187 C 
ENDBRANCH   1   9
BRANCH   1  17
HETATM   17  C9  UNL     1     -40.538 -35.207  24.042  1.00  0.00     0.338 C 
HETATM   18  F1  UNL     1     -40.623 -35.806  22.814  1.00  0.00    -0.197 F 
HETATM   19  F2  UNL     1     -40.721 -33.803  23.830  1.00  0.00    -0.197 F 
BRANCH  17  20
HETATM   20  C10 UNL     1     -41.660 -35.596  24.923  1.00  0.00     0.372 C 
HETATM   21  F3  UNL     1     -42.346 -34.462  25.363  1.00  0.00    -0.184 F 
HETATM   22  F4  UNL     1     -41.385 -36.361  26.010  1.00  0.00    -0.184 F 
BRANCH  20  23
HETATM   23  C11 UNL     1     -42.632 -36.355  24.085  1.00  0.00    -0.015 C 
HETATM   24  C12 UNL     1     -43.431 -36.968  23.424  1.00  0.00    -0.032 C 
BRANCH  24  25
HETATM   25  C13 UNL     1     -44.397 -37.678  22.637  1.00  0.00     0.323 C 
HETATM   26  O3  UNL     1     -44.744 -38.823  23.013  1.00  0.00    -0.293 OA
ENDBRANCH  24  25
ENDBRANCH  20  23
ENDBRANCH  17  20
ENDBRANCH   1  17
TORSDOF 7
ENDMDL
