MODEL 1
REMARK VINA RESULT: -6.700330242      0.000      0.000
REMARK  6 active torsions:
REMARK  status: ('A' for Active; 'I' for Inactive)
REMARK    1  A    between atoms: C3_3  and  O1_4 
REMARK    2  A    between atoms: N1_11  and  C8_12 
REMARK    3  A    between atoms: C8_12  and  C9_13 
REMARK    4  A    between atoms: C8_12  and  C13_19 
REMARK    5  A    between atoms: C10_14  and  C11_15 
REMARK    6  A    between atoms: C14_23  and  O3_24 
ROOT
HETATM    1  C1  UNL     1     -41.015 -35.548  26.453  1.00  0.00     0.015 C 
HETATM    2  C2  UNL     1     -40.539 -35.586  24.991  1.00  0.00     0.046 C 
HETATM    3  C3  UNL     1     -39.074 -35.464  24.925  1.00  0.00     0.183 C 
HETATM    4  C4  UNL     1     -38.495 -34.442  24.010  1.00  0.00     0.390 C 
HETATM    5  O2  UNL     1     -39.387 -33.351  23.820  1.00  0.00    -0.340 OA
HETATM    6  C5  UNL     1     -40.421 -34.033  23.138  1.00  0.00     0.113 C 
HETATM    7  C6  UNL     1     -41.074 -33.050  22.221  1.00  0.00     0.050 C 
HETATM    8  C7  UNL     1     -39.714 -35.156  22.356  1.00  0.00     0.317 C 
HETATM    9  N1  UNL     1     -38.362 -34.849  22.634  1.00  0.00     0.138 N 
HETATM   10  C14 UNL     1     -41.313 -34.557  24.215  1.00  0.00     0.160 C 
ENDROOT
BRANCH   9  11
HETATM   11  C8  UNL     1     -37.356 -35.833  22.350  1.00  0.00     0.368 C 
BRANCH  11  12
HETATM   12  C9  UNL     1     -36.162 -35.601  23.246  1.00  0.00     0.301 A 
HETATM   13  C10 UNL     1     -34.906 -36.260  23.192  1.00  0.00     0.287 A 
HETATM   14  N2  UNL     1     -35.798 -36.142  24.438  1.00  0.00     0.102 N 
HETATM   15  C12 UNL     1     -36.019 -37.307  25.126  1.00  0.00     0.311 C 
BRANCH  13  16
HETATM   16  C11 UNL     1     -34.513 -37.643  22.852  1.00  0.00     0.260 C 
HETATM   17  F1  UNL     1     -33.160 -37.718  22.466  1.00  0.00    -0.253 F 
ENDBRANCH  13  16
ENDBRANCH  11  12
BRANCH  11  18
HETATM   18  C13 UNL     1     -36.781 -35.457  20.957  1.00  0.00     0.420 C 
HETATM   19  F2  UNL     1     -37.534 -36.141  19.982  1.00  0.00    -0.169 F 
HETATM   20  F3  UNL     1     -37.011 -34.144  20.629  1.00  0.00    -0.169 F 
HETATM   21  F4  UNL     1     -35.451 -35.649  20.855  1.00  0.00    -0.169 F 
ENDBRANCH  11  18
ENDBRANCH   9  11
BRANCH   3  22
HETATM   22  O1  UNL     1     -38.574 -35.172  26.217  1.00  0.00    -0.391 OA
ATOM     23  H1  UNL     1     -37.716 -34.772  26.136  1.00  0.00     0.210 HD
ENDBRANCH   3  22
BRANCH  10  24
HETATM   24  O3  UNL     1     -42.518 -35.038  23.733  1.00  0.00    -0.392 OA
ATOM     25  H3  UNL     1     -42.810 -34.588  22.948  1.00  0.00     0.210 HD
ENDBRANCH  10  24
TORSDOF 6
ENDMDL
MODEL 2
REMARK VINA RESULT: -6.412411457      3.225      4.891
REMARK  6 active torsions:
REMARK  status: ('A' for Active; 'I' for Inactive)
REMARK    1  A    between atoms: C3_3  and  O1_4 
REMARK    2  A    between atoms: N1_11  and  C8_12 
REMARK    3  A    between atoms: C8_12  and  C9_13 
REMARK    4  A    between atoms: C8_12  and  C13_19 
REMARK    5  A    between atoms: C10_14  and  C11_15 
REMARK    6  A    between atoms: C14_23  and  O3_24 
ROOT
HETATM    1  C1  UNL     1     -39.280 -34.508  26.750  1.00  0.00     0.015 C 
HETATM    2  C2  UNL     1     -39.835 -34.960  25.389  1.00  0.00     0.046 C 
HETATM    3  C3  UNL     1     -39.414 -34.029  24.329  1.00  0.00     0.183 C 
HETATM    4  C4  UNL     1     -40.458 -33.485  23.417  1.00  0.00     0.390 C 
HETATM    5  O2  UNL     1     -41.727 -33.432  24.055  1.00  0.00    -0.340 OA
HETATM    6  C5  UNL     1     -41.947 -34.820  24.214  1.00  0.00     0.113 C 
HETATM    7  C6  UNL     1     -43.423 -35.046  24.162  1.00  0.00     0.050 C 
HETATM    8  C7  UNL     1     -41.228 -35.481  23.023  1.00  0.00     0.317 C 
HETATM    9  N1  UNL     1     -40.812 -34.333  22.308  1.00  0.00     0.138 N 
HETATM   10  C14 UNL     1     -41.318 -35.161  25.525  1.00  0.00     0.160 C 
ENDROOT
BRANCH   9  11
HETATM   11  C8  UNL     1     -39.829 -34.482  21.272  1.00  0.00     0.368 C 
BRANCH  11  12
HETATM   12  C9  UNL     1     -40.354 -33.873  19.993  1.00  0.00     0.301 A 
HETATM   13  C10 UNL     1     -40.284 -32.511  19.597  1.00  0.00     0.287 A 
HETATM   14  N2  UNL     1     -41.565 -33.357  19.659  1.00  0.00     0.102 N 
HETATM   15  C12 UNL     1     -42.629 -32.782  20.305  1.00  0.00     0.311 C 
BRANCH  13  16
HETATM   16  C11 UNL     1     -40.353 -31.244  20.352  1.00  0.00     0.260 C 
HETATM   17  F1  UNL     1     -39.875 -30.159  19.589  1.00  0.00    -0.253 F 
ENDBRANCH  13  16
ENDBRANCH  11  12
BRANCH  11  18
HETATM   18  C13 UNL     1     -39.815 -35.994  20.919  1.00  0.00     0.420 C 
HETATM   19  F2  UNL     1     -41.137 -36.377  20.618  1.00  0.00    -0.169 F 
HETATM   20  F3  UNL     1     -39.164 -36.254  19.739  1.00  0.00    -0.169 F 
HETATM   21  F4  UNL     1     -39.223 -36.760  21.858  1.00  0.00    -0.169 F 
ENDBRANCH  11  18
ENDBRANCH   9  11
BRANCH   3  22
HETATM   22  O1  UNL     1     -38.777 -32.910  24.920  1.00  0.00    -0.391 OA
ATOM     23  H1  UNL     1     -39.355 -32.530  25.570  1.00  0.00     0.210 HD
ENDBRANCH   3  22
BRANCH  10  24
HETATM   24  O3  UNL     1     -41.652 -36.429  25.971  1.00  0.00    -0.392 OA
ATOM     25  H3  UNL     1     -42.033 -36.426  26.842  1.00  0.00     0.210 HD
ENDBRANCH  10  24
TORSDOF 6
ENDMDL
MODEL 3
REMARK VINA RESULT: -6.371752377      3.045      5.051
REMARK  6 active torsions:
REMARK  status: ('A' for Active; 'I' for Inactive)
REMARK    1  A    between atoms: C3_3  and  O1_4 
REMARK    2  A    between atoms: N1_11  and  C8_12 
REMARK    3  A    between atoms: C8_12  and  C9_13 
REMARK    4  A    between atoms: C8_12  and  C13_19 
REMARK    5  A    between atoms: C10_14  and  C11_15 
REMARK    6  A    between atoms: C14_23  and  O3_24 
ROOT
HETATM    1  C1  UNL     1     -44.343 -33.265  23.413  1.00  0.00     0.015 C 
HETATM    2  C2  UNL     1     -42.923 -33.841  23.280  1.00  0.00     0.046 C 
HETATM    3  C3  UNL     1     -42.911 -34.958  22.322  1.00  0.00     0.183 C 
HETATM    4  C4  UNL     1     -42.283 -36.240  22.746  1.00  0.00     0.390 C 
HETATM    5  O2  UNL     1     -42.353 -36.411  24.155  1.00  0.00    -0.340 OA
HETATM    6  C5  UNL     1     -41.509 -35.345  24.545  1.00  0.00     0.113 C 
HETATM    7  C6  UNL     1     -40.852 -35.742  25.827  1.00  0.00     0.050 C 
HETATM    8  C7  UNL     1     -40.486 -35.204  23.402  1.00  0.00     0.317 C 
HETATM    9  N1  UNL     1     -40.851 -36.307  22.595  1.00  0.00     0.138 N 
HETATM   10  C14 UNL     1     -42.412 -34.160  24.657  1.00  0.00     0.160 C 
ENDROOT
BRANCH   9  11
HETATM   11  C8  UNL     1     -40.349 -36.378  21.252  1.00  0.00     0.368 C 
BRANCH  11  12
HETATM   12  C9  UNL     1     -40.977 -37.556  20.545  1.00  0.00     0.301 A 
HETATM   13  C10 UNL     1     -40.726 -37.996  19.218  1.00  0.00     0.287 A 
HETATM   14  N2  UNL     1     -42.110 -37.677  19.805  1.00  0.00     0.102 N 
HETATM   15  C12 UNL     1     -42.909 -36.864  19.043  1.00  0.00     0.311 C 
BRANCH  13  16
HETATM   16  C11 UNL     1     -40.415 -37.277  17.967  1.00  0.00     0.260 C 
HETATM   17  F1  UNL     1     -39.079 -37.485  17.568  1.00  0.00    -0.253 F 
ENDBRANCH  13  16
ENDBRANCH  11  12
BRANCH  11  18
HETATM   18  C13 UNL     1     -38.872 -36.837  21.379  1.00  0.00     0.420 C 
HETATM   19  F2  UNL     1     -38.206 -36.479  20.190  1.00  0.00    -0.169 F 
HETATM   20  F3  UNL     1     -38.177 -36.125  22.325  1.00  0.00    -0.169 F 
HETATM   21  F4  UNL     1     -38.740 -38.138  21.709  1.00  0.00    -0.169 F 
ENDBRANCH  11  18
ENDBRANCH   9  11
BRANCH   3  22
HETATM   22  O1  UNL     1     -44.243 -35.268  21.953  1.00  0.00    -0.391 OA
ATOM     23  H1  UNL     1     -44.233 -35.771  21.147  1.00  0.00     0.210 HD
ENDBRANCH   3  22
BRANCH  10  24
HETATM   24  O3  UNL     1     -41.809 -33.078  25.274  1.00  0.00    -0.392 OA
ATOM     25  H3  UNL     1     -42.334 -32.711  25.976  1.00  0.00     0.210 HD
ENDBRANCH  10  24
TORSDOF 6
ENDMDL
MODEL 4
REMARK VINA RESULT: -6.331092685      3.011      4.398
REMARK  6 active torsions:
REMARK  status: ('A' for Active; 'I' for Inactive)
REMARK    1  A    between atoms: C3_3  and  O1_4 
REMARK    2  A    between atoms: N1_11  and  C8_12 
REMARK    3  A    between atoms: C8_12  and  C9_13 
REMARK    4  A    between atoms: C8_12  and  C13_19 
REMARK    5  A    between atoms: C10_14  and  C11_15 
REMARK    6  A    between atoms: C14_23  and  O3_24 
ROOT
HETATM    1  C1  UNL     1     -44.133 -38.259  21.954  1.00  0.00     0.015 C 
HETATM    2  C2  UNL     1     -42.781 -37.610  21.616  1.00  0.00     0.046 C 
HETATM    3  C3  UNL     1     -42.386 -36.667  22.675  1.00  0.00     0.183 C 
HETATM    4  C4  UNL     1     -41.983 -35.290  22.274  1.00  0.00     0.390 C 
HETATM    5  O2  UNL     1     -42.615 -34.897  21.063  1.00  0.00    -0.340 OA
HETATM    6  C5  UNL     1     -41.998 -35.819  20.187  1.00  0.00     0.113 C 
HETATM    7  C6  UNL     1     -41.913 -35.170  18.844  1.00  0.00     0.050 C 
HETATM    8  C7  UNL     1     -40.601 -36.071  20.786  1.00  0.00     0.317 C 
HETATM    9  N1  UNL     1     -40.612 -35.145  21.856  1.00  0.00     0.138 N 
HETATM   10  C14 UNL     1     -42.868 -37.032  20.230  1.00  0.00     0.160 C 
ENDROOT
BRANCH   9  11
HETATM   11  C8  UNL     1     -39.612 -35.258  22.880  1.00  0.00     0.368 C 
BRANCH  11  12
HETATM   12  C9  UNL     1     -39.768 -34.119  23.860  1.00  0.00     0.301 A 
HETATM   13  C10 UNL     1     -39.125 -33.973  25.117  1.00  0.00     0.287 A 
HETATM   14  N2  UNL     1     -40.641 -33.905  24.878  1.00  0.00     0.102 N 
HETATM   15  C12 UNL     1     -41.413 -34.664  25.721  1.00  0.00     0.311 C 
BRANCH  13  16
HETATM   16  C11 UNL     1     -38.714 -34.944  26.151  1.00  0.00     0.260 C 
HETATM   17  F1  UNL     1     -37.713 -35.816  25.675  1.00  0.00    -0.253 F 
ENDBRANCH  13  16
ENDBRANCH  11  12
BRANCH  11  18
HETATM   18  C13 UNL     1     -38.265 -34.902  22.194  1.00  0.00     0.420 C 
HETATM   19  F2  UNL     1     -38.516 -33.877  21.260  1.00  0.00    -0.169 F 
HETATM   20  F3  UNL     1     -37.380 -34.299  23.052  1.00  0.00    -0.169 F 
HETATM   21  F4  UNL     1     -37.626 -35.970  21.676  1.00  0.00    -0.169 F 
ENDBRANCH  11  18
ENDBRANCH   9  11
BRANCH   3  22
HETATM   22  O1  UNL     1     -43.457 -36.520  23.589  1.00  0.00    -0.391 OA
ATOM     23  H1  UNL     1     -43.753 -37.380  23.862  1.00  0.00     0.210 HD
ENDBRANCH   3  22
BRANCH  10  24
HETATM   24  O3  UNL     1     -42.562 -37.952  19.242  1.00  0.00    -0.392 OA
ATOM     25  H3  UNL     1     -42.444 -37.553  18.387  1.00  0.00     0.210 HD
ENDBRANCH  10  24
TORSDOF 6
ENDMDL
MODEL 5
REMARK VINA RESULT: -6.218043946      3.961      6.904
REMARK  6 active torsions:
REMARK  status: ('A' for Active; 'I' for Inactive)
REMARK    1  A    between atoms: C3_3  and  O1_4 
REMARK    2  A    between atoms: N1_11  and  C8_12 
REMARK    3  A    between atoms: C8_12  and  C9_13 
REMARK    4  A    between atoms: C8_12  and  C13_19 
REMARK    5  A    between atoms: C10_14  and  C11_15 
REMARK    6  A    between atoms: C14_23  and  O3_24 
ROOT
HETATM    1  C1  UNL     1     -39.104 -32.284  19.938  1.00  0.00     0.015 C 
HETATM    2  C2  UNL     1     -39.575 -33.521  20.721  1.00  0.00     0.046 C 
HETATM    3  C3  UNL     1     -40.783 -33.204  21.501  1.00  0.00     0.183 C 
HETATM    4  C4  UNL     1     -40.796 -33.555  22.948  1.00  0.00     0.390 C 
HETATM    5  O2  UNL     1     -39.484 -33.557  23.493  1.00  0.00    -0.340 OA
HETATM    6  C5  UNL     1     -38.950 -34.649  22.770  1.00  0.00     0.113 C 
HETATM    7  C6  UNL     1     -37.918 -35.296  23.636  1.00  0.00     0.050 C 
HETATM    8  C7  UNL     1     -40.146 -35.586  22.515  1.00  0.00     0.317 C 
HETATM    9  N1  UNL     1     -41.154 -34.918  23.250  1.00  0.00     0.138 N 
HETATM   10  C14 UNL     1     -38.411 -34.051  21.512  1.00  0.00     0.160 C 
ENDROOT
BRANCH   9  11
HETATM   11  C8  UNL     1     -42.526 -35.285  23.035  1.00  0.00     0.368 C 
BRANCH  11  12
HETATM   12  C9  UNL     1     -43.422 -34.342  23.803  1.00  0.00     0.301 A 
HETATM   13  C10 UNL     1     -44.841 -34.329  23.822  1.00  0.00     0.287 A 
HETATM   14  N2  UNL     1     -43.944 -33.126  23.495  1.00  0.00     0.102 N 
HETATM   15  C12 UNL     1     -44.272 -32.428  22.361  1.00  0.00     0.311 C 
BRANCH  13  16
HETATM   16  C11 UNL     1     -45.860 -34.628  22.795  1.00  0.00     0.260 C 
HETATM   17  F1  UNL     1     -45.444 -35.669  21.940  1.00  0.00    -0.253 F 
ENDBRANCH  13  16
ENDBRANCH  11  12
BRANCH  11  18
HETATM   18  C13 UNL     1     -42.731 -36.615  23.809  1.00  0.00     0.420 C 
HETATM   19  F2  UNL     1     -42.107 -36.483  25.065  1.00  0.00    -0.169 F 
HETATM   20  F3  UNL     1     -44.042 -36.824  24.160  1.00  0.00    -0.169 F 
HETATM   21  F4  UNL     1     -42.343 -37.705  23.117  1.00  0.00    -0.169 F 
ENDBRANCH  11  18
ENDBRANCH   9  11
BRANCH   3  22
HETATM   22  O1  UNL     1     -41.033 -31.812  21.425  1.00  0.00    -0.391 OA
ATOM     23  H1  UNL     1     -40.687 -31.391  22.202  1.00  0.00     0.210 HD
ENDBRANCH   3  22
BRANCH  10  24
HETATM   24  O3  UNL     1     -37.624 -34.931  20.789  1.00  0.00    -0.392 OA
ATOM     25  H3  UNL     1     -36.957 -35.352  21.319  1.00  0.00     0.210 HD
ENDBRANCH  10  24
TORSDOF 6
ENDMDL
