MODEL 1
REMARK VINA RESULT: -7.503486335      0.000      0.000
REMARK  6 active torsions:
REMARK  status: ('A' for Active; 'I' for Inactive)
REMARK    1  A    between atoms: C5_6  and  C6_7 
REMARK    2  A    between atoms: C6_7  and  O2_9 
REMARK    3  A    between atoms: O2_9  and  C7_10 
REMARK    4  A    between atoms: C7_10  and  C8_11 
REMARK       I    between atoms: C8_11  and  N2_13 
REMARK    5  A    between atoms: N2_13  and  N3_15 
REMARK       I    between atoms: N3_15  and  C9_17 
REMARK    6  A    between atoms: C9_17  and  C10_19 
ROOT
HETATM    1  C8  UNL     1     -37.928 -35.303  21.916  1.00  0.00     0.260 C 
HETATM    2  O3  UNL     1     -37.149 -34.405  21.458  1.00  0.00    -0.269 OA
HETATM    3  N2  UNL     1     -37.386 -36.365  22.650  1.00  0.00    -0.266 N 
ATOM      4  H2  UNL     1     -37.976 -37.107  23.028  1.00  0.00     0.190 HD
ENDROOT
BRANCH   1   5
HETATM    5  C7  UNL     1     -39.356 -35.137  21.626  1.00  0.00     0.283 C 
BRANCH   5   6
HETATM    6  O2  UNL     1     -40.132 -34.986  22.756  1.00  0.00    -0.310 OA
BRANCH   6   7
HETATM    7  C6  UNL     1     -40.272 -33.905  23.578  1.00  0.00     0.293 C 
HETATM    8  O1  UNL     1     -40.672 -32.819  23.046  1.00  0.00    -0.263 OA
BRANCH   7   9
HETATM    9  C5  UNL     1     -39.994 -33.894  25.019  1.00  0.00     0.321 C 
HETATM   10  N1  UNL     1     -40.980 -34.398  25.884  1.00  0.00     0.098 N 
HETATM   11  C1  UNL     1     -41.540 -35.676  25.639  1.00  0.00     0.310 C 
HETATM   12  C2  UNL     1     -40.293 -34.478  27.179  1.00  0.00     0.273 C 
HETATM   13  C3  UNL     1     -38.870 -34.821  26.858  1.00  0.00     0.033 C 
HETATM   14  C4  UNL     1     -38.806 -34.814  25.350  1.00  0.00     0.048 C 
ENDBRANCH   7   9
ENDBRANCH   6   7
ENDBRANCH   5   6
ENDBRANCH   1   5
BRANCH   3  15
HETATM   15  N3  UNL     1     -35.975 -36.364  22.846  1.00  0.00    -0.262 N 
HETATM   16  C9  UNL     1     -35.438 -37.301  23.761  1.00  0.00     0.308 C 
HETATM   17  O4  UNL     1     -36.150 -38.112  24.391  1.00  0.00    -0.265 OA
ATOM     18  H3  UNL     1     -35.373 -35.711  22.345  1.00  0.00     0.190 HD
BRANCH  16  19
HETATM   19  C10 UNL     1     -33.941 -37.319  23.984  1.00  0.00     0.337 C 
HETATM   20  F1  UNL     1     -33.699 -37.973  25.151  1.00  0.00    -0.196 F 
HETATM   21 CL1  UNL     1     -33.391 -35.619  24.005  1.00  0.00    -0.056 Cl
HETATM   22 CL2  UNL     1     -33.214 -38.141  22.595  1.00  0.00    -0.056 Cl
ENDBRANCH  16  19
ENDBRANCH   3  15
TORSDOF 6
ENDMDL
MODEL 2
REMARK VINA RESULT: -7.114438882      2.405      3.697
REMARK  6 active torsions:
REMARK  status: ('A' for Active; 'I' for Inactive)
REMARK    1  A    between atoms: C5_6  and  C6_7 
REMARK    2  A    between atoms: C6_7  and  O2_9 
REMARK    3  A    between atoms: O2_9  and  C7_10 
REMARK    4  A    between atoms: C7_10  and  C8_11 
REMARK       I    between atoms: C8_11  and  N2_13 
REMARK    5  A    between atoms: N2_13  and  N3_15 
REMARK       I    between atoms: N3_15  and  C9_17 
REMARK    6  A    between atoms: C9_17  and  C10_19 
ROOT
HETATM    1  C8  UNL     1     -38.986 -34.176  25.707  1.00  0.00     0.260 C 
HETATM    2  O3  UNL     1     -38.701 -33.360  24.771  1.00  0.00    -0.269 OA
HETATM    3  N2  UNL     1     -38.413 -35.453  25.696  1.00  0.00    -0.266 N 
ATOM      4  H2  UNL     1     -38.622 -36.137  26.424  1.00  0.00     0.190 HD
ENDROOT
BRANCH   1   5
HETATM    5  C7  UNL     1     -39.912 -33.689  26.736  1.00  0.00     0.283 C 
BRANCH   5   6
HETATM    6  O2  UNL     1     -41.239 -33.920  26.434  1.00  0.00    -0.310 OA
BRANCH   6   7
HETATM    7  C6  UNL     1     -41.787 -34.745  25.495  1.00  0.00     0.293 C 
HETATM    8  O1  UNL     1     -41.603 -35.996  25.643  1.00  0.00    -0.263 OA
BRANCH   7   9
HETATM    9  C5  UNL     1     -42.565 -34.305  24.331  1.00  0.00     0.321 C 
HETATM   10  N1  UNL     1     -41.862 -33.935  23.171  1.00  0.00     0.098 N 
HETATM   11  C1  UNL     1     -40.886 -34.810  22.636  1.00  0.00     0.310 C 
HETATM   12  C2  UNL     1     -42.917 -33.807  22.157  1.00  0.00     0.273 C 
HETATM   13  C3  UNL     1     -43.939 -34.845  22.508  1.00  0.00     0.033 C 
HETATM   14  C4  UNL     1     -43.442 -35.450  23.799  1.00  0.00     0.048 C 
ENDBRANCH   7   9
ENDBRANCH   6   7
ENDBRANCH   5   6
ENDBRANCH   1   5
BRANCH   3  15
HETATM   15  N3  UNL     1     -37.525 -35.755  24.624  1.00  0.00    -0.262 N 
HETATM   16  C9  UNL     1     -36.353 -36.488  24.927  1.00  0.00     0.308 C 
HETATM   17  O4  UNL     1     -36.079 -36.869  26.085  1.00  0.00    -0.265 OA
ATOM     18  H3  UNL     1     -37.727 -35.454  23.670  1.00  0.00     0.190 HD
BRANCH  16  19
HETATM   19  C10 UNL     1     -35.396 -36.822  23.803  1.00  0.00     0.337 C 
HETATM   20  F1  UNL     1     -35.535 -38.143  23.513  1.00  0.00    -0.196 F 
HETATM   21 CL1  UNL     1     -33.755 -36.395  24.365  1.00  0.00    -0.056 Cl
HETATM   22 CL2  UNL     1     -35.821 -35.790  22.429  1.00  0.00    -0.056 Cl
ENDBRANCH  16  19
ENDBRANCH   3  15
TORSDOF 6
ENDMDL
MODEL 3
REMARK VINA RESULT: -6.990941129      2.341      3.365
REMARK  6 active torsions:
REMARK  status: ('A' for Active; 'I' for Inactive)
REMARK    1  A    between atoms: C5_6  and  C6_7 
REMARK    2  A    between atoms: C6_7  and  O2_9 
REMARK    3  A    between atoms: O2_9  and  C7_10 
REMARK    4  A    between atoms: C7_10  and  C8_11 
REMARK       I    between atoms: C8_11  and  N2_13 
REMARK    5  A    between atoms: N2_13  and  N3_15 
REMARK       I    between atoms: N3_15  and  C9_17 
REMARK    6  A    between atoms: C9_17  and  C10_19 
ROOT
HETATM    1  C8  UNL     1     -38.982 -34.232  25.538  1.00  0.00     0.260 C 
HETATM    2  O3  UNL     1     -38.661 -33.404  24.624  1.00  0.00    -0.269 OA
HETATM    3  N2  UNL     1     -38.397 -35.504  25.541  1.00  0.00    -0.266 N 
ATOM      4  H2  UNL     1     -38.634 -36.197  26.252  1.00  0.00     0.190 HD
ENDROOT
BRANCH   1   5
HETATM    5  C7  UNL     1     -39.960 -33.764  26.526  1.00  0.00     0.283 C 
BRANCH   5   6
HETATM    6  O2  UNL     1     -41.268 -34.025  26.171  1.00  0.00    -0.310 OA
BRANCH   6   7
HETATM    7  C6  UNL     1     -41.802 -34.280  24.941  1.00  0.00     0.293 C 
HETATM    8  O1  UNL     1     -42.215 -33.280  24.269  1.00  0.00    -0.263 OA
BRANCH   7   9
HETATM    9  C5  UNL     1     -41.941 -35.610  24.337  1.00  0.00     0.321 C 
HETATM   10  N1  UNL     1     -43.240 -36.108  24.135  1.00  0.00     0.098 N 
HETATM   11  C1  UNL     1     -44.199 -35.311  23.464  1.00  0.00     0.310 C 
HETATM   12  C2  UNL     1     -43.024 -37.300  23.304  1.00  0.00     0.273 C 
HETATM   13  C3  UNL     1     -41.852 -36.973  22.430  1.00  0.00     0.033 C 
HETATM   14  C4  UNL     1     -41.390 -35.615  22.901  1.00  0.00     0.048 C 
ENDBRANCH   7   9
ENDBRANCH   6   7
ENDBRANCH   5   6
ENDBRANCH   1   5
BRANCH   3  15
HETATM   15  N3  UNL     1     -37.457 -35.788  24.509  1.00  0.00    -0.262 N 
HETATM   16  C9  UNL     1     -36.285 -36.496  24.865  1.00  0.00     0.308 C 
HETATM   17  O4  UNL     1     -36.054 -36.872  26.034  1.00  0.00    -0.265 OA
ATOM     18  H3  UNL     1     -37.623 -35.491  23.548  1.00  0.00     0.190 HD
BRANCH  16  19
HETATM   19  C10 UNL     1     -35.273 -36.810  23.784  1.00  0.00     0.337 C 
HETATM   20  F1  UNL     1     -35.351 -38.140  23.510  1.00  0.00    -0.196 F 
HETATM   21 CL1  UNL     1     -33.672 -36.314  24.402  1.00  0.00    -0.056 Cl
HETATM   22 CL2  UNL     1     -35.681 -35.815  22.378  1.00  0.00    -0.056 Cl
ENDBRANCH  16  19
ENDBRANCH   3  15
TORSDOF 6
ENDMDL
MODEL 4
REMARK VINA RESULT: -6.952377793      0.967      1.528
REMARK  6 active torsions:
REMARK  status: ('A' for Active; 'I' for Inactive)
REMARK    1  A    between atoms: C5_6  and  C6_7 
REMARK    2  A    between atoms: C6_7  and  O2_9 
REMARK    3  A    between atoms: O2_9  and  C7_10 
REMARK    4  A    between atoms: C7_10  and  C8_11 
REMARK       I    between atoms: C8_11  and  N2_13 
REMARK    5  A    between atoms: N2_13  and  N3_15 
REMARK       I    between atoms: N3_15  and  C9_17 
REMARK    6  A    between atoms: C9_17  and  C10_19 
ROOT
HETATM    1  C8  UNL     1     -37.811 -35.614  21.533  1.00  0.00     0.260 C 
HETATM    2  O3  UNL     1     -36.958 -35.085  20.748  1.00  0.00    -0.269 OA
HETATM    3  N2  UNL     1     -37.364 -36.249  22.697  1.00  0.00    -0.266 N 
ATOM      4  H2  UNL     1     -38.015 -36.690  23.348  1.00  0.00     0.190 HD
ENDROOT
BRANCH   1   5
HETATM    5  C7  UNL     1     -39.219 -35.504  21.135  1.00  0.00     0.283 C 
BRANCH   5   6
HETATM    6  O2  UNL     1     -39.761 -34.258  21.371  1.00  0.00    -0.310 OA
BRANCH   6   7
HETATM    7  C6  UNL     1     -40.402 -33.781  22.478  1.00  0.00     0.293 C 
HETATM    8  O1  UNL     1     -40.662 -32.535  22.506  1.00  0.00    -0.263 OA
BRANCH   7   9
HETATM    9  C5  UNL     1     -40.807 -34.588  23.635  1.00  0.00     0.321 C 
HETATM   10  N1  UNL     1     -39.826 -34.910  24.589  1.00  0.00     0.098 N 
HETATM   11  C1  UNL     1     -39.018 -33.884  25.136  1.00  0.00     0.310 C 
HETATM   12  C2  UNL     1     -40.601 -35.477  25.700  1.00  0.00     0.273 C 
HETATM   13  C3  UNL     1     -41.900 -34.729  25.706  1.00  0.00     0.033 C 
HETATM   14  C4  UNL     1     -41.827 -33.827  24.498  1.00  0.00     0.048 C 
ENDBRANCH   7   9
ENDBRANCH   6   7
ENDBRANCH   5   6
ENDBRANCH   1   5
BRANCH   3  15
HETATM   15  N3  UNL     1     -35.959 -36.254  22.934  1.00  0.00    -0.262 N 
HETATM   16  C9  UNL     1     -35.435 -37.275  23.762  1.00  0.00     0.308 C 
HETATM   17  O4  UNL     1     -36.154 -38.155  24.282  1.00  0.00    -0.265 OA
ATOM     18  H3  UNL     1     -35.352 -35.546  22.522  1.00  0.00     0.190 HD
BRANCH  16  19
HETATM   19  C10 UNL     1     -33.944 -37.300  24.026  1.00  0.00     0.337 C 
HETATM   20  F1  UNL     1     -33.739 -37.937  25.210  1.00  0.00    -0.196 F 
HETATM   21 CL1  UNL     1     -33.383 -35.604  24.034  1.00  0.00    -0.056 Cl
HETATM   22 CL2  UNL     1     -33.187 -38.151  22.671  1.00  0.00    -0.056 Cl
ENDBRANCH  16  19
ENDBRANCH   3  15
TORSDOF 6
ENDMDL
MODEL 5
REMARK VINA RESULT: -6.858119074      2.269      3.373
REMARK  6 active torsions:
REMARK  status: ('A' for Active; 'I' for Inactive)
REMARK    1  A    between atoms: C5_6  and  C6_7 
REMARK    2  A    between atoms: C6_7  and  O2_9 
REMARK    3  A    between atoms: O2_9  and  C7_10 
REMARK    4  A    between atoms: C7_10  and  C8_11 
REMARK       I    between atoms: C8_11  and  N2_13 
REMARK    5  A    between atoms: N2_13  and  N3_15 
REMARK       I    between atoms: N3_15  and  C9_17 
REMARK    6  A    between atoms: C9_17  and  C10_19 
ROOT
HETATM    1  C8  UNL     1     -38.706 -34.776  25.228  1.00  0.00     0.260 C 
HETATM    2  O3  UNL     1     -38.436 -33.776  24.487  1.00  0.00    -0.269 OA
HETATM    3  N2  UNL     1     -37.903 -35.921  25.148  1.00  0.00    -0.266 N 
ATOM      4  H2  UNL     1     -38.091 -36.744  25.720  1.00  0.00     0.190 HD
ENDROOT
BRANCH   1   5
HETATM    5  C7  UNL     1     -39.861 -34.632  26.122  1.00  0.00     0.283 C 
BRANCH   5   6
HETATM    6  O2  UNL     1     -41.041 -35.088  25.571  1.00  0.00    -0.310 OA
BRANCH   6   7
HETATM    7  C6  UNL     1     -41.784 -34.567  24.552  1.00  0.00     0.293 C 
HETATM    8  O1  UNL     1     -41.904 -33.299  24.511  1.00  0.00    -0.263 OA
BRANCH   7   9
HETATM    9  C5  UNL     1     -42.458 -35.348  23.509  1.00  0.00     0.321 C 
HETATM   10  N1  UNL     1     -41.837 -35.442  22.252  1.00  0.00     0.098 N 
HETATM   11  C1  UNL     1     -40.479 -35.836  22.169  1.00  0.00     0.310 C 
HETATM   12  C2  UNL     1     -42.620 -36.473  21.558  1.00  0.00     0.273 C 
HETATM   13  C3  UNL     1     -43.040 -37.441  22.623  1.00  0.00     0.033 C 
HETATM   14  C4  UNL     1     -42.547 -36.830  23.912  1.00  0.00     0.048 C 
ENDBRANCH   7   9
ENDBRANCH   6   7
ENDBRANCH   5   6
ENDBRANCH   1   5
BRANCH   3  15
HETATM   15  N3  UNL     1     -36.814 -35.885  24.231  1.00  0.00    -0.262 N 
HETATM   16  C9  UNL     1     -35.824 -36.889  24.346  1.00  0.00     0.308 C 
HETATM   17  O4  UNL     1     -35.875 -37.789  25.213  1.00  0.00    -0.265 OA
ATOM     18  H3  UNL     1     -36.749 -35.160  23.516  1.00  0.00     0.190 HD
BRANCH  16  19
HETATM   19  C10 UNL     1     -34.658 -36.872  23.382  1.00  0.00     0.337 C 
HETATM   20  F1  UNL     1     -34.287 -38.159  23.149  1.00  0.00    -0.196 F 
HETATM   21 CL1  UNL     1     -33.366 -35.895  24.136  1.00  0.00    -0.056 Cl
HETATM   22 CL2  UNL     1     -35.209 -36.060  21.909  1.00  0.00    -0.056 Cl
ENDBRANCH  16  19
ENDBRANCH   3  15
TORSDOF 6
ENDMDL
