MODEL 1
REMARK VINA RESULT: -5.821319115      0.000      0.000
REMARK  13 active torsions:
REMARK  status: ('A' for Active; 'I' for Inactive)
REMARK    1  A    between atoms: C3_3  and  O1_5 
REMARK    2  A    between atoms: C3_3  and  C5_7 
REMARK    3  A    between atoms: C5_7  and  O3_9 
REMARK    4  A    between atoms: O3_9  and  C6_10 
REMARK    5  A    between atoms: C6_10  and  C8_12 
REMARK    6  A    between atoms: C6_10  and  C10_14 
REMARK    7  A    between atoms: C10_14  and  C11_15 
REMARK    8  A    between atoms: C11_15  and  C13_17 
REMARK    9  A    between atoms: C16_20  and  C18_22 
REMARK   10  A    between atoms: C18_22  and  C19_23 
REMARK   11  A    between atoms: C19_23  and  C20_24 
REMARK   12  A    between atoms: C20_24  and  O5_26 
REMARK   13  A    between atoms: C23_29  and  O6_30 
ROOT
HETATM    1  C1  UNL     1      -6.530 -35.369  12.818  1.00  0.00     0.016 C 
HETATM    2  C2  UNL     1      -6.965 -34.388  13.369  1.00  0.00    -0.069 C 
HETATM    3  C3  UNL     1      -7.520 -33.179  14.031  1.00  0.00     0.205 C 
HETATM    4  C4  UNL     1      -7.837 -33.573  15.451  1.00  0.00     0.072 C 
ENDROOT
BRANCH   3   5
HETATM    5  O1  UNL     1      -6.502 -32.226  13.978  1.00  0.00    -0.369 OA
ATOM      6  H1  UNL     1      -6.435 -31.879  14.860  1.00  0.00     0.212 HD
ENDBRANCH   3   5
BRANCH   3   7
HETATM    7  C5  UNL     1      -8.717 -32.696  13.295  1.00  0.00     0.307 C 
HETATM    8  O2  UNL     1      -9.331 -31.655  13.576  1.00  0.00    -0.261 OA
BRANCH   7   9
HETATM    9  O3  UNL     1      -9.187 -33.434  12.244  1.00  0.00    -0.303 OA
BRANCH   9  10
HETATM   10  C6  UNL     1     -10.417 -34.104  12.153  1.00  0.00     0.084 C 
HETATM   11  C7  UNL     1     -11.424 -33.382  11.289  1.00  0.00     0.051 C 
BRANCH  10  12
HETATM   12  C8  UNL     1     -10.095 -35.369  11.438  1.00  0.00     0.001 C 
HETATM   13  C9  UNL     1     -10.218 -35.432  10.138  1.00  0.00     0.010 C 
ENDBRANCH  10  12
BRANCH  10  14
HETATM   14  C10 UNL     1     -10.897 -34.397  13.528  1.00  0.00     0.047 C 
BRANCH  14  15
HETATM   15  C11 UNL     1     -12.245 -33.903  13.909  1.00  0.00    -0.009 C 
HETATM   16  C12 UNL     1     -13.315 -34.924  14.073  1.00  0.00     0.010 C 
BRANCH  15  17
HETATM   17  C13 UNL     1     -12.089 -33.020  15.130  1.00  0.00     0.018 C 
HETATM   18  C14 UNL     1     -12.917 -33.521  16.261  1.00  0.00     0.008 C 
HETATM   19  C15 UNL     1     -13.114 -32.552  17.376  1.00  0.00     0.010 C 
HETATM   20  C16 UNL     1     -12.319 -31.316  17.348  1.00  0.00    -0.041 C 
HETATM   21  C17 UNL     1     -11.022 -31.506  18.155  1.00  0.00     0.015 C 
HETATM   22  C22 UNL     1     -11.892 -30.795  16.008  1.00  0.00     0.041 C 
HETATM   23  C23 UNL     1     -12.531 -31.595  14.864  1.00  0.00     0.123 C 
BRANCH  20  24
HETATM   24  C18 UNL     1     -13.039 -30.176  18.040  1.00  0.00     0.019 C 
BRANCH  24  25
HETATM   25  C19 UNL     1     -13.491 -29.086  17.117  1.00  0.00     0.112 C 
BRANCH  25  26
HETATM   26  C20 UNL     1     -14.696 -28.463  17.768  1.00  0.00     0.258 C 
HETATM   27  O4  UNL     1     -14.752 -28.458  19.015  1.00  0.00    -0.265 OA
BRANCH  26  28
HETATM   28  O5  UNL     1     -15.734 -27.901  17.037  1.00  0.00    -0.326 OA
HETATM   29  C21 UNL     1     -16.609 -27.001  17.700  1.00  0.00     0.213 C 
ENDBRANCH  26  28
ENDBRANCH  25  26
ENDBRANCH  24  25
ENDBRANCH  20  24
BRANCH  23  30
HETATM   30  O6  UNL     1     -12.100 -31.096  13.664  1.00  0.00    -0.395 OA
ATOM     31  H6  UNL     1     -12.635 -30.386  13.329  1.00  0.00     0.210 HD
ENDBRANCH  23  30
ENDBRANCH  15  17
ENDBRANCH  14  15
ENDBRANCH  10  14
ENDBRANCH   9  10
ENDBRANCH   7   9
ENDBRANCH   3   7
TORSDOF 13
ENDMDL
MODEL 2
REMARK VINA RESULT: -5.753896285      3.233      6.802
REMARK  13 active torsions:
REMARK  status: ('A' for Active; 'I' for Inactive)
REMARK    1  A    between atoms: C3_3  and  O1_5 
REMARK    2  A    between atoms: C3_3  and  C5_7 
REMARK    3  A    between atoms: C5_7  and  O3_9 
REMARK    4  A    between atoms: O3_9  and  C6_10 
REMARK    5  A    between atoms: C6_10  and  C8_12 
REMARK    6  A    between atoms: C6_10  and  C10_14 
REMARK    7  A    between atoms: C10_14  and  C11_15 
REMARK    8  A    between atoms: C11_15  and  C13_17 
REMARK    9  A    between atoms: C16_20  and  C18_22 
REMARK   10  A    between atoms: C18_22  and  C19_23 
REMARK   11  A    between atoms: C19_23  and  C20_24 
REMARK   12  A    between atoms: C20_24  and  O5_26 
REMARK   13  A    between atoms: C23_29  and  O6_30 
ROOT
HETATM    1  C1  UNL     1     -12.584 -28.924  15.786  1.00  0.00     0.016 C 
HETATM    2  C2  UNL     1     -12.186 -30.014  15.455  1.00  0.00    -0.069 C 
HETATM    3  C3  UNL     1     -11.686 -31.346  15.027  1.00  0.00     0.205 C 
HETATM    4  C4  UNL     1     -10.748 -31.820  16.108  1.00  0.00     0.072 C 
ENDROOT
BRANCH   3   5
HETATM    5  O1  UNL     1     -12.818 -32.158  14.939  1.00  0.00    -0.369 OA
ATOM      6  H1  UNL     1     -12.736 -32.618  14.112  1.00  0.00     0.212 HD
ENDBRANCH   3   5
BRANCH   3   7
HETATM    7  C5  UNL     1     -11.021 -31.243  13.703  1.00  0.00     0.307 C 
HETATM    8  O2  UNL     1     -10.343 -30.269  13.342  1.00  0.00    -0.261 OA
BRANCH   7   9
HETATM    9  O3  UNL     1     -11.157 -32.274  12.815  1.00  0.00    -0.303 OA
BRANCH   9  10
HETATM   10  C6  UNL     1     -10.359 -33.425  12.716  1.00  0.00     0.084 C 
HETATM   11  C7  UNL     1     -10.958 -34.624  13.414  1.00  0.00     0.051 C 
BRANCH  10  12
HETATM   12  C8  UNL     1     -10.364 -33.752  11.264  1.00  0.00     0.001 C 
HETATM   13  C9  UNL     1     -10.277 -34.998  10.876  1.00  0.00     0.010 C 
ENDBRANCH  10  12
BRANCH  10  14
HETATM   14  C10 UNL     1      -8.985 -33.087  13.164  1.00  0.00     0.047 C 
BRANCH  14  15
HETATM   15  C11 UNL     1      -8.203 -34.143  13.857  1.00  0.00    -0.009 C 
HETATM   16  C12 UNL     1      -7.000 -34.663  13.151  1.00  0.00     0.010 C 
BRANCH  15  17
HETATM   17  C13 UNL     1      -7.893 -33.651  15.255  1.00  0.00     0.018 C 
HETATM   18  C14 UNL     1      -6.853 -32.586  15.228  1.00  0.00     0.008 C 
HETATM   19  C15 UNL     1      -6.226 -32.284  16.546  1.00  0.00     0.010 C 
HETATM   20  C16 UNL     1      -6.827 -32.896  17.739  1.00  0.00    -0.041 C 
HETATM   21  C17 UNL     1      -7.859 -31.938  18.360  1.00  0.00     0.015 C 
HETATM   22  C22 UNL     1      -7.542 -34.204  17.564  1.00  0.00     0.041 C 
HETATM   23  C23 UNL     1      -7.360 -34.757  16.144  1.00  0.00     0.123 C 
BRANCH  20  24
HETATM   24  C18 UNL     1      -5.799 -33.115  18.831  1.00  0.00     0.019 C 
BRANCH  24  25
HETATM   25  C19 UNL     1      -4.444 -32.557  18.517  1.00  0.00     0.112 C 
BRANCH  25  26
HETATM   26  C20 UNL     1      -4.201 -31.465  19.523  1.00  0.00     0.258 C 
HETATM   27  O4  UNL     1      -4.944 -31.413  20.525  1.00  0.00    -0.265 OA
BRANCH  26  28
HETATM   28  O5  UNL     1      -3.190 -30.524  19.376  1.00  0.00    -0.326 OA
HETATM   29  C21 UNL     1      -2.438 -30.163  20.525  1.00  0.00     0.213 C 
ENDBRANCH  26  28
ENDBRANCH  25  26
ENDBRANCH  24  25
ENDBRANCH  20  24
BRANCH  23  30
HETATM   30  O6  UNL     1      -8.041 -35.940  16.026  1.00  0.00    -0.395 OA
ATOM     31  H6  UNL     1      -8.299 -36.319  16.858  1.00  0.00     0.210 HD
ENDBRANCH  23  30
ENDBRANCH  15  17
ENDBRANCH  14  15
ENDBRANCH  10  14
ENDBRANCH   9  10
ENDBRANCH   7   9
ENDBRANCH   3   7
TORSDOF 13
ENDMDL
MODEL 3
REMARK VINA RESULT: -5.650994333      4.823      9.217
REMARK  13 active torsions:
REMARK  status: ('A' for Active; 'I' for Inactive)
REMARK    1  A    between atoms: C3_3  and  O1_5 
REMARK    2  A    between atoms: C3_3  and  C5_7 
REMARK    3  A    between atoms: C5_7  and  O3_9 
REMARK    4  A    between atoms: O3_9  and  C6_10 
REMARK    5  A    between atoms: C6_10  and  C8_12 
REMARK    6  A    between atoms: C6_10  and  C10_14 
REMARK    7  A    between atoms: C10_14  and  C11_15 
REMARK    8  A    between atoms: C11_15  and  C13_17 
REMARK    9  A    between atoms: C16_20  and  C18_22 
REMARK   10  A    between atoms: C18_22  and  C19_23 
REMARK   11  A    between atoms: C19_23  and  C20_24 
REMARK   12  A    between atoms: C20_24  and  O5_26 
REMARK   13  A    between atoms: C23_29  and  O6_30 
ROOT
HETATM    1  C1  UNL     1      -2.042 -30.441  22.105  1.00  0.00     0.016 C 
HETATM    2  C2  UNL     1      -2.725 -30.057  21.188  1.00  0.00    -0.069 C 
HETATM    3  C3  UNL     1      -3.574 -29.607  20.055  1.00  0.00     0.205 C 
HETATM    4  C4  UNL     1      -4.571 -28.631  20.626  1.00  0.00     0.072 C 
ENDROOT
BRANCH   3   5
HETATM    5  O1  UNL     1      -2.701 -28.985  19.161  1.00  0.00    -0.369 OA
ATOM      6  H1  UNL     1      -3.143 -28.190  18.888  1.00  0.00     0.212 HD
ENDBRANCH   3   5
BRANCH   3   7
HETATM    7  C5  UNL     1      -4.227 -30.775  19.409  1.00  0.00     0.307 C 
HETATM    8  O2  UNL     1      -3.613 -31.664  18.800  1.00  0.00    -0.261 OA
BRANCH   7   9
HETATM    9  O3  UNL     1      -5.588 -30.891  19.480  1.00  0.00    -0.303 OA
BRANCH   9  10
HETATM   10  C6  UNL     1      -6.331 -31.698  20.356  1.00  0.00     0.084 C 
HETATM   11  C7  UNL     1      -5.477 -32.402  21.383  1.00  0.00     0.051 C 
BRANCH  10  12
HETATM   12  C8  UNL     1      -7.177 -30.736  21.115  1.00  0.00     0.001 C 
HETATM   13  C9  UNL     1      -8.181 -30.144  20.522  1.00  0.00     0.010 C 
ENDBRANCH  10  12
BRANCH  10  14
HETATM   14  C10 UNL     1      -7.184 -32.609  19.550  1.00  0.00     0.047 C 
BRANCH  14  15
HETATM   15  C11 UNL     1      -6.505 -33.574  18.648  1.00  0.00    -0.009 C 
HETATM   16  C12 UNL     1      -6.296 -34.952  19.171  1.00  0.00     0.010 C 
BRANCH  15  17
HETATM   17  C13 UNL     1      -7.230 -33.558  17.318  1.00  0.00     0.018 C 
HETATM   18  C14 UNL     1      -7.598 -34.937  16.894  1.00  0.00     0.008 C 
HETATM   19  C15 UNL     1      -7.991 -35.072  15.463  1.00  0.00     0.010 C 
HETATM   20  C16 UNL     1      -8.178 -33.835  14.692  1.00  0.00    -0.041 C 
HETATM   21  C17 UNL     1      -9.655 -33.404  14.735  1.00  0.00     0.015 C 
HETATM   22  C22 UNL     1      -7.390 -32.629  15.111  1.00  0.00     0.041 C 
HETATM   23  C23 UNL     1      -6.376 -32.975  16.210  1.00  0.00     0.123 C 
BRANCH  20  24
HETATM   24  C18 UNL     1      -7.882 -34.047  13.220  1.00  0.00     0.019 C 
BRANCH  24  25
HETATM   25  C19 UNL     1      -6.675 -34.893  12.954  1.00  0.00     0.112 C 
BRANCH  25  26
HETATM   26  C20 UNL     1      -7.164 -36.078  12.165  1.00  0.00     0.258 C 
HETATM   27  O4  UNL     1      -8.392 -36.187  11.970  1.00  0.00    -0.265 OA
BRANCH  26  28
HETATM   28  O5  UNL     1      -6.305 -37.042  11.654  1.00  0.00    -0.326 OA
HETATM   29  C21 UNL     1      -5.002 -36.639  11.261  1.00  0.00     0.213 C 
ENDBRANCH  26  28
ENDBRANCH  25  26
ENDBRANCH  24  25
ENDBRANCH  20  24
BRANCH  23  30
HETATM   30  O6  UNL     1      -5.695 -31.844  16.572  1.00  0.00    -0.395 OA
ATOM     31  H6  UNL     1      -6.150 -31.037  16.363  1.00  0.00     0.210 HD
ENDBRANCH  23  30
ENDBRANCH  15  17
ENDBRANCH  14  15
ENDBRANCH  10  14
ENDBRANCH   9  10
ENDBRANCH   7   9
ENDBRANCH   3   7
TORSDOF 13
ENDMDL
MODEL 4
REMARK VINA RESULT: -5.587192776      4.457      7.598
REMARK  13 active torsions:
REMARK  status: ('A' for Active; 'I' for Inactive)
REMARK    1  A    between atoms: C3_3  and  O1_5 
REMARK    2  A    between atoms: C3_3  and  C5_7 
REMARK    3  A    between atoms: C5_7  and  O3_9 
REMARK    4  A    between atoms: O3_9  and  C6_10 
REMARK    5  A    between atoms: C6_10  and  C8_12 
REMARK    6  A    between atoms: C6_10  and  C10_14 
REMARK    7  A    between atoms: C10_14  and  C11_15 
REMARK    8  A    between atoms: C11_15  and  C13_17 
REMARK    9  A    between atoms: C16_20  and  C18_22 
REMARK   10  A    between atoms: C18_22  and  C19_23 
REMARK   11  A    between atoms: C19_23  and  C20_24 
REMARK   12  A    between atoms: C20_24  and  O5_26 
REMARK   13  A    between atoms: C23_29  and  O6_30 
ROOT
HETATM    1  C1  UNL     1     -11.049 -29.242  13.179  1.00  0.00     0.016 C 
HETATM    2  C2  UNL     1     -11.522 -29.961  14.023  1.00  0.00    -0.069 C 
HETATM    3  C3  UNL     1     -12.083 -30.853  15.071  1.00  0.00     0.205 C 
HETATM    4  C4  UNL     1     -12.884 -29.976  15.999  1.00  0.00     0.072 C 
ENDROOT
BRANCH   3   5
HETATM    5  O1  UNL     1     -12.898 -31.759  14.390  1.00  0.00    -0.369 OA
ATOM      6  H1  UNL     1     -12.328 -32.192  13.766  1.00  0.00     0.212 HD
ENDBRANCH   3   5
BRANCH   3   7
HETATM    7  C5  UNL     1     -10.987 -31.571  15.772  1.00  0.00     0.307 C 
HETATM    8  O2  UNL     1     -11.058 -31.967  16.946  1.00  0.00    -0.261 OA
BRANCH   7   9
HETATM    9  O3  UNL     1      -9.823 -31.817  15.098  1.00  0.00    -0.303 OA
BRANCH   9  10
HETATM   10  C6  UNL     1      -9.379 -33.044  14.581  1.00  0.00     0.084 C 
HETATM   11  C7  UNL     1     -10.396 -34.152  14.726  1.00  0.00     0.051 C 
BRANCH  10  12
HETATM   12  C8  UNL     1      -9.245 -32.800  13.119  1.00  0.00     0.001 C 
HETATM   13  C9  UNL     1     -10.250 -33.053  12.321  1.00  0.00     0.010 C 
ENDBRANCH  10  12
BRANCH  10  14
HETATM   14  C10 UNL     1      -8.055 -33.356  15.175  1.00  0.00     0.047 C 
BRANCH  14  15
HETATM   15  C11 UNL     1      -8.000 -33.644  16.631  1.00  0.00    -0.009 C 
HETATM   16  C12 UNL     1      -7.505 -34.988  17.034  1.00  0.00     0.010 C 
BRANCH  15  17
HETATM   17  C13 UNL     1      -7.240 -32.517  17.301  1.00  0.00     0.018 C 
HETATM   18  C14 UNL     1      -5.770 -32.728  17.194  1.00  0.00     0.008 C 
HETATM   19  C15 UNL     1      -4.945 -31.885  18.105  1.00  0.00     0.010 C 
HETATM   20  C16 UNL     1      -5.629 -30.812  18.840  1.00  0.00    -0.041 C 
HETATM   21  C17 UNL     1      -5.543 -29.494  18.050  1.00  0.00     0.015 C 
HETATM   22  C22 UNL     1      -7.083 -31.003  19.156  1.00  0.00     0.041 C 
HETATM   23  C23 UNL     1      -7.559 -32.413  18.778  1.00  0.00     0.123 C 
BRANCH  20  24
HETATM   24  C18 UNL     1      -4.942 -30.515  20.158  1.00  0.00     0.019 C 
BRANCH  24  25
HETATM   25  C19 UNL     1      -3.649 -31.247  20.354  1.00  0.00     0.112 C 
BRANCH  25  26
HETATM   26  C20 UNL     1      -2.583 -30.189  20.449  1.00  0.00     0.258 C 
HETATM   27  O4  UNL     1      -2.478 -29.374  19.508  1.00  0.00    -0.265 OA
BRANCH  26  28
HETATM   28  O5  UNL     1      -1.722 -30.089  21.534  1.00  0.00    -0.326 OA
HETATM   29  C21 UNL     1      -2.092 -30.734  22.743  1.00  0.00     0.213 C 
ENDBRANCH  26  28
ENDBRANCH  25  26
ENDBRANCH  24  25
ENDBRANCH  20  24
BRANCH  23  30
HETATM   30  O6  UNL     1      -8.892 -32.535  19.067  1.00  0.00    -0.395 OA
ATOM     31  H6  UNL     1      -9.392 -31.743  18.914  1.00  0.00     0.210 HD
ENDBRANCH  23  30
ENDBRANCH  15  17
ENDBRANCH  14  15
ENDBRANCH  10  14
ENDBRANCH   9  10
ENDBRANCH   7   9
ENDBRANCH   3   7
TORSDOF 13
ENDMDL
MODEL 5
REMARK VINA RESULT: -5.583723318      3.656      6.918
REMARK  13 active torsions:
REMARK  status: ('A' for Active; 'I' for Inactive)
REMARK    1  A    between atoms: C3_3  and  O1_5 
REMARK    2  A    between atoms: C3_3  and  C5_7 
REMARK    3  A    between atoms: C5_7  and  O3_9 
REMARK    4  A    between atoms: O3_9  and  C6_10 
REMARK    5  A    between atoms: C6_10  and  C8_12 
REMARK    6  A    between atoms: C6_10  and  C10_14 
REMARK    7  A    between atoms: C10_14  and  C11_15 
REMARK    8  A    between atoms: C11_15  and  C13_17 
REMARK    9  A    between atoms: C16_20  and  C18_22 
REMARK   10  A    between atoms: C18_22  and  C19_23 
REMARK   11  A    between atoms: C19_23  and  C20_24 
REMARK   12  A    between atoms: C20_24  and  O5_26 
REMARK   13  A    between atoms: C23_29  and  O6_30 
ROOT
HETATM    1  C1  UNL     1     -11.398 -28.550  12.952  1.00  0.00     0.016 C 
HETATM    2  C2  UNL     1     -11.860 -29.184  13.869  1.00  0.00    -0.069 C 
HETATM    3  C3  UNL     1     -12.406 -29.976  15.001  1.00  0.00     0.205 C 
HETATM    4  C4  UNL     1     -12.914 -28.982  16.015  1.00  0.00     0.072 C 
ENDROOT
BRANCH   3   5
HETATM    5  O1  UNL     1     -13.446 -30.732  14.459  1.00  0.00    -0.369 OA
ATOM      6  H1  UNL     1     -13.036 -31.516  14.114  1.00  0.00     0.212 HD
ENDBRANCH   3   5
BRANCH   3   7
HETATM    7  C5  UNL     1     -11.356 -30.868  15.556  1.00  0.00     0.307 C 
HETATM    8  O2  UNL     1     -11.318 -31.242  16.739  1.00  0.00    -0.261 OA
BRANCH   7   9
HETATM    9  O3  UNL     1     -10.362 -31.310  14.728  1.00  0.00    -0.303 OA
BRANCH   9  10
HETATM   10  C6  UNL     1     -10.210 -32.598  14.190  1.00  0.00     0.084 C 
HETATM   11  C7  UNL     1     -11.140 -33.614  14.810  1.00  0.00     0.051 C 
BRANCH  10  12
HETATM   12  C8  UNL     1     -10.641 -32.458  12.773  1.00  0.00     0.001 C 
HETATM   13  C9  UNL     1     -11.691 -33.111  12.344  1.00  0.00     0.010 C 
ENDBRANCH  10  12
BRANCH  10  14
HETATM   14  C10 UNL     1      -8.774 -32.971  14.257  1.00  0.00     0.047 C 
BRANCH  14  15
HETATM   15  C11 UNL     1      -8.385 -34.060  15.189  1.00  0.00    -0.009 C 
HETATM   16  C12 UNL     1      -7.707 -35.245  14.596  1.00  0.00     0.010 C 
BRANCH  15  17
HETATM   17  C13 UNL     1      -7.593 -33.442  16.323  1.00  0.00     0.018 C 
HETATM   18  C14 UNL     1      -8.495 -32.971  17.409  1.00  0.00     0.008 C 
HETATM   19  C15 UNL     1      -7.866 -32.046  18.394  1.00  0.00     0.010 C 
HETATM   20  C16 UNL     1      -6.409 -31.868  18.321  1.00  0.00    -0.041 C 
HETATM   21  C17 UNL     1      -5.708 -32.856  19.270  1.00  0.00     0.015 C 
HETATM   22  C22 UNL     1      -5.752 -32.052  16.985  1.00  0.00     0.041 C 
HETATM   23  C23 UNL     1      -6.791 -32.239  15.870  1.00  0.00     0.123 C 
BRANCH  20  24
HETATM   24  C18 UNL     1      -5.990 -30.498  18.817  1.00  0.00     0.019 C 
BRANCH  24  25
HETATM   25  C19 UNL     1      -4.818 -29.914  18.089  1.00  0.00     0.112 C 
BRANCH  25  26
HETATM   26  C20 UNL     1      -3.875 -29.418  19.151  1.00  0.00     0.258 C 
HETATM   27  O4  UNL     1      -2.796 -28.906  18.786  1.00  0.00    -0.265 OA
BRANCH  26  28
HETATM   28  O5  UNL     1      -4.160 -29.510  20.507  1.00  0.00    -0.326 OA
HETATM   29  C21 UNL     1      -3.174 -30.068  21.362  1.00  0.00     0.213 C 
ENDBRANCH  26  28
ENDBRANCH  25  26
ENDBRANCH  24  25
ENDBRANCH  20  24
BRANCH  23  30
HETATM   30  O6  UNL     1      -6.147 -32.421  14.675  1.00  0.00    -0.395 OA
ATOM     31  H6  UNL     1      -5.392 -32.995  14.729  1.00  0.00     0.210 HD
ENDBRANCH  23  30
ENDBRANCH  15  17
ENDBRANCH  14  15
ENDBRANCH  10  14
ENDBRANCH   9  10
ENDBRANCH   7   9
ENDBRANCH   3   7
TORSDOF 13
ENDMDL
