MODEL 1
REMARK VINA RESULT: -6.597359413      0.000      0.000
REMARK  11 active torsions:
REMARK  status: ('A' for Active; 'I' for Inactive)
REMARK    1  A    between atoms: C2_2  and  O1_3 
REMARK    2  A    between atoms: O1_3  and  C3_4 
REMARK    3  A    between atoms: C3_4  and  C4_6 
REMARK    4  A    between atoms: C5_8  and  N1_9 
REMARK       I    between atoms: N1_9  and  C6_11 
REMARK    5  A    between atoms: C6_11  and  C7_13 
REMARK    6  A    between atoms: C7_13  and  S2_14 
REMARK    7  A    between atoms: S2_14  and  C8_15 
REMARK    8  A    between atoms: C8_15  and  C9_16 
REMARK    9  A    between atoms: C9_16  and  O4_17 
REMARK   10  A    between atoms: C9_16  and  C10_19 
REMARK   11  A    between atoms: C10_19  and  C11_20 
ROOT
HETATM    1  N1  UNL     1      -7.572 -32.361  18.234  1.00  0.00    -0.306 N 
ATOM      2  H1  UNL     1      -8.535 -32.248  18.549  1.00  0.00     0.171 HD
HETATM    3  C6  UNL     1      -7.225 -33.380  17.342  1.00  0.00     0.232 C 
HETATM    4  O3  UNL     1      -6.910 -34.522  17.775  1.00  0.00    -0.272 OA
ENDROOT
BRANCH   3   5
HETATM    5  C7  UNL     1      -7.221 -33.134  15.880  1.00  0.00     0.177 C 
BRANCH   5   6
HETATM    6  S2  UNL     1      -8.854 -33.297  15.162  1.00  0.00    -0.157 SA
BRANCH   6   7
HETATM    7  C8  UNL     1      -8.950 -32.398  13.565  1.00  0.00     0.106 C 
BRANCH   7   8
HETATM    8  C9  UNL     1     -10.328 -31.978  13.220  1.00  0.00     0.127 C 
BRANCH   8   9
HETATM    9  O4  UNL     1     -10.675 -32.361  11.899  1.00  0.00    -0.395 OA
ATOM     10  H4  UNL     1     -10.857 -31.606  11.352  1.00  0.00     0.210 HD
ENDBRANCH   8   9
BRANCH   8  11
HETATM   11  C10 UNL     1     -10.684 -30.597  13.524  1.00  0.00     0.037 C 
BRANCH  11  12
HETATM   12  C11 UNL     1     -11.990 -30.240  14.124  1.00  0.00    -0.012 C 
HETATM   13  C12 UNL     1     -12.369 -31.413  15.056  1.00  0.00     0.005 C 
HETATM   14  C13 UNL     1     -11.770 -31.086  16.408  1.00  0.00     0.000 C 
HETATM   15  C14 UNL     1     -12.690 -30.038  17.011  1.00  0.00     0.000 C 
HETATM   16  C15 UNL     1     -13.003 -28.950  16.017  1.00  0.00     0.000 C 
HETATM   17  C16 UNL     1     -12.020 -28.961  14.846  1.00  0.00     0.005 C 
ENDBRANCH  11  12
ENDBRANCH   8  11
ENDBRANCH   7   8
ENDBRANCH   6   7
ENDBRANCH   5   6
ENDBRANCH   3   5
BRANCH   1  18
HETATM   18  C5  UNL     1      -6.624 -31.551  18.657  1.00  0.00     0.152 A 
HETATM   19  S1  UNL     1      -4.936 -31.678  18.484  1.00  0.00    -0.046 SA
HETATM   20  C4  UNL     1      -4.490 -30.252  19.299  1.00  0.00     0.105 A 
HETATM   21  C17 UNL     1      -5.702 -29.739  19.673  1.00  0.00     0.030 A 
HETATM   22  N2  UNL     1      -6.775 -30.412  19.337  1.00  0.00    -0.339 N 
HETATM   23  C18 UNL     1      -5.751 -28.432  20.454  1.00  0.00     0.070 C 
ATOM     24  H2  UNL     1      -7.703 -30.074  19.590  1.00  0.00     0.168 HD
BRANCH  20  25
HETATM   25  C3  UNL     1      -3.143 -29.688  19.552  1.00  0.00     0.302 C 
HETATM   26  O2  UNL     1      -2.718 -28.764  18.828  1.00  0.00    -0.259 OA
BRANCH  25  27
HETATM   27  O1  UNL     1      -2.377 -30.187  20.581  1.00  0.00    -0.317 OA
BRANCH  27  28
HETATM   28  C2  UNL     1      -2.864 -30.085  21.921  1.00  0.00     0.174 C 
HETATM   29  C1  UNL     1      -2.009 -30.909  22.844  1.00  0.00     0.034 C 
ENDBRANCH  27  28
ENDBRANCH  25  27
ENDBRANCH  20  25
ENDBRANCH   1  18
TORSDOF 11
ENDMDL
MODEL 2
REMARK VINA RESULT: -6.148696777      1.455      1.696
REMARK  11 active torsions:
REMARK  status: ('A' for Active; 'I' for Inactive)
REMARK    1  A    between atoms: C2_2  and  O1_3 
REMARK    2  A    between atoms: O1_3  and  C3_4 
REMARK    3  A    between atoms: C3_4  and  C4_6 
REMARK    4  A    between atoms: C5_8  and  N1_9 
REMARK       I    between atoms: N1_9  and  C6_11 
REMARK    5  A    between atoms: C6_11  and  C7_13 
REMARK    6  A    between atoms: C7_13  and  S2_14 
REMARK    7  A    between atoms: S2_14  and  C8_15 
REMARK    8  A    between atoms: C8_15  and  C9_16 
REMARK    9  A    between atoms: C9_16  and  O4_17 
REMARK   10  A    between atoms: C9_16  and  C10_19 
REMARK   11  A    between atoms: C10_19  and  C11_20 
ROOT
HETATM    1  N1  UNL     1      -6.228 -32.931  17.669  1.00  0.00    -0.306 N 
ATOM      2  H1  UNL     1      -6.032 -33.873  18.007  1.00  0.00     0.171 HD
HETATM    3  C6  UNL     1      -6.912 -32.729  16.468  1.00  0.00     0.232 C 
HETATM    4  O3  UNL     1      -6.279 -32.674  15.379  1.00  0.00    -0.272 OA
ENDROOT
BRANCH   3   5
HETATM    5  C7  UNL     1      -8.387 -32.577  16.456  1.00  0.00     0.177 C 
BRANCH   5   6
HETATM    6  S2  UNL     1      -9.150 -33.474  15.106  1.00  0.00    -0.157 SA
BRANCH   6   7
HETATM    7  C8  UNL     1      -9.129 -32.472  13.569  1.00  0.00     0.106 C 
BRANCH   7   8
HETATM    8  C9  UNL     1     -10.467 -31.961  13.193  1.00  0.00     0.127 C 
BRANCH   8   9
HETATM    9  O4  UNL     1     -10.777 -32.254  11.840  1.00  0.00    -0.395 OA
ATOM     10  H4  UNL     1     -11.514 -31.741  11.531  1.00  0.00     0.210 HD
ENDBRANCH   8   9
BRANCH   8  11
HETATM   11  C10 UNL     1     -10.764 -30.580  13.559  1.00  0.00     0.037 C 
BRANCH  11  12
HETATM   12  C11 UNL     1     -12.062 -30.192  14.158  1.00  0.00    -0.012 C 
HETATM   13  C12 UNL     1     -12.467 -31.354  15.093  1.00  0.00     0.005 C 
HETATM   14  C13 UNL     1     -11.861 -31.037  16.444  1.00  0.00     0.000 C 
HETATM   15  C14 UNL     1     -12.757 -29.966  17.044  1.00  0.00     0.000 C 
HETATM   16  C15 UNL     1     -13.045 -28.874  16.047  1.00  0.00     0.000 C 
HETATM   17  C16 UNL     1     -12.063 -28.911  14.876  1.00  0.00     0.005 C 
ENDBRANCH  11  12
ENDBRANCH   8  11
ENDBRANCH   7   8
ENDBRANCH   6   7
ENDBRANCH   5   6
ENDBRANCH   3   5
BRANCH   1  18
HETATM   18  C5  UNL     1      -5.842 -31.875  18.354  1.00  0.00     0.152 A 
HETATM   19  S1  UNL     1      -6.531 -31.179  19.745  1.00  0.00    -0.046 SA
HETATM   20  C4  UNL     1      -5.435 -29.893  19.955  1.00  0.00     0.105 A 
HETATM   21  C17 UNL     1      -4.572 -30.074  18.909  1.00  0.00     0.030 A 
HETATM   22  N2  UNL     1      -4.794 -31.086  18.107  1.00  0.00    -0.339 N 
HETATM   23  C18 UNL     1      -3.410 -29.105  18.723  1.00  0.00     0.070 C 
ATOM     24  H2  UNL     1      -4.180 -31.267  17.313  1.00  0.00     0.168 HD
BRANCH  20  25
HETATM   25  C3  UNL     1      -5.401 -28.838  20.994  1.00  0.00     0.302 C 
HETATM   26  O2  UNL     1      -6.183 -27.868  20.911  1.00  0.00    -0.259 OA
BRANCH  25  27
HETATM   27  O1  UNL     1      -4.509 -28.937  22.039  1.00  0.00    -0.317 OA
BRANCH  27  28
HETATM   28  C2  UNL     1      -3.946 -30.214  22.350  1.00  0.00     0.174 C 
HETATM   29  C1  UNL     1      -2.445 -30.145  22.276  1.00  0.00     0.034 C 
ENDBRANCH  27  28
ENDBRANCH  25  27
ENDBRANCH  20  25
ENDBRANCH   1  18
TORSDOF 11
ENDMDL
MODEL 3
REMARK VINA RESULT: -6.147735367      1.168      1.754
REMARK  11 active torsions:
REMARK  status: ('A' for Active; 'I' for Inactive)
REMARK    1  A    between atoms: C2_2  and  O1_3 
REMARK    2  A    between atoms: O1_3  and  C3_4 
REMARK    3  A    between atoms: C3_4  and  C4_6 
REMARK    4  A    between atoms: C5_8  and  N1_9 
REMARK       I    between atoms: N1_9  and  C6_11 
REMARK    5  A    between atoms: C6_11  and  C7_13 
REMARK    6  A    between atoms: C7_13  and  S2_14 
REMARK    7  A    between atoms: S2_14  and  C8_15 
REMARK    8  A    between atoms: C8_15  and  C9_16 
REMARK    9  A    between atoms: C9_16  and  O4_17 
REMARK   10  A    between atoms: C9_16  and  C10_19 
REMARK   11  A    between atoms: C10_19  and  C11_20 
ROOT
HETATM    1  N1  UNL     1      -7.668 -32.370  18.089  1.00  0.00    -0.306 N 
ATOM      2  H1  UNL     1      -8.602 -32.351  18.499  1.00  0.00     0.171 HD
HETATM    3  C6  UNL     1      -7.369 -33.230  17.029  1.00  0.00     0.232 C 
HETATM    4  O3  UNL     1      -6.975 -34.406  17.258  1.00  0.00    -0.272 OA
ENDROOT
BRANCH   3   5
HETATM    5  C7  UNL     1      -7.509 -32.774  15.625  1.00  0.00     0.177 C 
BRANCH   5   6
HETATM    6  S2  UNL     1      -8.872 -33.578  14.785  1.00  0.00    -0.157 SA
BRANCH   6   7
HETATM    7  C8  UNL     1     -10.204 -34.002  15.973  1.00  0.00     0.106 C 
BRANCH   7   8
HETATM    8  C9  UNL     1     -11.477 -33.300  15.690  1.00  0.00     0.127 C 
BRANCH   8   9
HETATM    9  O4  UNL     1     -12.172 -33.895  14.606  1.00  0.00    -0.395 OA
ATOM     10  H4  UNL     1     -13.085 -33.632  14.590  1.00  0.00     0.210 HD
ENDBRANCH   8   9
BRANCH   8  11
HETATM   11  C10 UNL     1     -11.412 -31.846  15.595  1.00  0.00     0.037 C 
BRANCH  11  12
HETATM   12  C11 UNL     1     -11.830 -31.123  14.372  1.00  0.00    -0.012 C 
HETATM   13  C12 UNL     1     -12.924 -30.125  14.816  1.00  0.00     0.005 C 
HETATM   14  C13 UNL     1     -12.199 -28.852  15.201  1.00  0.00     0.000 C 
HETATM   15  C14 UNL     1     -11.833 -28.186  13.885  1.00  0.00     0.000 C 
HETATM   16  C15 UNL     1     -11.216 -29.171  12.928  1.00  0.00     0.000 C 
HETATM   17  C16 UNL     1     -10.752 -30.437  13.648  1.00  0.00     0.005 C 
ENDBRANCH  11  12
ENDBRANCH   8  11
ENDBRANCH   7   8
ENDBRANCH   6   7
ENDBRANCH   5   6
ENDBRANCH   3   5
BRANCH   1  18
HETATM   18  C5  UNL     1      -6.715 -31.584  18.545  1.00  0.00     0.152 A 
HETATM   19  S1  UNL     1      -5.028 -31.718  18.370  1.00  0.00    -0.046 SA
HETATM   20  C4  UNL     1      -4.572 -30.328  19.241  1.00  0.00     0.105 A 
HETATM   21  C17 UNL     1      -5.780 -29.822  19.634  1.00  0.00     0.030 A 
HETATM   22  N2  UNL     1      -6.858 -30.473  19.270  1.00  0.00    -0.339 N 
HETATM   23  C18 UNL     1      -5.821 -28.546  20.466  1.00  0.00     0.070 C 
ATOM     24  H2  UNL     1      -7.784 -30.138  19.535  1.00  0.00     0.168 HD
BRANCH  20  25
HETATM   25  C3  UNL     1      -3.222 -29.785  19.518  1.00  0.00     0.302 C 
HETATM   26  O2  UNL     1      -2.785 -28.843  18.826  1.00  0.00    -0.259 OA
BRANCH  25  27
HETATM   27  O1  UNL     1      -2.464 -30.325  20.534  1.00  0.00    -0.317 OA
BRANCH  27  28
HETATM   28  C2  UNL     1      -2.801 -30.016  21.888  1.00  0.00     0.174 C 
HETATM   29  C1  UNL     1      -2.078 -30.947  22.823  1.00  0.00     0.034 C 
ENDBRANCH  27  28
ENDBRANCH  25  27
ENDBRANCH  20  25
ENDBRANCH   1  18
TORSDOF 11
ENDMDL
MODEL 4
REMARK VINA RESULT: -6.135840426      2.667      3.751
REMARK  11 active torsions:
REMARK  status: ('A' for Active; 'I' for Inactive)
REMARK    1  A    between atoms: C2_2  and  O1_3 
REMARK    2  A    between atoms: O1_3  and  C3_4 
REMARK    3  A    between atoms: C3_4  and  C4_6 
REMARK    4  A    between atoms: C5_8  and  N1_9 
REMARK       I    between atoms: N1_9  and  C6_11 
REMARK    5  A    between atoms: C6_11  and  C7_13 
REMARK    6  A    between atoms: C7_13  and  S2_14 
REMARK    7  A    between atoms: S2_14  and  C8_15 
REMARK    8  A    between atoms: C8_15  and  C9_16 
REMARK    9  A    between atoms: C9_16  and  O4_17 
REMARK   10  A    between atoms: C9_16  and  C10_19 
REMARK   11  A    between atoms: C10_19  and  C11_20 
ROOT
HETATM    1  N1  UNL     1      -8.531 -29.926  20.723  1.00  0.00    -0.306 N 
ATOM      2  H1  UNL     1      -9.107 -29.118  20.489  1.00  0.00     0.171 HD
HETATM    3  C6  UNL     1      -9.026 -30.946  21.540  1.00  0.00     0.232 C 
HETATM    4  O3  UNL     1      -8.911 -30.867  22.793  1.00  0.00    -0.272 OA
ENDROOT
BRANCH   3   5
HETATM    5  C7  UNL     1      -9.690 -32.132  20.948  1.00  0.00     0.177 C 
BRANCH   5   6
HETATM    6  S2  UNL     1     -10.468 -31.759  19.378  1.00  0.00    -0.157 SA
BRANCH   6   7
HETATM    7  C8  UNL     1     -12.290 -31.655  19.568  1.00  0.00     0.106 C 
BRANCH   7   8
HETATM    8  C9  UNL     1     -12.988 -31.347  18.299  1.00  0.00     0.127 C 
BRANCH   8   9
HETATM    9  O4  UNL     1     -13.671 -32.482  17.790  1.00  0.00    -0.395 OA
ATOM     10  H4  UNL     1     -14.114 -32.961  18.480  1.00  0.00     0.210 HD
ENDBRANCH   8   9
BRANCH   8  11
HETATM   11  C10 UNL     1     -12.212 -30.647  17.281  1.00  0.00     0.037 C 
BRANCH  11  12
HETATM   12  C11 UNL     1     -12.335 -30.973  15.842  1.00  0.00    -0.012 C 
HETATM   13  C12 UNL     1     -13.059 -29.774  15.190  1.00  0.00     0.005 C 
HETATM   14  C13 UNL     1     -11.973 -28.802  14.775  1.00  0.00     0.000 C 
HETATM   15  C14 UNL     1     -11.370 -29.391  13.512  1.00  0.00     0.000 C 
HETATM   16  C15 UNL     1     -11.076 -30.859  13.680  1.00  0.00     0.000 C 
HETATM   17  C16 UNL     1     -11.071 -31.264  15.154  1.00  0.00     0.005 C 
ENDBRANCH  11  12
ENDBRANCH   8  11
ENDBRANCH   7   8
ENDBRANCH   6   7
ENDBRANCH   5   6
ENDBRANCH   3   5
BRANCH   1  18
HETATM   18  C5  UNL     1      -7.301 -30.034  20.263  1.00  0.00     0.152 A 
HETATM   19  S1  UNL     1      -5.861 -29.354  20.861  1.00  0.00    -0.046 SA
HETATM   20  C4  UNL     1      -4.784 -29.984  19.702  1.00  0.00     0.105 A 
HETATM   21  C17 UNL     1      -5.618 -30.705  18.893  1.00  0.00     0.030 A 
HETATM   22  N2  UNL     1      -6.893 -30.720  19.193  1.00  0.00    -0.339 N 
HETATM   23  C18 UNL     1      -5.038 -31.445  17.693  1.00  0.00     0.070 C 
ATOM     24  H2  UNL     1      -7.558 -31.242  18.623  1.00  0.00     0.168 HD
BRANCH  20  25
HETATM   25  C3  UNL     1      -3.318 -29.812  19.581  1.00  0.00     0.302 C 
HETATM   26  O2  UNL     1      -2.863 -28.907  18.852  1.00  0.00    -0.259 OA
BRANCH  25  27
HETATM   27  O1  UNL     1      -2.473 -30.652  20.273  1.00  0.00    -0.317 OA
BRANCH  27  28
HETATM   28  C2  UNL     1      -1.734 -30.132  21.381  1.00  0.00     0.174 C 
HETATM   29  C1  UNL     1      -2.112 -30.864  22.639  1.00  0.00     0.034 C 
ENDBRANCH  27  28
ENDBRANCH  25  27
ENDBRANCH  20  25
ENDBRANCH   1  18
TORSDOF 11
ENDMDL
MODEL 5
REMARK VINA RESULT: -6.117235393      2.171      2.793
REMARK  11 active torsions:
REMARK  status: ('A' for Active; 'I' for Inactive)
REMARK    1  A    between atoms: C2_2  and  O1_3 
REMARK    2  A    between atoms: O1_3  and  C3_4 
REMARK    3  A    between atoms: C3_4  and  C4_6 
REMARK    4  A    between atoms: C5_8  and  N1_9 
REMARK       I    between atoms: N1_9  and  C6_11 
REMARK    5  A    between atoms: C6_11  and  C7_13 
REMARK    6  A    between atoms: C7_13  and  S2_14 
REMARK    7  A    between atoms: S2_14  and  C8_15 
REMARK    8  A    between atoms: C8_15  and  C9_16 
REMARK    9  A    between atoms: C9_16  and  O4_17 
REMARK   10  A    between atoms: C9_16  and  C10_19 
REMARK   11  A    between atoms: C10_19  and  C11_20 
ROOT
HETATM    1  N1  UNL     1      -6.750 -33.453  15.689  1.00  0.00    -0.306 N 
ATOM      2  H1  UNL     1      -6.766 -34.460  15.854  1.00  0.00     0.171 HD
HETATM    3  C6  UNL     1      -6.900 -32.936  14.400  1.00  0.00     0.232 C 
HETATM    4  O3  UNL     1      -5.892 -32.780  13.658  1.00  0.00    -0.272 OA
ENDROOT
BRANCH   3   5
HETATM    5  C7  UNL     1      -8.240 -32.565  13.886  1.00  0.00     0.177 C 
BRANCH   5   6
HETATM    6  S2  UNL     1      -8.977 -33.872  12.909  1.00  0.00    -0.157 SA
BRANCH   6   7
HETATM    7  C8  UNL     1     -10.742 -34.099  13.358  1.00  0.00     0.106 C 
BRANCH   7   8
HETATM    8  C9  UNL     1     -11.657 -33.259  12.552  1.00  0.00     0.127 C 
BRANCH   8   9
HETATM    9  O4  UNL     1     -11.065 -32.872  11.323  1.00  0.00    -0.395 OA
ATOM     10  H4  UNL     1     -11.721 -32.641  10.676  1.00  0.00     0.210 HD
ENDBRANCH   8   9
BRANCH   8  11
HETATM   11  C10 UNL     1     -12.304 -32.150  13.246  1.00  0.00     0.037 C 
BRANCH  11  12
HETATM   12  C11 UNL     1     -11.684 -31.492  14.418  1.00  0.00    -0.012 C 
HETATM   13  C12 UNL     1     -11.106 -30.154  13.904  1.00  0.00     0.005 C 
HETATM   14  C13 UNL     1     -12.217 -29.135  14.045  1.00  0.00     0.000 C 
HETATM   15  C14 UNL     1     -12.258 -28.788  15.524  1.00  0.00     0.000 C 
HETATM   16  C15 UNL     1     -12.230 -30.030  16.376  1.00  0.00     0.000 C 
HETATM   17  C16 UNL     1     -12.578 -31.276  15.563  1.00  0.00     0.005 C 
ENDBRANCH  11  12
ENDBRANCH   8  11
ENDBRANCH   7   8
ENDBRANCH   6   7
ENDBRANCH   5   6
ENDBRANCH   3   5
BRANCH   1  18
HETATM   18  C5  UNL     1      -6.588 -32.609  16.686  1.00  0.00     0.152 A 
HETATM   19  S1  UNL     1      -7.462 -32.471  18.139  1.00  0.00    -0.046 SA
HETATM   20  C4  UNL     1      -6.612 -31.165  18.825  1.00  0.00     0.105 A 
HETATM   21  C17 UNL     1      -5.672 -30.897  17.867  1.00  0.00     0.030 A 
HETATM   22  N2  UNL     1      -5.674 -31.640  16.788  1.00  0.00    -0.339 N 
HETATM   23  C18 UNL     1      -4.682 -29.760  18.092  1.00  0.00     0.070 C 
ATOM     24  H2  UNL     1      -4.995 -31.483  16.045  1.00  0.00     0.168 HD
BRANCH  20  25
HETATM   25  C3  UNL     1      -6.816 -30.479  20.121  1.00  0.00     0.302 C 
HETATM   26  O2  UNL     1      -7.700 -29.603  20.221  1.00  0.00    -0.259 OA
BRANCH  25  27
HETATM   27  O1  UNL     1      -6.030 -30.815  21.202  1.00  0.00    -0.317 OA
BRANCH  27  28
HETATM   28  C2  UNL     1      -5.524 -29.774  22.040  1.00  0.00     0.174 C 
HETATM   29  C1  UNL     1      -4.040 -29.632  21.843  1.00  0.00     0.034 C 
ENDBRANCH  27  28
ENDBRANCH  25  27
ENDBRANCH  20  25
ENDBRANCH   1  18
TORSDOF 11
ENDMDL
