MODEL 1
REMARK VINA RESULT: -9.023707586      0.000      0.000
REMARK  6 active torsions:
REMARK  status: ('A' for Active; 'I' for Inactive)
REMARK    1  A    between atoms: C4_6  and  C5_7 
REMARK    2  A    between atoms: C5_7  and  N2_8 
REMARK    3  A    between atoms: N2_8  and  C6_11 
REMARK    4  A    between atoms: C6_11  and  C7_12 
REMARK    5  A    between atoms: C7_12  and  C8_13 
REMARK    6  A    between atoms: C15_20  and  C16_21 
ROOT
HETATM    1 CL1  UNL     1      30.479  -5.941  22.875  1.00  0.00    -0.084 Cl
HETATM    2  C1  UNL     1      32.034  -6.540  23.469  1.00  0.00     0.038 A 
HETATM    3  C2  UNL     1      32.170  -6.999  24.757  1.00  0.00     0.041 A 
HETATM    4  C3  UNL     1      33.347  -7.472  25.264  1.00  0.00     0.100 A 
HETATM    5  N1  UNL     1      34.440  -7.487  24.448  1.00  0.00    -0.308 N 
HETATM    6  C4  UNL     1      35.710  -7.876  24.609  1.00  0.00     0.066 A 
HETATM    7  C15 UNL     1      36.406  -7.664  23.399  1.00  0.00     0.040 A 
HETATM    8  N3  UNL     1      35.508  -7.153  22.565  1.00  0.00    -0.343 N 
ATOM      9  H3  UNL     1      35.693  -6.886  21.598  1.00  0.00     0.167 HD
HETATM   10  C21 UNL     1      34.326  -7.041  23.177  1.00  0.00     0.113 A 
HETATM   11  C22 UNL     1      33.143  -6.561  22.655  1.00  0.00     0.072 A 
ENDROOT
BRANCH   6  12
HETATM   12  C5  UNL     1      36.384  -8.444  25.766  1.00  0.00     0.291 C 
BRANCH  12  13
HETATM   13  N2  UNL     1      35.875  -9.624  26.370  1.00  0.00    -0.070 N 
ATOM     14  H22 UNL     1      35.426  -9.456  27.270  1.00  0.00     0.277 HD
ATOM     15  H21 UNL     1      35.058 -10.004  25.891  1.00  0.00     0.277 HD
BRANCH  13  16
HETATM   16  C6  UNL     1      37.002 -10.570  26.445  1.00  0.00     0.233 C 
BRANCH  16  17
HETATM   17  C7  UNL     1      37.506 -10.730  27.835  1.00  0.00     0.032 C 
BRANCH  17  18
HETATM   18  C8  UNL     1      38.987 -10.928  27.963  1.00  0.00    -0.013 C 
HETATM   19  C9  UNL     1      39.668  -9.672  27.427  1.00  0.00     0.005 C 
HETATM   20  C10 UNL     1      41.097  -9.552  27.843  1.00  0.00     0.000 C 
HETATM   21  C11 UNL     1      41.306  -8.694  29.067  1.00  0.00     0.000 C 
HETATM   22  C12 UNL     1      40.767  -9.290  30.330  1.00  0.00     0.000 C 
HETATM   23  C13 UNL     1      39.418  -9.917  30.208  1.00  0.00     0.000 C 
HETATM   24  C14 UNL     1      39.425 -11.176  29.376  1.00  0.00     0.005 C 
ENDBRANCH  17  18
ENDBRANCH  16  17
ENDBRANCH  13  16
ENDBRANCH  12  13
ENDBRANCH   6  12
BRANCH   7  25
HETATM   25  C16 UNL     1      37.817  -7.947  23.104  1.00  0.00     0.037 C 
HETATM   26  C17 UNL     1      37.928  -8.141  21.581  1.00  0.00     0.011 C 
HETATM   27  C18 UNL     1      37.624  -9.595  21.328  1.00  0.00     0.001 C 
HETATM   28  C19 UNL     1      37.604 -10.280  22.676  1.00  0.00     0.001 C 
HETATM   29  C20 UNL     1      38.320  -9.279  23.548  1.00  0.00     0.011 C 
ENDBRANCH   7  25
TORSDOF 6
ENDMDL
MODEL 2
REMARK VINA RESULT: -8.536045849      1.100      1.330
REMARK  6 active torsions:
REMARK  status: ('A' for Active; 'I' for Inactive)
REMARK    1  A    between atoms: C4_6  and  C5_7 
REMARK    2  A    between atoms: C5_7  and  N2_8 
REMARK    3  A    between atoms: N2_8  and  C6_11 
REMARK    4  A    between atoms: C6_11  and  C7_12 
REMARK    5  A    between atoms: C7_12  and  C8_13 
REMARK    6  A    between atoms: C15_20  and  C16_21 
ROOT
HETATM    1 CL1  UNL     1      30.029  -7.693  21.261  1.00  0.00    -0.084 Cl
HETATM    2  C1  UNL     1      31.559  -7.600  22.145  1.00  0.00     0.038 A 
HETATM    3  C2  UNL     1      31.579  -7.415  23.506  1.00  0.00     0.041 A 
HETATM    4  C3  UNL     1      32.732  -7.337  24.234  1.00  0.00     0.100 A 
HETATM    5  N1  UNL     1      33.921  -7.449  23.574  1.00  0.00    -0.308 N 
HETATM    6  C4  UNL     1      35.201  -7.426  23.962  1.00  0.00     0.066 A 
HETATM    7  C15 UNL     1      36.022  -7.602  22.826  1.00  0.00     0.040 A 
HETATM    8  N3  UNL     1      35.182  -7.722  21.805  1.00  0.00    -0.343 N 
ATOM      9  H3  UNL     1      35.460  -7.862  20.833  1.00  0.00     0.167 HD
HETATM   10  C21 UNL     1      33.921  -7.633  22.235  1.00  0.00     0.113 A 
HETATM   11  C22 UNL     1      32.764  -7.713  21.489  1.00  0.00     0.072 A 
ENDROOT
BRANCH   6  12
HETATM   12  C5  UNL     1      35.784  -7.267  25.285  1.00  0.00     0.291 C 
BRANCH  12  13
HETATM   13  N2  UNL     1      35.421  -8.161  26.327  1.00  0.00    -0.070 N 
ATOM     14  H22 UNL     1      35.727  -7.852  27.250  1.00  0.00     0.277 HD
ATOM     15  H21 UNL     1      34.419  -8.169  26.523  1.00  0.00     0.277 HD
BRANCH  13  16
HETATM   16  C6  UNL     1      35.952  -9.481  25.944  1.00  0.00     0.233 C 
BRANCH  16  17
HETATM   17  C7  UNL     1      36.323 -10.300  27.130  1.00  0.00     0.032 C 
BRANCH  17  18
HETATM   18  C8  UNL     1      37.706 -10.878  27.104  1.00  0.00    -0.013 C 
HETATM   19  C9  UNL     1      38.689  -9.717  26.987  1.00  0.00     0.005 C 
HETATM   20  C10 UNL     1      40.091 -10.093  27.341  1.00  0.00     0.000 C 
HETATM   21  C11 UNL     1      40.464  -9.779  28.769  1.00  0.00     0.000 C 
HETATM   22  C12 UNL     1      39.756 -10.621  29.784  1.00  0.00     0.000 C 
HETATM   23  C13 UNL     1      38.299 -10.826  29.530  1.00  0.00     0.000 C 
HETATM   24  C14 UNL     1      38.025 -11.690  28.324  1.00  0.00     0.005 C 
ENDBRANCH  17  18
ENDBRANCH  16  17
ENDBRANCH  13  16
ENDBRANCH  12  13
ENDBRANCH   6  12
BRANCH   7  25
HETATM   25  C16 UNL     1      37.488  -7.649  22.768  1.00  0.00     0.037 C 
HETATM   26  C17 UNL     1      37.868  -8.066  21.336  1.00  0.00     0.011 C 
HETATM   27  C18 UNL     1      37.858  -9.574  21.330  1.00  0.00     0.001 C 
HETATM   28  C19 UNL     1      37.743 -10.017  22.771  1.00  0.00     0.001 C 
HETATM   29  C20 UNL     1      38.134  -8.766  23.517  1.00  0.00     0.011 C 
ENDBRANCH   7  25
TORSDOF 6
ENDMDL
MODEL 3
REMARK VINA RESULT: -8.491026713      1.935      3.007
REMARK  6 active torsions:
REMARK  status: ('A' for Active; 'I' for Inactive)
REMARK    1  A    between atoms: C4_6  and  C5_7 
REMARK    2  A    between atoms: C5_7  and  N2_8 
REMARK    3  A    between atoms: N2_8  and  C6_11 
REMARK    4  A    between atoms: C6_11  and  C7_12 
REMARK    5  A    between atoms: C7_12  and  C8_13 
REMARK    6  A    between atoms: C15_20  and  C16_21 
ROOT
HETATM    1 CL1  UNL     1      31.147  -6.693  25.975  1.00  0.00    -0.084 Cl
HETATM    2  C1  UNL     1      32.699  -6.906  25.154  1.00  0.00     0.038 A 
HETATM    3  C2  UNL     1      33.880  -6.876  25.855  1.00  0.00     0.041 A 
HETATM    4  C3  UNL     1      35.104  -7.036  25.269  1.00  0.00     0.100 A 
HETATM    5  N1  UNL     1      35.152  -7.234  23.920  1.00  0.00    -0.308 N 
HETATM    6  C4  UNL     1      36.147  -7.426  23.047  1.00  0.00     0.066 A 
HETATM    7  C15 UNL     1      35.595  -7.584  21.757  1.00  0.00     0.040 A 
HETATM    8  N3  UNL     1      34.282  -7.477  21.924  1.00  0.00    -0.343 N 
ATOM      9  H3  UNL     1      33.590  -7.546  21.178  1.00  0.00     0.167 HD
HETATM   10  C21 UNL     1      34.000  -7.267  23.212  1.00  0.00     0.113 A 
HETATM   11  C22 UNL     1      32.759  -7.107  23.794  1.00  0.00     0.072 A 
ENDROOT
BRANCH   6  12
HETATM   12  C5  UNL     1      37.585  -7.494  23.255  1.00  0.00     0.291 C 
BRANCH  12  13
HETATM   13  N2  UNL     1      38.208  -8.753  23.463  1.00  0.00    -0.070 N 
ATOM     14  H22 UNL     1      37.590  -9.545  23.282  1.00  0.00     0.277 HD
ATOM     15  H21 UNL     1      38.911  -8.979  22.759  1.00  0.00     0.277 HD
BRANCH  13  16
HETATM   16  C6  UNL     1      38.742  -8.729  24.836  1.00  0.00     0.233 C 
BRANCH  16  17
HETATM   17  C7  UNL     1      37.796  -9.326  25.815  1.00  0.00     0.032 C 
BRANCH  17  18
HETATM   18  C8  UNL     1      38.214 -10.646  26.391  1.00  0.00    -0.013 C 
HETATM   19  C9  UNL     1      38.960 -10.367  27.692  1.00  0.00     0.005 C 
HETATM   20  C10 UNL     1      39.091 -11.570  28.567  1.00  0.00     0.000 C 
HETATM   21  C11 UNL     1      38.026 -11.668  29.632  1.00  0.00     0.000 C 
HETATM   22  C12 UNL     1      36.654 -11.941  29.100  1.00  0.00     0.000 C 
HETATM   23  C13 UNL     1      36.279 -11.157  27.887  1.00  0.00     0.000 C 
HETATM   24  C14 UNL     1      37.057 -11.562  26.659  1.00  0.00     0.005 C 
ENDBRANCH  17  18
ENDBRANCH  16  17
ENDBRANCH  13  16
ENDBRANCH  12  13
ENDBRANCH   6  12
BRANCH   7  25
HETATM   25  C16 UNL     1      36.302  -7.822  20.492  1.00  0.00     0.037 C 
HETATM   26  C17 UNL     1      35.548  -7.041  19.401  1.00  0.00     0.011 C 
HETATM   27  C18 UNL     1      34.454  -7.960  18.918  1.00  0.00     0.001 C 
HETATM   28  C19 UNL     1      34.732  -9.323  19.514  1.00  0.00     0.001 C 
HETATM   29  C20 UNL     1      36.177  -9.197  19.926  1.00  0.00     0.011 C 
ENDBRANCH   7  25
TORSDOF 6
ENDMDL
MODEL 4
REMARK VINA RESULT: -8.409163176      1.960      3.092
REMARK  6 active torsions:
REMARK  status: ('A' for Active; 'I' for Inactive)
REMARK    1  A    between atoms: C4_6  and  C5_7 
REMARK    2  A    between atoms: C5_7  and  N2_8 
REMARK    3  A    between atoms: N2_8  and  C6_11 
REMARK    4  A    between atoms: C6_11  and  C7_12 
REMARK    5  A    between atoms: C7_12  and  C8_13 
REMARK    6  A    between atoms: C15_20  and  C16_21 
ROOT
HETATM    1 CL1  UNL     1      32.012  -6.347  26.246  1.00  0.00    -0.084 Cl
HETATM    2  C1  UNL     1      33.449  -6.819  25.329  1.00  0.00     0.038 A 
HETATM    3  C2  UNL     1      34.616  -7.158  25.969  1.00  0.00     0.041 A 
HETATM    4  C3  UNL     1      35.752  -7.530  25.308  1.00  0.00     0.100 A 
HETATM    5  N1  UNL     1      35.723  -7.565  23.945  1.00  0.00    -0.308 N 
HETATM    6  C4  UNL     1      36.624  -7.879  23.007  1.00  0.00     0.066 A 
HETATM    7  C15 UNL     1      36.023  -7.741  21.737  1.00  0.00     0.040 A 
HETATM    8  N3  UNL     1      34.779  -7.346  21.980  1.00  0.00    -0.343 N 
ATOM      9  H3  UNL     1      34.076  -7.155  21.266  1.00  0.00     0.167 HD
HETATM   10  C21 UNL     1      34.583  -7.236  23.296  1.00  0.00     0.113 A 
HETATM   11  C22 UNL     1      33.430  -6.859  23.953  1.00  0.00     0.072 A 
ENDROOT
BRANCH   6  12
HETATM   12  C5  UNL     1      38.006  -8.313  23.133  1.00  0.00     0.291 C 
BRANCH  12  13
HETATM   13  N2  UNL     1      38.302  -9.695  23.268  1.00  0.00    -0.070 N 
ATOM     14  H22 UNL     1      37.560 -10.303  22.921  1.00  0.00     0.277 HD
ATOM     15  H21 UNL     1      39.035 -10.017  22.636  1.00  0.00     0.277 HD
BRANCH  13  16
HETATM   16  C6  UNL     1      38.620  -9.914  24.690  1.00  0.00     0.233 C 
BRANCH  16  17
HETATM   17  C7  UNL     1      37.696 -10.891  25.327  1.00  0.00     0.032 C 
BRANCH  17  18
HETATM   18  C8  UNL     1      37.214 -10.522  26.698  1.00  0.00    -0.013 C 
HETATM   19  C9  UNL     1      36.555 -11.758  27.303  1.00  0.00     0.005 C 
HETATM   20  C10 UNL     1      36.381 -11.669  28.783  1.00  0.00     0.000 C 
HETATM   21  C11 UNL     1      37.487 -12.332  29.568  1.00  0.00     0.000 C 
HETATM   22  C12 UNL     1      38.809 -11.636  29.467  1.00  0.00     0.000 C 
HETATM   23  C13 UNL     1      39.179 -11.178  28.095  1.00  0.00     0.000 C 
HETATM   24  C14 UNL     1      38.315 -10.045  27.598  1.00  0.00     0.005 C 
ENDBRANCH  17  18
ENDBRANCH  16  17
ENDBRANCH  13  16
ENDBRANCH  12  13
ENDBRANCH   6  12
BRANCH   7  25
HETATM   25  C16 UNL     1      36.626  -7.982  20.419  1.00  0.00     0.037 C 
HETATM   26  C17 UNL     1      35.822  -7.155  19.399  1.00  0.00     0.011 C 
HETATM   27  C18 UNL     1      34.663  -8.026  18.985  1.00  0.00     0.001 C 
HETATM   28  C19 UNL     1      34.934  -9.407  19.538  1.00  0.00     0.001 C 
HETATM   29  C20 UNL     1      36.409  -9.341  19.843  1.00  0.00     0.011 C 
ENDBRANCH   7  25
TORSDOF 6
ENDMDL
MODEL 5
REMARK VINA RESULT: -8.211806724      1.778      2.400
REMARK  6 active torsions:
REMARK  status: ('A' for Active; 'I' for Inactive)
REMARK    1  A    between atoms: C4_6  and  C5_7 
REMARK    2  A    between atoms: C5_7  and  N2_8 
REMARK    3  A    between atoms: N2_8  and  C6_11 
REMARK    4  A    between atoms: C6_11  and  C7_12 
REMARK    5  A    between atoms: C7_12  and  C8_13 
REMARK    6  A    between atoms: C15_20  and  C16_21 
ROOT
HETATM    1 CL1  UNL     1      32.178  -6.336  26.236  1.00  0.00    -0.084 Cl
HETATM    2  C1  UNL     1      33.640  -6.833  25.372  1.00  0.00     0.038 A 
HETATM    3  C2  UNL     1      34.779  -7.186  26.055  1.00  0.00     0.041 A 
HETATM    4  C3  UNL     1      35.932  -7.578  25.436  1.00  0.00     0.100 A 
HETATM    5  N1  UNL     1      35.951  -7.617  24.072  1.00  0.00    -0.308 N 
HETATM    6  C4  UNL     1      36.880  -7.948  23.168  1.00  0.00     0.066 A 
HETATM    7  C15 UNL     1      36.326  -7.806  21.877  1.00  0.00     0.040 A 
HETATM    8  N3  UNL     1      35.080  -7.392  22.075  1.00  0.00    -0.343 N 
ATOM      9  H3  UNL     1      34.406  -7.193  21.336  1.00  0.00     0.167 HD
HETATM   10  C21 UNL     1      34.839  -7.274  23.383  1.00  0.00     0.113 A 
HETATM   11  C22 UNL     1      33.670  -6.878  23.997  1.00  0.00     0.072 A 
ENDROOT
BRANCH   6  12
HETATM   12  C5  UNL     1      38.250  -8.401  23.345  1.00  0.00     0.291 C 
BRANCH  12  13
HETATM   13  N2  UNL     1      38.510  -9.591  24.075  1.00  0.00    -0.070 N 
ATOM     14  H22 UNL     1      37.683 -10.173  24.209  1.00  0.00     0.277 HD
ATOM     15  H21 UNL     1      39.061 -10.274  23.555  1.00  0.00     0.277 HD
BRANCH  13  16
HETATM   16  C6  UNL     1      39.141  -9.172  25.339  1.00  0.00     0.233 C 
BRANCH  16  17
HETATM   17  C7  UNL     1      38.658  -9.971  26.498  1.00  0.00     0.032 C 
BRANCH  17  18
HETATM   18  C8  UNL     1      39.726 -10.466  27.427  1.00  0.00    -0.013 C 
HETATM   19  C9  UNL     1      40.485  -9.248  27.947  1.00  0.00     0.005 C 
HETATM   20  C10 UNL     1      41.303  -9.538  29.162  1.00  0.00     0.000 C 
HETATM   21  C11 UNL     1      40.611  -9.198  30.459  1.00  0.00     0.000 C 
HETATM   22  C12 UNL     1      39.442 -10.077  30.776  1.00  0.00     0.000 C 
HETATM   23  C13 UNL     1      38.539 -10.369  29.624  1.00  0.00     0.000 C 
HETATM   24  C14 UNL     1      39.181 -11.252  28.581  1.00  0.00     0.005 C 
ENDBRANCH  17  18
ENDBRANCH  16  17
ENDBRANCH  13  16
ENDBRANCH  12  13
ENDBRANCH   6  12
BRANCH   7  25
HETATM   25  C16 UNL     1      36.972  -8.060  20.582  1.00  0.00     0.037 C 
HETATM   26  C17 UNL     1      36.190  -7.260  19.525  1.00  0.00     0.011 C 
HETATM   27  C18 UNL     1      35.054  -8.151  19.091  1.00  0.00     0.001 C 
HETATM   28  C19 UNL     1      35.324  -9.520  19.674  1.00  0.00     0.001 C 
HETATM   29  C20 UNL     1      36.788  -9.431  20.022  1.00  0.00     0.011 C 
ENDBRANCH   7  25
TORSDOF 6
ENDMDL
