MODEL 1
REMARK VINA RESULT: -8.028049275      0.000      0.000
REMARK  6 active torsions:
REMARK  status: ('A' for Active; 'I' for Inactive)
REMARK    1  A    between atoms: C2_2  and  N1_4 
REMARK    2  A    between atoms: C2_2  and  C10_13 
REMARK    3  A    between atoms: N1_4  and  C4_7 
REMARK    4  A    between atoms: C4_7  and  C5_8 
REMARK    5  A    between atoms: C5_8  and  C6_9 
REMARK    6  A    between atoms: C11_14  and  C12_15 
ROOT
HETATM    1  C10 UNL     1      36.919  -9.320  24.708  1.00  0.00     0.076 A 
HETATM    2  C11 UNL     1      36.868  -9.848  25.997  1.00  0.00     0.041 A 
HETATM    3  N2  UNL     1      35.941  -9.134  26.653  1.00  0.00    -0.343 N 
ATOM      4  H2  UNL     1      35.672  -9.287  27.625  1.00  0.00     0.167 HD
HETATM    5  C18 UNL     1      35.423  -8.202  25.864  1.00  0.00     0.112 A 
HETATM    6  C19 UNL     1      34.461  -7.264  26.161  1.00  0.00     0.051 A 
HETATM    7  C20 UNL     1      34.052  -6.354  25.205  1.00  0.00     0.029 A 
HETATM    8  C21 UNL     1      34.649  -6.447  23.991  1.00  0.00     0.050 A 
HETATM    9 CL1  UNL     1      34.153  -5.301  22.742  1.00  0.00    -0.083 Cl
HETATM   10  C22 UNL     1      35.612  -7.411  23.740  1.00  0.00     0.122 A 
HETATM   11  N3  UNL     1      36.034  -8.319  24.655  1.00  0.00    -0.306 N 
ENDROOT
BRANCH   1  12
HETATM   12  C2  UNL     1      37.752  -9.857  23.660  1.00  0.00     0.163 C 
HETATM   13  C1  UNL     1      39.046  -8.965  23.677  1.00  0.00     0.053 C 
HETATM   14  C3  UNL     1      38.251 -11.247  23.869  1.00  0.00     0.053 C 
BRANCH  12  15
HETATM   15  N1  UNL     1      37.199  -9.791  22.335  1.00  0.00    -0.061 N 
ATOM     16  H12 UNL     1      37.042 -10.726  21.956  1.00  0.00     0.278 HD
ATOM     17  H11 UNL     1      36.235  -9.459  22.355  1.00  0.00     0.278 HD
BRANCH  15  18
HETATM   18  C4  UNL     1      37.993  -9.007  21.451  1.00  0.00     0.234 C 
BRANCH  18  19
HETATM   19  C5  UNL     1      37.294  -8.781  20.111  1.00  0.00     0.032 C 
BRANCH  19  20
HETATM   20  C6  UNL     1      35.972  -8.104  20.263  1.00  0.00    -0.013 C 
HETATM   21  C7  UNL     1      35.616  -7.029  19.284  1.00  0.00     0.005 C 
HETATM   22  C8  UNL     1      34.237  -7.657  19.066  1.00  0.00     0.001 C 
HETATM   23  C9  UNL     1      34.831  -8.932  19.663  1.00  0.00     0.005 C 
ENDBRANCH  19  20
ENDBRANCH  18  19
ENDBRANCH  15  18
ENDBRANCH  12  15
ENDBRANCH   1  12
BRANCH   2  24
HETATM   24  C12 UNL     1      37.671 -10.888  26.683  1.00  0.00     0.038 C 
HETATM   25  C13 UNL     1      36.807 -11.415  27.833  1.00  0.00     0.011 C 
HETATM   26  C14 UNL     1      37.669 -12.129  28.852  1.00  0.00     0.001 C 
HETATM   27  C15 UNL     1      38.342 -10.998  29.597  1.00  0.00     0.000 C 
HETATM   28  C16 UNL     1      39.172 -10.223  28.659  1.00  0.00     0.001 C 
HETATM   29  C17 UNL     1      38.948 -10.297  27.214  1.00  0.00     0.011 C 
ENDBRANCH   2  24
TORSDOF 6
ENDMDL
MODEL 2
REMARK VINA RESULT: -7.663623130      2.064      6.937
REMARK  6 active torsions:
REMARK  status: ('A' for Active; 'I' for Inactive)
REMARK    1  A    between atoms: C2_2  and  N1_4 
REMARK    2  A    between atoms: C2_2  and  C10_13 
REMARK    3  A    between atoms: N1_4  and  C4_7 
REMARK    4  A    between atoms: C4_7  and  C5_8 
REMARK    5  A    between atoms: C5_8  and  C6_9 
REMARK    6  A    between atoms: C11_14  and  C12_15 
ROOT
HETATM    1  C10 UNL     1      35.526  -7.779  21.580  1.00  0.00     0.076 A 
HETATM    2  C11 UNL     1      34.623  -7.737  20.519  1.00  0.00     0.041 A 
HETATM    3  N2  UNL     1      33.492  -7.213  21.015  1.00  0.00    -0.343 N 
ATOM      4  H2  UNL     1      32.641  -7.051  20.476  1.00  0.00     0.167 HD
HETATM    5  C18 UNL     1      33.632  -6.936  22.305  1.00  0.00     0.112 A 
HETATM    6  C19 UNL     1      32.707  -6.404  23.174  1.00  0.00     0.051 A 
HETATM    7  C20 UNL     1      33.031  -6.197  24.500  1.00  0.00     0.029 A 
HETATM    8  C21 UNL     1      34.287  -6.545  24.876  1.00  0.00     0.050 A 
HETATM    9 CL1  UNL     1      34.740  -6.295  26.564  1.00  0.00    -0.083 Cl
HETATM   10  C22 UNL     1      35.183  -7.076  23.962  1.00  0.00     0.122 A 
HETATM   11  N3  UNL     1      34.897  -7.290  22.654  1.00  0.00    -0.306 N 
ENDROOT
BRANCH   1  12
HETATM   12  C2  UNL     1      36.892  -8.220  21.444  1.00  0.00     0.163 C 
HETATM   13  C1  UNL     1      36.814  -9.789  21.464  1.00  0.00     0.053 C 
HETATM   14  C3  UNL     1      37.560  -7.894  20.151  1.00  0.00     0.053 C 
BRANCH  12  15
HETATM   15  N1  UNL     1      37.780  -7.818  22.502  1.00  0.00    -0.061 N 
ATOM     16  H12 UNL     1      38.570  -7.285  22.135  1.00  0.00     0.278 HD
ATOM     17  H11 UNL     1      37.353  -7.098  23.085  1.00  0.00     0.278 HD
BRANCH  15  18
HETATM   18  C4  UNL     1      38.224  -8.918  23.289  1.00  0.00     0.234 C 
BRANCH  18  19
HETATM   19  C5  UNL     1      38.586  -8.488  24.709  1.00  0.00     0.032 C 
BRANCH  19  20
HETATM   20  C6  UNL     1      38.344  -9.567  25.712  1.00  0.00    -0.013 C 
HETATM   21  C7  UNL     1      36.992  -9.645  26.350  1.00  0.00     0.005 C 
HETATM   22  C8  UNL     1      36.926 -11.149  26.075  1.00  0.00     0.001 C 
HETATM   23  C9  UNL     1      38.030 -10.910  25.045  1.00  0.00     0.005 C 
ENDBRANCH  19  20
ENDBRANCH  18  19
ENDBRANCH  15  18
ENDBRANCH  12  15
ENDBRANCH   1  12
BRANCH   2  24
HETATM   24  C12 UNL     1      34.699  -8.228  19.122  1.00  0.00     0.038 C 
HETATM   25  C13 UNL     1      34.206  -7.082  18.232  1.00  0.00     0.011 C 
HETATM   26  C14 UNL     1      33.816  -7.608  16.868  1.00  0.00     0.001 C 
HETATM   27  C15 UNL     1      32.478  -8.269  17.117  1.00  0.00     0.000 C 
HETATM   28  C16 UNL     1      32.652  -9.374  18.075  1.00  0.00     0.001 C 
HETATM   29  C17 UNL     1      33.828  -9.441  18.945  1.00  0.00     0.011 C 
ENDBRANCH   2  24
TORSDOF 6
ENDMDL
MODEL 3
REMARK VINA RESULT: -7.586782983      2.573      6.010
REMARK  6 active torsions:
REMARK  status: ('A' for Active; 'I' for Inactive)
REMARK    1  A    between atoms: C2_2  and  N1_4 
REMARK    2  A    between atoms: C2_2  and  C10_13 
REMARK    3  A    between atoms: N1_4  and  C4_7 
REMARK    4  A    between atoms: C4_7  and  C5_8 
REMARK    5  A    between atoms: C5_8  and  C6_9 
REMARK    6  A    between atoms: C11_14  and  C12_15 
ROOT
HETATM    1  C10 UNL     1      34.899  -8.101  20.994  1.00  0.00     0.076 A 
HETATM    2  C11 UNL     1      34.286  -7.572  22.129  1.00  0.00     0.041 A 
HETATM    3  N2  UNL     1      32.973  -7.812  21.987  1.00  0.00    -0.343 N 
ATOM      4  H2  UNL     1      32.258  -7.545  22.663  1.00  0.00     0.167 HD
HETATM    5  C18 UNL     1      32.734  -8.445  20.846  1.00  0.00     0.112 A 
HETATM    6  C19 UNL     1      31.527  -8.855  20.329  1.00  0.00     0.051 A 
HETATM    7  C20 UNL     1      31.470  -9.494  19.105  1.00  0.00     0.029 A 
HETATM    8  C21 UNL     1      32.652  -9.680  18.468  1.00  0.00     0.050 A 
HETATM    9 CL1  UNL     1      32.622 -10.493  16.900  1.00  0.00    -0.083 Cl
HETATM   10  C22 UNL     1      33.843  -9.249  19.030  1.00  0.00     0.122 A 
HETATM   11  N3  UNL     1      33.933  -8.622  20.229  1.00  0.00    -0.306 N 
ENDROOT
BRANCH   1  12
HETATM   12  C2  UNL     1      36.326  -8.106  20.790  1.00  0.00     0.163 C 
HETATM   13  C1  UNL     1      36.699  -9.619  20.590  1.00  0.00     0.053 C 
HETATM   14  C3  UNL     1      36.812  -7.433  19.550  1.00  0.00     0.053 C 
BRANCH  12  15
HETATM   15  N1  UNL     1      37.110  -7.608  21.887  1.00  0.00    -0.061 N 
ATOM     16  H12 UNL     1      37.703  -6.832  21.592  1.00  0.00     0.278 HD
ATOM     17  H11 UNL     1      36.525  -7.120  22.565  1.00  0.00     0.278 HD
BRANCH  15  18
HETATM   18  C4  UNL     1      37.878  -8.630  22.516  1.00  0.00     0.234 C 
BRANCH  18  19
HETATM   19  C5  UNL     1      38.304  -8.229  23.927  1.00  0.00     0.032 C 
BRANCH  19  20
HETATM   20  C6  UNL     1      38.541  -9.410  24.810  1.00  0.00    -0.013 C 
HETATM   21  C7  UNL     1      37.594  -9.641  25.946  1.00  0.00     0.005 C 
HETATM   22  C8  UNL     1      37.455 -11.114  25.556  1.00  0.00     0.001 C 
HETATM   23  C9  UNL     1      38.005 -10.705  24.191  1.00  0.00     0.005 C 
ENDBRANCH  19  20
ENDBRANCH  18  19
ENDBRANCH  15  18
ENDBRANCH  12  15
ENDBRANCH   1  12
BRANCH   2  24
HETATM   24  C12 UNL     1      34.808  -6.786  23.272  1.00  0.00     0.038 C 
HETATM   25  C13 UNL     1      34.850  -7.740  24.471  1.00  0.00     0.011 C 
HETATM   26  C14 UNL     1      34.928  -6.956  25.763  1.00  0.00     0.001 C 
HETATM   27  C15 UNL     1      33.516  -6.446  25.949  1.00  0.00     0.000 C 
HETATM   28  C16 UNL     1      33.163  -5.566  24.822  1.00  0.00     0.001 C 
HETATM   29  C17 UNL     1      33.906  -5.619  23.562  1.00  0.00     0.011 C 
ENDBRANCH   2  24
TORSDOF 6
ENDMDL
MODEL 4
REMARK VINA RESULT: -7.371314386      2.232      4.412
REMARK  6 active torsions:
REMARK  status: ('A' for Active; 'I' for Inactive)
REMARK    1  A    between atoms: C2_2  and  N1_4 
REMARK    2  A    between atoms: C2_2  and  C10_13 
REMARK    3  A    between atoms: N1_4  and  C4_7 
REMARK    4  A    between atoms: C4_7  and  C5_8 
REMARK    5  A    between atoms: C5_8  and  C6_9 
REMARK    6  A    between atoms: C11_14  and  C12_15 
ROOT
HETATM    1  C10 UNL     1      35.889  -7.893  23.802  1.00  0.00     0.076 A 
HETATM    2  C11 UNL     1      36.853  -8.646  24.471  1.00  0.00     0.041 A 
HETATM    3  N2  UNL     1      37.586  -9.242  23.519  1.00  0.00    -0.343 N 
ATOM      4  H2  UNL     1      38.377  -9.861  23.697  1.00  0.00     0.167 HD
HETATM    5  C18 UNL     1      37.140  -8.915  22.313  1.00  0.00     0.112 A 
HETATM    6  C19 UNL     1      37.608  -9.323  21.085  1.00  0.00     0.051 A 
HETATM    7  C20 UNL     1      37.001  -8.885  19.924  1.00  0.00     0.029 A 
HETATM    8  C21 UNL     1      35.943  -8.051  20.075  1.00  0.00     0.050 A 
HETATM    9 CL1  UNL     1      35.140  -7.469  18.613  1.00  0.00    -0.083 Cl
HETATM   10  C22 UNL     1      35.510  -7.667  21.333  1.00  0.00     0.122 A 
HETATM   11  N3  UNL     1      36.084  -8.077  22.492  1.00  0.00    -0.306 N 
ENDROOT
BRANCH   1  12
HETATM   12  C2  UNL     1      34.937  -7.043  24.472  1.00  0.00     0.163 C 
HETATM   13  C1  UNL     1      33.646  -7.926  24.625  1.00  0.00     0.053 C 
HETATM   14  C3  UNL     1      35.285  -6.642  25.866  1.00  0.00     0.053 C 
BRANCH  12  15
HETATM   15  N1  UNL     1      34.563  -5.851  23.761  1.00  0.00    -0.061 N 
ATOM     16  H12 UNL     1      34.999  -5.025  24.173  1.00  0.00     0.278 HD
ATOM     17  H11 UNL     1      34.998  -5.822  22.839  1.00  0.00     0.278 HD
BRANCH  15  18
HETATM   18  C4  UNL     1      33.151  -5.692  23.666  1.00  0.00     0.234 C 
BRANCH  18  19
HETATM   19  C5  UNL     1      32.726  -5.239  22.270  1.00  0.00     0.032 C 
BRANCH  19  20
HETATM   20  C6  UNL     1      31.581  -6.035  21.735  1.00  0.00    -0.013 C 
HETATM   21  C7  UNL     1      31.816  -7.478  21.415  1.00  0.00     0.005 C 
HETATM   22  C8  UNL     1      30.546  -7.874  22.172  1.00  0.00     0.001 C 
HETATM   23  C9  UNL     1      30.641  -6.507  22.849  1.00  0.00     0.005 C 
ENDBRANCH  19  20
ENDBRANCH  18  19
ENDBRANCH  15  18
ENDBRANCH  12  15
ENDBRANCH   1  12
BRANCH   2  24
HETATM   24  C12 UNL     1      37.080  -8.926  25.909  1.00  0.00     0.038 C 
HETATM   25  C13 UNL     1      38.464  -9.577  26.011  1.00  0.00     0.011 C 
HETATM   26  C14 UNL     1      38.606 -10.303  27.332  1.00  0.00     0.001 C 
HETATM   27  C15 UNL     1      37.795 -11.563  27.127  1.00  0.00     0.000 C 
HETATM   28  C16 UNL     1      36.390 -11.203  26.876  1.00  0.00     0.001 C 
HETATM   29  C17 UNL     1      36.022  -9.856  26.436  1.00  0.00     0.011 C 
ENDBRANCH   2  24
TORSDOF 6
ENDMDL
MODEL 5
REMARK VINA RESULT: -7.200258306      2.627      6.424
REMARK  6 active torsions:
REMARK  status: ('A' for Active; 'I' for Inactive)
REMARK    1  A    between atoms: C2_2  and  N1_4 
REMARK    2  A    between atoms: C2_2  and  C10_13 
REMARK    3  A    between atoms: N1_4  and  C4_7 
REMARK    4  A    between atoms: C4_7  and  C5_8 
REMARK    5  A    between atoms: C5_8  and  C6_9 
REMARK    6  A    between atoms: C11_14  and  C12_15 
ROOT
HETATM    1  C10 UNL     1      35.225  -7.197  20.583  1.00  0.00     0.076 A 
HETATM    2  C11 UNL     1      34.203  -6.962  21.501  1.00  0.00     0.041 A 
HETATM    3  N2  UNL     1      33.416  -6.026  20.948  1.00  0.00    -0.343 N 
ATOM      4  H2  UNL     1      32.575  -5.645  21.382  1.00  0.00     0.167 HD
HETATM    5  C18 UNL     1      33.883  -5.665  19.760  1.00  0.00     0.112 A 
HETATM    6  C19 UNL     1      33.375  -4.731  18.887  1.00  0.00     0.051 A 
HETATM    7  C20 UNL     1      34.012  -4.475  17.688  1.00  0.00     0.029 A 
HETATM    8  C21 UNL     1      35.140  -5.186  17.441  1.00  0.00     0.050 A 
HETATM    9 CL1  UNL     1      35.983  -4.887  15.918  1.00  0.00    -0.083 Cl
HETATM   10  C22 UNL     1      35.611  -6.117  18.352  1.00  0.00     0.122 A 
HETATM   11  N3  UNL     1      35.009  -6.393  19.536  1.00  0.00    -0.306 N 
ENDROOT
BRANCH   1  12
HETATM   12  C2  UNL     1      36.252  -8.191  20.772  1.00  0.00     0.163 C 
HETATM   13  C1  UNL     1      35.720  -9.467  20.026  1.00  0.00     0.053 C 
HETATM   14  C3  UNL     1      37.568  -7.903  20.131  1.00  0.00     0.053 C 
BRANCH  12  15
HETATM   15  N1  UNL     1      36.509  -8.564  22.137  1.00  0.00    -0.061 N 
ATOM     16  H12 UNL     1      35.674  -8.447  22.713  1.00  0.00     0.278 HD
ATOM     17  H11 UNL     1      36.629  -9.572  22.226  1.00  0.00     0.278 HD
BRANCH  15  18
HETATM   18  C4  UNL     1      37.618  -7.864  22.693  1.00  0.00     0.234 C 
BRANCH  18  19
HETATM   19  C5  UNL     1      37.582  -7.871  24.220  1.00  0.00     0.032 C 
BRANCH  19  20
HETATM   20  C6  UNL     1      36.820  -9.032  24.770  1.00  0.00    -0.013 C 
HETATM   21  C7  UNL     1      37.518  -9.937  25.736  1.00  0.00     0.005 C 
HETATM   22  C8  UNL     1      36.321  -9.876  26.688  1.00  0.00     0.001 C 
HETATM   23  C9  UNL     1      35.902  -8.619  25.925  1.00  0.00     0.005 C 
ENDBRANCH  19  20
ENDBRANCH  18  19
ENDBRANCH  15  18
ENDBRANCH  12  15
ENDBRANCH   1  12
BRANCH   2  24
HETATM   24  C12 UNL     1      33.959  -7.463  22.874  1.00  0.00     0.038 C 
HETATM   25  C13 UNL     1      32.501  -7.933  22.912  1.00  0.00     0.011 C 
HETATM   26  C14 UNL     1      32.020  -8.035  24.343  1.00  0.00     0.001 C 
HETATM   27  C15 UNL     1      31.786  -6.593  24.738  1.00  0.00     0.000 C 
HETATM   28  C16 UNL     1      33.058  -5.856  24.664  1.00  0.00     0.001 C 
HETATM   29  C17 UNL     1      34.184  -6.368  23.880  1.00  0.00     0.011 C 
ENDBRANCH   2  24
TORSDOF 6
ENDMDL
