MODEL 1
REMARK VINA RESULT: -6.537106555      0.000      0.000
REMARK  7 active torsions:
REMARK  status: ('A' for Active; 'I' for Inactive)
REMARK    1  A    between atoms: C2_2  and  N1_3 
REMARK    2  A    between atoms: N1_3  and  C3_5 
REMARK    3  A    between atoms: C4_8  and  C5_9 
REMARK    4  A    between atoms: C5_9  and  C6_10 
REMARK    5  A    between atoms: C9_15  and  S1_16 
REMARK    6  A    between atoms: S1_16  and  C10_17 
REMARK    7  A    between atoms: C16_23  and  C17_24 
ROOT
HETATM    1  C3  UNL     1      33.378  -5.286  20.083  1.00  0.00     0.120 A 
HETATM    2  N2  UNL     1      33.881  -5.096  18.867  1.00  0.00    -0.331 N 
ATOM      3  H2  UNL     1      33.488  -4.355  18.285  1.00  0.00     0.168 HD
HETATM    4  C4  UNL     1      34.902  -5.850  18.364  1.00  0.00     0.083 A 
HETATM    5  N3  UNL     1      35.396  -6.811  19.149  1.00  0.00    -0.340 N 
ATOM      6  H3  UNL     1      36.160  -7.388  18.797  1.00  0.00     0.167 HD
HETATM    7  C9  UNL     1      34.914  -7.051  20.411  1.00  0.00     0.086 A 
HETATM    8  C16 UNL     1      33.888  -6.291  20.914  1.00  0.00     0.052 A 
ENDROOT
BRANCH   7   9
HETATM    9  S1  UNL     1      35.627  -8.347  21.415  1.00  0.00    -0.106 SA
BRANCH   9  10
HETATM   10  C10 UNL     1      37.302  -7.966  21.948  1.00  0.00     0.054 C 
HETATM   11  C11 UNL     1      37.295  -7.333  23.326  1.00  0.00     0.015 C 
HETATM   12  C12 UNL     1      36.891  -8.368  24.364  1.00  0.00     0.001 C 
HETATM   13  C13 UNL     1      38.013  -9.393  24.404  1.00  0.00     0.000 C 
HETATM   14  C14 UNL     1      38.030 -10.091  23.072  1.00  0.00     0.001 C 
HETATM   15  C15 UNL     1      38.210  -9.150  21.917  1.00  0.00     0.015 C 
ENDBRANCH   9  10
ENDBRANCH   7   9
BRANCH   8  16
HETATM   16  C17 UNL     1      33.328  -6.480  22.259  1.00  0.00    -0.019 A 
HETATM   17  C18 UNL     1      33.875  -5.771  23.322  1.00  0.00     0.015 A 
HETATM   18  C19 UNL     1      33.371  -5.917  24.601  1.00  0.00     0.043 A 
HETATM   19  C20 UNL     1      32.319  -6.763  24.877  1.00  0.00     0.116 A 
HETATM   20  F1  UNL     1      31.850  -6.882  26.142  1.00  0.00    -0.206 F 
HETATM   21  C21 UNL     1      31.775  -7.468  23.825  1.00  0.00     0.043 A 
HETATM   22  C22 UNL     1      32.277  -7.323  22.539  1.00  0.00     0.015 A 
ENDBRANCH   8  16
BRANCH   4  23
HETATM   23  C5  UNL     1      35.415  -5.556  17.011  1.00  0.00     0.080 C 
BRANCH  23  24
HETATM   24  C6  UNL     1      34.472  -5.744  15.890  1.00  0.00    -0.016 C 
HETATM   25  C7  UNL     1      35.179  -5.565  14.564  1.00  0.00     0.010 C 
HETATM   26  C8  UNL     1      33.965  -7.193  15.971  1.00  0.00     0.010 C 
ENDBRANCH  23  24
ENDBRANCH   4  23
BRANCH   1  27
HETATM   27  N1  UNL     1      32.413  -4.589  20.581  1.00  0.00    -0.352 N 
ATOM     28  H1  UNL     1      32.509  -4.091  21.466  1.00  0.00     0.166 HD
BRANCH  27  29
HETATM   29  C2  UNL     1      31.192  -4.552  19.817  1.00  0.00     0.079 C 
HETATM   30  C1  UNL     1      30.184  -5.363  20.087  1.00  0.00     0.029 C 
ENDBRANCH  27  29
ENDBRANCH   1  27
TORSDOF 7
ENDMDL
MODEL 2
REMARK VINA RESULT: -6.271635529      2.225      6.009
REMARK  7 active torsions:
REMARK  status: ('A' for Active; 'I' for Inactive)
REMARK    1  A    between atoms: C2_2  and  N1_3 
REMARK    2  A    between atoms: N1_3  and  C3_5 
REMARK    3  A    between atoms: C4_8  and  C5_9 
REMARK    4  A    between atoms: C5_9  and  C6_10 
REMARK    5  A    between atoms: C9_15  and  S1_16 
REMARK    6  A    between atoms: S1_16  and  C10_17 
REMARK    7  A    between atoms: C16_23  and  C17_24 
ROOT
HETATM    1  C3  UNL     1      34.539  -6.586  23.324  1.00  0.00     0.120 A 
HETATM    2  N2  UNL     1      35.749  -7.101  23.519  1.00  0.00    -0.331 N 
ATOM      3  H2  UNL     1      36.236  -6.890  24.391  1.00  0.00     0.168 HD
HETATM    4  C4  UNL     1      36.368  -7.902  22.602  1.00  0.00     0.083 A 
HETATM    5  N3  UNL     1      35.706  -8.160  21.472  1.00  0.00    -0.340 N 
ATOM      6  H3  UNL     1      36.146  -8.756  20.771  1.00  0.00     0.167 HD
HETATM    7  C9  UNL     1      34.455  -7.655  21.219  1.00  0.00     0.086 A 
HETATM    8  C16 UNL     1      33.836  -6.851  22.142  1.00  0.00     0.052 A 
ENDROOT
BRANCH   7   9
HETATM    9  S1  UNL     1      33.619  -8.050  19.689  1.00  0.00    -0.106 SA
BRANCH   9  10
HETATM   10  C10 UNL     1      34.428  -7.333  18.252  1.00  0.00     0.054 C 
HETATM   11  C11 UNL     1      33.412  -6.988  17.182  1.00  0.00     0.015 C 
HETATM   12  C12 UNL     1      32.558  -5.817  17.643  1.00  0.00     0.001 C 
HETATM   13  C13 UNL     1      33.484  -4.614  17.714  1.00  0.00     0.000 C 
HETATM   14  C14 UNL     1      34.485  -4.883  18.803  1.00  0.00     0.001 C 
HETATM   15  C15 UNL     1      35.267  -6.145  18.585  1.00  0.00     0.015 C 
ENDBRANCH   9  10
ENDBRANCH   7   9
BRANCH   8  16
HETATM   16  C17 UNL     1      32.495  -6.284  21.947  1.00  0.00    -0.019 A 
HETATM   17  C18 UNL     1      31.384  -7.049  22.285  1.00  0.00     0.015 A 
HETATM   18  C19 UNL     1      30.106  -6.547  22.122  1.00  0.00     0.043 A 
HETATM   19  C20 UNL     1      29.879  -5.283  21.623  1.00  0.00     0.116 A 
HETATM   20  F1  UNL     1      28.613  -4.822  21.476  1.00  0.00    -0.206 F 
HETATM   21  C21 UNL     1      30.978  -4.523  21.287  1.00  0.00     0.043 A 
HETATM   22  C22 UNL     1      32.263  -5.022  21.450  1.00  0.00     0.015 A 
ENDBRANCH   8  16
BRANCH   4  23
HETATM   23  C5  UNL     1      37.705  -8.449  22.910  1.00  0.00     0.080 C 
BRANCH  23  24
HETATM   24  C6  UNL     1      37.818  -9.273  24.131  1.00  0.00    -0.016 C 
HETATM   25  C7  UNL     1      38.189 -10.697  23.778  1.00  0.00     0.010 C 
HETATM   26  C8  UNL     1      38.957  -8.675  24.970  1.00  0.00     0.010 C 
ENDBRANCH  23  24
ENDBRANCH   4  23
BRANCH   1  27
HETATM   27  N1  UNL     1      33.933  -5.826  24.173  1.00  0.00    -0.352 N 
ATOM     28  H1  UNL     1      33.694  -4.859  23.955  1.00  0.00     0.166 HD
BRANCH  27  29
HETATM   29  C2  UNL     1      33.612  -6.421  25.446  1.00  0.00     0.079 C 
HETATM   30  C1  UNL     1      32.361  -6.576  25.839  1.00  0.00     0.029 C 
ENDBRANCH  27  29
ENDBRANCH   1  27
TORSDOF 7
ENDMDL
MODEL 3
REMARK VINA RESULT: -6.228545194      4.953      9.403
REMARK  7 active torsions:
REMARK  status: ('A' for Active; 'I' for Inactive)
REMARK    1  A    between atoms: C2_2  and  N1_3 
REMARK    2  A    between atoms: N1_3  and  C3_5 
REMARK    3  A    between atoms: C4_8  and  C5_9 
REMARK    4  A    between atoms: C5_9  and  C6_10 
REMARK    5  A    between atoms: C9_15  and  S1_16 
REMARK    6  A    between atoms: S1_16  and  C10_17 
REMARK    7  A    between atoms: C16_23  and  C17_24 
ROOT
HETATM    1  C3  UNL     1      38.513  -9.958  26.276  1.00  0.00     0.120 A 
HETATM    2  N2  UNL     1      38.412 -10.385  27.532  1.00  0.00    -0.331 N 
ATOM      3  H2  UNL     1      39.264 -10.647  28.029  1.00  0.00     0.168 HD
HETATM    4  C4  UNL     1      37.217 -10.486  28.184  1.00  0.00     0.083 A 
HETATM    5  N3  UNL     1      36.121 -10.135  27.507  1.00  0.00    -0.340 N 
ATOM      6  H3  UNL     1      35.215 -10.201  27.972  1.00  0.00     0.167 HD
HETATM    7  C9  UNL     1      36.167  -9.689  26.210  1.00  0.00     0.086 A 
HETATM    8  C16 UNL     1      37.370  -9.588  25.558  1.00  0.00     0.052 A 
ENDROOT
BRANCH   7   9
HETATM    9  S1  UNL     1      34.662  -9.224  25.365  1.00  0.00    -0.106 SA
BRANCH   9  10
HETATM   10  C10 UNL     1      34.650  -7.495  24.874  1.00  0.00     0.054 C 
HETATM   11  C11 UNL     1      33.996  -7.328  23.516  1.00  0.00     0.015 C 
HETATM   12  C12 UNL     1      32.505  -7.606  23.626  1.00  0.00     0.001 C 
HETATM   13  C13 UNL     1      31.926  -6.493  24.484  1.00  0.00     0.000 C 
HETATM   14  C14 UNL     1      32.504  -6.644  25.864  1.00  0.00     0.001 C 
HETATM   15  C15 UNL     1      34.004  -6.604  25.882  1.00  0.00     0.015 C 
ENDBRANCH   9  10
ENDBRANCH   7   9
BRANCH   8  16
HETATM   16  C17 UNL     1      37.499  -9.107  24.175  1.00  0.00    -0.019 A 
HETATM   17  C18 UNL     1      37.614 -10.035  23.147  1.00  0.00     0.015 A 
HETATM   18  C19 UNL     1      37.730  -9.621  21.833  1.00  0.00     0.043 A 
HETATM   19  C20 UNL     1      37.740  -8.287  21.489  1.00  0.00     0.116 A 
HETATM   20  F1  UNL     1      37.856  -7.916  20.191  1.00  0.00    -0.206 F 
HETATM   21  C21 UNL     1      37.628  -7.365  22.507  1.00  0.00     0.043 A 
HETATM   22  C22 UNL     1      37.509  -7.776  23.827  1.00  0.00     0.015 A 
ENDBRANCH   8  16
BRANCH   4  23
HETATM   23  C5  UNL     1      37.199 -10.950  29.586  1.00  0.00     0.080 C 
BRANCH  23  24
HETATM   24  C6  UNL     1      38.490 -11.385  30.156  1.00  0.00    -0.016 C 
HETATM   25  C7  UNL     1      39.215 -12.300  29.193  1.00  0.00     0.010 C 
HETATM   26  C8  UNL     1      39.342 -10.122  30.350  1.00  0.00     0.010 C 
ENDBRANCH  23  24
ENDBRANCH   4  23
BRANCH   1  27
HETATM   27  N1  UNL     1      39.630  -9.855  25.637  1.00  0.00    -0.352 N 
ATOM     28  H1  UNL     1      39.844 -10.440  24.830  1.00  0.00     0.166 HD
BRANCH  27  29
HETATM   29  C2  UNL     1      40.556  -8.866  26.128  1.00  0.00     0.079 C 
HETATM   30  C1  UNL     1      41.543  -9.190  26.943  1.00  0.00     0.029 C 
ENDBRANCH  27  29
ENDBRANCH   1  27
TORSDOF 7
ENDMDL
MODEL 4
REMARK VINA RESULT: -5.990617659      3.133      7.197
REMARK  7 active torsions:
REMARK  status: ('A' for Active; 'I' for Inactive)
REMARK    1  A    between atoms: C2_2  and  N1_3 
REMARK    2  A    between atoms: N1_3  and  C3_5 
REMARK    3  A    between atoms: C4_8  and  C5_9 
REMARK    4  A    between atoms: C5_9  and  C6_10 
REMARK    5  A    between atoms: C9_15  and  S1_16 
REMARK    6  A    between atoms: S1_16  and  C10_17 
REMARK    7  A    between atoms: C16_23  and  C17_24 
ROOT
HETATM    1  C3  UNL     1      35.642  -7.785  22.705  1.00  0.00     0.120 A 
HETATM    2  N2  UNL     1      36.170  -8.221  23.845  1.00  0.00    -0.331 N 
ATOM      3  H2  UNL     1      37.135  -8.553  23.842  1.00  0.00     0.168 HD
HETATM    4  C4  UNL     1      35.475  -8.242  25.020  1.00  0.00     0.083 A 
HETATM    5  N3  UNL     1      34.215  -7.802  24.992  1.00  0.00    -0.340 N 
ATOM      6  H3  UNL     1      33.674  -7.807  25.857  1.00  0.00     0.167 HD
HETATM    7  C9  UNL     1      33.620  -7.342  23.844  1.00  0.00     0.086 A 
HETATM    8  C16 UNL     1      34.322  -7.322  22.665  1.00  0.00     0.052 A 
ENDROOT
BRANCH   7   9
HETATM    9  S1  UNL     1      31.932  -6.756  23.879  1.00  0.00    -0.106 SA
BRANCH   9  10
HETATM   10  C10 UNL     1      30.757  -8.052  24.291  1.00  0.00     0.054 C 
HETATM   11  C11 UNL     1      29.389  -7.739  23.716  1.00  0.00     0.015 C 
HETATM   12  C12 UNL     1      29.430  -7.861  22.200  1.00  0.00     0.001 C 
HETATM   13  C13 UNL     1      29.661  -9.331  21.896  1.00  0.00     0.000 C 
HETATM   14  C14 UNL     1      31.033  -9.684  22.402  1.00  0.00     0.001 C 
HETATM   15  C15 UNL     1      31.209  -9.409  23.866  1.00  0.00     0.015 C 
ENDBRANCH   9  10
ENDBRANCH   7   9
BRANCH   8  16
HETATM   16  C17 UNL     1      33.757  -6.832  21.400  1.00  0.00    -0.019 A 
HETATM   17  C18 UNL     1      33.196  -7.745  20.515  1.00  0.00     0.015 A 
HETATM   18  C19 UNL     1      32.648  -7.322  19.317  1.00  0.00     0.043 A 
HETATM   19  C20 UNL     1      32.636  -5.994  18.952  1.00  0.00     0.116 A 
HETATM   20  F1  UNL     1      32.092  -5.613  17.771  1.00  0.00    -0.206 F 
HETATM   21  C21 UNL     1      33.193  -5.086  19.828  1.00  0.00     0.043 A 
HETATM   22  C22 UNL     1      33.743  -5.507  21.031  1.00  0.00     0.015 A 
ENDBRANCH   8  16
BRANCH   4  23
HETATM   23  C5  UNL     1      36.146  -8.723  26.245  1.00  0.00     0.080 C 
BRANCH  23  24
HETATM   24  C6  UNL     1      36.742 -10.073  26.187  1.00  0.00    -0.016 C 
HETATM   25  C7  UNL     1      38.252  -9.990  26.209  1.00  0.00     0.010 C 
HETATM   26  C8  UNL     1      36.285 -10.818  27.451  1.00  0.00     0.010 C 
ENDBRANCH  23  24
ENDBRANCH   4  23
BRANCH   1  27
HETATM   27  N1  UNL     1      36.276  -7.756  21.581  1.00  0.00    -0.352 N 
ATOM     28  H1  UNL     1      36.329  -6.909  21.015  1.00  0.00     0.166 HD
BRANCH  27  29
HETATM   29  C2  UNL     1      36.906  -8.985  21.172  1.00  0.00     0.079 C 
HETATM   30  C1  UNL     1      36.747  -9.470  19.954  1.00  0.00     0.029 C 
ENDBRANCH  27  29
ENDBRANCH   1  27
TORSDOF 7
ENDMDL
MODEL 5
REMARK VINA RESULT: -5.927696847      2.225      6.313
REMARK  7 active torsions:
REMARK  status: ('A' for Active; 'I' for Inactive)
REMARK    1  A    between atoms: C2_2  and  N1_3 
REMARK    2  A    between atoms: N1_3  and  C3_5 
REMARK    3  A    between atoms: C4_8  and  C5_9 
REMARK    4  A    between atoms: C5_9  and  C6_10 
REMARK    5  A    between atoms: C9_15  and  S1_16 
REMARK    6  A    between atoms: S1_16  and  C10_17 
REMARK    7  A    between atoms: C16_23  and  C17_24 
ROOT
HETATM    1  C3  UNL     1      34.424  -7.348  23.249  1.00  0.00     0.120 A 
HETATM    2  N2  UNL     1      35.634  -7.830  23.518  1.00  0.00    -0.331 N 
ATOM      3  H2  UNL     1      35.890  -7.993  24.492  1.00  0.00     0.168 HD
HETATM    4  C4  UNL     1      36.548  -8.115  22.545  1.00  0.00     0.083 A 
HETATM    5  N3  UNL     1      36.185  -7.891  21.280  1.00  0.00    -0.340 N 
ATOM      6  H3  UNL     1      36.850  -8.096  20.534  1.00  0.00     0.167 HD
HETATM    7  C9  UNL     1      34.950  -7.394  20.946  1.00  0.00     0.086 A 
HETATM    8  C16 UNL     1      34.033  -7.109  21.926  1.00  0.00     0.052 A 
ENDROOT
BRANCH   7   9
HETATM    9  S1  UNL     1      34.522  -7.128  19.231  1.00  0.00    -0.106 SA
BRANCH   9  10
HETATM   10  C10 UNL     1      34.701  -5.410  18.732  1.00  0.00     0.054 C 
HETATM   11  C11 UNL     1      35.525  -5.303  17.464  1.00  0.00     0.015 C 
HETATM   12  C12 UNL     1      34.735  -5.863  16.290  1.00  0.00     0.001 C 
HETATM   13  C13 UNL     1      33.560  -4.923  16.079  1.00  0.00     0.000 C 
HETATM   14  C14 UNL     1      32.678  -5.029  17.293  1.00  0.00     0.001 C 
HETATM   15  C15 UNL     1      33.394  -4.708  18.571  1.00  0.00     0.015 C 
ENDBRANCH   9  10
ENDBRANCH   7   9
BRANCH   8  16
HETATM   16  C17 UNL     1      32.688  -6.588  21.645  1.00  0.00    -0.019 A 
HETATM   17  C18 UNL     1      32.429  -5.240  21.860  1.00  0.00     0.015 A 
HETATM   18  C19 UNL     1      31.178  -4.712  21.600  1.00  0.00     0.043 A 
HETATM   19  C20 UNL     1      30.144  -5.489  21.124  1.00  0.00     0.116 A 
HETATM   20  F1  UNL     1      28.930  -4.939  20.880  1.00  0.00    -0.206 F 
HETATM   21  C21 UNL     1      30.398  -6.826  20.910  1.00  0.00     0.043 A 
HETATM   22  C22 UNL     1      31.653  -7.360  21.169  1.00  0.00     0.015 A 
ENDBRANCH   8  16
BRANCH   4  23
HETATM   23  C5  UNL     1      37.862  -8.667  22.932  1.00  0.00     0.080 C 
BRANCH  23  24
HETATM   24  C6  UNL     1      37.920  -9.407  24.209  1.00  0.00    -0.016 C 
HETATM   25  C7  UNL     1      38.267 -10.860  23.968  1.00  0.00     0.010 C 
HETATM   26  C8  UNL     1      39.047  -8.776  25.041  1.00  0.00     0.010 C 
ENDBRANCH  23  24
ENDBRANCH   4  23
BRANCH   1  27
HETATM   27  N1  UNL     1      33.542  -7.069  24.149  1.00  0.00    -0.352 N 
ATOM     28  H1  UNL     1      32.571  -6.871  23.908  1.00  0.00     0.166 HD
BRANCH  27  29
HETATM   29  C2  UNL     1      34.007  -7.053  25.513  1.00  0.00     0.079 C 
HETATM   30  C1  UNL     1      33.838  -5.996  26.286  1.00  0.00     0.029 C 
ENDBRANCH  27  29
ENDBRANCH   1  27
TORSDOF 7
ENDMDL
