MODEL 1
REMARK VINA RESULT: -7.465019899      0.000      0.000
REMARK  6 active torsions:
REMARK  status: ('A' for Active; 'I' for Inactive)
REMARK    1  A    between atoms: C3_4  and  C4_5 
REMARK    2  A    between atoms: C4_5  and  N2_6 
REMARK    3  A    between atoms: N3_11  and  C9_12 
REMARK    4  A    between atoms: C9_12  and  C10_13 
REMARK    5  A    between atoms: C14_17  and  N4_18 
REMARK    6  A    between atoms: C21_33  and  N8_34 
ROOT
HETATM    1  N1  UNL     1     -15.078 -39.578  16.457  1.00  0.00    -0.191 NA
HETATM    2  C1  UNL     1     -14.307 -38.714  16.546  1.00  0.00     0.105 C 
HETATM    3  C2  UNL     1     -13.364 -37.621  16.661  1.00  0.00     0.117 A 
HETATM    4  C3  UNL     1     -12.517 -37.369  15.558  1.00  0.00     0.088 A 
HETATM    5  N5  UNL     1     -11.629 -36.374  15.615  1.00  0.00    -0.189 N 
ATOM      6  H5  UNL     1     -11.005 -36.173  14.834  1.00  0.00     0.184 HD
HETATM    7  C20 UNL     1     -11.591 -35.638  16.767  1.00  0.00     0.678 A 
HETATM    8  N6  UNL     1     -10.717 -34.667  16.808  1.00  0.00    -0.234 N 
ATOM      9  H61 UNL     1     -10.688 -34.117  17.667  1.00  0.00     0.174 HD
ATOM     10  H62 UNL     1     -10.106 -34.485  16.012  1.00  0.00     0.174 HD
HETATM   11  N7  UNL     1     -12.394 -35.876  17.813  1.00  0.00    -0.176 N 
ATOM     12  H7  UNL     1     -12.314 -35.289  18.644  1.00  0.00     0.186 HD
HETATM   13  C21 UNL     1     -13.302 -36.867  17.800  1.00  0.00     0.138 A 
ENDROOT
BRANCH   4  14
HETATM   14  C4  UNL     1     -12.608 -38.225  14.368  1.00  0.00     0.117 C 
BRANCH  14  15
HETATM   15  N2  UNL     1     -11.457 -38.913  13.987  1.00  0.00    -0.385 N 
HETATM   16  C5  UNL     1     -10.648 -38.373  12.945  1.00  0.00     0.123 C 
HETATM   17  C6  UNL     1     -10.675 -39.104  11.652  1.00  0.00     0.029 C 
HETATM   18  C7  UNL     1     -11.887 -39.987  11.582  1.00  0.00     0.058 C 
HETATM   19  C8  UNL     1     -11.639 -40.921  10.383  1.00  0.00     0.279 C 
HETATM   20  C14 UNL     1     -11.850 -40.970  12.701  1.00  0.00     0.207 C 
HETATM   21  N3  UNL     1     -10.440 -41.581  10.864  1.00  0.00     0.091 N 
HETATM   22  C13 UNL     1     -10.700 -41.881  12.238  1.00  0.00     0.316 C 
HETATM   23  C19 UNL     1     -11.509 -40.342  14.033  1.00  0.00     0.166 C 
BRANCH  21  24
HETATM   24  C9  UNL     1      -9.983 -42.659  10.057  1.00  0.00     0.277 C 
BRANCH  24  25
HETATM   25  C10 UNL     1      -8.789 -42.134   9.248  1.00  0.00     0.014 A 
HETATM   26  C11 UNL     1      -8.742 -42.673   7.810  1.00  0.00     0.007 A 
HETATM   27  C12 UNL     1      -9.045 -41.246   8.088  1.00  0.00     0.007 A 
ENDBRANCH  24  25
ENDBRANCH  21  24
BRANCH  20  28
HETATM   28  N4  UNL     1     -13.018 -41.802  12.742  1.00  0.00     0.106 N 
HETATM   29  C15 UNL     1     -14.110 -41.293  13.538  1.00  0.00     0.299 C 
HETATM   30  C16 UNL     1     -15.301 -42.222  13.251  1.00  0.00     0.198 C 
HETATM   31  O1  UNL     1     -14.952 -43.263  12.407  1.00  0.00    -0.388 OA
HETATM   32  C17 UNL     1     -13.875 -44.010  12.823  1.00  0.00     0.198 C 
HETATM   33  C18 UNL     1     -12.734 -43.123  13.268  1.00  0.00     0.299 C 
ENDBRANCH  20  28
ENDBRANCH  14  15
ENDBRANCH   4  14
BRANCH  13  34
HETATM   34  N8  UNL     1     -14.091 -37.112  18.811  1.00  0.00    -0.384 N 
ATOM     35  H82 UNL     1     -14.074 -37.995  19.321  1.00  0.00     0.157 HD
ATOM     36  H81 UNL     1     -14.764 -36.416  19.131  1.00  0.00     0.157 HD
ENDBRANCH  13  34
TORSDOF 6
ENDMDL
MODEL 2
REMARK VINA RESULT: -7.370290079      3.325      5.658
REMARK  6 active torsions:
REMARK  status: ('A' for Active; 'I' for Inactive)
REMARK    1  A    between atoms: C3_4  and  C4_5 
REMARK    2  A    between atoms: C4_5  and  N2_6 
REMARK    3  A    between atoms: N3_11  and  C9_12 
REMARK    4  A    between atoms: C9_12  and  C10_13 
REMARK    5  A    between atoms: C14_17  and  N4_18 
REMARK    6  A    between atoms: C21_33  and  N8_34 
ROOT
HETATM    1  N1  UNL     1     -16.237 -38.489  18.729  1.00  0.00    -0.191 NA
HETATM    2  C1  UNL     1     -17.143 -38.455  18.004  1.00  0.00     0.105 C 
HETATM    3  C2  UNL     1     -18.287 -38.423  17.116  1.00  0.00     0.117 A 
HETATM    4  C3  UNL     1     -18.196 -39.146  15.906  1.00  0.00     0.088 A 
HETATM    5  N5  UNL     1     -19.223 -39.146  15.052  1.00  0.00    -0.189 N 
ATOM      6  H5  UNL     1     -19.182 -39.658  14.171  1.00  0.00     0.184 HD
HETATM    7  C20 UNL     1     -20.331 -38.429  15.410  1.00  0.00     0.678 A 
HETATM    8  N6  UNL     1     -21.328 -38.438  14.565  1.00  0.00    -0.234 N 
ATOM      9  H61 UNL     1     -22.155 -37.904  14.832  1.00  0.00     0.174 HD
ATOM     10  H62 UNL     1     -21.262 -38.961  13.691  1.00  0.00     0.174 HD
HETATM   11  N7  UNL     1     -20.417 -37.742  16.558  1.00  0.00    -0.176 N 
ATOM     12  H7  UNL     1     -21.273 -37.227  16.765  1.00  0.00     0.186 HD
HETATM   13  C21 UNL     1     -19.409 -37.714  17.446  1.00  0.00     0.138 A 
ENDROOT
BRANCH   4  14
HETATM   14  C4  UNL     1     -16.959 -39.871  15.589  1.00  0.00     0.117 C 
BRANCH  14  15
HETATM   15  N2  UNL     1     -16.965 -40.678  14.452  1.00  0.00    -0.385 N 
HETATM   16  C5  UNL     1     -17.353 -42.043  14.582  1.00  0.00     0.123 C 
HETATM   17  C6  UNL     1     -16.267 -43.047  14.440  1.00  0.00     0.029 C 
HETATM   18  C7  UNL     1     -14.930 -42.395  14.639  1.00  0.00     0.058 C 
HETATM   19  C8  UNL     1     -13.898 -43.427  14.148  1.00  0.00     0.279 C 
HETATM   20  C14 UNL     1     -14.745 -41.324  13.619  1.00  0.00     0.207 C 
HETATM   21  N3  UNL     1     -14.323 -43.520  12.764  1.00  0.00     0.091 N 
HETATM   22  C13 UNL     1     -14.559 -42.172  12.349  1.00  0.00     0.316 C 
HETATM   23  C19 UNL     1     -15.953 -40.428  13.472  1.00  0.00     0.166 C 
BRANCH  21  24
HETATM   24  C9  UNL     1     -13.478 -44.300  11.928  1.00  0.00     0.277 C 
BRANCH  24  25
HETATM   25  C10 UNL     1     -12.039 -43.840  12.196  1.00  0.00     0.014 A 
HETATM   26  C11 UNL     1     -10.989 -44.615  11.385  1.00  0.00     0.007 A 
HETATM   27  C12 UNL     1     -11.280 -43.187  11.100  1.00  0.00     0.007 A 
ENDBRANCH  24  25
ENDBRANCH  21  24
BRANCH  20  28
HETATM   28  N4  UNL     1     -13.516 -40.603  13.794  1.00  0.00     0.106 N 
HETATM   29  C15 UNL     1     -13.598 -39.442  14.649  1.00  0.00     0.299 C 
HETATM   30  C16 UNL     1     -12.147 -38.980  14.861  1.00  0.00     0.198 C 
HETATM   31  O1  UNL     1     -11.250 -39.746  14.137  1.00  0.00    -0.388 OA
HETATM   32  C17 UNL     1     -11.514 -39.829  12.790  1.00  0.00     0.198 C 
HETATM   33  C18 UNL     1     -12.975 -40.126  12.537  1.00  0.00     0.299 C 
ENDBRANCH  20  28
ENDBRANCH  14  15
ENDBRANCH   4  14
BRANCH  13  34
HETATM   34  N8  UNL     1     -19.478 -37.051  18.568  1.00  0.00    -0.384 N 
ATOM     35  H82 UNL     1     -20.100 -37.323  19.330  1.00  0.00     0.157 HD
ATOM     36  H81 UNL     1     -18.903 -36.223  18.725  1.00  0.00     0.157 HD
ENDBRANCH  13  34
TORSDOF 6
ENDMDL
MODEL 3
REMARK VINA RESULT: -7.201094358      3.748      5.871
REMARK  6 active torsions:
REMARK  status: ('A' for Active; 'I' for Inactive)
REMARK    1  A    between atoms: C3_4  and  C4_5 
REMARK    2  A    between atoms: C4_5  and  N2_6 
REMARK    3  A    between atoms: N3_11  and  C9_12 
REMARK    4  A    between atoms: C9_12  and  C10_13 
REMARK    5  A    between atoms: C14_17  and  N4_18 
REMARK    6  A    between atoms: C21_33  and  N8_34 
ROOT
HETATM    1  N1  UNL     1     -15.438 -37.355  16.667  1.00  0.00    -0.191 NA
HETATM    2  C1  UNL     1     -16.576 -37.438  16.881  1.00  0.00     0.105 C 
HETATM    3  C2  UNL     1     -17.991 -37.551  17.169  1.00  0.00     0.117 A 
HETATM    4  C3  UNL     1     -18.766 -38.378  16.325  1.00  0.00     0.088 A 
HETATM    5  N5  UNL     1     -20.076 -38.513  16.548  1.00  0.00    -0.189 N 
ATOM      6  H5  UNL     1     -20.658 -39.103  15.952  1.00  0.00     0.184 HD
HETATM    7  C20 UNL     1     -20.602 -37.828  17.607  1.00  0.00     0.678 A 
HETATM    8  N6  UNL     1     -21.885 -37.971  17.813  1.00  0.00    -0.234 N 
ATOM      9  H61 UNL     1     -22.278 -37.460  18.604  1.00  0.00     0.174 HD
ATOM     10  H62 UNL     1     -22.445 -38.568  17.204  1.00  0.00     0.174 HD
HETATM   11  N7  UNL     1     -19.867 -37.044  18.408  1.00  0.00    -0.176 N 
ATOM     12  H7  UNL     1     -20.323 -36.559  19.182  1.00  0.00     0.186 HD
HETATM   13  C21 UNL     1     -18.547 -36.877  18.221  1.00  0.00     0.138 A 
ENDROOT
BRANCH   4  14
HETATM   14  C4  UNL     1     -18.124 -39.060  15.195  1.00  0.00     0.117 C 
BRANCH  14  15
HETATM   15  N2  UNL     1     -17.798 -40.405  15.362  1.00  0.00    -0.385 N 
HETATM   16  C5  UNL     1     -16.825 -40.758  16.342  1.00  0.00     0.123 C 
HETATM   17  C6  UNL     1     -15.513 -41.222  15.822  1.00  0.00     0.029 C 
HETATM   18  C7  UNL     1     -15.341 -40.793  14.394  1.00  0.00     0.058 C 
HETATM   19  C8  UNL     1     -14.135 -41.595  13.872  1.00  0.00     0.279 C 
HETATM   20  C14 UNL     1     -16.432 -41.379  13.566  1.00  0.00     0.207 C 
HETATM   21  N3  UNL     1     -14.672 -42.932  14.039  1.00  0.00     0.091 N 
HETATM   22  C13 UNL     1     -16.018 -42.860  13.560  1.00  0.00     0.316 C 
HETATM   23  C19 UNL     1     -17.800 -41.226  14.190  1.00  0.00     0.166 C 
BRANCH  21  24
HETATM   24  C9  UNL     1     -13.866 -43.974  13.504  1.00  0.00     0.277 C 
BRANCH  24  25
HETATM   25  C10 UNL     1     -13.121 -43.386  12.297  1.00  0.00     0.014 A 
HETATM   26  C11 UNL     1     -11.735 -44.009  12.073  1.00  0.00     0.007 A 
HETATM   27  C12 UNL     1     -12.852 -44.259  11.128  1.00  0.00     0.007 A 
ENDBRANCH  24  25
ENDBRANCH  21  24
BRANCH  20  28
HETATM   28  N4  UNL     1     -16.376 -40.950  12.197  1.00  0.00     0.106 N 
HETATM   29  C15 UNL     1     -17.397 -40.008  11.803  1.00  0.00     0.299 C 
HETATM   30  C16 UNL     1     -17.004 -39.534  10.395  1.00  0.00     0.198 C 
HETATM   31  O1  UNL     1     -15.875 -40.185   9.928  1.00  0.00    -0.388 OA
HETATM   32  C17 UNL     1     -15.948 -41.559   9.947  1.00  0.00     0.198 C 
HETATM   33  C18 UNL     1     -16.486 -42.058  11.269  1.00  0.00     0.299 C 
ENDBRANCH  20  28
ENDBRANCH  14  15
ENDBRANCH   4  14
BRANCH  13  34
HETATM   34  N8  UNL     1     -17.817 -36.118  18.993  1.00  0.00    -0.384 N 
ATOM     35  H82 UNL     1     -16.803 -36.210  19.055  1.00  0.00     0.157 HD
ATOM     36  H81 UNL     1     -18.243 -35.393  19.570  1.00  0.00     0.157 HD
ENDBRANCH  13  34
TORSDOF 6
ENDMDL
MODEL 4
REMARK VINA RESULT: -7.192584268      4.494      8.350
REMARK  6 active torsions:
REMARK  status: ('A' for Active; 'I' for Inactive)
REMARK    1  A    between atoms: C3_4  and  C4_5 
REMARK    2  A    between atoms: C4_5  and  N2_6 
REMARK    3  A    between atoms: N3_11  and  C9_12 
REMARK    4  A    between atoms: C9_12  and  C10_13 
REMARK    5  A    between atoms: C14_17  and  N4_18 
REMARK    6  A    between atoms: C21_33  and  N8_34 
ROOT
HETATM    1  N1  UNL     1     -13.224 -34.608  19.581  1.00  0.00    -0.191 NA
HETATM    2  C1  UNL     1     -12.914 -35.328  18.724  1.00  0.00     0.105 C 
HETATM    3  C2  UNL     1     -12.529 -36.208  17.640  1.00  0.00     0.117 A 
HETATM    4  C3  UNL     1     -13.351 -37.328  17.383  1.00  0.00     0.088 A 
HETATM    5  N5  UNL     1     -13.037 -38.171  16.396  1.00  0.00    -0.189 N 
ATOM      6  H5  UNL     1     -13.613 -38.988  16.191  1.00  0.00     0.184 HD
HETATM    7  C20 UNL     1     -11.911 -37.892  15.673  1.00  0.00     0.678 A 
HETATM    8  N6  UNL     1     -11.618 -38.725  14.709  1.00  0.00    -0.234 N 
ATOM      9  H61 UNL     1     -10.778 -38.517  14.169  1.00  0.00     0.174 HD
ATOM     10  H62 UNL     1     -12.211 -39.534  14.524  1.00  0.00     0.174 HD
HETATM   11  N7  UNL     1     -11.131 -36.829  15.916  1.00  0.00    -0.176 N 
ATOM     12  H7  UNL     1     -10.303 -36.679  15.338  1.00  0.00     0.186 HD
HETATM   13  C21 UNL     1     -11.407 -35.956  16.899  1.00  0.00     0.138 A 
ENDROOT
BRANCH   4  14
HETATM   14  C4  UNL     1     -14.530 -37.566  18.225  1.00  0.00     0.117 C 
BRANCH  14  15
HETATM   15  N2  UNL     1     -15.686 -36.847  17.923  1.00  0.00    -0.385 N 
HETATM   16  C5  UNL     1     -16.404 -36.224  18.986  1.00  0.00     0.123 C 
HETATM   17  C6  UNL     1     -17.711 -36.836  19.338  1.00  0.00     0.029 C 
HETATM   18  C7  UNL     1     -17.786 -38.238  18.806  1.00  0.00     0.058 C 
HETATM   19  C8  UNL     1     -19.267 -38.640  18.931  1.00  0.00     0.279 C 
HETATM   20  C14 UNL     1     -17.638 -38.214  17.323  1.00  0.00     0.207 C 
HETATM   21  N3  UNL     1     -19.842 -37.634  18.059  1.00  0.00     0.091 N 
HETATM   22  C13 UNL     1     -18.984 -37.590  16.915  1.00  0.00     0.316 C 
HETATM   23  C19 UNL     1     -16.498 -37.340  16.853  1.00  0.00     0.166 C 
BRANCH  21  24
HETATM   24  C9  UNL     1     -21.232 -37.785  17.800  1.00  0.00     0.277 C 
BRANCH  24  25
HETATM   25  C10 UNL     1     -21.419 -37.654  16.282  1.00  0.00     0.014 A 
HETATM   26  C11 UNL     1     -21.945 -38.936  15.620  1.00  0.00     0.007 A 
HETATM   27  C12 UNL     1     -22.791 -37.720  15.722  1.00  0.00     0.007 A 
ENDBRANCH  24  25
ENDBRANCH  21  24
BRANCH  20  28
HETATM   28  N4  UNL     1     -17.625 -39.530  16.750  1.00  0.00     0.106 N 
HETATM   29  C15 UNL     1     -16.344 -40.196  16.763  1.00  0.00     0.299 C 
HETATM   30  C16 UNL     1     -16.623 -41.640  16.316  1.00  0.00     0.198 C 
HETATM   31  O1  UNL     1     -17.953 -41.830  15.983  1.00  0.00    -0.388 OA
HETATM   32  C17 UNL     1     -18.446 -40.954  15.043  1.00  0.00     0.198 C 
HETATM   33  C18 UNL     1     -18.053 -39.530  15.365  1.00  0.00     0.299 C 
ENDBRANCH  20  28
ENDBRANCH  14  15
ENDBRANCH   4  14
BRANCH  13  34
HETATM   34  N8  UNL     1     -10.658 -34.916  17.148  1.00  0.00    -0.384 N 
ATOM     35  H82 UNL     1     -10.198 -34.773  18.047  1.00  0.00     0.157 HD
ATOM     36  H81 UNL     1     -10.504 -34.199  16.439  1.00  0.00     0.157 HD
ENDBRANCH  13  34
TORSDOF 6
ENDMDL
MODEL 5
REMARK VINA RESULT: -7.144512747      3.954      5.900
REMARK  6 active torsions:
REMARK  status: ('A' for Active; 'I' for Inactive)
REMARK    1  A    between atoms: C3_4  and  C4_5 
REMARK    2  A    between atoms: C4_5  and  N2_6 
REMARK    3  A    between atoms: N3_11  and  C9_12 
REMARK    4  A    between atoms: C9_12  and  C10_13 
REMARK    5  A    between atoms: C14_17  and  N4_18 
REMARK    6  A    between atoms: C21_33  and  N8_34 
ROOT
HETATM    1  N1  UNL     1     -16.635 -38.397  18.339  1.00  0.00    -0.191 NA
HETATM    2  C1  UNL     1     -17.597 -38.351  17.690  1.00  0.00     0.105 C 
HETATM    3  C2  UNL     1     -18.807 -38.310  16.896  1.00  0.00     0.117 A 
HETATM    4  C3  UNL     1     -18.718 -38.719  15.547  1.00  0.00     0.088 A 
HETATM    5  N5  UNL     1     -19.805 -38.697  14.772  1.00  0.00    -0.189 N 
ATOM      6  H5  UNL     1     -19.768 -38.986  13.794  1.00  0.00     0.184 HD
HETATM    7  C20 UNL     1     -20.971 -38.270  15.346  1.00  0.00     0.678 A 
HETATM    8  N6  UNL     1     -22.027 -38.255  14.576  1.00  0.00    -0.234 N 
ATOM      9  H61 UNL     1     -22.897 -37.937  15.004  1.00  0.00     0.174 HD
ATOM     10  H62 UNL     1     -21.963 -38.550  13.602  1.00  0.00     0.174 HD
HETATM   11  N7  UNL     1     -21.056 -37.882  16.626  1.00  0.00    -0.176 N 
ATOM     12  H7  UNL     1     -21.957 -37.574  16.992  1.00  0.00     0.186 HD
HETATM   13  C21 UNL     1     -19.987 -37.887  17.442  1.00  0.00     0.138 A 
ENDROOT
BRANCH   4  14
HETATM   14  C4  UNL     1     -17.421 -39.141  15.004  1.00  0.00     0.117 C 
BRANCH  14  15
HETATM   15  N2  UNL     1     -17.137 -40.506  15.016  1.00  0.00    -0.385 N 
HETATM   16  C5  UNL     1     -16.033 -40.971  15.789  1.00  0.00     0.123 C 
HETATM   17  C6  UNL     1     -14.849 -41.438  15.023  1.00  0.00     0.029 C 
HETATM   18  C7  UNL     1     -14.896 -40.903  13.621  1.00  0.00     0.058 C 
HETATM   19  C8  UNL     1     -13.834 -41.703  12.846  1.00  0.00     0.279 C 
HETATM   20  C14 UNL     1     -16.137 -41.381  12.948  1.00  0.00     0.207 C 
HETATM   21  N3  UNL     1     -14.400 -43.029  13.003  1.00  0.00     0.091 N 
HETATM   22  C13 UNL     1     -15.802 -42.872  12.765  1.00  0.00     0.316 C 
HETATM   23  C19 UNL     1     -17.373 -41.230  13.805  1.00  0.00     0.166 C 
BRANCH  21  24
HETATM   24  C9  UNL     1     -13.745 -44.054  12.265  1.00  0.00     0.277 C 
BRANCH  24  25
HETATM   25  C10 UNL     1     -12.453 -43.442  11.706  1.00  0.00     0.014 A 
HETATM   26  C11 UNL     1     -11.300 -44.451  11.593  1.00  0.00     0.007 A 
HETATM   27  C12 UNL     1     -11.960 -43.899  10.382  1.00  0.00     0.007 A 
ENDBRANCH  24  25
ENDBRANCH  21  24
BRANCH  20  28
HETATM   28  N4  UNL     1     -16.287 -40.847  11.625  1.00  0.00     0.106 N 
HETATM   29  C15 UNL     1     -17.332 -39.861  11.473  1.00  0.00     0.299 C 
HETATM   30  C16 UNL     1     -17.154 -39.284  10.060  1.00  0.00     0.198 C 
HETATM   31  O1  UNL     1     -16.133 -39.914   9.368  1.00  0.00    -0.388 OA
HETATM   32  C17 UNL     1     -16.241 -41.283   9.296  1.00  0.00     0.198 C 
HETATM   33  C18 UNL     1     -16.575 -41.876  10.646  1.00  0.00     0.299 C 
ENDBRANCH  20  28
ENDBRANCH  14  15
ENDBRANCH   4  14
BRANCH  13  34
HETATM   34  N8  UNL     1     -20.054 -37.512  18.690  1.00  0.00    -0.384 N 
ATOM     35  H82 UNL     1     -19.613 -38.037  19.446  1.00  0.00     0.157 HD
ATOM     36  H81 UNL     1     -20.558 -36.667  18.958  1.00  0.00     0.157 HD
ENDBRANCH  13  34
TORSDOF 6
ENDMDL
