MODEL 1
REMARK VINA RESULT: -8.023188177      0.000      0.000
REMARK  7 active torsions:
REMARK  status: ('A' for Active; 'I' for Inactive)
REMARK    1  A    between atoms: O1_2  and  C2_3 
REMARK    2  A    between atoms: C3_5  and  C4_6 
REMARK    3  A    between atoms: C5_9  and  O5_10 
REMARK    4  A    between atoms: C7_13  and  N1_14 
REMARK       I    between atoms: N1_14  and  C8_16 
REMARK    5  A    between atoms: C8_16  and  C9_18 
REMARK    6  A    between atoms: C15_25  and  O7_26 
REMARK    7  A    between atoms: C15_25  and  N2_28 
ROOT
HETATM    1  N1  UNL     1     -13.133 -38.277  15.216  1.00  0.00    -0.351 N 
ATOM      2  H1  UNL     1     -14.121 -38.232  14.965  1.00  0.00     0.163 HD
HETATM    3  C8  UNL     1     -12.304 -39.172  14.496  1.00  0.00     0.227 C 
HETATM    4  O6  UNL     1     -11.071 -39.282  14.750  1.00  0.00    -0.273 OA
ENDROOT
BRANCH   1   5
HETATM    5  C7  UNL     1     -12.671 -37.430  16.275  1.00  0.00     0.142 C 
HETATM    6  C2  UNL     1     -13.814 -37.258  17.252  1.00  0.00     0.283 C 
HETATM    7  O2  UNL     1     -13.509 -36.426  18.307  1.00  0.00    -0.341 OA
HETATM    8  C3  UNL     1     -12.254 -35.887  18.281  1.00  0.00     0.254 C 
HETATM    9  C5  UNL     1     -11.949 -35.179  16.970  1.00  0.00     0.160 C 
HETATM   10  C6  UNL     1     -12.254 -36.060  15.797  1.00  0.00     0.065 C 
BRANCH   6  11
HETATM   11  O1  UNL     1     -14.939 -36.897  16.558  1.00  0.00    -0.364 OA
HETATM   12  C1  UNL     1     -16.106 -37.457  17.032  1.00  0.00     0.204 C 
ENDBRANCH   6  11
BRANCH   8  13
HETATM   13  C4  UNL     1     -12.142 -34.881  19.366  1.00  0.00     0.205 C 
HETATM   14  O3  UNL     1     -13.103 -34.138  19.688  1.00  0.00    -0.646 OA
HETATM   15  O4  UNL     1     -10.954 -34.728  20.067  1.00  0.00    -0.646 OA
ENDBRANCH   8  13
BRANCH   9  16
HETATM   16  O5  UNL     1     -12.673 -33.973  16.886  1.00  0.00    -0.392 OA
ATOM     17  H5  UNL     1     -12.630 -33.624  16.003  1.00  0.00     0.210 HD
ENDBRANCH   9  16
ENDBRANCH   1   5
BRANCH   3  18
HETATM   18  C9  UNL     1     -12.816 -40.037  13.405  1.00  0.00     0.126 C 
HETATM   19  C10 UNL     1     -11.789 -40.275  12.319  1.00  0.00     0.065 C 
HETATM   20  C11 UNL     1     -12.592 -40.802  11.144  1.00  0.00     0.018 C 
HETATM   21  S1  UNL     1     -11.103 -41.890  12.883  1.00  0.00    -0.154 SA
HETATM   22  C12 UNL     1     -13.164 -42.123  11.511  1.00  0.00     0.021 C 
HETATM   23  C13 UNL     1     -12.902 -42.422  12.948  1.00  0.00     0.081 C 
HETATM   24  C14 UNL     1     -13.293 -41.342  13.919  1.00  0.00    -0.001 C 
HETATM   25  C15 UNL     1     -14.581 -41.437  14.557  1.00  0.00     0.141 C 
BRANCH  25  26
HETATM   26  O7  UNL     1     -14.588 -42.095  15.702  1.00  0.00    -0.346 OA
ATOM     27  H7  UNL     1     -15.267 -41.831  16.312  1.00  0.00     0.219 HD
ENDBRANCH  25  26
BRANCH  25  28
HETATM   28  N2  UNL     1     -15.847 -40.977  14.217  1.00  0.00    -0.370 N 
HETATM   29  C16 UNL     1     -16.316 -40.789  12.886  1.00  0.00     0.151 C 
HETATM   30  C17 UNL     1     -16.805 -40.646  15.293  1.00  0.00     0.151 C 
ENDBRANCH  25  28
ENDBRANCH   3  18
TORSDOF 7
ENDMDL
MODEL 2
REMARK VINA RESULT: -7.915515625      2.293      3.007
REMARK  7 active torsions:
REMARK  status: ('A' for Active; 'I' for Inactive)
REMARK    1  A    between atoms: O1_2  and  C2_3 
REMARK    2  A    between atoms: C3_5  and  C4_6 
REMARK    3  A    between atoms: C5_9  and  O5_10 
REMARK    4  A    between atoms: C7_13  and  N1_14 
REMARK       I    between atoms: N1_14  and  C8_16 
REMARK    5  A    between atoms: C8_16  and  C9_18 
REMARK    6  A    between atoms: C15_25  and  O7_26 
REMARK    7  A    between atoms: C15_25  and  N2_28 
ROOT
HETATM    1  N1  UNL     1     -14.354 -38.612  16.417  1.00  0.00    -0.351 N 
ATOM      2  H1  UNL     1     -15.245 -38.524  16.906  1.00  0.00     0.163 HD
HETATM    3  C8  UNL     1     -14.235 -39.623  15.430  1.00  0.00     0.227 C 
HETATM    4  O6  UNL     1     -13.164 -39.792  14.782  1.00  0.00    -0.273 OA
ENDROOT
BRANCH   1   5
HETATM    5  C7  UNL     1     -13.302 -37.708  16.769  1.00  0.00     0.142 C 
HETATM    6  C2  UNL     1     -13.611 -37.165  18.149  1.00  0.00     0.283 C 
HETATM    7  O2  UNL     1     -12.686 -36.246  18.593  1.00  0.00    -0.341 OA
HETATM    8  C3  UNL     1     -11.675 -35.965  17.718  1.00  0.00     0.254 C 
HETATM    9  C5  UNL     1     -12.187 -35.551  16.346  1.00  0.00     0.160 C 
HETATM   10  C6  UNL     1     -13.186 -36.537  15.822  1.00  0.00     0.065 C 
BRANCH   6  11
HETATM   11  O1  UNL     1     -14.905 -36.716  18.168  1.00  0.00    -0.364 OA
HETATM   12  C1  UNL     1     -15.527 -36.821  19.394  1.00  0.00     0.204 C 
ENDBRANCH   6  11
BRANCH   8  13
HETATM   13  C4  UNL     1     -10.876 -34.836  18.253  1.00  0.00     0.205 C 
HETATM   14  O3  UNL     1     -10.998 -34.437  19.439  1.00  0.00    -0.646 OA
HETATM   15  O4  UNL     1      -9.958 -34.176  17.449  1.00  0.00    -0.646 OA
ENDBRANCH   8  13
BRANCH   9  16
HETATM   16  O5  UNL     1     -12.749 -34.260  16.404  1.00  0.00    -0.392 OA
ATOM     17  H5  UNL     1     -13.552 -34.227  15.897  1.00  0.00     0.210 HD
ENDBRANCH   9  16
ENDBRANCH   1   5
BRANCH   3  18
HETATM   18  C9  UNL     1     -15.346 -40.545  15.090  1.00  0.00     0.126 C 
HETATM   19  C10 UNL     1     -14.869 -41.797  14.385  1.00  0.00     0.065 C 
HETATM   20  C11 UNL     1     -16.125 -42.389  13.769  1.00  0.00     0.018 C 
HETATM   21  S1  UNL     1     -14.746 -42.942  15.823  1.00  0.00    -0.154 SA
HETATM   22  C12 UNL     1     -17.037 -42.815  14.862  1.00  0.00     0.021 C 
HETATM   23  C13 UNL     1     -16.502 -42.382  16.184  1.00  0.00     0.081 C 
HETATM   24  C14 UNL     1     -16.126 -40.929  16.290  1.00  0.00    -0.001 C 
HETATM   25  C15 UNL     1     -17.094 -40.016  16.842  1.00  0.00     0.141 C 
BRANCH  25  26
HETATM   26  O7  UNL     1     -17.022 -39.852  18.150  1.00  0.00    -0.346 OA
ATOM     27  H7  UNL     1     -17.161 -40.640  18.662  1.00  0.00     0.219 HD
ENDBRANCH  25  26
BRANCH  25  28
HETATM   28  N2  UNL     1     -18.112 -39.256  16.280  1.00  0.00    -0.370 N 
HETATM   29  C16 UNL     1     -18.713 -39.506  15.015  1.00  0.00     0.151 C 
HETATM   30  C17 UNL     1     -18.635 -38.092  17.026  1.00  0.00     0.151 C 
ENDBRANCH  25  28
ENDBRANCH   3  18
TORSDOF 7
ENDMDL
MODEL 3
REMARK VINA RESULT: -7.801474942      2.275      4.038
REMARK  7 active torsions:
REMARK  status: ('A' for Active; 'I' for Inactive)
REMARK    1  A    between atoms: O1_2  and  C2_3 
REMARK    2  A    between atoms: C3_5  and  C4_6 
REMARK    3  A    between atoms: C5_9  and  O5_10 
REMARK    4  A    between atoms: C7_13  and  N1_14 
REMARK       I    between atoms: N1_14  and  C8_16 
REMARK    5  A    between atoms: C8_16  and  C9_18 
REMARK    6  A    between atoms: C15_25  and  O7_26 
REMARK    7  A    between atoms: C15_25  and  N2_28 
ROOT
HETATM    1  N1  UNL     1     -13.804 -38.704  16.001  1.00  0.00    -0.351 N 
ATOM      2  H1  UNL     1     -13.113 -39.416  15.763  1.00  0.00     0.163 HD
HETATM    3  C8  UNL     1     -15.169 -39.084  16.020  1.00  0.00     0.227 C 
HETATM    4  O6  UNL     1     -16.081 -38.258  16.306  1.00  0.00    -0.273 OA
ENDROOT
BRANCH   1   5
HETATM    5  C7  UNL     1     -13.334 -37.384  16.294  1.00  0.00     0.142 C 
HETATM    6  C2  UNL     1     -11.995 -37.214  15.609  1.00  0.00     0.283 C 
HETATM    7  O2  UNL     1     -11.412 -35.989  15.847  1.00  0.00    -0.341 OA
HETATM    8  C3  UNL     1     -12.119 -35.155  16.667  1.00  0.00     0.254 C 
HETATM    9  C5  UNL     1     -12.485 -35.809  17.990  1.00  0.00     0.160 C 
HETATM   10  C6  UNL     1     -13.137 -37.141  17.772  1.00  0.00     0.065 C 
BRANCH   6  11
HETATM   11  O1  UNL     1     -11.199 -38.285  15.921  1.00  0.00    -0.364 OA
HETATM   12  C1  UNL     1     -10.483 -38.791  14.858  1.00  0.00     0.204 C 
ENDBRANCH   6  11
BRANCH   8  13
HETATM   13  C4  UNL     1     -11.287 -33.966  16.975  1.00  0.00     0.205 C 
HETATM   14  O3  UNL     1     -11.782 -32.815  17.075  1.00  0.00    -0.646 OA
HETATM   15  O4  UNL     1      -9.919 -34.091  17.164  1.00  0.00    -0.646 OA
ENDBRANCH   8  13
BRANCH   9  16
HETATM   16  O5  UNL     1     -11.341 -35.946  18.801  1.00  0.00    -0.392 OA
ATOM     17  H5  UNL     1     -11.469 -36.638  19.439  1.00  0.00     0.210 HD
ENDBRANCH   9  16
ENDBRANCH   1   5
BRANCH   3  18
HETATM   18  C9  UNL     1     -15.622 -40.461  15.709  1.00  0.00     0.126 C 
HETATM   19  C10 UNL     1     -16.833 -40.874  16.518  1.00  0.00     0.065 C 
HETATM   20  C11 UNL     1     -16.887 -42.385  16.379  1.00  0.00     0.018 C 
HETATM   21  S1  UNL     1     -18.169 -40.475  15.314  1.00  0.00    -0.154 SA
HETATM   22  C12 UNL     1     -17.166 -42.723  14.959  1.00  0.00     0.021 C 
HETATM   23  C13 UNL     1     -17.141 -41.494  14.117  1.00  0.00     0.081 C 
HETATM   24  C14 UNL     1     -15.921 -40.627  14.267  1.00  0.00    -0.001 C 
HETATM   25  C15 UNL     1     -14.846 -40.801  13.324  1.00  0.00     0.141 C 
BRANCH  25  26
HETATM   26  O7  UNL     1     -14.922 -40.041  12.247  1.00  0.00    -0.346 OA
ATOM     27  H7  UNL     1     -15.759 -40.063  11.798  1.00  0.00     0.219 HD
ENDBRANCH  25  26
BRANCH  25  28
HETATM   28  N2  UNL     1     -13.722 -41.616  13.304  1.00  0.00    -0.370 N 
HETATM   29  C16 UNL     1     -13.698 -42.982  13.703  1.00  0.00     0.151 C 
HETATM   30  C17 UNL     1     -12.435 -41.057  12.839  1.00  0.00     0.151 C 
ENDBRANCH  25  28
ENDBRANCH   3  18
TORSDOF 7
ENDMDL
MODEL 4
REMARK VINA RESULT: -7.683705773      2.281      3.476
REMARK  7 active torsions:
REMARK  status: ('A' for Active; 'I' for Inactive)
REMARK    1  A    between atoms: O1_2  and  C2_3 
REMARK    2  A    between atoms: C3_5  and  C4_6 
REMARK    3  A    between atoms: C5_9  and  O5_10 
REMARK    4  A    between atoms: C7_13  and  N1_14 
REMARK       I    between atoms: N1_14  and  C8_16 
REMARK    5  A    between atoms: C8_16  and  C9_18 
REMARK    6  A    between atoms: C15_25  and  O7_26 
REMARK    7  A    between atoms: C15_25  and  N2_28 
ROOT
HETATM    1  N1  UNL     1     -14.238 -38.782  16.634  1.00  0.00    -0.351 N 
ATOM      2  H1  UNL     1     -15.071 -38.761  17.222  1.00  0.00     0.163 HD
HETATM    3  C8  UNL     1     -14.155 -39.783  15.635  1.00  0.00     0.227 C 
HETATM    4  O6  UNL     1     -13.155 -39.871  14.868  1.00  0.00    -0.273 OA
ENDROOT
BRANCH   1   5
HETATM    5  C7  UNL     1     -13.226 -37.797  16.870  1.00  0.00     0.142 C 
HETATM    6  C2  UNL     1     -13.506 -37.169  18.219  1.00  0.00     0.283 C 
HETATM    7  O2  UNL     1     -12.618 -36.169  18.550  1.00  0.00    -0.341 OA
HETATM    8  C3  UNL     1     -11.664 -35.901  17.610  1.00  0.00     0.254 C 
HETATM    9  C5  UNL     1     -12.257 -35.621  16.238  1.00  0.00     0.160 C 
HETATM   10  C6  UNL     1     -13.219 -36.697  15.834  1.00  0.00     0.065 C 
BRANCH   6  11
HETATM   11  O1  UNL     1     -14.822 -36.791  18.266  1.00  0.00    -0.364 OA
HETATM   12  C1  UNL     1     -15.396 -36.877  19.516  1.00  0.00     0.204 C 
ENDBRANCH   6  11
BRANCH   8  13
HETATM   13  C4  UNL     1     -10.910 -34.693  18.023  1.00  0.00     0.205 C 
HETATM   14  O3  UNL     1     -11.172 -34.074  19.085  1.00  0.00    -0.646 OA
HETATM   15  O4  UNL     1      -9.877 -34.202  17.237  1.00  0.00    -0.646 OA
ENDBRANCH   8  13
BRANCH   9  16
HETATM   16  O5  UNL     1     -12.890 -34.362  16.227  1.00  0.00    -0.392 OA
ATOM     17  H5  UNL     1     -13.237 -34.175  15.362  1.00  0.00     0.210 HD
ENDBRANCH   9  16
ENDBRANCH   1   5
BRANCH   3  18
HETATM   18  C9  UNL     1     -15.221 -40.790  15.418  1.00  0.00     0.126 C 
HETATM   19  C10 UNL     1     -16.169 -40.898  16.594  1.00  0.00     0.065 C 
HETATM   20  C11 UNL     1     -16.900 -42.211  16.375  1.00  0.00     0.018 C 
HETATM   21  S1  UNL     1     -17.514 -39.777  16.020  1.00  0.00    -0.154 SA
HETATM   22  C12 UNL     1     -17.728 -42.096  15.147  1.00  0.00     0.021 C 
HETATM   23  C13 UNL     1     -17.451 -40.808  14.451  1.00  0.00     0.081 C 
HETATM   24  C14 UNL     1     -16.000 -40.508  14.190  1.00  0.00    -0.001 C 
HETATM   25  C15 UNL     1     -15.459 -40.850  12.900  1.00  0.00     0.141 C 
BRANCH  25  26
HETATM   26  O7  UNL     1     -15.541 -39.895  11.990  1.00  0.00    -0.346 OA
ATOM     27  H7  UNL     1     -16.257 -39.284  12.114  1.00  0.00     0.219 HD
ENDBRANCH  25  26
BRANCH  25  28
HETATM   28  N2  UNL     1     -14.857 -41.995  12.394  1.00  0.00    -0.370 N 
HETATM   29  C16 UNL     1     -15.464 -43.282  12.347  1.00  0.00     0.151 C 
HETATM   30  C17 UNL     1     -13.483 -41.909  11.857  1.00  0.00     0.151 C 
ENDBRANCH  25  28
ENDBRANCH   3  18
TORSDOF 7
ENDMDL
MODEL 5
REMARK VINA RESULT: -7.573648144      1.091      1.285
REMARK  7 active torsions:
REMARK  status: ('A' for Active; 'I' for Inactive)
REMARK    1  A    between atoms: O1_2  and  C2_3 
REMARK    2  A    between atoms: C3_5  and  C4_6 
REMARK    3  A    between atoms: C5_9  and  O5_10 
REMARK    4  A    between atoms: C7_13  and  N1_14 
REMARK       I    between atoms: N1_14  and  C8_16 
REMARK    5  A    between atoms: C8_16  and  C9_18 
REMARK    6  A    between atoms: C15_25  and  O7_26 
REMARK    7  A    between atoms: C15_25  and  N2_28 
ROOT
HETATM    1  N1  UNL     1     -13.953 -38.898  15.405  1.00  0.00    -0.351 N 
ATOM      2  H1  UNL     1     -14.972 -38.931  15.420  1.00  0.00     0.163 HD
HETATM    3  C8  UNL     1     -13.274 -39.729  14.480  1.00  0.00     0.227 C 
HETATM    4  O6  UNL     1     -12.013 -39.741  14.402  1.00  0.00    -0.273 OA
ENDROOT
BRANCH   1   5
HETATM    5  C7  UNL     1     -13.297 -38.013  16.321  1.00  0.00     0.142 C 
HETATM    6  C2  UNL     1     -14.342 -37.504  17.291  1.00  0.00     0.283 C 
HETATM    7  O2  UNL     1     -13.843 -36.606  18.208  1.00  0.00    -0.341 OA
HETATM    8  C3  UNL     1     -12.515 -36.313  18.076  1.00  0.00     0.254 C 
HETATM    9  C5  UNL     1     -12.154 -35.857  16.670  1.00  0.00     0.160 C 
HETATM   10  C6  UNL     1     -12.668 -36.819  15.642  1.00  0.00     0.065 C 
BRANCH   6  11
HETATM   11  O1  UNL     1     -15.418 -37.043  16.579  1.00  0.00    -0.364 OA
HETATM   12  C1  UNL     1     -16.642 -37.429  17.082  1.00  0.00     0.204 C 
ENDBRANCH   6  11
BRANCH   8  13
HETATM   13  C4  UNL     1     -12.174 -35.206  19.002  1.00  0.00     0.205 C 
HETATM   14  O3  UNL     1     -12.995 -34.298  19.288  1.00  0.00    -0.646 OA
HETATM   15  O4  UNL     1     -10.919 -35.139  19.590  1.00  0.00    -0.646 OA
ENDBRANCH   8  13
BRANCH   9  16
HETATM   16  O5  UNL     1     -12.658 -34.563  16.432  1.00  0.00    -0.392 OA
ATOM     17  H5  UNL     1     -11.982 -34.010  16.058  1.00  0.00     0.210 HD
ENDBRANCH   9  16
ENDBRANCH   1   5
BRANCH   3  18
HETATM   18  C9  UNL     1     -13.984 -40.635  13.546  1.00  0.00     0.126 C 
HETATM   19  C10 UNL     1     -13.370 -40.646  12.163  1.00  0.00     0.065 C 
HETATM   20  C11 UNL     1     -14.434 -41.271  11.278  1.00  0.00     0.018 C 
HETATM   21  S1  UNL     1     -12.283 -42.127  12.311  1.00  0.00    -0.154 SA
HETATM   22  C12 UNL     1     -14.625 -42.686  11.689  1.00  0.00     0.021 C 
HETATM   23  C13 UNL     1     -13.840 -42.980  12.922  1.00  0.00     0.081 C 
HETATM   24  C14 UNL     1     -14.040 -42.022  14.065  1.00  0.00    -0.001 C 
HETATM   25  C15 UNL     1     -14.997 -42.372  15.083  1.00  0.00     0.141 C 
BRANCH  25  26
HETATM   26  O7  UNL     1     -14.504 -43.058  16.098  1.00  0.00    -0.346 OA
ATOM     27  H7  UNL     1     -15.117 -43.225  16.805  1.00  0.00     0.219 HD
ENDBRANCH  25  26
BRANCH  25  28
HETATM   28  N2  UNL     1     -16.359 -42.139  15.229  1.00  0.00    -0.370 N 
HETATM   29  C16 UNL     1     -16.927 -41.076  15.985  1.00  0.00     0.151 C 
HETATM   30  C17 UNL     1     -17.319 -43.044  14.562  1.00  0.00     0.151 C 
ENDBRANCH  25  28
ENDBRANCH   3  18
TORSDOF 7
ENDMDL
