MODEL 1
REMARK VINA RESULT: -9.166033894      0.000      0.000
REMARK  11 active torsions:
REMARK  status: ('A' for Active; 'I' for Inactive)
REMARK    1  A    between atoms: C3_3  and  C4_4 
REMARK    2  A    between atoms: C4_4  and  O1_6 
REMARK    3  A    between atoms: C4_4  and  C6_8 
REMARK    4  A    between atoms: C7_9  and  C8_10 
REMARK    5  A    between atoms: C8_10  and  C9_11 
REMARK    6  A    between atoms: C10_12  and  C11_13 
REMARK    7  A    between atoms: C11_13  and  C12_14 
REMARK    8  A    between atoms: C12_14  and  C13_15 
REMARK    9  A    between atoms: C14_17  and  N1_18 
REMARK   10  A    between atoms: C20_28  and  O5_29 
REMARK   11  A    between atoms: C21_31  and  O6_32 
ROOT
HETATM    1  C1  UNL     1      -9.767 -40.393   9.074  1.00  0.00     0.112 C 
HETATM    2  C2  UNL     1     -10.272 -40.620  10.440  1.00  0.00    -0.107 C 
HETATM    3  C3  UNL     1     -10.694 -40.815  11.554  1.00  0.00    -0.056 C 
ENDROOT
BRANCH   3   4
HETATM    4  C4  UNL     1     -11.205 -41.061  12.909  1.00  0.00     0.181 C 
HETATM    5  C5  UNL     1     -12.555 -41.709  12.779  1.00  0.00     0.075 C 
BRANCH   4   6
HETATM    6  O1  UNL     1     -10.355 -41.949  13.575  1.00  0.00    -0.367 OA
ATOM      7  H1  UNL     1     -10.792 -42.287  14.348  1.00  0.00     0.212 HD
ENDBRANCH   4   6
BRANCH   4   8
HETATM    8  C6  UNL     1     -11.314 -39.819  13.679  1.00  0.00    -0.055 C 
HETATM    9  C7  UNL     1     -11.392 -38.805  14.330  1.00  0.00    -0.099 C 
BRANCH   9  10
HETATM   10  C8  UNL     1     -11.475 -37.587  15.137  1.00  0.00     0.120 C 
BRANCH  10  11
HETATM   11  C9  UNL     1     -12.122 -37.826  16.454  1.00  0.00    -0.019 C 
HETATM   12  C10 UNL     1     -13.008 -37.001  16.961  1.00  0.00    -0.030 C 
BRANCH  12  13
HETATM   13  C11 UNL     1     -13.653 -37.232  18.266  1.00  0.00     0.029 C 
BRANCH  13  14
HETATM   14  C12 UNL     1     -15.162 -37.309  18.152  1.00  0.00     0.038 C 
BRANCH  14  15
HETATM   15  C13 UNL     1     -15.560 -37.676  16.750  1.00  0.00     0.156 C 
HETATM   16  O2  UNL     1     -16.811 -37.233  16.398  1.00  0.00    -0.355 OA
HETATM   17  C14 UNL     1     -17.672 -38.010  17.155  1.00  0.00     0.263 C 
HETATM   18  C20 UNL     1     -17.079 -39.376  17.274  1.00  0.00     0.198 C 
HETATM   19  C21 UNL     1     -15.713 -39.176  16.619  1.00  0.00     0.180 C 
BRANCH  17  20
HETATM   20  N1  UNL     1     -19.011 -38.039  16.587  1.00  0.00    -0.279 N 
HETATM   21  C15 UNL     1     -20.079 -37.811  17.368  1.00  0.00     0.110 A 
HETATM   22  C16 UNL     1     -21.381 -37.830  16.858  1.00  0.00     0.022 A 
HETATM   23  C17 UNL     1     -22.549 -37.572  17.756  1.00  0.00     0.056 C 
HETATM   24  C18 UNL     1     -21.538 -38.092  15.517  1.00  0.00     0.256 A 
HETATM   25  O3  UNL     1     -22.710 -38.115  15.031  1.00  0.00    -0.267 OA
HETATM   26  N2  UNL     1     -20.469 -38.318  14.742  1.00  0.00    -0.275 N 
HETATM   27  C19 UNL     1     -19.226 -38.289  15.280  1.00  0.00     0.331 A 
ATOM     28  H2  UNL     1     -20.591 -38.512  13.748  1.00  0.00     0.173 HD
HETATM   29  O4  UNL     1     -18.221 -38.501  14.558  1.00  0.00    -0.246 OA
ENDBRANCH  17  20
BRANCH  18  30
HETATM   30  O5  UNL     1     -17.811 -40.348  16.599  1.00  0.00    -0.388 OA
ATOM     31  H5  UNL     1     -17.429 -40.587  15.763  1.00  0.00     0.210 HD
ENDBRANCH  18  30
BRANCH  19  32
HETATM   32  O6  UNL     1     -15.818 -39.519  15.258  1.00  0.00    -0.390 OA
ATOM     33  H6  UNL     1     -15.997 -40.449  15.179  1.00  0.00     0.210 HD
ENDBRANCH  19  32
ENDBRANCH  14  15
ENDBRANCH  13  14
ENDBRANCH  12  13
ENDBRANCH  10  11
ENDBRANCH   9  10
ENDBRANCH   4   8
ENDBRANCH   3   4
TORSDOF 11
ENDMDL
MODEL 2
REMARK VINA RESULT: -8.729882287      2.116      3.188
REMARK  11 active torsions:
REMARK  status: ('A' for Active; 'I' for Inactive)
REMARK    1  A    between atoms: C3_3  and  C4_4 
REMARK    2  A    between atoms: C4_4  and  O1_6 
REMARK    3  A    between atoms: C4_4  and  C6_8 
REMARK    4  A    between atoms: C7_9  and  C8_10 
REMARK    5  A    between atoms: C8_10  and  C9_11 
REMARK    6  A    between atoms: C10_12  and  C11_13 
REMARK    7  A    between atoms: C11_13  and  C12_14 
REMARK    8  A    between atoms: C12_14  and  C13_15 
REMARK    9  A    between atoms: C14_17  and  N1_18 
REMARK   10  A    between atoms: C20_28  and  O5_29 
REMARK   11  A    between atoms: C21_31  and  O6_32 
ROOT
HETATM    1  C1  UNL     1     -15.515 -41.050  15.906  1.00  0.00     0.112 C 
HETATM    2  C2  UNL     1     -14.449 -40.198  15.346  1.00  0.00    -0.107 C 
HETATM    3  C3  UNL     1     -13.584 -39.489  14.891  1.00  0.00    -0.056 C 
ENDROOT
BRANCH   3   4
HETATM    4  C4  UNL     1     -12.532 -38.623  14.346  1.00  0.00     0.181 C 
HETATM    5  C5  UNL     1     -11.311 -39.471  14.122  1.00  0.00     0.075 C 
BRANCH   4   6
HETATM    6  O1  UNL     1     -12.942 -38.109  13.111  1.00  0.00    -0.367 OA
ATOM      7  H1  UNL     1     -13.546 -37.390  13.252  1.00  0.00     0.212 HD
ENDBRANCH   4   6
BRANCH   4   8
HETATM    8  C6  UNL     1     -12.217 -37.516  15.254  1.00  0.00    -0.055 C 
HETATM    9  C7  UNL     1     -11.941 -36.600  15.990  1.00  0.00    -0.099 C 
BRANCH   9  10
HETATM   10  C8  UNL     1     -11.586 -35.485  16.869  1.00  0.00     0.120 C 
BRANCH  10  11
HETATM   11  C9  UNL     1     -12.361 -35.497  18.138  1.00  0.00    -0.019 C 
HETATM   12  C10 UNL     1     -13.329 -36.354  18.361  1.00  0.00    -0.030 C 
BRANCH  12  13
HETATM   13  C11 UNL     1     -14.101 -36.372  19.616  1.00  0.00     0.029 C 
BRANCH  13  14
HETATM   14  C12 UNL     1     -15.595 -36.420  19.369  1.00  0.00     0.038 C 
BRANCH  14  15
HETATM   15  C13 UNL     1     -16.002 -37.792  18.909  1.00  0.00     0.156 C 
HETATM   16  O2  UNL     1     -16.770 -37.787  17.771  1.00  0.00    -0.355 OA
HETATM   17  C14 UNL     1     -17.979 -37.248  18.179  1.00  0.00     0.263 C 
HETATM   18  C20 UNL     1     -18.243 -37.709  19.575  1.00  0.00     0.198 C 
HETATM   19  C21 UNL     1     -16.938 -38.429  19.912  1.00  0.00     0.180 C 
BRANCH  17  20
HETATM   20  N1  UNL     1     -19.059 -37.599  17.269  1.00  0.00    -0.279 N 
HETATM   21  C15 UNL     1     -20.337 -37.447  17.650  1.00  0.00     0.110 A 
HETATM   22  C16 UNL     1     -21.401 -37.774  16.804  1.00  0.00     0.022 A 
HETATM   23  C17 UNL     1     -22.814 -37.592  17.259  1.00  0.00     0.056 C 
HETATM   24  C18 UNL     1     -21.096 -38.262  15.554  1.00  0.00     0.256 A 
HETATM   25  O3  UNL     1     -22.045 -38.566  14.768  1.00  0.00    -0.267 OA
HETATM   26  N2  UNL     1     -19.820 -38.412  15.179  1.00  0.00    -0.275 N 
HETATM   27  C19 UNL     1     -18.821 -38.081  16.033  1.00  0.00     0.331 A 
ATOM     28  H2  UNL     1     -19.600 -38.775  14.251  1.00  0.00     0.173 HD
HETATM   29  O4  UNL     1     -17.622 -38.221  15.686  1.00  0.00    -0.246 OA
ENDBRANCH  17  20
BRANCH  18  30
HETATM   30  O5  UNL     1     -19.324 -38.580  19.665  1.00  0.00    -0.388 OA
ATOM     31  H5  UNL     1     -19.248 -39.328  19.084  1.00  0.00     0.210 HD
ENDBRANCH  18  30
BRANCH  19  32
HETATM   32  O6  UNL     1     -17.093 -39.794  19.609  1.00  0.00    -0.390 OA
ATOM     33  H6  UNL     1     -17.872 -40.128  20.037  1.00  0.00     0.210 HD
ENDBRANCH  19  32
ENDBRANCH  14  15
ENDBRANCH  13  14
ENDBRANCH  12  13
ENDBRANCH  10  11
ENDBRANCH   9  10
ENDBRANCH   4   8
ENDBRANCH   3   4
TORSDOF 11
ENDMDL
MODEL 3
REMARK VINA RESULT: -8.664870587      1.412      2.148
REMARK  11 active torsions:
REMARK  status: ('A' for Active; 'I' for Inactive)
REMARK    1  A    between atoms: C3_3  and  C4_4 
REMARK    2  A    between atoms: C4_4  and  O1_6 
REMARK    3  A    between atoms: C4_4  and  C6_8 
REMARK    4  A    between atoms: C7_9  and  C8_10 
REMARK    5  A    between atoms: C8_10  and  C9_11 
REMARK    6  A    between atoms: C10_12  and  C11_13 
REMARK    7  A    between atoms: C11_13  and  C12_14 
REMARK    8  A    between atoms: C12_14  and  C13_15 
REMARK    9  A    between atoms: C14_17  and  N1_18 
REMARK   10  A    between atoms: C20_28  and  O5_29 
REMARK   11  A    between atoms: C21_31  and  O6_32 
ROOT
HETATM    1  C1  UNL     1     -13.751 -44.237  14.386  1.00  0.00     0.112 C 
HETATM    2  C2  UNL     1     -13.602 -42.881  13.826  1.00  0.00    -0.107 C 
HETATM    3  C3  UNL     1     -13.491 -41.766  13.377  1.00  0.00    -0.056 C 
ENDROOT
BRANCH   3   4
HETATM    4  C4  UNL     1     -13.353 -40.408  12.837  1.00  0.00     0.181 C 
HETATM    5  C5  UNL     1     -12.659 -40.511  11.508  1.00  0.00     0.075 C 
BRANCH   4   6
HETATM    6  O1  UNL     1     -14.621 -39.856  12.629  1.00  0.00    -0.367 OA
ATOM      7  H1  UNL     1     -15.034 -40.281  11.887  1.00  0.00     0.212 HD
ENDBRANCH   4   6
BRANCH   4   8
HETATM    8  C6  UNL     1     -12.587 -39.543  13.740  1.00  0.00    -0.055 C 
HETATM    9  C7  UNL     1     -11.953 -38.817  14.466  1.00  0.00    -0.099 C 
BRANCH   9  10
HETATM   10  C8  UNL     1     -11.180 -37.922  15.329  1.00  0.00     0.120 C 
BRANCH  10  11
HETATM   11  C9  UNL     1     -12.047 -37.130  16.240  1.00  0.00    -0.019 C 
HETATM   12  C10 UNL     1     -12.800 -37.690  17.158  1.00  0.00    -0.030 C 
BRANCH  12  13
HETATM   13  C11 UNL     1     -13.661 -36.911  18.064  1.00  0.00     0.029 C 
BRANCH  13  14
HETATM   14  C12 UNL     1     -15.088 -37.420  18.074  1.00  0.00     0.038 C 
BRANCH  14  15
HETATM   15  C13 UNL     1     -15.519 -37.789  16.682  1.00  0.00     0.156 C 
HETATM   16  O2  UNL     1     -16.763 -37.316  16.347  1.00  0.00    -0.355 OA
HETATM   17  C14 UNL     1     -17.632 -38.063  17.125  1.00  0.00     0.263 C 
HETATM   18  C20 UNL     1     -17.073 -39.443  17.247  1.00  0.00     0.198 C 
HETATM   19  C21 UNL     1     -15.714 -39.285  16.568  1.00  0.00     0.180 C 
BRANCH  17  20
HETATM   20  N1  UNL     1     -18.981 -38.061  16.580  1.00  0.00    -0.279 N 
HETATM   21  C15 UNL     1     -20.033 -37.840  17.384  1.00  0.00     0.110 A 
HETATM   22  C16 UNL     1     -21.343 -37.832  16.895  1.00  0.00     0.022 A 
HETATM   23  C17 UNL     1     -22.493 -37.582  17.819  1.00  0.00     0.056 C 
HETATM   24  C18 UNL     1     -21.525 -38.058  15.551  1.00  0.00     0.256 A 
HETATM   25  O3  UNL     1     -22.706 -38.054  15.084  1.00  0.00    -0.267 OA
HETATM   26  N2  UNL     1     -20.473 -38.277  14.753  1.00  0.00    -0.275 N 
HETATM   27  C19 UNL     1     -19.220 -38.276  15.270  1.00  0.00     0.331 A 
ATOM     28  H2  UNL     1     -20.614 -38.444  13.756  1.00  0.00     0.173 HD
HETATM   29  O4  UNL     1     -18.230 -38.482  14.526  1.00  0.00    -0.246 OA
ENDBRANCH  17  20
BRANCH  18  30
HETATM   30  O5  UNL     1     -17.842 -40.401  16.594  1.00  0.00    -0.388 OA
ATOM     31  H5  UNL     1     -17.991 -40.196  15.678  1.00  0.00     0.210 HD
ENDBRANCH  18  30
BRANCH  19  32
HETATM   32  O6  UNL     1     -15.850 -39.638  15.213  1.00  0.00    -0.390 OA
ATOM     33  H6  UNL     1     -16.002 -38.856  14.696  1.00  0.00     0.210 HD
ENDBRANCH  19  32
ENDBRANCH  14  15
ENDBRANCH  13  14
ENDBRANCH  12  13
ENDBRANCH  10  11
ENDBRANCH   9  10
ENDBRANCH   4   8
ENDBRANCH   3   4
TORSDOF 11
ENDMDL
MODEL 4
REMARK VINA RESULT: -8.603338632      1.261      1.579
REMARK  11 active torsions:
REMARK  status: ('A' for Active; 'I' for Inactive)
REMARK    1  A    between atoms: C3_3  and  C4_4 
REMARK    2  A    between atoms: C4_4  and  O1_6 
REMARK    3  A    between atoms: C4_4  and  C6_8 
REMARK    4  A    between atoms: C7_9  and  C8_10 
REMARK    5  A    between atoms: C8_10  and  C9_11 
REMARK    6  A    between atoms: C10_12  and  C11_13 
REMARK    7  A    between atoms: C11_13  and  C12_14 
REMARK    8  A    between atoms: C12_14  and  C13_15 
REMARK    9  A    between atoms: C14_17  and  N1_18 
REMARK   10  A    between atoms: C20_28  and  O5_29 
REMARK   11  A    between atoms: C21_31  and  O6_32 
ROOT
HETATM    1  C1  UNL     1      -9.738 -39.997   9.178  1.00  0.00     0.112 C 
HETATM    2  C2  UNL     1     -10.286 -40.337  10.503  1.00  0.00    -0.107 C 
HETATM    3  C3  UNL     1     -10.729 -40.627  11.589  1.00  0.00    -0.056 C 
ENDROOT
BRANCH   3   4
HETATM    4  C4  UNL     1     -11.260 -40.982  12.911  1.00  0.00     0.181 C 
HETATM    5  C5  UNL     1     -12.535 -41.750  12.702  1.00  0.00     0.075 C 
BRANCH   4   6
HETATM    6  O1  UNL     1     -10.350 -41.813  13.572  1.00  0.00    -0.367 OA
ATOM      7  H1  UNL     1     -10.743 -42.141  14.372  1.00  0.00     0.212 HD
ENDBRANCH   4   6
BRANCH   4   8
HETATM    8  C6  UNL     1     -11.516 -39.792  13.727  1.00  0.00    -0.055 C 
HETATM    9  C7  UNL     1     -11.706 -38.806  14.397  1.00  0.00    -0.099 C 
BRANCH   9  10
HETATM   10  C8  UNL     1     -11.913 -37.603  15.205  1.00  0.00     0.120 C 
BRANCH  10  11
HETATM   11  C9  UNL     1     -12.662 -37.887  16.458  1.00  0.00    -0.019 C 
HETATM   12  C10 UNL     1     -12.970 -36.948  17.321  1.00  0.00    -0.030 C 
BRANCH  12  13
HETATM   13  C11 UNL     1     -13.711 -37.223  18.564  1.00  0.00     0.029 C 
BRANCH  13  14
HETATM   14  C12 UNL     1     -15.188 -36.914  18.431  1.00  0.00     0.038 C 
BRANCH  14  15
HETATM   15  C13 UNL     1     -15.992 -38.182  18.497  1.00  0.00     0.156 C 
HETATM   16  O2  UNL     1     -16.851 -38.345  17.439  1.00  0.00    -0.355 OA
HETATM   17  C14 UNL     1     -17.822 -37.377  17.635  1.00  0.00     0.263 C 
HETATM   18  C20 UNL     1     -18.044 -37.236  19.106  1.00  0.00     0.198 C 
HETATM   19  C21 UNL     1     -16.948 -38.140  19.670  1.00  0.00     0.180 C 
BRANCH  17  20
HETATM   20  N1  UNL     1     -19.049 -37.692  16.921  1.00  0.00    -0.279 N 
HETATM   21  C15 UNL     1     -20.240 -37.500  17.510  1.00  0.00     0.110 A 
HETATM   22  C16 UNL     1     -21.441 -37.792  16.855  1.00  0.00     0.022 A 
HETATM   23  C17 UNL     1     -22.751 -37.567  17.541  1.00  0.00     0.056 C 
HETATM   24  C18 UNL     1     -21.365 -38.286  15.574  1.00  0.00     0.256 A 
HETATM   25  O3  UNL     1     -22.442 -38.558  14.959  1.00  0.00    -0.267 OA
HETATM   26  N2  UNL     1     -20.175 -38.475  14.990  1.00  0.00    -0.275 N 
HETATM   27  C19 UNL     1     -19.037 -38.178  15.664  1.00  0.00     0.331 A 
ATOM     28  H2  UNL     1     -20.125 -38.841  14.039  1.00  0.00     0.173 HD
HETATM   29  O4  UNL     1     -17.919 -38.354  15.121  1.00  0.00    -0.246 OA
ENDBRANCH  17  20
BRANCH  18  30
HETATM   30  O5  UNL     1     -19.301 -37.675  19.511  1.00  0.00    -0.388 OA
ATOM     31  H5  UNL     1     -19.984 -37.031  19.364  1.00  0.00     0.210 HD
ENDBRANCH  18  30
BRANCH  19  32
HETATM   32  O6  UNL     1     -17.492 -39.421  19.877  1.00  0.00    -0.390 OA
ATOM     33  H6  UNL     1     -17.341 -39.958  19.108  1.00  0.00     0.210 HD
ENDBRANCH  19  32
ENDBRANCH  14  15
ENDBRANCH  13  14
ENDBRANCH  12  13
ENDBRANCH  10  11
ENDBRANCH   9  10
ENDBRANCH   4   8
ENDBRANCH   3   4
TORSDOF 11
ENDMDL
MODEL 5
REMARK VINA RESULT: -8.555083376      1.937      2.946
REMARK  11 active torsions:
REMARK  status: ('A' for Active; 'I' for Inactive)
REMARK    1  A    between atoms: C3_3  and  C4_4 
REMARK    2  A    between atoms: C4_4  and  O1_6 
REMARK    3  A    between atoms: C4_4  and  C6_8 
REMARK    4  A    between atoms: C7_9  and  C8_10 
REMARK    5  A    between atoms: C8_10  and  C9_11 
REMARK    6  A    between atoms: C10_12  and  C11_13 
REMARK    7  A    between atoms: C11_13  and  C12_14 
REMARK    8  A    between atoms: C12_14  and  C13_15 
REMARK    9  A    between atoms: C14_17  and  N1_18 
REMARK   10  A    between atoms: C20_28  and  O5_29 
REMARK   11  A    between atoms: C21_31  and  O6_32 
ROOT
HETATM    1  C1  UNL     1     -15.031 -44.129  14.594  1.00  0.00     0.112 C 
HETATM    2  C2  UNL     1     -14.698 -42.892  13.864  1.00  0.00    -0.107 C 
HETATM    3  C3  UNL     1     -14.418 -41.875  13.277  1.00  0.00    -0.056 C 
ENDROOT
BRANCH   3   4
HETATM    4  C4  UNL     1     -14.069 -40.639  12.564  1.00  0.00     0.181 C 
HETATM    5  C5  UNL     1     -13.566 -41.023  11.200  1.00  0.00     0.075 C 
BRANCH   4   6
HETATM    6  O1  UNL     1     -15.214 -39.853  12.404  1.00  0.00    -0.367 OA
ATOM      7  H1  UNL     1     -15.201 -39.141  13.032  1.00  0.00     0.212 HD
ENDBRANCH   4   6
BRANCH   4   8
HETATM    8  C6  UNL     1     -13.047 -39.872  13.281  1.00  0.00    -0.055 C 
HETATM    9  C7  UNL     1     -12.206 -39.225  13.856  1.00  0.00    -0.099 C 
BRANCH   9  10
HETATM   10  C8  UNL     1     -11.187 -38.423  14.535  1.00  0.00     0.120 C 
BRANCH  10  11
HETATM   11  C9  UNL     1     -11.627 -37.977  15.884  1.00  0.00    -0.019 C 
HETATM   12  C10 UNL     1     -12.740 -37.309  16.074  1.00  0.00    -0.030 C 
BRANCH  12  13
HETATM   13  C11 UNL     1     -13.182 -36.863  17.408  1.00  0.00     0.029 C 
BRANCH  13  14
HETATM   14  C12 UNL     1     -14.530 -37.441  17.786  1.00  0.00     0.038 C 
BRANCH  14  15
HETATM   15  C13 UNL     1     -15.351 -37.697  16.553  1.00  0.00     0.156 C 
HETATM   16  O2  UNL     1     -16.626 -37.194  16.626  1.00  0.00    -0.355 OA
HETATM   17  C14 UNL     1     -17.255 -37.996  17.564  1.00  0.00     0.263 C 
HETATM   18  C20 UNL     1     -16.722 -39.384  17.417  1.00  0.00     0.198 C 
HETATM   19  C21 UNL     1     -15.610 -39.178  16.389  1.00  0.00     0.180 C 
BRANCH  17  20
HETATM   20  N1  UNL     1     -18.703 -37.945  17.431  1.00  0.00    -0.279 N 
HETATM   21  C15 UNL     1     -19.272 -38.028  16.218  1.00  0.00     0.110 A 
HETATM   22  C16 UNL     1     -20.659 -37.983  16.051  1.00  0.00     0.022 A 
HETATM   23  C17 UNL     1     -21.260 -38.078  14.684  1.00  0.00     0.056 C 
HETATM   24  C18 UNL     1     -21.434 -37.850  17.179  1.00  0.00     0.256 A 
HETATM   25  O3  UNL     1     -22.697 -37.807  17.053  1.00  0.00    -0.267 OA
HETATM   26  N2  UNL     1     -20.863 -37.768  18.387  1.00  0.00    -0.275 N 
HETATM   27  C19 UNL     1     -19.513 -37.817  18.501  1.00  0.00     0.331 A 
ATOM     28  H2  UNL     1     -21.443 -37.670  19.221  1.00  0.00     0.173 HD
HETATM   29  O4  UNL     1     -18.972 -37.740  19.631  1.00  0.00    -0.246 OA
ENDBRANCH  17  20
BRANCH  18  30
HETATM   30  O5  UNL     1     -17.671 -40.284  16.942  1.00  0.00    -0.388 OA
ATOM     31  H5  UNL     1     -17.735 -41.070  17.472  1.00  0.00     0.210 HD
ENDBRANCH  18  30
BRANCH  19  32
HETATM   32  O6  UNL     1     -16.139 -39.423  15.108  1.00  0.00    -0.390 OA
ATOM     33  H6  UNL     1     -16.236 -40.359  14.979  1.00  0.00     0.210 HD
ENDBRANCH  19  32
ENDBRANCH  14  15
ENDBRANCH  13  14
ENDBRANCH  12  13
ENDBRANCH  10  11
ENDBRANCH   9  10
ENDBRANCH   4   8
ENDBRANCH   3   4
TORSDOF 11
ENDMDL
