MODEL 1
REMARK VINA RESULT: -7.370751475      0.000      0.000
REMARK  11 active torsions:
REMARK  status: ('A' for Active; 'I' for Inactive)
REMARK    1  A    between atoms: C3_3  and  O1_4 
REMARK    2  A    between atoms: C10_13  and  O4_14 
REMARK    3  A    between atoms: C11_16  and  O5_17 
REMARK    4  A    between atoms: C12_19  and  O6_20 
REMARK    5  A    between atoms: C13_22  and  C14_23 
REMARK    6  A    between atoms: C15_24  and  C16_25 
REMARK    7  A    between atoms: C16_25  and  C17_26 
REMARK    8  A    between atoms: C17_26  and  C18_27 
REMARK    9  A    between atoms: C18_27  and  C19_28 
REMARK   10  A    between atoms: C19_28  and  C20_29 
REMARK   11  A    between atoms: C22_31  and  O7_32 
ROOT
HETATM    1  C1  UNL     1     -13.222 -42.692  12.707  1.00  0.00     0.019 C 
HETATM    2  C2  UNL     1     -13.905 -42.241  13.746  1.00  0.00    -0.030 C 
HETATM    3  C3  UNL     1     -13.750 -40.794  14.062  1.00  0.00     0.164 C 
HETATM    4  C5  UNL     1     -15.131 -40.158  14.290  1.00  0.00     0.115 C 
HETATM    5  C6  UNL     1     -15.994 -40.630  13.208  1.00  0.00     0.204 C 
HETATM    6  O2  UNL     1     -16.320 -39.954  12.195  1.00  0.00    -0.289 OA
HETATM    7  C7  UNL     1     -16.523 -42.007  13.323  1.00  0.00     0.210 C 
HETATM    8  O3  UNL     1     -17.211 -42.540  12.438  1.00  0.00    -0.288 OA
HETATM    9  C8  UNL     1     -16.154 -42.707  14.605  1.00  0.00     0.095 C 
HETATM   10  C9  UNL     1     -17.162 -43.783  14.872  1.00  0.00     0.058 C 
HETATM   11  C10 UNL     1     -18.345 -43.024  15.420  1.00  0.00     0.151 C 
HETATM   12  C11 UNL     1     -17.848 -41.661  15.836  1.00  0.00     0.183 C 
HETATM   13  C12 UNL     1     -16.373 -41.770  15.774  1.00  0.00     0.119 C 
HETATM   14  C13 UNL     1     -15.618 -40.497  15.673  1.00  0.00     0.117 C 
HETATM   15  C22 UNL     1     -14.754 -43.207  14.495  1.00  0.00     0.168 C 
ENDROOT
BRANCH  14  16
HETATM   16  C14 UNL     1     -16.363 -39.342  16.234  1.00  0.00    -0.098 C 
HETATM   17  C15 UNL     1     -16.950 -38.394  16.694  1.00  0.00    -0.106 C 
BRANCH  17  18
HETATM   18  C16 UNL     1     -17.641 -37.230  17.252  1.00  0.00     0.094 C 
BRANCH  18  19
HETATM   19  C17 UNL     1     -18.931 -37.673  17.855  1.00  0.00     0.012 C 
BRANCH  19  20
HETATM   20  C18 UNL     1     -20.048 -37.783  16.856  1.00  0.00     0.001 C 
BRANCH  20  21
HETATM   21  C19 UNL     1     -21.405 -37.603  17.478  1.00  0.00    -0.000 C 
BRANCH  21  22
HETATM   22  C20 UNL     1     -22.443 -37.942  16.404  1.00  0.00    -0.005 C 
HETATM   23  C21 UNL     1     -21.718 -38.283  15.121  1.00  0.00     0.005 C 
ENDBRANCH  21  22
ENDBRANCH  20  21
ENDBRANCH  19  20
ENDBRANCH  18  19
ENDBRANCH  17  18
ENDBRANCH  14  16
BRANCH  13  24
HETATM   24  O6  UNL     1     -15.968 -42.497  16.922  1.00  0.00    -0.384 OA
ATOM     25  H6  UNL     1     -15.254 -41.998  17.298  1.00  0.00     0.210 HD
ENDBRANCH  13  24
BRANCH   3  26
HETATM   26  O1  UNL     1     -13.088 -40.149  13.016  1.00  0.00    -0.385 OA
HETATM   27  C4  UNL     1     -12.620 -38.934  13.517  1.00  0.00     0.202 C 
ENDBRANCH   3  26
BRANCH  12  28
HETATM   28  O5  UNL     1     -18.420 -40.636  15.136  1.00  0.00    -0.390 OA
ATOM     29  H5  UNL     1     -19.170 -40.251  15.573  1.00  0.00     0.210 HD
ENDBRANCH  12  28
BRANCH  15  30
HETATM   30  O7  UNL     1     -14.130 -43.415  15.727  1.00  0.00    -0.390 OA
ATOM     31  H7  UNL     1     -13.908 -42.556  16.067  1.00  0.00     0.210 HD
ENDBRANCH  15  30
BRANCH  11  32
HETATM   32  O4  UNL     1     -18.875 -43.730  16.494  1.00  0.00    -0.393 OA
ATOM     33  H4  UNL     1     -18.659 -43.274  17.299  1.00  0.00     0.210 HD
ENDBRANCH  11  32
TORSDOF 11
ENDMDL
MODEL 2
REMARK VINA RESULT: -6.872853436      1.734      2.563
REMARK  11 active torsions:
REMARK  status: ('A' for Active; 'I' for Inactive)
REMARK    1  A    between atoms: C3_3  and  O1_4 
REMARK    2  A    between atoms: C10_13  and  O4_14 
REMARK    3  A    between atoms: C11_16  and  O5_17 
REMARK    4  A    between atoms: C12_19  and  O6_20 
REMARK    5  A    between atoms: C13_22  and  C14_23 
REMARK    6  A    between atoms: C15_24  and  C16_25 
REMARK    7  A    between atoms: C16_25  and  C17_26 
REMARK    8  A    between atoms: C17_26  and  C18_27 
REMARK    9  A    between atoms: C18_27  and  C19_28 
REMARK   10  A    between atoms: C19_28  and  C20_29 
REMARK   11  A    between atoms: C22_31  and  O7_32 
ROOT
HETATM    1  C1  UNL     1     -16.324 -43.176  10.769  1.00  0.00     0.019 C 
HETATM    2  C2  UNL     1     -16.077 -42.631  11.949  1.00  0.00    -0.030 C 
HETATM    3  C3  UNL     1     -16.599 -41.254  12.164  1.00  0.00     0.164 C 
HETATM    4  C5  UNL     1     -17.318 -41.172  13.519  1.00  0.00     0.115 C 
HETATM    5  C6  UNL     1     -18.177 -42.352  13.610  1.00  0.00     0.204 C 
HETATM    6  O2  UNL     1     -19.426 -42.355  13.427  1.00  0.00    -0.289 OA
HETATM    7  C7  UNL     1     -17.523 -43.635  13.946  1.00  0.00     0.210 C 
HETATM    8  O3  UNL     1     -18.136 -44.714  13.987  1.00  0.00    -0.288 OA
HETATM    9  C8  UNL     1     -16.049 -43.522  14.233  1.00  0.00     0.095 C 
HETATM   10  C9  UNL     1     -15.635 -44.680  15.089  1.00  0.00     0.058 C 
HETATM   11  C10 UNL     1     -16.113 -44.286  16.465  1.00  0.00     0.151 C 
HETATM   12  C11 UNL     1     -16.383 -42.801  16.436  1.00  0.00     0.183 C 
HETATM   13  C12 UNL     1     -15.801 -42.345  15.154  1.00  0.00     0.119 C 
HETATM   14  C13 UNL     1     -16.301 -41.053  14.622  1.00  0.00     0.117 C 
HETATM   15  C22 UNL     1     -15.311 -43.434  12.941  1.00  0.00     0.168 C 
ENDROOT
BRANCH  14  16
HETATM   16  C14 UNL     1     -16.824 -40.159  15.686  1.00  0.00    -0.098 C 
HETATM   17  C15 UNL     1     -17.237 -39.443  16.565  1.00  0.00    -0.106 C 
BRANCH  17  18
HETATM   18  C16 UNL     1     -17.720 -38.583  17.647  1.00  0.00     0.094 C 
BRANCH  18  19
HETATM   19  C17 UNL     1     -18.531 -37.476  17.062  1.00  0.00     0.012 C 
BRANCH  19  20
HETATM   20  C18 UNL     1     -19.849 -37.935  16.504  1.00  0.00     0.001 C 
BRANCH  20  21
HETATM   21  C19 UNL     1     -21.010 -37.591  17.395  1.00  0.00    -0.000 C 
BRANCH  21  22
HETATM   22  C20 UNL     1     -22.289 -37.889  16.608  1.00  0.00    -0.005 C 
HETATM   23  C21 UNL     1     -21.906 -38.316  15.207  1.00  0.00     0.005 C 
ENDBRANCH  21  22
ENDBRANCH  20  21
ENDBRANCH  19  20
ENDBRANCH  18  19
ENDBRANCH  17  18
ENDBRANCH  14  16
BRANCH  13  24
HETATM   24  O6  UNL     1     -14.397 -42.296  15.336  1.00  0.00    -0.384 OA
ATOM     25  H6  UNL     1     -14.265 -41.896  16.187  1.00  0.00     0.210 HD
ENDBRANCH  13  24
BRANCH   3  26
HETATM   26  O1  UNL     1     -17.474 -40.912  11.131  1.00  0.00    -0.385 OA
HETATM   27  C4  UNL     1     -17.223 -39.578  10.809  1.00  0.00     0.202 C 
ENDBRANCH   3  26
BRANCH  12  28
HETATM   28  O5  UNL     1     -17.691 -42.481  16.668  1.00  0.00    -0.390 OA
ATOM     29  H5  UNL     1     -17.810 -41.604  17.013  1.00  0.00     0.210 HD
ENDBRANCH  12  28
BRANCH  15  30
HETATM   30  O7  UNL     1     -14.053 -42.840  13.048  1.00  0.00    -0.390 OA
ATOM     31  H7  UNL     1     -13.690 -43.119  13.881  1.00  0.00     0.210 HD
ENDBRANCH  15  30
BRANCH  11  32
HETATM   32  O4  UNL     1     -15.133 -44.614  17.394  1.00  0.00    -0.393 OA
ATOM     33  H4  UNL     1     -15.513 -45.181  18.055  1.00  0.00     0.210 HD
ENDBRANCH  11  32
TORSDOF 11
ENDMDL
MODEL 3
REMARK VINA RESULT: -6.831680470      1.241      4.089
REMARK  11 active torsions:
REMARK  status: ('A' for Active; 'I' for Inactive)
REMARK    1  A    between atoms: C3_3  and  O1_4 
REMARK    2  A    between atoms: C10_13  and  O4_14 
REMARK    3  A    between atoms: C11_16  and  O5_17 
REMARK    4  A    between atoms: C12_19  and  O6_20 
REMARK    5  A    between atoms: C13_22  and  C14_23 
REMARK    6  A    between atoms: C15_24  and  C16_25 
REMARK    7  A    between atoms: C16_25  and  C17_26 
REMARK    8  A    between atoms: C17_26  and  C18_27 
REMARK    9  A    between atoms: C18_27  and  C19_28 
REMARK   10  A    between atoms: C19_28  and  C20_29 
REMARK   11  A    between atoms: C22_31  and  O7_32 
ROOT
HETATM    1  C1  UNL     1     -16.983 -44.907  13.147  1.00  0.00     0.019 C 
HETATM    2  C2  UNL     1     -16.979 -43.646  13.548  1.00  0.00    -0.030 C 
HETATM    3  C3  UNL     1     -17.768 -43.340  14.773  1.00  0.00     0.164 C 
HETATM    4  C5  UNL     1     -16.928 -42.486  15.736  1.00  0.00     0.115 C 
HETATM    5  C6  UNL     1     -15.604 -43.101  15.797  1.00  0.00     0.204 C 
HETATM    6  O2  UNL     1     -15.183 -43.821  16.744  1.00  0.00    -0.289 OA
HETATM    7  C7  UNL     1     -14.694 -42.853  14.658  1.00  0.00     0.210 C 
HETATM    8  O3  UNL     1     -13.571 -43.375  14.567  1.00  0.00    -0.288 OA
HETATM    9  C8  UNL     1     -15.245 -41.914  13.618  1.00  0.00     0.095 C 
HETATM   10  C9  UNL     1     -14.101 -41.298  12.872  1.00  0.00     0.058 C 
HETATM   11  C10 UNL     1     -13.599 -40.236  13.818  1.00  0.00     0.151 C 
HETATM   12  C11 UNL     1     -14.684 -39.996  14.839  1.00  0.00     0.183 C 
HETATM   13  C12 UNL     1     -15.863 -40.711  14.299  1.00  0.00     0.119 C 
HETATM   14  C13 UNL     1     -16.932 -41.054  15.270  1.00  0.00     0.117 C 
HETATM   15  C22 UNL     1     -16.198 -42.662  12.750  1.00  0.00     0.168 C 
ENDROOT
BRANCH  14  16
HETATM   16  C14 UNL     1     -16.949 -40.149  16.447  1.00  0.00    -0.098 C 
HETATM   17  C15 UNL     1     -16.976 -39.400  17.393  1.00  0.00    -0.106 C 
BRANCH  17  18
HETATM   18  C16 UNL     1     -17.028 -38.479  18.529  1.00  0.00     0.094 C 
BRANCH  18  19
HETATM   19  C17 UNL     1     -17.928 -37.339  18.189  1.00  0.00     0.012 C 
BRANCH  19  20
HETATM   20  C18 UNL     1     -19.388 -37.674  18.313  1.00  0.00     0.001 C 
BRANCH  20  21
HETATM   21  C19 UNL     1     -20.106 -37.650  16.993  1.00  0.00    -0.000 C 
BRANCH  21  22
HETATM   22  C20 UNL     1     -21.606 -37.695  17.293  1.00  0.00    -0.005 C 
HETATM   23  C21 UNL     1     -22.339 -38.112  16.036  1.00  0.00     0.005 C 
ENDBRANCH  21  22
ENDBRANCH  20  21
ENDBRANCH  19  20
ENDBRANCH  18  19
ENDBRANCH  17  18
ENDBRANCH  14  16
BRANCH  13  24
HETATM   24  O6  UNL     1     -16.384 -39.909  13.253  1.00  0.00    -0.384 OA
ATOM     25  H6  UNL     1     -17.293 -39.757  13.479  1.00  0.00     0.210 HD
ENDBRANCH  13  24
BRANCH   3  26
HETATM   26  O1  UNL     1     -18.157 -44.527  15.395  1.00  0.00    -0.385 OA
HETATM   27  C4  UNL     1     -18.676 -44.183  16.643  1.00  0.00     0.202 C 
ENDBRANCH   3  26
BRANCH  12  28
HETATM   28  O5  UNL     1     -14.309 -40.305  16.116  1.00  0.00    -0.390 OA
ATOM     29  H5  UNL     1     -13.687 -41.022  16.165  1.00  0.00     0.210 HD
ENDBRANCH  12  28
BRANCH  15  30
HETATM   30  O7  UNL     1     -17.127 -41.849  12.099  1.00  0.00    -0.390 OA
ATOM     31  H7  UNL     1     -17.602 -41.383  12.777  1.00  0.00     0.210 HD
ENDBRANCH  15  30
BRANCH  11  32
HETATM   32  O4  UNL     1     -13.309 -39.086  13.093  1.00  0.00    -0.393 OA
ATOM     33  H4  UNL     1     -13.081 -38.390  13.698  1.00  0.00     0.210 HD
ENDBRANCH  11  32
TORSDOF 11
ENDMDL
MODEL 4
REMARK VINA RESULT: -6.669482603      0.872      1.021
REMARK  11 active torsions:
REMARK  status: ('A' for Active; 'I' for Inactive)
REMARK    1  A    between atoms: C3_3  and  O1_4 
REMARK    2  A    between atoms: C10_13  and  O4_14 
REMARK    3  A    between atoms: C11_16  and  O5_17 
REMARK    4  A    between atoms: C12_19  and  O6_20 
REMARK    5  A    between atoms: C13_22  and  C14_23 
REMARK    6  A    between atoms: C15_24  and  C16_25 
REMARK    7  A    between atoms: C16_25  and  C17_26 
REMARK    8  A    between atoms: C17_26  and  C18_27 
REMARK    9  A    between atoms: C18_27  and  C19_28 
REMARK   10  A    between atoms: C19_28  and  C20_29 
REMARK   11  A    between atoms: C22_31  and  O7_32 
ROOT
HETATM    1  C1  UNL     1     -12.934 -42.351  11.684  1.00  0.00     0.019 C 
HETATM    2  C2  UNL     1     -13.428 -42.097  12.885  1.00  0.00    -0.030 C 
HETATM    3  C3  UNL     1     -13.331 -40.687  13.354  1.00  0.00     0.164 C 
HETATM    4  C5  UNL     1     -14.684 -40.231  13.923  1.00  0.00     0.115 C 
HETATM    5  C6  UNL     1     -15.707 -40.665  12.972  1.00  0.00     0.204 C 
HETATM    6  O2  UNL     1     -16.285 -39.916  12.138  1.00  0.00    -0.289 OA
HETATM    7  C7  UNL     1     -16.087 -42.094  13.002  1.00  0.00     0.210 C 
HETATM    8  O3  UNL     1     -16.894 -42.593  12.201  1.00  0.00    -0.288 OA
HETATM    9  C8  UNL     1     -15.411 -42.893  14.085  1.00  0.00     0.095 C 
HETATM   10  C9  UNL     1     -16.254 -44.093  14.394  1.00  0.00     0.058 C 
HETATM   11  C10 UNL     1     -17.360 -43.531  15.254  1.00  0.00     0.151 C 
HETATM   12  C11 UNL     1     -16.902 -42.179  15.745  1.00  0.00     0.183 C 
HETATM   13  C12 UNL     1     -15.466 -42.124  15.389  1.00  0.00     0.119 C 
HETATM   14  C13 UNL     1     -14.852 -40.775  15.316  1.00  0.00     0.117 C 
HETATM   15  C22 UNL     1     -14.027 -43.226  13.647  1.00  0.00     0.168 C 
ENDROOT
BRANCH  14  16
HETATM   16  C14 UNL     1     -15.560 -39.777  16.156  1.00  0.00    -0.098 C 
HETATM   17  C15 UNL     1     -16.125 -38.950  16.830  1.00  0.00    -0.106 C 
BRANCH  17  18
HETATM   18  C16 UNL     1     -16.801 -37.928  17.631  1.00  0.00     0.094 C 
BRANCH  18  19
HETATM   19  C17 UNL     1     -17.832 -37.255  16.789  1.00  0.00     0.012 C 
BRANCH  19  20
HETATM   20  C18 UNL     1     -19.116 -38.028  16.688  1.00  0.00     0.001 C 
BRANCH  20  21
HETATM   21  C19 UNL     1     -20.110 -37.648  17.751  1.00  0.00    -0.000 C 
BRANCH  21  22
HETATM   22  C20 UNL     1     -21.495 -37.655  17.099  1.00  0.00    -0.005 C 
HETATM   23  C21 UNL     1     -21.358 -38.154  15.677  1.00  0.00     0.005 C 
ENDBRANCH  21  22
ENDBRANCH  20  21
ENDBRANCH  19  20
ENDBRANCH  18  19
ENDBRANCH  17  18
ENDBRANCH  14  16
BRANCH  13  24
HETATM   24  O6  UNL     1     -14.780 -42.930  16.332  1.00  0.00    -0.384 OA
ATOM     25  H6  UNL     1     -14.084 -42.382  16.675  1.00  0.00     0.210 HD
ENDBRANCH  13  24
BRANCH   3  26
HETATM   26  O1  UNL     1     -12.948 -39.861  12.297  1.00  0.00    -0.385 OA
HETATM   27  C4  UNL     1     -11.990 -38.978  12.794  1.00  0.00     0.202 C 
ENDBRANCH   3  26
BRANCH  12  28
HETATM   28  O5  UNL     1     -17.684 -41.148  15.308  1.00  0.00    -0.390 OA
ATOM     29  H5  UNL     1     -17.256 -40.594  14.666  1.00  0.00     0.210 HD
ENDBRANCH  12  28
BRANCH  15  30
HETATM   30  O7  UNL     1     -13.153 -43.506  14.698  1.00  0.00    -0.390 OA
ATOM     31  H7  UNL     1     -12.915 -44.422  14.618  1.00  0.00     0.210 HD
ENDBRANCH  15  30
BRANCH  11  32
HETATM   32  O4  UNL     1     -17.603 -44.407  16.305  1.00  0.00    -0.393 OA
ATOM     33  H4  UNL     1     -17.613 -43.916  17.119  1.00  0.00     0.210 HD
ENDBRANCH  11  32
TORSDOF 11
ENDMDL
MODEL 5
REMARK VINA RESULT: -6.600358346      1.098      2.044
REMARK  11 active torsions:
REMARK  status: ('A' for Active; 'I' for Inactive)
REMARK    1  A    between atoms: C3_3  and  O1_4 
REMARK    2  A    between atoms: C10_13  and  O4_14 
REMARK    3  A    between atoms: C11_16  and  O5_17 
REMARK    4  A    between atoms: C12_19  and  O6_20 
REMARK    5  A    between atoms: C13_22  and  C14_23 
REMARK    6  A    between atoms: C15_24  and  C16_25 
REMARK    7  A    between atoms: C16_25  and  C17_26 
REMARK    8  A    between atoms: C17_26  and  C18_27 
REMARK    9  A    between atoms: C18_27  and  C19_28 
REMARK   10  A    between atoms: C19_28  and  C20_29 
REMARK   11  A    between atoms: C22_31  and  O7_32 
ROOT
HETATM    1  C1  UNL     1     -13.310 -42.337  13.223  1.00  0.00     0.019 C 
HETATM    2  C2  UNL     1     -14.270 -41.957  14.051  1.00  0.00    -0.030 C 
HETATM    3  C3  UNL     1     -14.645 -40.517  14.010  1.00  0.00     0.164 C 
HETATM    4  C5  UNL     1     -16.175 -40.378  13.946  1.00  0.00     0.115 C 
HETATM    5  C6  UNL     1     -16.642 -41.332  12.942  1.00  0.00     0.204 C 
HETATM    6  O2  UNL     1     -16.990 -41.033  11.766  1.00  0.00    -0.289 OA
HETATM    7  C7  UNL     1     -16.710 -42.753  13.345  1.00  0.00     0.210 C 
HETATM    8  O3  UNL     1     -17.027 -43.662  12.561  1.00  0.00    -0.288 OA
HETATM    9  C8  UNL     1     -16.360 -43.005  14.789  1.00  0.00     0.095 C 
HETATM   10  C9  UNL     1     -16.998 -44.290  15.221  1.00  0.00     0.058 C 
HETATM   11  C10 UNL     1     -18.438 -43.903  15.454  1.00  0.00     0.151 C 
HETATM   12  C11 UNL     1     -18.486 -42.399  15.562  1.00  0.00     0.183 C 
HETATM   13  C12 UNL     1     -17.066 -41.990  15.664  1.00  0.00     0.119 C 
HETATM   14  C13 UNL     1     -16.756 -40.581  15.320  1.00  0.00     0.117 C 
HETATM   15  C22 UNL     1     -14.877 -42.989  14.935  1.00  0.00     0.168 C 
ENDROOT
BRANCH  14  16
HETATM   16  C14 UNL     1     -17.917 -39.676  15.507  1.00  0.00    -0.098 C 
HETATM   17  C15 UNL     1     -18.865 -38.941  15.637  1.00  0.00    -0.106 C 
BRANCH  17  18
HETATM   18  C16 UNL     1     -20.023 -38.054  15.771  1.00  0.00     0.094 C 
BRANCH  18  19
HETATM   19  C17 UNL     1     -20.260 -37.781  17.218  1.00  0.00     0.012 C 
BRANCH  19  20
HETATM   20  C18 UNL     1     -19.030 -37.316  17.946  1.00  0.00     0.001 C 
BRANCH  20  21
HETATM   21  C19 UNL     1     -18.877 -37.957  19.298  1.00  0.00    -0.000 C 
BRANCH  21  22
HETATM   22  C20 UNL     1     -17.388 -38.255  19.491  1.00  0.00    -0.005 C 
HETATM   23  C21 UNL     1     -16.613 -37.593  18.372  1.00  0.00     0.005 C 
ENDBRANCH  21  22
ENDBRANCH  20  21
ENDBRANCH  19  20
ENDBRANCH  18  19
ENDBRANCH  17  18
ENDBRANCH  14  16
BRANCH  13  24
HETATM   24  O6  UNL     1     -16.651 -42.280  16.988  1.00  0.00    -0.384 OA
ATOM     25  H6  UNL     1     -16.679 -41.451  17.450  1.00  0.00     0.210 HD
ENDBRANCH  13  24
BRANCH   3  26
HETATM   26  O1  UNL     1     -14.058 -39.905  12.903  1.00  0.00    -0.385 OA
HETATM   27  C4  UNL     1     -13.003 -39.125  13.379  1.00  0.00     0.202 C 
ENDBRANCH   3  26
BRANCH  12  28
HETATM   28  O5  UNL     1     -19.228 -41.805  14.581  1.00  0.00    -0.390 OA
ATOM     29  H5  UNL     1     -19.508 -42.407  13.901  1.00  0.00     0.210 HD
ENDBRANCH  12  28
BRANCH  15  30
HETATM   30  O7  UNL     1     -14.440 -42.710  16.231  1.00  0.00    -0.390 OA
ATOM     31  H7  UNL     1     -14.551 -43.510  16.733  1.00  0.00     0.210 HD
ENDBRANCH  15  30
BRANCH  11  32
HETATM   32  O4  UNL     1     -18.887 -44.519  16.615  1.00  0.00    -0.393 OA
ATOM     33  H4  UNL     1     -19.837 -44.498  16.627  1.00  0.00     0.210 HD
ENDBRANCH  11  32
TORSDOF 11
ENDMDL
