MODEL 1
REMARK VINA RESULT: -7.693871144      0.000      0.000
REMARK  8 active torsions:
REMARK  status: ('A' for Active; 'I' for Inactive)
REMARK    1  A    between atoms: N1_2  and  C2_5 
REMARK    2  A    between atoms: C2_5  and  C3_6 
REMARK    3  A    between atoms: C3_6  and  N2_7 
REMARK       I    between atoms: N2_7  and  C4_9 
REMARK    4  A    between atoms: C4_9  and  C5_11 
REMARK    5  A    between atoms: C7_14  and  O3_15 
REMARK    6  A    between atoms: C14_23  and  O4_24 
REMARK    7  A    between atoms: O4_24  and  C15_25 
REMARK    8  A    between atoms: C21_32  and  O6_33 
ROOT
HETATM    1  C5  UNL     1     -19.819 -39.317  15.578  1.00  0.00     0.242 C 
HETATM    2  O2  UNL     1     -18.440 -39.454  15.476  1.00  0.00    -0.366 OA
HETATM    3  C6  UNL     1     -17.841 -38.451  16.175  1.00  0.00     0.156 C 
HETATM    4  C7  UNL     1     -16.370 -38.733  16.508  1.00  0.00     0.152 C 
HETATM    5  C8  UNL     1     -16.153 -37.739  17.585  1.00  0.00     0.026 C 
HETATM    6  C9  UNL     1     -17.389 -37.882  18.487  1.00  0.00    -0.001 C 
HETATM    7  C10 UNL     1     -17.586 -36.565  19.123  1.00  0.00     0.006 C 
HETATM    8  C11 UNL     1     -16.219 -35.987  19.464  1.00  0.00     0.012 C 
HETATM    9  C12 UNL     1     -15.165 -37.022  19.675  1.00  0.00    -0.013 C 
HETATM   10  C13 UNL     1     -15.257 -37.756  20.972  1.00  0.00     0.018 C 
HETATM   11  C14 UNL     1     -13.760 -36.518  19.447  1.00  0.00     0.141 C 
HETATM   12  C17 UNL     1     -13.844 -36.982  18.024  1.00  0.00     0.039 C 
HETATM   13  C18 UNL     1     -14.964 -37.911  18.442  1.00  0.00     0.005 C 
HETATM   14  C19 UNL     1     -18.411 -38.412  17.603  1.00  0.00     0.024 C 
HETATM   15  C20 UNL     1     -19.722 -37.734  17.528  1.00  0.00     0.042 C 
HETATM   16  C21 UNL     1     -20.248 -37.970  16.104  1.00  0.00     0.157 C 
ENDROOT
BRANCH   1  17
HETATM   17  C4  UNL     1     -20.369 -39.440  14.206  1.00  0.00     0.249 C 
HETATM   18  N2  UNL     1     -20.521 -38.346  13.331  1.00  0.00    -0.357 N 
ATOM     19  H2  UNL     1     -20.245 -37.412  13.635  1.00  0.00     0.162 HD
HETATM   20  O1  UNL     1     -20.711 -40.582  13.817  1.00  0.00    -0.271 OA
BRANCH  18  21
HETATM   21  C3  UNL     1     -21.063 -38.535  12.011  1.00  0.00     0.150 C 
BRANCH  21  22
HETATM   22  C2  UNL     1     -19.952 -38.574  11.010  1.00  0.00     0.251 C 
BRANCH  22  23
HETATM   23  N1  UNL     1     -19.209 -39.831  11.070  1.00  0.00    -0.077 N 
HETATM   24  C1  UNL     1     -17.801 -39.564  11.230  1.00  0.00     0.267 C 
ATOM     25  H12 UNL     1     -19.396 -40.425  10.262  1.00  0.00     0.276 HD
ATOM     26  H11 UNL     1     -19.566 -40.451  11.797  1.00  0.00     0.276 HD
ENDBRANCH  22  23
ENDBRANCH  21  22
ENDBRANCH  18  21
ENDBRANCH   1  17
BRANCH  16  27
HETATM   27  O6  UNL     1     -21.628 -37.945  16.125  1.00  0.00    -0.392 OA
ATOM     28  H6  UNL     1     -21.899 -37.467  16.900  1.00  0.00     0.210 HD
ENDBRANCH  16  27
BRANCH   4  29
HETATM   29  O3  UNL     1     -16.195 -40.048  16.905  1.00  0.00    -0.393 OA
ATOM     30  H3  UNL     1     -16.380 -40.646  16.190  1.00  0.00     0.210 HD
ENDBRANCH   4  29
BRANCH  11  31
HETATM   31  O4  UNL     1     -13.592 -35.126  19.619  1.00  0.00    -0.316 OA
BRANCH  31  32
HETATM   32  C15 UNL     1     -12.378 -34.557  19.254  1.00  0.00     0.255 C 
HETATM   33  C16 UNL     1     -11.148 -34.828  20.067  1.00  0.00     0.126 C 
HETATM   34  O5  UNL     1     -12.333 -33.817  18.239  1.00  0.00    -0.266 OA
ENDBRANCH  31  32
ENDBRANCH  11  31
TORSDOF 8
ENDMDL
MODEL 2
REMARK VINA RESULT: -7.531921949      5.683      9.610
REMARK  8 active torsions:
REMARK  status: ('A' for Active; 'I' for Inactive)
REMARK    1  A    between atoms: N1_2  and  C2_5 
REMARK    2  A    between atoms: C2_5  and  C3_6 
REMARK    3  A    between atoms: C3_6  and  N2_7 
REMARK       I    between atoms: N2_7  and  C4_9 
REMARK    4  A    between atoms: C4_9  and  C5_11 
REMARK    5  A    between atoms: C7_14  and  O3_15 
REMARK    6  A    between atoms: C14_23  and  O4_24 
REMARK    7  A    between atoms: O4_24  and  C15_25 
REMARK    8  A    between atoms: C21_32  and  O6_33 
ROOT
HETATM    1  C5  UNL     1     -12.740 -38.283  16.356  1.00  0.00     0.242 C 
HETATM    2  O2  UNL     1     -13.583 -39.074  15.586  1.00  0.00    -0.366 OA
HETATM    3  C6  UNL     1     -13.160 -39.045  14.292  1.00  0.00     0.156 C 
HETATM    4  C7  UNL     1     -13.714 -40.196  13.442  1.00  0.00     0.152 C 
HETATM    5  C8  UNL     1     -12.775 -40.147  12.297  1.00  0.00     0.026 C 
HETATM    6  C9  UNL     1     -11.391 -40.012  12.948  1.00  0.00    -0.001 C 
HETATM    7  C10 UNL     1     -10.544 -39.304  11.967  1.00  0.00     0.006 C 
HETATM    8  C11 UNL     1     -10.897 -39.810  10.575  1.00  0.00     0.012 C 
HETATM    9  C12 UNL     1     -11.451 -41.195  10.563  1.00  0.00    -0.013 C 
HETATM   10  C13 UNL     1     -10.444 -42.276  10.778  1.00  0.00     0.018 C 
HETATM   11  C14 UNL     1     -12.309 -41.499   9.358  1.00  0.00     0.141 C 
HETATM   12  C17 UNL     1     -13.520 -41.088  10.139  1.00  0.00     0.039 C 
HETATM   13  C18 UNL     1     -12.726 -41.322  11.406  1.00  0.00     0.005 C 
HETATM   14  C19 UNL     1     -11.664 -39.397  14.235  1.00  0.00     0.024 C 
HETATM   15  C20 UNL     1     -10.918 -38.184  14.628  1.00  0.00     0.042 C 
HETATM   16  C21 UNL     1     -11.858 -37.375  15.536  1.00  0.00     0.157 C 
ENDROOT
BRANCH   1  17
HETATM   17  C4  UNL     1     -13.606 -37.408  17.185  1.00  0.00     0.249 C 
HETATM   18  N2  UNL     1     -13.364 -37.146  18.549  1.00  0.00    -0.357 N 
ATOM     19  H2  UNL     1     -12.558 -37.568  19.010  1.00  0.00     0.162 HD
HETATM   20  O1  UNL     1     -14.600 -36.882  16.632  1.00  0.00    -0.271 OA
BRANCH  18  21
HETATM   21  C3  UNL     1     -14.246 -36.288  19.295  1.00  0.00     0.150 C 
BRANCH  21  22
HETATM   22  C2  UNL     1     -15.260 -37.114  20.021  1.00  0.00     0.251 C 
BRANCH  22  23
HETATM   23  N1  UNL     1     -16.540 -37.144  19.319  1.00  0.00    -0.077 N 
HETATM   24  C1  UNL     1     -17.313 -38.282  19.752  1.00  0.00     0.267 C 
ATOM     25  H12 UNL     1     -16.422 -37.125  18.306  1.00  0.00     0.276 HD
ATOM     26  H11 UNL     1     -17.055 -36.270  19.426  1.00  0.00     0.276 HD
ENDBRANCH  22  23
ENDBRANCH  21  22
ENDBRANCH  18  21
ENDBRANCH   1  17
BRANCH  16  27
HETATM   27  O6  UNL     1     -11.099 -36.621  16.409  1.00  0.00    -0.392 OA
ATOM     28  H6  UNL     1     -11.632 -35.891  16.701  1.00  0.00     0.210 HD
ENDBRANCH  16  27
BRANCH   4  29
HETATM   29  O3  UNL     1     -13.690 -41.388  14.146  1.00  0.00    -0.393 OA
ATOM     30  H3  UNL     1     -14.331 -41.381  14.847  1.00  0.00     0.210 HD
ENDBRANCH   4  29
BRANCH  11  31
HETATM   31  O4  UNL     1     -12.032 -40.714   8.217  1.00  0.00    -0.316 OA
BRANCH  31  32
HETATM   32  C15 UNL     1     -12.833 -40.875   7.093  1.00  0.00     0.255 C 
HETATM   33  C16 UNL     1     -13.750 -39.771   6.661  1.00  0.00     0.126 C 
HETATM   34  O5  UNL     1     -12.774 -41.956   6.453  1.00  0.00    -0.266 OA
ENDBRANCH  31  32
ENDBRANCH  11  31
TORSDOF 8
ENDMDL
MODEL 3
REMARK VINA RESULT: -7.517849745      3.468      8.496
REMARK  8 active torsions:
REMARK  status: ('A' for Active; 'I' for Inactive)
REMARK    1  A    between atoms: N1_2  and  C2_5 
REMARK    2  A    between atoms: C2_5  and  C3_6 
REMARK    3  A    between atoms: C3_6  and  N2_7 
REMARK       I    between atoms: N2_7  and  C4_9 
REMARK    4  A    between atoms: C4_9  and  C5_11 
REMARK    5  A    between atoms: C7_14  and  O3_15 
REMARK    6  A    between atoms: C14_23  and  O4_24 
REMARK    7  A    between atoms: O4_24  and  C15_25 
REMARK    8  A    between atoms: C21_32  and  O6_33 
ROOT
HETATM    1  C5  UNL     1     -13.522 -37.598  18.137  1.00  0.00     0.242 C 
HETATM    2  O2  UNL     1     -14.892 -37.647  18.364  1.00  0.00    -0.366 OA
HETATM    3  C6  UNL     1     -15.527 -37.934  17.194  1.00  0.00     0.156 C 
HETATM    4  C7  UNL     1     -16.960 -38.446  17.387  1.00  0.00     0.152 C 
HETATM    5  C8  UNL     1     -17.197 -39.058  16.059  1.00  0.00     0.026 C 
HETATM    6  C9  UNL     1     -15.918 -39.861  15.779  1.00  0.00    -0.001 C 
HETATM    7  C10 UNL     1     -15.782 -39.915  14.310  1.00  0.00     0.006 C 
HETATM    8  C11 UNL     1     -17.169 -40.090  13.705  1.00  0.00     0.012 C 
HETATM    9  C12 UNL     1     -18.142 -40.758  14.618  1.00  0.00    -0.013 C 
HETATM   10  C13 UNL     1     -17.946 -42.230  14.774  1.00  0.00     0.018 C 
HETATM   11  C14 UNL     1     -19.585 -40.442  14.309  1.00  0.00     0.141 C 
HETATM   12  C17 UNL     1     -19.531 -39.314  15.293  1.00  0.00     0.039 C 
HETATM   13  C18 UNL     1     -18.335 -39.989  15.931  1.00  0.00     0.005 C 
HETATM   14  C19 UNL     1     -14.901 -39.192  16.569  1.00  0.00     0.024 C 
HETATM   15  C20 UNL     1     -13.643 -38.772  15.918  1.00  0.00     0.042 C 
HETATM   16  C21 UNL     1     -13.162 -37.523  16.674  1.00  0.00     0.157 C 
ENDROOT
BRANCH   1  17
HETATM   17  C4  UNL     1     -13.024 -36.351  18.768  1.00  0.00     0.249 C 
HETATM   18  N2  UNL     1     -11.658 -36.009  18.834  1.00  0.00    -0.357 N 
ATOM     19  H2  UNL     1     -10.959 -36.634  18.434  1.00  0.00     0.162 HD
HETATM   20  O1  UNL     1     -13.871 -35.571  19.264  1.00  0.00    -0.271 OA
BRANCH  18  21
HETATM   21  C3  UNL     1     -11.243 -34.782  19.463  1.00  0.00     0.150 C 
BRANCH  21  22
HETATM   22  C2  UNL     1     -10.913 -33.765  18.417  1.00  0.00     0.251 C 
BRANCH  22  23
HETATM   23  N1  UNL     1     -12.085 -32.986  18.027  1.00  0.00    -0.077 N 
HETATM   24  C1  UNL     1     -12.169 -32.908  16.589  1.00  0.00     0.267 C 
ATOM     25  H12 UNL     1     -12.093 -32.063  18.461  1.00  0.00     0.276 HD
ATOM     26  H11 UNL     1     -12.942 -33.352  18.440  1.00  0.00     0.276 HD
ENDBRANCH  22  23
ENDBRANCH  21  22
ENDBRANCH  18  21
ENDBRANCH   1  17
BRANCH  16  27
HETATM   27  O6  UNL     1     -11.787 -37.443  16.581  1.00  0.00    -0.392 OA
ATOM     28  H6  UNL     1     -11.575 -36.703  16.026  1.00  0.00     0.210 HD
ENDBRANCH  16  27
BRANCH   4  29
HETATM   29  O3  UNL     1     -17.030 -39.338  18.444  1.00  0.00    -0.393 OA
ATOM     30  H3  UNL     1     -17.472 -38.947  19.189  1.00  0.00     0.210 HD
ENDBRANCH   4  29
BRANCH  11  31
HETATM   31  O4  UNL     1     -19.839 -40.065  12.971  1.00  0.00    -0.316 OA
BRANCH  31  32
HETATM   32  C15 UNL     1     -20.927 -39.241  12.712  1.00  0.00     0.255 C 
HETATM   33  C16 UNL     1     -20.710 -37.800  12.360  1.00  0.00     0.126 C 
HETATM   34  O5  UNL     1     -22.085 -39.725  12.778  1.00  0.00    -0.266 OA
ENDBRANCH  31  32
ENDBRANCH  11  31
TORSDOF 8
ENDMDL
MODEL 4
REMARK VINA RESULT: -7.479635583      5.933     10.046
REMARK  8 active torsions:
REMARK  status: ('A' for Active; 'I' for Inactive)
REMARK    1  A    between atoms: N1_2  and  C2_5 
REMARK    2  A    between atoms: C2_5  and  C3_6 
REMARK    3  A    between atoms: C3_6  and  N2_7 
REMARK       I    between atoms: N2_7  and  C4_9 
REMARK    4  A    between atoms: C4_9  and  C5_11 
REMARK    5  A    between atoms: C7_14  and  O3_15 
REMARK    6  A    between atoms: C14_23  and  O4_24 
REMARK    7  A    between atoms: O4_24  and  C15_25 
REMARK    8  A    between atoms: C21_32  and  O6_33 
ROOT
HETATM    1  C5  UNL     1     -12.678 -38.541  16.085  1.00  0.00     0.242 C 
HETATM    2  O2  UNL     1     -13.588 -39.234  15.295  1.00  0.00    -0.366 OA
HETATM    3  C6  UNL     1     -13.162 -39.208  14.002  1.00  0.00     0.156 C 
HETATM    4  C7  UNL     1     -13.816 -40.282  13.123  1.00  0.00     0.152 C 
HETATM    5  C8  UNL     1     -12.876 -40.288  11.979  1.00  0.00     0.026 C 
HETATM    6  C9  UNL     1     -11.485 -40.294  12.631  1.00  0.00    -0.001 C 
HETATM    7  C10 UNL     1     -10.579 -39.639  11.668  1.00  0.00     0.006 C 
HETATM    8  C11 UNL     1     -10.974 -40.075  10.263  1.00  0.00     0.012 C 
HETATM    9  C12 UNL     1     -11.650 -41.404  10.215  1.00  0.00    -0.013 C 
HETATM   10  C13 UNL     1     -10.743 -42.575  10.400  1.00  0.00     0.018 C 
HETATM   11  C14 UNL     1     -12.530 -41.598   9.005  1.00  0.00     0.141 C 
HETATM   12  C17 UNL     1     -13.700 -41.101   9.797  1.00  0.00     0.039 C 
HETATM   13  C18 UNL     1     -12.931 -41.439  11.057  1.00  0.00     0.005 C 
HETATM   14  C19 UNL     1     -11.704 -39.691  13.934  1.00  0.00     0.024 C 
HETATM   15  C20 UNL     1     -10.852 -38.561  14.357  1.00  0.00     0.042 C 
HETATM   16  C21 UNL     1     -11.717 -37.695  15.288  1.00  0.00     0.157 C 
ENDROOT
BRANCH   1  17
HETATM   17  C4  UNL     1     -13.463 -37.615  16.938  1.00  0.00     0.249 C 
HETATM   18  N2  UNL     1     -13.157 -37.360  18.290  1.00  0.00    -0.357 N 
ATOM     19  H2  UNL     1     -12.360 -37.824  18.725  1.00  0.00     0.162 HD
HETATM   20  O1  UNL     1     -14.445 -37.037  16.417  1.00  0.00    -0.271 OA
BRANCH  18  21
HETATM   21  C3  UNL     1     -13.962 -36.450  19.061  1.00  0.00     0.150 C 
BRANCH  21  22
HETATM   22  C2  UNL     1     -13.119 -35.309  19.537  1.00  0.00     0.251 C 
BRANCH  22  23
HETATM   23  N1  UNL     1     -11.748 -35.402  19.041  1.00  0.00    -0.077 N 
HETATM   24  C1  UNL     1     -10.829 -34.912  20.039  1.00  0.00     0.267 C 
ATOM     25  H12 UNL     1     -11.632 -34.925  18.147  1.00  0.00     0.276 HD
ATOM     26  H11 UNL     1     -11.515 -36.347  18.737  1.00  0.00     0.276 HD
ENDBRANCH  22  23
ENDBRANCH  21  22
ENDBRANCH  18  21
ENDBRANCH   1  17
BRANCH  16  27
HETATM   27  O6  UNL     1     -10.895 -37.035  16.179  1.00  0.00    -0.392 OA
ATOM     28  H6  UNL     1     -10.590 -36.239  15.759  1.00  0.00     0.210 HD
ENDBRANCH  16  27
BRANCH   4  29
HETATM   29  O3  UNL     1     -13.899 -41.490  13.796  1.00  0.00    -0.393 OA
ATOM     30  H3  UNL     1     -14.631 -42.006  13.479  1.00  0.00     0.210 HD
ENDBRANCH   4  29
BRANCH  11  31
HETATM   31  O4  UNL     1     -12.183 -40.811   7.884  1.00  0.00    -0.316 OA
BRANCH  31  32
HETATM   32  C15 UNL     1     -13.039 -40.804   6.790  1.00  0.00     0.255 C 
HETATM   33  C16 UNL     1     -13.829 -39.572   6.464  1.00  0.00     0.126 C 
HETATM   34  O5  UNL     1     -13.138 -41.842   6.087  1.00  0.00    -0.266 OA
ENDBRANCH  31  32
ENDBRANCH  11  31
TORSDOF 8
ENDMDL
MODEL 5
REMARK VINA RESULT: -7.029979437      4.692      9.304
REMARK  8 active torsions:
REMARK  status: ('A' for Active; 'I' for Inactive)
REMARK    1  A    between atoms: N1_2  and  C2_5 
REMARK    2  A    between atoms: C2_5  and  C3_6 
REMARK    3  A    between atoms: C3_6  and  N2_7 
REMARK       I    between atoms: N2_7  and  C4_9 
REMARK    4  A    between atoms: C4_9  and  C5_11 
REMARK    5  A    between atoms: C7_14  and  O3_15 
REMARK    6  A    between atoms: C14_23  and  O4_24 
REMARK    7  A    between atoms: O4_24  and  C15_25 
REMARK    8  A    between atoms: C21_32  and  O6_33 
ROOT
HETATM    1  C5  UNL     1     -12.642 -38.124  16.727  1.00  0.00     0.242 C 
HETATM    2  O2  UNL     1     -13.729 -38.988  16.763  1.00  0.00    -0.366 OA
HETATM    3  C6  UNL     1     -14.108 -39.279  15.488  1.00  0.00     0.156 C 
HETATM    4  C7  UNL     1     -14.983 -40.535  15.383  1.00  0.00     0.152 C 
HETATM    5  C8  UNL     1     -14.853 -40.819  13.935  1.00  0.00     0.026 C 
HETATM    6  C9  UNL     1     -13.351 -40.666  13.651  1.00  0.00    -0.001 C 
HETATM    7  C10 UNL     1     -13.241 -40.266  12.235  1.00  0.00     0.006 C 
HETATM    8  C11 UNL     1     -14.288 -41.032  11.436  1.00  0.00     0.012 C 
HETATM    9  C12 UNL     1     -14.680 -42.332  12.053  1.00  0.00    -0.013 C 
HETATM   10  C13 UNL     1     -13.671 -43.423  11.911  1.00  0.00     0.018 C 
HETATM   11  C14 UNL     1     -16.049 -42.816  11.640  1.00  0.00     0.141 C 
HETATM   12  C17 UNL     1     -16.632 -42.140  12.843  1.00  0.00     0.039 C 
HETATM   13  C18 UNL     1     -15.252 -42.161  13.465  1.00  0.00     0.005 C 
HETATM   14  C19 UNL     1     -12.887 -39.764  14.689  1.00  0.00     0.024 C 
HETATM   15  C20 UNL     1     -12.113 -38.564  14.309  1.00  0.00     0.042 C 
HETATM   16  C21 UNL     1     -12.421 -37.498  15.372  1.00  0.00     0.157 C 
ENDROOT
BRANCH   1  17
HETATM   17  C4  UNL     1     -12.937 -37.017  17.670  1.00  0.00     0.249 C 
HETATM   18  N2  UNL     1     -11.938 -36.225  18.272  1.00  0.00    -0.357 N 
ATOM     19  H2  UNL     1     -10.956 -36.403  18.062  1.00  0.00     0.162 HD
HETATM   20  O1  UNL     1     -14.139 -36.786  17.937  1.00  0.00    -0.271 OA
BRANCH  18  21
HETATM   21  C3  UNL     1     -12.294 -35.167  19.180  1.00  0.00     0.150 C 
BRANCH  21  22
HETATM   22  C2  UNL     1     -11.447 -33.964  18.911  1.00  0.00     0.251 C 
BRANCH  22  23
HETATM   23  N1  UNL     1     -12.170 -32.947  18.152  1.00  0.00    -0.077 N 
HETATM   24  C1  UNL     1     -11.929 -33.122  16.741  1.00  0.00     0.267 C 
ATOM     25  H12 UNL     1     -11.943 -32.004  18.465  1.00  0.00     0.276 HD
ATOM     26  H11 UNL     1     -13.166 -32.942  18.373  1.00  0.00     0.276 HD
ENDBRANCH  22  23
ENDBRANCH  21  22
ENDBRANCH  18  21
ENDBRANCH   1  17
BRANCH  16  27
HETATM   27  O6  UNL     1     -11.344 -36.640  15.473  1.00  0.00    -0.392 OA
ATOM     28  H6  UNL     1     -11.677 -35.780  15.702  1.00  0.00     0.210 HD
ENDBRANCH  16  27
BRANCH   4  29
HETATM   29  O3  UNL     1     -14.505 -41.542  16.204  1.00  0.00    -0.393 OA
ATOM     30  H3  UNL     1     -15.153 -42.228  16.314  1.00  0.00     0.210 HD
ENDBRANCH   4  29
BRANCH  11  31
HETATM   31  O4  UNL     1     -16.502 -42.326  10.394  1.00  0.00    -0.316 OA
BRANCH  31  32
HETATM   32  C15 UNL     1     -17.805 -41.852  10.304  1.00  0.00     0.255 C 
HETATM   33  C16 UNL     1     -18.061 -40.382  10.162  1.00  0.00     0.126 C 
HETATM   34  O5  UNL     1     -18.756 -42.674  10.346  1.00  0.00    -0.266 OA
ENDBRANCH  31  32
ENDBRANCH  11  31
TORSDOF 8
ENDMDL
