MODEL 1
REMARK VINA RESULT: -7.944102064      0.000      0.000
REMARK  11 active torsions:
REMARK  status: ('A' for Active; 'I' for Inactive)
REMARK    1  A    between atoms: C2_2  and  N1_5 
REMARK    2  A    between atoms: N1_5  and  C5_7 
REMARK    3  A    between atoms: C5_7  and  O1_9 
REMARK    4  A    between atoms: O1_9  and  C6_10 
REMARK    5  A    between atoms: C6_10  and  C7_12 
REMARK    6  A    between atoms: C7_12  and  C8_13 
REMARK    7  A    between atoms: C9_15  and  C10_16 
REMARK       I    between atoms: C10_16  and  N2_18 
REMARK    8  A    between atoms: N2_18  and  C11_20 
REMARK    9  A    between atoms: C11_20  and  C12_21 
REMARK   10  A    between atoms: C17_27  and  O6_28 
REMARK   11  A    between atoms: C18_30  and  O7_31 
ROOT
HETATM    1  C8  UNL     1     -18.794 -38.515  17.974  1.00  0.00     0.163 C 
HETATM    2  O3  UNL     1     -17.737 -38.493  17.079  1.00  0.00    -0.365 OA
HETATM    3  C9  UNL     1     -16.852 -37.526  17.502  1.00  0.00     0.245 C 
HETATM    4  C17 UNL     1     -16.945 -37.442  19.000  1.00  0.00     0.187 C 
HETATM    5  C18 UNL     1     -18.249 -38.129  19.322  1.00  0.00     0.179 C 
ENDROOT
BRANCH   1   6
HETATM    6  C7  UNL     1     -19.834 -37.538  17.523  1.00  0.00     0.146 C 
BRANCH   6   7
HETATM    7  C6  UNL     1     -20.611 -38.145  16.409  1.00  0.00     0.268 C 
HETATM    8  O2  UNL     1     -21.689 -38.793  16.644  1.00  0.00    -0.265 OA
BRANCH   7   9
HETATM    9  O1  UNL     1     -20.244 -38.064  15.080  1.00  0.00    -0.251 OA
BRANCH   9  10
HETATM   10  C5  UNL     1     -20.371 -39.186  14.250  1.00  0.00     0.218 C 
HETATM   11  S1  UNL     1     -21.053 -38.883  12.785  1.00  0.00    -0.033 SA
BRANCH  10  12
HETATM   12  N1  UNL     1     -19.962 -40.479  14.612  1.00  0.00    -0.353 N 
ATOM     13  H1  UNL     1     -20.632 -41.063  15.112  1.00  0.00     0.163 HD
BRANCH  12  14
HETATM   14  C2  UNL     1     -18.673 -41.037  14.330  1.00  0.00     0.022 C 
HETATM   15  C1  UNL     1     -17.683 -40.019  13.828  1.00  0.00     0.037 C 
HETATM   16  C3  UNL     1     -18.801 -42.110  13.242  1.00  0.00     0.037 C 
HETATM   17  C4  UNL     1     -18.062 -41.671  15.583  1.00  0.00     0.037 C 
ENDBRANCH  12  14
ENDBRANCH  10  12
ENDBRANCH   9  10
ENDBRANCH   7   9
ENDBRANCH   6   7
ENDBRANCH   1   6
BRANCH   5  18
HETATM   18  O7  UNL     1     -18.089 -39.237  20.131  1.00  0.00    -0.390 OA
ATOM     19  H7  UNL     1     -18.873 -39.773  20.137  1.00  0.00     0.210 HD
ENDBRANCH   5  18
BRANCH   3  20
HETATM   20  C10 UNL     1     -15.511 -37.758  16.991  1.00  0.00     0.249 C 
HETATM   21  O4  UNL     1     -15.348 -38.606  16.057  1.00  0.00    -0.271 OA
HETATM   22  N2  UNL     1     -14.388 -37.087  17.487  1.00  0.00    -0.358 N 
ATOM     23  H2  UNL     1     -14.504 -36.405  18.236  1.00  0.00     0.162 HD
BRANCH  22  24
HETATM   24  C11 UNL     1     -13.069 -37.340  16.959  1.00  0.00     0.129 C 
BRANCH  24  25
HETATM   25  C12 UNL     1     -12.082 -36.305  17.442  1.00  0.00     0.027 C 
HETATM   26  C13 UNL     1     -12.539 -35.676  18.756  1.00  0.00     0.010 C 
HETATM   27  C14 UNL     1     -11.330 -34.864  19.237  1.00  0.00     0.027 C 
HETATM   28  C15 UNL     1     -10.661 -34.227  18.041  1.00  0.00     0.167 C 
HETATM   29  O5  UNL     1     -11.517 -34.009  16.990  1.00  0.00    -0.391 OA
HETATM   30  C16 UNL     1     -12.069 -35.140  16.440  1.00  0.00     0.173 C 
ENDBRANCH  24  25
ENDBRANCH  22  24
ENDBRANCH   3  20
BRANCH   4  31
HETATM   31  O6  UNL     1     -16.902 -36.125  19.460  1.00  0.00    -0.390 OA
ATOM     32  H6  UNL     1     -17.683 -35.887  19.944  1.00  0.00     0.210 HD
ENDBRANCH   4  31
TORSDOF 11
ENDMDL
MODEL 2
REMARK VINA RESULT: -7.907956263      3.331      7.310
REMARK  11 active torsions:
REMARK  status: ('A' for Active; 'I' for Inactive)
REMARK    1  A    between atoms: C2_2  and  N1_5 
REMARK    2  A    between atoms: N1_5  and  C5_7 
REMARK    3  A    between atoms: C5_7  and  O1_9 
REMARK    4  A    between atoms: O1_9  and  C6_10 
REMARK    5  A    between atoms: C6_10  and  C7_12 
REMARK    6  A    between atoms: C7_12  and  C8_13 
REMARK    7  A    between atoms: C9_15  and  C10_16 
REMARK       I    between atoms: C10_16  and  N2_18 
REMARK    8  A    between atoms: N2_18  and  C11_20 
REMARK    9  A    between atoms: C11_20  and  C12_21 
REMARK   10  A    between atoms: C17_27  and  O6_28 
REMARK   11  A    between atoms: C18_30  and  O7_31 
ROOT
HETATM    1  C8  UNL     1     -14.006 -36.859  17.842  1.00  0.00     0.163 C 
HETATM    2  O3  UNL     1     -15.347 -36.958  17.504  1.00  0.00    -0.365 OA
HETATM    3  C9  UNL     1     -16.015 -37.463  18.598  1.00  0.00     0.245 C 
HETATM    4  C17 UNL     1     -15.286 -37.011  19.832  1.00  0.00     0.187 C 
HETATM    5  C18 UNL     1     -13.934 -36.583  19.318  1.00  0.00     0.179 C 
ENDROOT
BRANCH   1   6
HETATM    6  C7  UNL     1     -13.324 -38.150  17.510  1.00  0.00     0.146 C 
BRANCH   6   7
HETATM    7  C6  UNL     1     -13.013 -38.166  16.055  1.00  0.00     0.268 C 
HETATM    8  O2  UNL     1     -13.111 -37.100  15.355  1.00  0.00    -0.265 OA
BRANCH   7   9
HETATM    9  O1  UNL     1     -12.609 -39.295  15.366  1.00  0.00    -0.251 OA
BRANCH   9  10
HETATM   10  C5  UNL     1     -13.189 -39.601  14.128  1.00  0.00     0.218 C 
HETATM   11  S1  UNL     1     -14.597 -40.444  14.219  1.00  0.00    -0.033 SA
BRANCH  10  12
HETATM   12  N1  UNL     1     -12.637 -39.233  12.892  1.00  0.00    -0.353 N 
ATOM     13  H1  UNL     1     -12.941 -38.350  12.483  1.00  0.00     0.163 HD
BRANCH  12  14
HETATM   14  C2  UNL     1     -11.678 -40.008  12.162  1.00  0.00     0.022 C 
HETATM   15  C1  UNL     1     -11.028 -41.083  12.994  1.00  0.00     0.037 C 
HETATM   16  C3  UNL     1     -10.554 -39.097  11.654  1.00  0.00     0.037 C 
HETATM   17  C4  UNL     1     -12.331 -40.706  10.964  1.00  0.00     0.037 C 
ENDBRANCH  12  14
ENDBRANCH  10  12
ENDBRANCH   9  10
ENDBRANCH   7   9
ENDBRANCH   6   7
ENDBRANCH   1   6
BRANCH   5  18
HETATM   18  O7  UNL     1     -13.661 -35.251  19.564  1.00  0.00    -0.390 OA
ATOM     19  H7  UNL     1     -12.734 -35.114  19.722  1.00  0.00     0.210 HD
ENDBRANCH   5  18
BRANCH   3  20
HETATM   20  C10 UNL     1     -17.429 -37.125  18.572  1.00  0.00     0.249 C 
HETATM   21  O4  UNL     1     -17.788 -35.961  18.935  1.00  0.00    -0.271 OA
HETATM   22  N2  UNL     1     -18.413 -38.030  18.162  1.00  0.00    -0.358 N 
ATOM     23  H2  UNL     1     -18.140 -38.967  17.868  1.00  0.00     0.162 HD
BRANCH  22  24
HETATM   24  C11 UNL     1     -19.810 -37.665  18.148  1.00  0.00     0.129 C 
BRANCH  24  25
HETATM   25  C12 UNL     1     -20.528 -38.308  16.987  1.00  0.00     0.027 C 
HETATM   26  C13 UNL     1     -19.871 -37.943  15.659  1.00  0.00     0.010 C 
HETATM   27  C14 UNL     1     -20.536 -38.867  14.631  1.00  0.00     0.027 C 
HETATM   28  C15 UNL     1     -21.999 -39.013  14.978  1.00  0.00     0.167 C 
HETATM   29  O5  UNL     1     -22.506 -37.939  15.666  1.00  0.00    -0.391 OA
HETATM   30  C16 UNL     1     -21.941 -37.712  16.897  1.00  0.00     0.173 C 
ENDBRANCH  24  25
ENDBRANCH  22  24
ENDBRANCH   3  20
BRANCH   4  31
HETATM   31  O6  UNL     1     -15.203 -38.017  20.796  1.00  0.00    -0.390 OA
ATOM     32  H6  UNL     1     -14.711 -37.742  21.560  1.00  0.00     0.210 HD
ENDBRANCH   4  31
TORSDOF 11
ENDMDL
MODEL 3
REMARK VINA RESULT: -7.888787025      1.595      2.047
REMARK  11 active torsions:
REMARK  status: ('A' for Active; 'I' for Inactive)
REMARK    1  A    between atoms: C2_2  and  N1_5 
REMARK    2  A    between atoms: N1_5  and  C5_7 
REMARK    3  A    between atoms: C5_7  and  O1_9 
REMARK    4  A    between atoms: O1_9  and  C6_10 
REMARK    5  A    between atoms: C6_10  and  C7_12 
REMARK    6  A    between atoms: C7_12  and  C8_13 
REMARK    7  A    between atoms: C9_15  and  C10_16 
REMARK       I    between atoms: C10_16  and  N2_18 
REMARK    8  A    between atoms: N2_18  and  C11_20 
REMARK    9  A    between atoms: C11_20  and  C12_21 
REMARK   10  A    between atoms: C17_27  and  O6_28 
REMARK   11  A    between atoms: C18_30  and  O7_31 
ROOT
HETATM    1  C8  UNL     1     -17.812 -38.678  18.375  1.00  0.00     0.163 C 
HETATM    2  O3  UNL     1     -16.747 -38.509  17.506  1.00  0.00    -0.365 OA
HETATM    3  C9  UNL     1     -16.011 -37.434  17.954  1.00  0.00     0.245 C 
HETATM    4  C17 UNL     1     -16.150 -37.373  19.449  1.00  0.00     0.187 C 
HETATM    5  C18 UNL     1     -17.356 -38.231  19.737  1.00  0.00     0.179 C 
ENDROOT
BRANCH   1   6
HETATM    6  C7  UNL     1     -18.964 -37.846  17.902  1.00  0.00     0.146 C 
BRANCH   6   7
HETATM    7  C6  UNL     1     -19.566 -38.497  16.708  1.00  0.00     0.268 C 
HETATM    8  O2  UNL     1     -20.606 -38.003  16.151  1.00  0.00    -0.265 OA
BRANCH   7   9
HETATM    9  O1  UNL     1     -19.071 -39.649  16.126  1.00  0.00    -0.251 OA
BRANCH   9  10
HETATM   10  C5  UNL     1     -18.479 -39.590  14.857  1.00  0.00     0.218 C 
HETATM   11  S1  UNL     1     -17.251 -40.658  14.623  1.00  0.00    -0.033 SA
BRANCH  10  12
HETATM   12  N1  UNL     1     -18.878 -38.703  13.846  1.00  0.00    -0.353 N 
ATOM     13  H1  UNL     1     -18.484 -37.762  13.862  1.00  0.00     0.163 HD
BRANCH  12  14
HETATM   14  C2  UNL     1     -19.796 -39.022  12.794  1.00  0.00     0.022 C 
HETATM   15  C1  UNL     1     -20.549 -40.305  13.033  1.00  0.00     0.037 C 
HETATM   16  C3  UNL     1     -19.034 -39.190  11.474  1.00  0.00     0.037 C 
HETATM   17  C4  UNL     1     -20.845 -37.917  12.625  1.00  0.00     0.037 C 
ENDBRANCH  12  14
ENDBRANCH  10  12
ENDBRANCH   9  10
ENDBRANCH   7   9
ENDBRANCH   6   7
ENDBRANCH   1   6
BRANCH   5  18
HETATM   18  O7  UNL     1     -17.069 -39.313  20.547  1.00  0.00    -0.390 OA
ATOM     19  H7  UNL     1     -16.204 -39.231  20.933  1.00  0.00     0.210 HD
ENDBRANCH   5  18
BRANCH   3  20
HETATM   20  C10 UNL     1     -14.639 -37.482  17.475  1.00  0.00     0.249 C 
HETATM   21  O4  UNL     1     -14.105 -38.614  17.250  1.00  0.00    -0.271 OA
HETATM   22  N2  UNL     1     -13.878 -36.329  17.250  1.00  0.00    -0.358 N 
ATOM     23  H2  UNL     1     -14.293 -35.415  17.426  1.00  0.00     0.162 HD
BRANCH  22  24
HETATM   24  C11 UNL     1     -12.517 -36.409  16.775  1.00  0.00     0.129 C 
BRANCH  24  25
HETATM   25  C12 UNL     1     -11.595 -35.573  17.629  1.00  0.00     0.027 C 
HETATM   26  C13 UNL     1     -12.143 -35.413  19.043  1.00  0.00     0.010 C 
HETATM   27  C14 UNL     1     -10.990 -34.783  19.836  1.00  0.00     0.027 C 
HETATM   28  C15 UNL     1     -10.279 -33.783  18.955  1.00  0.00     0.167 C 
HETATM   29  O5  UNL     1     -11.084 -33.247  17.980  1.00  0.00    -0.391 OA
HETATM   30  C16 UNL     1     -11.566 -34.146  17.060  1.00  0.00     0.173 C 
ENDBRANCH  24  25
ENDBRANCH  22  24
ENDBRANCH   3  20
BRANCH   4  31
HETATM   31  O6  UNL     1     -16.295 -36.066  19.914  1.00  0.00    -0.390 OA
ATOM     32  H6  UNL     1     -16.975 -35.991  20.572  1.00  0.00     0.210 HD
ENDBRANCH   4  31
TORSDOF 11
ENDMDL
MODEL 4
REMARK VINA RESULT: -7.831846274      3.834      7.282
REMARK  11 active torsions:
REMARK  status: ('A' for Active; 'I' for Inactive)
REMARK    1  A    between atoms: C2_2  and  N1_5 
REMARK    2  A    between atoms: N1_5  and  C5_7 
REMARK    3  A    between atoms: C5_7  and  O1_9 
REMARK    4  A    between atoms: O1_9  and  C6_10 
REMARK    5  A    between atoms: C6_10  and  C7_12 
REMARK    6  A    between atoms: C7_12  and  C8_13 
REMARK    7  A    between atoms: C9_15  and  C10_16 
REMARK       I    between atoms: C10_16  and  N2_18 
REMARK    8  A    between atoms: N2_18  and  C11_20 
REMARK    9  A    between atoms: C11_20  and  C12_21 
REMARK   10  A    between atoms: C17_27  and  O6_28 
REMARK   11  A    between atoms: C18_30  and  O7_31 
ROOT
HETATM    1  C8  UNL     1     -12.761 -36.689  15.580  1.00  0.00     0.163 C 
HETATM    2  O3  UNL     1     -13.891 -37.212  16.188  1.00  0.00    -0.365 OA
HETATM    3  C9  UNL     1     -13.682 -37.185  17.549  1.00  0.00     0.245 C 
HETATM    4  C17 UNL     1     -12.786 -36.018  17.854  1.00  0.00     0.187 C 
HETATM    5  C18 UNL     1     -12.178 -35.669  16.519  1.00  0.00     0.179 C 
ENDROOT
BRANCH   1   6
HETATM    6  C7  UNL     1     -11.786 -37.798  15.330  1.00  0.00     0.146 C 
BRANCH   6   7
HETATM    7  C6  UNL     1     -12.278 -38.621  14.193  1.00  0.00     0.268 C 
HETATM    8  O2  UNL     1     -12.817 -38.068  13.173  1.00  0.00    -0.265 OA
BRANCH   7   9
HETATM    9  O1  UNL     1     -12.198 -40.000  14.150  1.00  0.00    -0.251 OA
BRANCH   9  10
HETATM   10  C5  UNL     1     -12.921 -40.711  13.182  1.00  0.00     0.218 C 
HETATM   11  S1  UNL     1     -14.006 -41.786  13.790  1.00  0.00    -0.033 SA
BRANCH  10  12
HETATM   12  N1  UNL     1     -12.755 -40.543  11.799  1.00  0.00    -0.353 N 
ATOM     13  H1  UNL     1     -13.522 -40.115  11.280  1.00  0.00     0.163 HD
BRANCH  12  14
HETATM   14  C2  UNL     1     -11.588 -40.928  11.063  1.00  0.00     0.022 C 
HETATM   15  C1  UNL     1     -10.514 -39.873  11.061  1.00  0.00     0.037 C 
HETATM   16  C3  UNL     1     -11.962 -41.187   9.599  1.00  0.00     0.037 C 
HETATM   17  C4  UNL     1     -10.963 -42.199  11.649  1.00  0.00     0.037 C 
ENDBRANCH  12  14
ENDBRANCH  10  12
ENDBRANCH   9  10
ENDBRANCH   7   9
ENDBRANCH   6   7
ENDBRANCH   1   6
BRANCH   5  18
HETATM   18  O7  UNL     1     -12.479 -34.384  16.108  1.00  0.00    -0.390 OA
ATOM     19  H7  UNL     1     -12.913 -33.897  16.799  1.00  0.00     0.210 HD
ENDBRANCH   5  18
BRANCH   3  20
HETATM   20  C10 UNL     1     -14.934 -37.197  18.289  1.00  0.00     0.249 C 
HETATM   21  O4  UNL     1     -14.978 -36.637  19.430  1.00  0.00    -0.271 OA
HETATM   22  N2  UNL     1     -16.095 -37.801  17.796  1.00  0.00    -0.358 N 
ATOM     23  H2  UNL     1     -16.074 -38.253  16.883  1.00  0.00     0.162 HD
BRANCH  22  24
HETATM   24  C11 UNL     1     -17.323 -37.797  18.555  1.00  0.00     0.129 C 
BRANCH  24  25
HETATM   25  C12 UNL     1     -18.525 -37.758  17.643  1.00  0.00     0.027 C 
HETATM   26  C13 UNL     1     -19.817 -37.991  18.420  1.00  0.00     0.010 C 
HETATM   27  C14 UNL     1     -20.934 -37.662  17.421  1.00  0.00     0.027 C 
HETATM   28  C15 UNL     1     -20.527 -38.153  16.052  1.00  0.00     0.167 C 
HETATM   29  O5  UNL     1     -19.653 -39.211  16.091  1.00  0.00    -0.391 OA
HETATM   30  C16 UNL     1     -18.438 -38.945  16.672  1.00  0.00     0.173 C 
ENDBRANCH  24  25
ENDBRANCH  22  24
ENDBRANCH   3  20
BRANCH   4  31
HETATM   31  O6  UNL     1     -11.826 -36.325  18.820  1.00  0.00    -0.390 OA
ATOM     32  H6  UNL     1     -12.024 -35.932  19.661  1.00  0.00     0.210 HD
ENDBRANCH   4  31
TORSDOF 11
ENDMDL
MODEL 5
REMARK VINA RESULT: -7.774302998      2.509      3.759
REMARK  11 active torsions:
REMARK  status: ('A' for Active; 'I' for Inactive)
REMARK    1  A    between atoms: C2_2  and  N1_5 
REMARK    2  A    between atoms: N1_5  and  C5_7 
REMARK    3  A    between atoms: C5_7  and  O1_9 
REMARK    4  A    between atoms: O1_9  and  C6_10 
REMARK    5  A    between atoms: C6_10  and  C7_12 
REMARK    6  A    between atoms: C7_12  and  C8_13 
REMARK    7  A    between atoms: C9_15  and  C10_16 
REMARK       I    between atoms: C10_16  and  N2_18 
REMARK    8  A    between atoms: N2_18  and  C11_20 
REMARK    9  A    between atoms: C11_20  and  C12_21 
REMARK   10  A    between atoms: C17_27  and  O6_28 
REMARK   11  A    between atoms: C18_30  and  O7_31 
ROOT
HETATM    1  C8  UNL     1     -17.108 -38.271  18.703  1.00  0.00     0.163 C 
HETATM    2  O3  UNL     1     -16.030 -38.153  17.840  1.00  0.00    -0.365 OA
HETATM    3  C9  UNL     1     -15.227 -37.138  18.313  1.00  0.00     0.245 C 
HETATM    4  C17 UNL     1     -15.369 -37.099  19.808  1.00  0.00     0.187 C 
HETATM    5  C18 UNL     1     -16.630 -37.882  20.075  1.00  0.00     0.179 C 
ENDROOT
BRANCH   1   6
HETATM    6  C7  UNL     1     -18.201 -37.356  18.243  1.00  0.00     0.146 C 
BRANCH   6   7
HETATM    7  C6  UNL     1     -19.341 -38.179  17.756  1.00  0.00     0.268 C 
HETATM    8  O2  UNL     1     -20.541 -37.900  18.101  1.00  0.00    -0.265 OA
BRANCH   7   9
HETATM    9  O1  UNL     1     -19.200 -39.274  16.924  1.00  0.00    -0.251 OA
BRANCH   9  10
HETATM   10  C5  UNL     1     -18.801 -39.092  15.593  1.00  0.00     0.218 C 
HETATM   11  S1  UNL     1     -17.453 -39.927  15.161  1.00  0.00    -0.033 SA
BRANCH  10  12
HETATM   12  N1  UNL     1     -19.474 -38.269  14.678  1.00  0.00    -0.353 N 
ATOM     13  H1  UNL     1     -19.041 -37.377  14.437  1.00  0.00     0.163 HD
BRANCH  12  14
HETATM   14  C2  UNL     1     -20.725 -38.589  14.057  1.00  0.00     0.022 C 
HETATM   15  C1  UNL     1     -20.891 -40.060  13.783  1.00  0.00     0.037 C 
HETATM   16  C3  UNL     1     -20.833 -37.867  12.709  1.00  0.00     0.037 C 
HETATM   17  C4  UNL     1     -21.903 -38.166  14.943  1.00  0.00     0.037 C 
ENDBRANCH  12  14
ENDBRANCH  10  12
ENDBRANCH   9  10
ENDBRANCH   7   9
ENDBRANCH   6   7
ENDBRANCH   1   6
BRANCH   5  18
HETATM   18  O7  UNL     1     -16.416 -38.996  20.863  1.00  0.00    -0.390 OA
ATOM     19  H7  UNL     1     -15.887 -38.782  21.623  1.00  0.00     0.210 HD
ENDBRANCH   5  18
BRANCH   3  20
HETATM   20  C10 UNL     1     -13.859 -37.264  17.837  1.00  0.00     0.249 C 
HETATM   21  O4  UNL     1     -12.941 -36.616  18.431  1.00  0.00    -0.271 OA
HETATM   22  N2  UNL     1     -13.511 -38.072  16.749  1.00  0.00    -0.358 N 
ATOM     23  H2  UNL     1     -14.237 -38.597  16.264  1.00  0.00     0.162 HD
BRANCH  22  24
HETATM   24  C11 UNL     1     -12.143 -38.176  16.300  1.00  0.00     0.129 C 
BRANCH  24  25
HETATM   25  C12 UNL     1     -12.061 -38.876  14.965  1.00  0.00     0.027 C 
HETATM   26  C13 UNL     1     -11.208 -38.086  13.977  1.00  0.00     0.010 C 
HETATM   27  C14 UNL     1     -11.009 -39.037  12.791  1.00  0.00     0.027 C 
HETATM   28  C15 UNL     1     -12.287 -39.810  12.563  1.00  0.00     0.167 C 
HETATM   29  O5  UNL     1     -13.409 -39.144  12.989  1.00  0.00    -0.391 OA
HETATM   30  C16 UNL     1     -13.464 -38.893  14.338  1.00  0.00     0.173 C 
ENDBRANCH  24  25
ENDBRANCH  22  24
ENDBRANCH   3  20
BRANCH   4  31
HETATM   31  O6  UNL     1     -15.431 -35.794  20.300  1.00  0.00    -0.390 OA
ATOM     32  H6  UNL     1     -16.184 -35.656  20.862  1.00  0.00     0.210 HD
ENDBRANCH   4  31
TORSDOF 11
ENDMDL
