MODEL 1
REMARK VINA RESULT: -6.831546926      0.000      0.000
REMARK  9 active torsions:
REMARK  status: ('A' for Active; 'I' for Inactive)
REMARK    1  A    between atoms: C2_2  and  C3_3 
REMARK    2  A    between atoms: C3_3  and  C4_4 
REMARK    3  A    between atoms: C6_8  and  O2_9 
REMARK    4  A    between atoms: N2_11  and  C7_12 
REMARK    5  A    between atoms: C10_16  and  O4_17 
REMARK    6  A    between atoms: C11_19  and  O5_20 
REMARK    7  A    between atoms: C12_22  and  O6_23 
REMARK    8  A    between atoms: C13_25  and  S1_26 
REMARK    9  A    between atoms: S1_26  and  C14_27 
ROOT
HETATM    1  C4  UNL     1     -15.653 -40.316  15.201  1.00  0.00     0.094 C 
HETATM    2  C5  UNL     1     -14.852 -39.103  15.605  1.00  0.00     0.231 C 
HETATM    3  O1  UNL     1     -13.812 -38.811  14.976  1.00  0.00    -0.273 OA
HETATM    4  N1  UNL     1     -15.212 -38.235  16.693  1.00  0.00    -0.264 N 
HETATM    5  C6  UNL     1     -14.191 -37.634  17.529  1.00  0.00     0.339 C 
HETATM    6  N2  UNL     1     -14.911 -37.152  18.681  1.00  0.00    -0.304 N 
HETATM    7  C9  UNL     1     -16.258 -37.005  18.292  1.00  0.00     0.282 C 
HETATM    8  O3  UNL     1     -17.099 -36.263  18.896  1.00  0.00    -0.268 OA
HETATM    9  C10 UNL     1     -16.532 -37.852  17.072  1.00  0.00     0.252 C 
HETATM   10  C11 UNL     1     -17.443 -38.937  17.500  1.00  0.00     0.214 C 
HETATM   11  C12 UNL     1     -17.765 -40.018  16.573  1.00  0.00     0.166 C 
HETATM   12  C13 UNL     1     -17.110 -40.015  15.216  1.00  0.00     0.092 C 
ENDROOT
BRANCH  12  13
HETATM   13  S1  UNL     1     -18.042 -41.167  14.210  1.00  0.00    -0.156 SA
BRANCH  13  14
HETATM   14  C14 UNL     1     -19.475 -40.555  13.381  1.00  0.00     0.048 C 
HETATM   15  C15 UNL     1     -20.629 -40.354  14.308  1.00  0.00     0.015 C 
HETATM   16  C16 UNL     1     -21.443 -39.126  13.903  1.00  0.00     0.001 C 
HETATM   17  C17 UNL     1     -21.550 -39.087  12.387  1.00  0.00     0.000 C 
HETATM   18  C18 UNL     1     -20.181 -38.742  11.798  1.00  0.00     0.001 C 
HETATM   19  C19 UNL     1     -19.112 -39.186  12.776  1.00  0.00     0.015 C 
ENDBRANCH  13  14
ENDBRANCH  12  13
BRANCH   1  20
HETATM   20  C3  UNL     1     -15.203 -41.472  16.010  1.00  0.00     0.015 C 
BRANCH  20  21
HETATM   21  C2  UNL     1     -14.724 -42.598  15.135  1.00  0.00    -0.004 C 
HETATM   22  C1  UNL     1     -14.338 -42.178  13.748  1.00  0.00     0.005 C 
ENDBRANCH  20  21
ENDBRANCH   1  20
BRANCH  11  23
HETATM   23  O6  UNL     1     -17.689 -41.312  17.083  1.00  0.00    -0.392 OA
ATOM     24  H6  UNL     1     -18.492 -41.671  17.442  1.00  0.00     0.210 HD
ENDBRANCH  11  23
BRANCH  10  25
HETATM   25  O5  UNL     1     -16.922 -39.493  18.690  1.00  0.00    -0.387 OA
ATOM     26  H5  UNL     1     -17.061 -38.865  19.388  1.00  0.00     0.210 HD
ENDBRANCH  10  25
BRANCH   9  27
HETATM   27  O4  UNL     1     -17.120 -36.960  16.167  1.00  0.00    -0.361 OA
ATOM     28  H4  UNL     1     -16.483 -36.508  15.627  1.00  0.00     0.213 HD
ENDBRANCH   9  27
BRANCH   5  29
HETATM   29  O2  UNL     1     -13.184 -38.491  17.898  1.00  0.00    -0.359 OA
ATOM     30  H2  UNL     1     -13.129 -38.653  18.832  1.00  0.00     0.214 HD
ENDBRANCH   5  29
BRANCH   6  31
HETATM   31  C7  UNL     1     -14.343 -36.871  20.002  1.00  0.00     0.126 C 
HETATM   32  C8  UNL     1     -13.545 -35.612  19.961  1.00  0.00     0.026 C 
ENDBRANCH   6  31
TORSDOF 9
ENDMDL
MODEL 2
REMARK VINA RESULT: -6.799293288      2.988      5.614
REMARK  9 active torsions:
REMARK  status: ('A' for Active; 'I' for Inactive)
REMARK    1  A    between atoms: C2_2  and  C3_3 
REMARK    2  A    between atoms: C3_3  and  C4_4 
REMARK    3  A    between atoms: C6_8  and  O2_9 
REMARK    4  A    between atoms: N2_11  and  C7_12 
REMARK    5  A    between atoms: C10_16  and  O4_17 
REMARK    6  A    between atoms: C11_19  and  O5_20 
REMARK    7  A    between atoms: C12_22  and  O6_23 
REMARK    8  A    between atoms: C13_25  and  S1_26 
REMARK    9  A    between atoms: S1_26  and  C14_27 
ROOT
HETATM    1  C4  UNL     1     -16.737 -41.499  15.324  1.00  0.00     0.094 C 
HETATM    2  C5  UNL     1     -16.978 -40.111  15.861  1.00  0.00     0.231 C 
HETATM    3  O1  UNL     1     -16.117 -39.571  16.591  1.00  0.00    -0.273 OA
HETATM    4  N1  UNL     1     -18.161 -39.341  15.585  1.00  0.00    -0.264 N 
HETATM    5  C6  UNL     1     -18.734 -38.476  16.597  1.00  0.00     0.339 C 
HETATM    6  N2  UNL     1     -20.053 -38.172  16.102  1.00  0.00    -0.304 N 
HETATM    7  C9  UNL     1     -20.030 -38.392  14.710  1.00  0.00     0.282 C 
HETATM    8  O3  UNL     1     -20.864 -37.882  13.892  1.00  0.00    -0.268 OA
HETATM    9  C10 UNL     1     -18.883 -39.309  14.357  1.00  0.00     0.252 C 
HETATM   10  C11 UNL     1     -19.480 -40.583  13.900  1.00  0.00     0.214 C 
HETATM   11  C12 UNL     1     -18.617 -41.732  13.639  1.00  0.00     0.166 C 
HETATM   12  C13 UNL     1     -17.139 -41.589  13.895  1.00  0.00     0.092 C 
ENDROOT
BRANCH  12  13
HETATM   13  S1  UNL     1     -16.354 -42.968  13.064  1.00  0.00    -0.156 SA
BRANCH  13  14
HETATM   14  C14 UNL     1     -14.624 -42.846  12.735  1.00  0.00     0.048 C 
HETATM   15  C15 UNL     1     -14.163 -41.430  12.621  1.00  0.00     0.015 C 
HETATM   16  C16 UNL     1     -12.760 -41.267  13.206  1.00  0.00     0.001 C 
HETATM   17  C17 UNL     1     -11.921 -42.473  12.810  1.00  0.00     0.000 C 
HETATM   18  C18 UNL     1     -12.420 -43.700  13.573  1.00  0.00     0.001 C 
HETATM   19  C19 UNL     1     -13.880 -43.491  13.919  1.00  0.00     0.015 C 
ENDBRANCH  13  14
ENDBRANCH  12  13
BRANCH   1  20
HETATM   20  C3  UNL     1     -17.349 -42.478  16.252  1.00  0.00     0.015 C 
BRANCH  20  21
HETATM   21  C2  UNL     1     -16.315 -43.410  16.823  1.00  0.00    -0.004 C 
HETATM   22  C1  UNL     1     -16.484 -44.842  16.411  1.00  0.00     0.005 C 
ENDBRANCH  20  21
ENDBRANCH   1  20
BRANCH  11  23
HETATM   23  O6  UNL     1     -19.030 -42.950  14.176  1.00  0.00    -0.392 OA
ATOM     24  H6  UNL     1     -19.489 -43.536  13.587  1.00  0.00     0.210 HD
ENDBRANCH  11  23
BRANCH  10  25
HETATM   25  O5  UNL     1     -20.469 -40.957  14.838  1.00  0.00    -0.387 OA
ATOM     26  H5  UNL     1     -20.375 -41.889  15.001  1.00  0.00     0.210 HD
ENDBRANCH  10  25
BRANCH   9  27
HETATM   27  O4  UNL     1     -18.202 -38.622  13.343  1.00  0.00    -0.361 OA
ATOM     28  H4  UNL     1     -18.268 -37.678  13.428  1.00  0.00     0.213 HD
ENDBRANCH   9  27
BRANCH   5  29
HETATM   29  O2  UNL     1     -18.792 -39.031  17.851  1.00  0.00    -0.359 OA
ATOM     30  H2  UNL     1     -19.579 -39.533  18.022  1.00  0.00     0.214 HD
ENDBRANCH   5  29
BRANCH   6  31
HETATM   31  C7  UNL     1     -21.196 -37.722  16.901  1.00  0.00     0.126 C 
HETATM   32  C8  UNL     1     -22.463 -38.277  16.344  1.00  0.00     0.026 C 
ENDBRANCH   6  31
TORSDOF 9
ENDMDL
MODEL 3
REMARK VINA RESULT: -6.764950434      4.855      8.254
REMARK  9 active torsions:
REMARK  status: ('A' for Active; 'I' for Inactive)
REMARK    1  A    between atoms: C2_2  and  C3_3 
REMARK    2  A    between atoms: C3_3  and  C4_4 
REMARK    3  A    between atoms: C6_8  and  O2_9 
REMARK    4  A    between atoms: N2_11  and  C7_12 
REMARK    5  A    between atoms: C10_16  and  O4_17 
REMARK    6  A    between atoms: C11_19  and  O5_20 
REMARK    7  A    between atoms: C12_22  and  O6_23 
REMARK    8  A    between atoms: C13_25  and  S1_26 
REMARK    9  A    between atoms: S1_26  and  C14_27 
ROOT
HETATM    1  C4  UNL     1     -12.194 -39.888  13.085  1.00  0.00     0.094 C 
HETATM    2  C5  UNL     1     -13.568 -40.162  13.642  1.00  0.00     0.231 C 
HETATM    3  O1  UNL     1     -14.346 -39.208  13.868  1.00  0.00    -0.273 OA
HETATM    4  N1  UNL     1     -14.063 -41.479  13.939  1.00  0.00    -0.264 N 
HETATM    5  C6  UNL     1     -14.925 -41.706  15.082  1.00  0.00     0.339 C 
HETATM    6  N2  UNL     1     -14.913 -43.136  15.260  1.00  0.00    -0.304 N 
HETATM    7  C9  UNL     1     -14.531 -43.700  14.026  1.00  0.00     0.282 C 
HETATM    8  O3  UNL     1     -14.771 -44.905  13.686  1.00  0.00    -0.268 OA
HETATM    9  C10 UNL     1     -13.808 -42.667  13.195  1.00  0.00     0.252 C 
HETATM   10  C11 UNL     1     -12.397 -43.105  13.100  1.00  0.00     0.214 C 
HETATM   11  C12 UNL     1     -11.406 -42.224  12.489  1.00  0.00     0.166 C 
HETATM   12  C13 UNL     1     -11.854 -40.865  12.016  1.00  0.00     0.092 C 
ENDROOT
BRANCH  12  13
HETATM   13  S1  UNL     1     -10.554 -40.258  10.943  1.00  0.00    -0.156 SA
BRANCH  13  14
HETATM   14  C14 UNL     1     -10.314 -41.084   9.403  1.00  0.00     0.048 C 
HETATM   15  C15 UNL     1      -9.867 -40.157   8.321  1.00  0.00     0.015 C 
HETATM   16  C16 UNL     1      -8.879 -40.851   7.384  1.00  0.00     0.001 C 
HETATM   17  C17 UNL     1      -9.349 -42.278   7.145  1.00  0.00     0.000 C 
HETATM   18  C18 UNL     1      -9.161 -43.087   8.428  1.00  0.00     0.001 C 
HETATM   19  C19 UNL     1      -9.209 -42.138   9.608  1.00  0.00     0.015 C 
ENDBRANCH  13  14
ENDBRANCH  12  13
BRANCH   1  20
HETATM   20  C3  UNL     1     -11.240 -39.776  14.213  1.00  0.00     0.015 C 
BRANCH  20  21
HETATM   21  C2  UNL     1     -10.954 -38.336  14.546  1.00  0.00    -0.004 C 
HETATM   22  C1  UNL     1     -11.681 -37.830  15.756  1.00  0.00     0.005 C 
ENDBRANCH  20  21
ENDBRANCH   1  20
BRANCH  11  23
HETATM   23  O6  UNL     1     -10.210 -42.064  13.184  1.00  0.00    -0.392 OA
ATOM     24  H6  UNL     1      -9.414 -42.104  12.667  1.00  0.00     0.210 HD
ENDBRANCH  11  23
BRANCH  10  25
HETATM   25  O5  UNL     1     -11.965 -43.448  14.401  1.00  0.00    -0.387 OA
ATOM     26  H5  UNL     1     -11.190 -42.933  14.593  1.00  0.00     0.210 HD
ENDBRANCH  10  25
BRANCH   9  27
HETATM   27  O4  UNL     1     -14.479 -42.694  11.965  1.00  0.00    -0.361 OA
ATOM     28  H4  UNL     1     -15.286 -43.193  11.996  1.00  0.00     0.213 HD
ENDBRANCH   9  27
BRANCH   5  29
HETATM   29  O2  UNL     1     -14.529 -41.062  16.227  1.00  0.00    -0.359 OA
ATOM     30  H2  UNL     1     -13.683 -41.338  16.560  1.00  0.00     0.214 HD
ENDBRANCH   5  29
BRANCH   6  31
HETATM   31  C7  UNL     1     -15.237 -43.859  16.493  1.00  0.00     0.126 C 
HETATM   32  C8  UNL     1     -16.707 -43.820  16.740  1.00  0.00     0.026 C 
ENDBRANCH   6  31
TORSDOF 9
ENDMDL
MODEL 4
REMARK VINA RESULT: -6.674770179      3.582      5.373
REMARK  9 active torsions:
REMARK  status: ('A' for Active; 'I' for Inactive)
REMARK    1  A    between atoms: C2_2  and  C3_3 
REMARK    2  A    between atoms: C3_3  and  C4_4 
REMARK    3  A    between atoms: C6_8  and  O2_9 
REMARK    4  A    between atoms: N2_11  and  C7_12 
REMARK    5  A    between atoms: C10_16  and  O4_17 
REMARK    6  A    between atoms: C11_19  and  O5_20 
REMARK    7  A    between atoms: C12_22  and  O6_23 
REMARK    8  A    between atoms: C13_25  and  S1_26 
REMARK    9  A    between atoms: S1_26  and  C14_27 
ROOT
HETATM    1  C4  UNL     1     -17.356 -40.092  12.672  1.00  0.00     0.094 C 
HETATM    2  C5  UNL     1     -15.962 -40.490  13.090  1.00  0.00     0.231 C 
HETATM    3  O1  UNL     1     -14.976 -39.893  12.604  1.00  0.00    -0.273 OA
HETATM    4  N1  UNL     1     -15.680 -41.535  14.037  1.00  0.00    -0.264 N 
HETATM    5  C6  UNL     1     -14.523 -42.392  13.870  1.00  0.00     0.339 C 
HETATM    6  N2  UNL     1     -14.766 -43.498  14.761  1.00  0.00    -0.304 N 
HETATM    7  C9  UNL     1     -15.689 -43.052  15.728  1.00  0.00     0.282 C 
HETATM    8  O3  UNL     1     -15.850 -43.599  16.868  1.00  0.00    -0.268 OA
HETATM    9  C10 UNL     1     -16.437 -41.849  15.203  1.00  0.00     0.252 C 
HETATM   10  C11 UNL     1     -17.838 -42.274  14.995  1.00  0.00     0.214 C 
HETATM   11  C12 UNL     1     -18.778 -41.370  14.338  1.00  0.00     0.166 C 
HETATM   12  C13 UNL     1     -18.265 -40.040  13.848  1.00  0.00     0.092 C 
ENDROOT
BRANCH  12  13
HETATM   13  S1  UNL     1     -19.713 -39.034  13.530  1.00  0.00    -0.156 SA
BRANCH  13  14
HETATM   14  C14 UNL     1     -20.429 -38.178  14.897  1.00  0.00     0.048 C 
HETATM   15  C15 UNL     1     -21.889 -38.457  15.045  1.00  0.00     0.015 C 
HETATM   16  C16 UNL     1     -22.285 -38.511  16.520  1.00  0.00     0.001 C 
HETATM   17  C17 UNL     1     -21.547 -37.409  17.265  1.00  0.00     0.000 C 
HETATM   18  C18 UNL     1     -20.062 -37.766  17.343  1.00  0.00     0.001 C 
HETATM   19  C19 UNL     1     -19.723 -38.668  16.174  1.00  0.00     0.015 C 
ENDBRANCH  13  14
ENDBRANCH  12  13
BRANCH   1  20
HETATM   20  C3  UNL     1     -17.775 -40.955  11.542  1.00  0.00     0.015 C 
BRANCH  20  21
HETATM   21  C2  UNL     1     -17.471 -40.308  10.218  1.00  0.00    -0.004 C 
HETATM   22  C1  UNL     1     -18.123 -38.972  10.023  1.00  0.00     0.005 C 
ENDBRANCH  20  21
ENDBRANCH   1  20
BRANCH  11  23
HETATM   23  O6  UNL     1     -19.568 -41.922  13.333  1.00  0.00    -0.392 OA
ATOM     24  H6  UNL     1     -19.304 -41.737  12.440  1.00  0.00     0.210 HD
ENDBRANCH  11  23
BRANCH  10  25
HETATM   25  O5  UNL     1     -17.817 -43.500  14.293  1.00  0.00    -0.387 OA
ATOM     26  H5  UNL     1     -17.101 -44.020  14.640  1.00  0.00     0.210 HD
ENDBRANCH  10  25
BRANCH   9  27
HETATM   27  O4  UNL     1     -16.293 -40.893  16.218  1.00  0.00    -0.361 OA
ATOM     28  H4  UNL     1     -16.985 -40.243  16.212  1.00  0.00     0.213 HD
ENDBRANCH   9  27
BRANCH   5  29
HETATM   29  O2  UNL     1     -14.320 -42.826  12.584  1.00  0.00    -0.359 OA
ATOM     30  H2  UNL     1     -14.122 -43.752  12.510  1.00  0.00     0.214 HD
ENDBRANCH   5  29
BRANCH   6  31
HETATM   31  C7  UNL     1     -14.165 -44.832  14.671  1.00  0.00     0.126 C 
HETATM   32  C8  UNL     1     -12.849 -44.851  15.372  1.00  0.00     0.026 C 
ENDBRANCH   6  31
TORSDOF 9
ENDMDL
MODEL 5
REMARK VINA RESULT: -6.637028017      3.186      5.031
REMARK  9 active torsions:
REMARK  status: ('A' for Active; 'I' for Inactive)
REMARK    1  A    between atoms: C2_2  and  C3_3 
REMARK    2  A    between atoms: C3_3  and  C4_4 
REMARK    3  A    between atoms: C6_8  and  O2_9 
REMARK    4  A    between atoms: N2_11  and  C7_12 
REMARK    5  A    between atoms: C10_16  and  O4_17 
REMARK    6  A    between atoms: C11_19  and  O5_20 
REMARK    7  A    between atoms: C12_22  and  O6_23 
REMARK    8  A    between atoms: C13_25  and  S1_26 
REMARK    9  A    between atoms: S1_26  and  C14_27 
ROOT
HETATM    1  C4  UNL     1     -16.989 -41.039  14.531  1.00  0.00     0.094 C 
HETATM    2  C5  UNL     1     -17.225 -39.736  15.254  1.00  0.00     0.231 C 
HETATM    3  O1  UNL     1     -16.276 -39.177  15.847  1.00  0.00    -0.273 OA
HETATM    4  N1  UNL     1     -18.499 -39.071  15.308  1.00  0.00    -0.264 N 
HETATM    5  C6  UNL     1     -18.913 -38.363  16.503  1.00  0.00     0.339 C 
HETATM    6  N2  UNL     1     -20.328 -38.155  16.322  1.00  0.00    -0.304 N 
HETATM    7  C9  UNL     1     -20.583 -38.246  14.939  1.00  0.00     0.282 C 
HETATM    8  O3  UNL     1     -21.610 -37.754  14.367  1.00  0.00    -0.268 OA
HETATM    9  C10 UNL     1     -19.465 -39.005  14.263  1.00  0.00     0.252 C 
HETATM   10  C11 UNL     1     -20.038 -40.288  13.801  1.00  0.00     0.214 C 
HETATM   11  C12 UNL     1     -19.159 -41.314  13.248  1.00  0.00     0.166 C 
HETATM   12  C13 UNL     1     -17.677 -41.043  13.212  1.00  0.00     0.092 C 
ENDROOT
BRANCH  12  13
HETATM   13  S1  UNL     1     -16.974 -42.253  12.094  1.00  0.00    -0.156 SA
BRANCH  13  14
HETATM   14  C14 UNL     1     -16.389 -41.680  10.532  1.00  0.00     0.048 C 
HETATM   15  C15 UNL     1     -17.304 -40.674   9.913  1.00  0.00     0.015 C 
HETATM   16  C16 UNL     1     -16.509 -39.608   9.160  1.00  0.00     0.001 C 
HETATM   17  C17 UNL     1     -15.360 -40.282   8.426  1.00  0.00     0.000 C 
HETATM   18  C18 UNL     1     -14.326 -40.757   9.446  1.00  0.00     0.001 C 
HETATM   19  C19 UNL     1     -15.028 -40.999  10.766  1.00  0.00     0.015 C 
ENDBRANCH  13  14
ENDBRANCH  12  13
BRANCH   1  20
HETATM   20  C3  UNL     1     -17.308 -42.155  15.452  1.00  0.00     0.015 C 
BRANCH  20  21
HETATM   21  C2  UNL     1     -16.077 -42.640  16.169  1.00  0.00    -0.004 C 
HETATM   22  C1  UNL     1     -14.844 -42.679  15.316  1.00  0.00     0.005 C 
ENDBRANCH  20  21
ENDBRANCH   1  20
BRANCH  11  23
HETATM   23  O6  UNL     1     -19.346 -42.611  13.722  1.00  0.00    -0.392 OA
ATOM     24  H6  UNL     1     -20.051 -43.107  13.324  1.00  0.00     0.210 HD
ENDBRANCH  11  23
BRANCH  10  25
HETATM   25  O5  UNL     1     -20.771 -40.844  14.874  1.00  0.00    -0.387 OA
ATOM     26  H5  UNL     1     -20.172 -41.371  15.391  1.00  0.00     0.210 HD
ENDBRANCH  10  25
BRANCH   9  27
HETATM   27  O4  UNL     1     -19.073 -38.164  13.213  1.00  0.00    -0.361 OA
ATOM     28  H4  UNL     1     -19.587 -38.294  12.425  1.00  0.00     0.213 HD
ENDBRANCH   9  27
BRANCH   5  29
HETATM   29  O2  UNL     1     -18.658 -39.030  17.675  1.00  0.00    -0.359 OA
ATOM     30  H2  UNL     1     -18.930 -39.940  17.676  1.00  0.00     0.214 HD
ENDBRANCH   5  29
BRANCH   6  31
HETATM   31  C7  UNL     1     -21.308 -37.898  17.380  1.00  0.00     0.126 C 
HETATM   32  C8  UNL     1     -22.689 -38.138  16.871  1.00  0.00     0.026 C 
ENDBRANCH   6  31
TORSDOF 9
ENDMDL
