MODEL 1
REMARK VINA RESULT: -8.724422749      0.000      0.000
REMARK  6 active torsions:
REMARK  status: ('A' for Active; 'I' for Inactive)
REMARK       I    between atoms: C1_2  and  N1_3 
REMARK    1  A    between atoms: C1_2  and  C18_29 
REMARK    2  A    between atoms: N1_3  and  C2_5 
REMARK    3  A    between atoms: C2_5  and  C3_6 
REMARK    4  A    between atoms: C2_5  and  C4_9 
REMARK       I    between atoms: C4_9  and  N2_11 
REMARK    5  A    between atoms: C16_23  and  C17_24 
REMARK    6  A    between atoms: C17_24  and  O5_25 
ROOT
HETATM    1  C4  UNL     1     -11.297 -38.470  15.121  1.00  0.00     0.253 C 
HETATM    2  O4  UNL     1     -10.096 -38.530  15.571  1.00  0.00    -0.270 OA
HETATM    3  N2  UNL     1     -11.640 -39.441  14.180  1.00  0.00    -0.350 N 
HETATM    4  C5  UNL     1     -12.927 -39.488  13.546  1.00  0.00     0.129 C 
HETATM    5  C6  UNL     1     -12.776 -39.739  12.042  1.00  0.00     0.061 C 
HETATM    6  C7  UNL     1     -11.996 -41.013  11.800  1.00  0.00     0.102 C 
HETATM    7  C8  UNL     1     -11.426 -41.559  13.084  1.00  0.00     0.061 C 
HETATM    8  C9  UNL     1     -10.683 -40.453  13.790  1.00  0.00     0.129 C 
HETATM    9  C10 UNL     1     -10.872 -40.806  10.812  1.00  0.00     0.083 C 
HETATM   10  C11 UNL     1     -11.309 -41.636   9.627  1.00  0.00     0.105 C 
HETATM   11  C12 UNL     1     -11.137 -40.845   8.386  1.00  0.00     0.042 C 
HETATM   12  C13 UNL     1      -9.799 -40.856   7.751  1.00  0.00     0.003 C 
HETATM   13  C14 UNL     1      -8.728 -41.532   8.554  1.00  0.00     0.001 C 
HETATM   14  C15 UNL     1      -9.150 -42.786   9.219  1.00  0.00     0.010 C 
HETATM   15  C16 UNL     1     -10.577 -42.919   9.579  1.00  0.00     0.047 C 
HETATM   16  O6  UNL     1     -12.671 -41.795   9.882  1.00  0.00    -0.228 OA
HETATM   17  O7  UNL     1     -12.790 -41.975  11.174  1.00  0.00    -0.229 OA
ENDROOT
BRANCH   1  18
HETATM   18  C2  UNL     1     -12.198 -37.422  15.599  1.00  0.00     0.278 C 
BRANCH  18  19
HETATM   19  N1  UNL     1     -11.530 -36.457  16.478  1.00  0.00    -0.339 N 
HETATM   20  C1  UNL     1     -11.886 -35.119  16.656  1.00  0.00     0.223 C 
HETATM   21  O1  UNL     1     -12.846 -34.593  16.066  1.00  0.00    -0.273 OA
ATOM     22  H1  UNL     1     -10.728 -36.796  17.010  1.00  0.00     0.163 HD
BRANCH  20  23
HETATM   23  C18 UNL     1     -11.095 -34.247  17.593  1.00  0.00     0.078 A 
HETATM   24  C19 UNL     1     -11.833 -33.587  18.750  1.00  0.00     0.015 A 
HETATM   25  C20 UNL     1     -10.912 -34.699  19.000  1.00  0.00     0.015 A 
ENDBRANCH  20  23
ENDBRANCH  18  19
BRANCH  18  26
HETATM   26  C3  UNL     1     -13.356 -38.003  16.305  1.00  0.00     0.206 C 
HETATM   27  O2  UNL     1     -14.490 -37.495  16.170  1.00  0.00    -0.646 OA
HETATM   28  O3  UNL     1     -13.240 -39.091  17.117  1.00  0.00    -0.646 OA
ENDBRANCH  18  26
ENDBRANCH   1  18
BRANCH  15  29
HETATM   29  C17 UNL     1     -11.269 -43.970   8.737  1.00  0.00     0.172 C 
BRANCH  29  30
HETATM   30  O5  UNL     1     -12.337 -44.517   9.438  1.00  0.00    -0.400 OA
ATOM     31  H5  UNL     1     -12.878 -45.037   8.855  1.00  0.00     0.209 HD
ENDBRANCH  29  30
ENDBRANCH  15  29
TORSDOF 6
ENDMDL
MODEL 2
REMARK VINA RESULT: -7.959779179      4.989      6.533
REMARK  6 active torsions:
REMARK  status: ('A' for Active; 'I' for Inactive)
REMARK       I    between atoms: C1_2  and  N1_3 
REMARK    1  A    between atoms: C1_2  and  C18_29 
REMARK    2  A    between atoms: N1_3  and  C2_5 
REMARK    3  A    between atoms: C2_5  and  C3_6 
REMARK    4  A    between atoms: C2_5  and  C4_9 
REMARK       I    between atoms: C4_9  and  N2_11 
REMARK    5  A    between atoms: C16_23  and  C17_24 
REMARK    6  A    between atoms: C17_24  and  O5_25 
ROOT
HETATM    1  C4  UNL     1     -16.474 -38.301  17.051  1.00  0.00     0.253 C 
HETATM    2  O4  UNL     1     -15.775 -37.275  16.723  1.00  0.00    -0.270 OA
HETATM    3  N2  UNL     1     -16.112 -39.500  16.439  1.00  0.00    -0.350 N 
HETATM    4  C5  UNL     1     -16.819 -40.730  16.662  1.00  0.00     0.129 C 
HETATM    5  C6  UNL     1     -17.051 -41.464  15.337  1.00  0.00     0.061 C 
HETATM    6  C7  UNL     1     -15.733 -41.705  14.635  1.00  0.00     0.102 C 
HETATM    7  C8  UNL     1     -14.601 -40.991  15.331  1.00  0.00     0.061 C 
HETATM    8  C9  UNL     1     -14.992 -39.548  15.526  1.00  0.00     0.129 C 
HETATM    9  C10 UNL     1     -15.775 -41.268  13.190  1.00  0.00     0.083 C 
HETATM   10  C11 UNL     1     -15.654 -42.573  12.439  1.00  0.00     0.105 C 
HETATM   11  C12 UNL     1     -16.670 -42.615  11.361  1.00  0.00     0.042 C 
HETATM   12  C13 UNL     1     -16.321 -41.976  10.071  1.00  0.00     0.003 C 
HETATM   13  C14 UNL     1     -15.035 -41.203  10.080  1.00  0.00     0.001 C 
HETATM   14  C15 UNL     1     -13.925 -41.856  10.811  1.00  0.00     0.010 C 
HETATM   15  C16 UNL     1     -14.282 -42.763  11.922  1.00  0.00     0.047 C 
HETATM   16  O6  UNL     1     -15.997 -43.498  13.425  1.00  0.00    -0.228 OA
HETATM   17  O7  UNL     1     -15.458 -43.070  14.540  1.00  0.00    -0.229 OA
ENDROOT
BRANCH   1  18
HETATM   18  C2  UNL     1     -17.572 -38.153  18.006  1.00  0.00     0.278 C 
BRANCH  18  19
HETATM   19  N1  UNL     1     -18.815 -37.700  17.374  1.00  0.00    -0.339 N 
HETATM   20  C1  UNL     1     -20.108 -37.895  17.864  1.00  0.00     0.223 C 
HETATM   21  O1  UNL     1     -20.342 -38.492  18.929  1.00  0.00    -0.273 OA
ATOM     22  H1  UNL     1     -18.727 -37.194  16.492  1.00  0.00     0.163 HD
BRANCH  20  23
HETATM   23  C18 UNL     1     -21.292 -37.373  17.095  1.00  0.00     0.078 A 
HETATM   24  C19 UNL     1     -21.822 -38.214  15.942  1.00  0.00     0.015 A 
HETATM   25  C20 UNL     1     -22.582 -38.110  17.190  1.00  0.00     0.015 A 
ENDBRANCH  20  23
ENDBRANCH  18  19
BRANCH  18  26
HETATM   26  C3  UNL     1     -17.208 -37.220  19.089  1.00  0.00     0.206 C 
HETATM   27  O2  UNL     1     -16.427 -37.586  19.994  1.00  0.00    -0.646 OA
HETATM   28  O3  UNL     1     -17.698 -35.950  19.149  1.00  0.00    -0.646 OA
ENDBRANCH  18  26
ENDBRANCH   1  18
BRANCH  15  29
HETATM   29  C17 UNL     1     -13.963 -44.204  11.589  1.00  0.00     0.172 C 
BRANCH  29  30
HETATM   30  O5  UNL     1     -13.650 -44.905  12.747  1.00  0.00    -0.400 OA
ATOM     31  H5  UNL     1     -14.264 -45.619  12.874  1.00  0.00     0.209 HD
ENDBRANCH  29  30
ENDBRANCH  15  29
TORSDOF 6
ENDMDL
MODEL 3
REMARK VINA RESULT: -7.932030906      5.711      7.075
REMARK  6 active torsions:
REMARK  status: ('A' for Active; 'I' for Inactive)
REMARK       I    between atoms: C1_2  and  N1_3 
REMARK    1  A    between atoms: C1_2  and  C18_29 
REMARK    2  A    between atoms: N1_3  and  C2_5 
REMARK    3  A    between atoms: C2_5  and  C3_6 
REMARK    4  A    between atoms: C2_5  and  C4_9 
REMARK       I    between atoms: C4_9  and  N2_11 
REMARK    5  A    between atoms: C16_23  and  C17_24 
REMARK    6  A    between atoms: C17_24  and  O5_25 
ROOT
HETATM    1  C4  UNL     1     -17.474 -39.955  16.925  1.00  0.00     0.253 C 
HETATM    2  O4  UNL     1     -16.777 -40.855  17.520  1.00  0.00    -0.270 OA
HETATM    3  N2  UNL     1     -17.870 -40.258  15.622  1.00  0.00    -0.350 N 
HETATM    4  C5  UNL     1     -18.615 -39.343  14.804  1.00  0.00     0.129 C 
HETATM    5  C6  UNL     1     -18.038 -39.301  13.385  1.00  0.00     0.061 C 
HETATM    6  C7  UNL     1     -18.022 -40.689  12.785  1.00  0.00     0.102 C 
HETATM    7  C8  UNL     1     -18.386 -41.734  13.809  1.00  0.00     0.061 C 
HETATM    8  C9  UNL     1     -17.525 -41.532  15.030  1.00  0.00     0.129 C 
HETATM    9  C10 UNL     1     -16.676 -41.031  12.192  1.00  0.00     0.083 C 
HETATM   10  C11 UNL     1     -16.971 -41.117  10.712  1.00  0.00     0.105 C 
HETATM   11  C12 UNL     1     -15.937 -40.368   9.961  1.00  0.00     0.042 C 
HETATM   12  C13 UNL     1     -14.682 -41.084   9.632  1.00  0.00     0.003 C 
HETATM   13  C14 UNL     1     -14.546 -42.437  10.264  1.00  0.00     0.001 C 
HETATM   14  C15 UNL     1     -15.785 -43.249  10.264  1.00  0.00     0.010 C 
HETATM   15  C16 UNL     1     -17.073 -42.524  10.272  1.00  0.00     0.047 C 
HETATM   16  O6  UNL     1     -18.183 -40.431  10.627  1.00  0.00    -0.228 OA
HETATM   17  O7  UNL     1     -18.877 -40.769  11.685  1.00  0.00    -0.229 OA
ENDROOT
BRANCH   1  18
HETATM   18  C2  UNL     1     -17.793 -38.709  17.621  1.00  0.00     0.278 C 
BRANCH  18  19
HETATM   19  N1  UNL     1     -19.037 -38.096  17.145  1.00  0.00    -0.339 N 
HETATM   20  C1  UNL     1     -20.238 -38.014  17.851  1.00  0.00     0.223 C 
HETATM   21  O1  UNL     1     -20.377 -38.466  19.001  1.00  0.00    -0.273 OA
ATOM     22  H1  UNL     1     -19.024 -37.691  16.209  1.00  0.00     0.163 HD
BRANCH  20  23
HETATM   23  C18 UNL     1     -21.438 -37.356  17.224  1.00  0.00     0.078 A 
HETATM   24  C19 UNL     1     -22.253 -38.163  16.222  1.00  0.00     0.015 A 
HETATM   25  C20 UNL     1     -22.791 -37.882  17.555  1.00  0.00     0.015 A 
ENDBRANCH  20  23
ENDBRANCH  18  19
BRANCH  18  26
HETATM   26  C3  UNL     1     -16.691 -37.736  17.492  1.00  0.00     0.206 C 
HETATM   27  O2  UNL     1     -15.748 -37.747  18.314  1.00  0.00    -0.646 OA
HETATM   28  O3  UNL     1     -16.656 -36.805  16.498  1.00  0.00    -0.646 OA
ENDBRANCH  18  26
ENDBRANCH   1  18
BRANCH  15  29
HETATM   29  C17 UNL     1     -17.813 -42.688   8.962  1.00  0.00     0.172 C 
BRANCH  29  30
HETATM   30  O5  UNL     1     -19.185 -42.655   9.180  1.00  0.00    -0.400 OA
ATOM     31  H5  UNL     1     -19.581 -41.958   8.670  1.00  0.00     0.209 HD
ENDBRANCH  29  30
ENDBRANCH  15  29
TORSDOF 6
ENDMDL
MODEL 4
REMARK VINA RESULT: -7.758676778      5.759      6.856
REMARK  6 active torsions:
REMARK  status: ('A' for Active; 'I' for Inactive)
REMARK       I    between atoms: C1_2  and  N1_3 
REMARK    1  A    between atoms: C1_2  and  C18_29 
REMARK    2  A    between atoms: N1_3  and  C2_5 
REMARK    3  A    between atoms: C2_5  and  C3_6 
REMARK    4  A    between atoms: C2_5  and  C4_9 
REMARK       I    between atoms: C4_9  and  N2_11 
REMARK    5  A    between atoms: C16_23  and  C17_24 
REMARK    6  A    between atoms: C17_24  and  O5_25 
ROOT
HETATM    1  C4  UNL     1     -18.792 -39.320  16.004  1.00  0.00     0.253 C 
HETATM    2  O4  UNL     1     -18.472 -40.429  16.566  1.00  0.00    -0.270 OA
HETATM    3  N2  UNL     1     -19.022 -39.383  14.629  1.00  0.00    -0.350 N 
HETATM    4  C5  UNL     1     -19.344 -38.226  13.842  1.00  0.00     0.129 C 
HETATM    5  C6  UNL     1     -18.540 -38.224  12.538  1.00  0.00     0.061 C 
HETATM    6  C7  UNL     1     -18.789 -39.501  11.767  1.00  0.00     0.102 C 
HETATM    7  C8  UNL     1     -19.588 -40.487  12.582  1.00  0.00     0.061 C 
HETATM    8  C9  UNL     1     -18.929 -40.645  13.929  1.00  0.00     0.129 C 
HETATM    9  C10 UNL     1     -17.499 -40.157  11.331  1.00  0.00     0.083 C 
HETATM   10  C11 UNL     1     -17.546 -40.025   9.827  1.00  0.00     0.105 C 
HETATM   11  C12 UNL     1     -16.236 -39.536   9.337  1.00  0.00     0.042 C 
HETATM   12  C13 UNL     1     -15.179 -40.545   9.097  1.00  0.00     0.003 C 
HETATM   13  C14 UNL     1     -15.517 -41.932   9.557  1.00  0.00     0.001 C 
HETATM   14  C15 UNL     1     -16.907 -42.357   9.273  1.00  0.00     0.010 C 
HETATM   15  C16 UNL     1     -17.939 -41.301   9.194  1.00  0.00     0.047 C 
HETATM   16  O6  UNL     1     -18.499 -39.019   9.662  1.00  0.00    -0.228 OA
HETATM   17  O7  UNL     1     -19.431 -39.239  10.557  1.00  0.00    -0.229 OA
ENDROOT
BRANCH   1  18
HETATM   18  C2  UNL     1     -18.885 -38.101  16.806  1.00  0.00     0.278 C 
BRANCH  18  19
HETATM   19  N1  UNL     1     -17.823 -38.003  17.813  1.00  0.00    -0.339 N 
HETATM   20  C1  UNL     1     -16.582 -37.386  17.645  1.00  0.00     0.223 C 
HETATM   21  O1  UNL     1     -16.243 -36.833  16.585  1.00  0.00    -0.273 OA
ATOM     22  H1  UNL     1     -18.009 -38.426  18.723  1.00  0.00     0.163 HD
BRANCH  20  23
HETATM   23  C18 UNL     1     -15.589 -37.372  18.776  1.00  0.00     0.078 A 
HETATM   24  C19 UNL     1     -15.748 -36.310  19.855  1.00  0.00     0.015 A 
HETATM   25  C20 UNL     1     -16.065 -37.710  20.145  1.00  0.00     0.015 A 
ENDBRANCH  20  23
ENDBRANCH  18  19
BRANCH  18  26
HETATM   26  C3  UNL     1     -20.198 -38.008  17.473  1.00  0.00     0.206 C 
HETATM   27  O2  UNL     1     -21.170 -37.503  16.871  1.00  0.00    -0.646 OA
HETATM   28  O3  UNL     1     -20.400 -38.454  18.744  1.00  0.00    -0.646 OA
ENDBRANCH  18  26
ENDBRANCH   1  18
BRANCH  15  29
HETATM   29  C17 UNL     1     -18.457 -41.133   7.782  1.00  0.00     0.172 C 
BRANCH  29  30
HETATM   30  O5  UNL     1     -19.715 -40.543   7.801  1.00  0.00    -0.400 OA
ATOM     31  H5  UNL     1     -19.716 -39.793   8.384  1.00  0.00     0.209 HD
ENDBRANCH  29  30
ENDBRANCH  15  29
TORSDOF 6
ENDMDL
MODEL 5
REMARK VINA RESULT: -7.716860599      4.961      6.703
REMARK  6 active torsions:
REMARK  status: ('A' for Active; 'I' for Inactive)
REMARK       I    between atoms: C1_2  and  N1_3 
REMARK    1  A    between atoms: C1_2  and  C18_29 
REMARK    2  A    between atoms: N1_3  and  C2_5 
REMARK    3  A    between atoms: C2_5  and  C3_6 
REMARK    4  A    between atoms: C2_5  and  C4_9 
REMARK       I    between atoms: C4_9  and  N2_11 
REMARK    5  A    between atoms: C16_23  and  C17_24 
REMARK    6  A    between atoms: C17_24  and  O5_25 
ROOT
HETATM    1  C4  UNL     1     -17.521 -38.856  16.712  1.00  0.00     0.253 C 
HETATM    2  O4  UNL     1     -16.854 -37.790  16.973  1.00  0.00    -0.270 OA
HETATM    3  N2  UNL     1     -16.778 -39.930  16.222  1.00  0.00    -0.350 N 
HETATM    4  C5  UNL     1     -17.377 -41.177  15.839  1.00  0.00     0.129 C 
HETATM    5  C6  UNL     1     -16.796 -41.664  14.507  1.00  0.00     0.061 C 
HETATM    6  C7  UNL     1     -15.291 -41.782  14.604  1.00  0.00     0.102 C 
HETATM    7  C8  UNL     1     -14.778 -41.205  15.899  1.00  0.00     0.061 C 
HETATM    8  C9  UNL     1     -15.345 -39.818  16.066  1.00  0.00     0.129 C 
HETATM    9  C10 UNL     1     -14.597 -41.096  13.452  1.00  0.00     0.083 C 
HETATM   10  C11 UNL     1     -13.972 -42.248  12.700  1.00  0.00     0.105 C 
HETATM   11  C12 UNL     1     -14.247 -42.096  11.252  1.00  0.00     0.042 C 
HETATM   12  C13 UNL     1     -13.325 -41.240  10.470  1.00  0.00     0.003 C 
HETATM   13  C14 UNL     1     -12.321 -40.485  11.289  1.00  0.00     0.001 C 
HETATM   14  C15 UNL     1     -11.717 -41.259  12.398  1.00  0.00     0.010 C 
HETATM   15  C16 UNL     1     -12.525 -42.348  12.988  1.00  0.00     0.047 C 
HETATM   16  O6  UNL     1     -14.700 -43.332  13.191  1.00  0.00    -0.228 OA
HETATM   17  O7  UNL     1     -14.883 -43.109  14.470  1.00  0.00    -0.229 OA
ENDROOT
BRANCH   1  18
HETATM   18  C2  UNL     1     -18.967 -38.876  16.929  1.00  0.00     0.278 C 
BRANCH  18  19
HETATM   19  N1  UNL     1     -19.718 -38.322  15.798  1.00  0.00    -0.339 N 
HETATM   20  C1  UNL     1     -20.493 -39.045  14.889  1.00  0.00     0.223 C 
HETATM   21  O1  UNL     1     -20.633 -40.278  14.954  1.00  0.00    -0.273 OA
ATOM     22  H1  UNL     1     -19.669 -37.312  15.662  1.00  0.00     0.163 HD
BRANCH  20  23
HETATM   23  C18 UNL     1     -21.203 -38.332  13.770  1.00  0.00     0.078 A 
HETATM   24  C19 UNL     1     -20.455 -38.134  12.459  1.00  0.00     0.015 A 
HETATM   25  C20 UNL     1     -21.551 -39.101  12.544  1.00  0.00     0.015 A 
ENDBRANCH  20  23
ENDBRANCH  18  19
BRANCH  18  26
HETATM   26  C3  UNL     1     -19.327 -38.143  18.158  1.00  0.00     0.206 C 
HETATM   27  O2  UNL     1     -20.124 -37.182  18.102  1.00  0.00    -0.646 OA
HETATM   28  O3  UNL     1     -18.815 -38.473  19.377  1.00  0.00    -0.646 OA
ENDBRANCH  18  26
ENDBRANCH   1  18
BRANCH  15  29
HETATM   29  C17 UNL     1     -11.945 -43.709  12.668  1.00  0.00     0.172 C 
BRANCH  29  30
HETATM   30  O5  UNL     1     -12.180 -44.588  13.718  1.00  0.00    -0.400 OA
ATOM     31  H5  UNL     1     -12.970 -45.090  13.554  1.00  0.00     0.209 HD
ENDBRANCH  29  30
ENDBRANCH  15  29
TORSDOF 6
ENDMDL
