MODEL 1
REMARK VINA RESULT: -9.842791417      0.000      0.000
REMARK  5 active torsions:
REMARK  status: ('A' for Active; 'I' for Inactive)
REMARK    1  A    between atoms: N1_2  and  C3_4 
REMARK    2  A    between atoms: N3_6  and  C4_7 
REMARK    3  A    between atoms: C5_12  and  C6_13 
REMARK    4  A    between atoms: C8_15  and  C9_16 
REMARK    5  A    between atoms: N8_28  and  C16_30 
ROOT
HETATM    1  C6  UNL     1      13.054 -38.856 -15.101  1.00  0.00     0.054 A 
HETATM    2  C7  UNL     1      12.568 -39.617 -14.053  1.00  0.00     0.028 A 
HETATM    3  C8  UNL     1      11.364 -39.393 -13.438  1.00  0.00    -0.037 A 
HETATM    4  C14 UNL     1      10.619 -38.340 -13.914  1.00  0.00     0.097 A 
HETATM    5  N7  UNL     1      11.062 -37.575 -14.937  1.00  0.00    -0.351 N 
ATOM      6  H7  UNL     1      10.485 -36.801 -15.268  1.00  0.00     0.166 HD
HETATM    7  C15 UNL     1      12.266 -37.815 -15.538  1.00  0.00     0.115 A 
HETATM    8  N8  UNL     1      12.573 -37.037 -16.484  1.00  0.00    -0.371 N 
ATOM      9  H8  UNL     1      13.467 -37.205 -16.945  1.00  0.00     0.161 HD
ENDROOT
BRANCH   1  10
HETATM   10  C5  UNL     1      14.336 -39.117 -15.714  1.00  0.00     0.150 A 
HETATM   11  N5  UNL     1      14.806 -40.405 -15.787  1.00  0.00    -0.270 N 
HETATM   12  N4  UNL     1      15.987 -40.399 -16.369  1.00  0.00    -0.129 N 
ATOM     13  H5  UNL     1      14.319 -41.234 -15.445  1.00  0.00     0.189 HD
HETATM   14  C4  UNL     1      16.332 -39.127 -16.695  1.00  0.00     0.712 A 
ATOM     15  H4  UNL     1      16.557 -41.225 -16.548  1.00  0.00     0.205 HD
HETATM   16  N9  UNL     1      15.281 -38.372 -16.272  1.00  0.00    -0.172 N 
ATOM     17  H9  UNL     1      15.226 -37.359 -16.372  1.00  0.00     0.186 HD
BRANCH  14  18
HETATM   18  N3  UNL     1      17.536 -38.745 -17.327  1.00  0.00    -0.122 N 
HETATM   19  N2  UNL     1      18.832 -38.761 -16.810  1.00  0.00    -0.084 NA
HETATM   20  C3  UNL     1      19.716 -38.334 -17.833  1.00  0.00     0.369 C 
HETATM   21  C22 UNL     1      18.856 -37.455 -18.711  1.00  0.00     0.241 C 
HETATM   22  C21 UNL     1      17.567 -38.251 -18.713  1.00  0.00     0.204 C 
HETATM   23  F1  UNL     1      18.567 -36.277 -18.022  1.00  0.00    -0.244 F 
BRANCH  20  24
HETATM   24  N1  UNL     1      20.836 -37.537 -17.373  1.00  0.00     0.104 N 
HETATM   25  C1  UNL     1      22.065 -37.972 -18.015  1.00  0.00     0.311 C 
HETATM   26  C2  UNL     1      21.034 -37.676 -15.943  1.00  0.00     0.311 C 
ENDBRANCH  20  24
ENDBRANCH  14  18
ENDBRANCH   1  10
BRANCH   3  27
HETATM   27  C9  UNL     1      10.847 -40.200 -12.328  1.00  0.00     0.023 C 
HETATM   28  C10 UNL     1      11.863 -41.139 -11.723  1.00  0.00     0.037 C 
HETATM   29  C11 UNL     1      11.061 -42.242 -11.028  1.00  0.00     0.233 C 
HETATM   30  N6  UNL     1       9.827 -41.686 -10.557  1.00  0.00    -0.075 N 
HETATM   31  C12 UNL     1       9.945 -40.324 -10.075  1.00  0.00     0.233 C 
ATOM     32  H62 UNL     1       9.105 -41.752 -11.275  1.00  0.00     0.277 HD
ATOM     33  H61 UNL     1       9.412 -42.285  -9.843  1.00  0.00     0.277 HD
HETATM   34  C13 UNL     1      10.278 -39.365 -11.204  1.00  0.00     0.037 C 
ENDBRANCH   3  27
BRANCH   8  35
HETATM   35  C16 UNL     1      11.791 -35.946 -16.974  1.00  0.00     0.087 C 
HETATM   36  C17 UNL     1      12.212 -34.622 -16.340  1.00  0.00     0.051 C 
HETATM   37  C18 UNL     1      11.375 -33.533 -16.975  1.00  0.00     0.169 C 
HETATM   38  O1  UNL     1      10.598 -34.036 -18.009  1.00  0.00    -0.391 OA
HETATM   39  C19 UNL     1      11.367 -34.648 -18.998  1.00  0.00     0.169 C 
HETATM   40  C20 UNL     1      12.173 -35.802 -18.465  1.00  0.00     0.051 C 
ENDBRANCH   8  35
TORSDOF 5
ENDMDL
MODEL 2
REMARK VINA RESULT: -9.420675892      2.801      8.434
REMARK  5 active torsions:
REMARK  status: ('A' for Active; 'I' for Inactive)
REMARK    1  A    between atoms: N1_2  and  C3_4 
REMARK    2  A    between atoms: N3_6  and  C4_7 
REMARK    3  A    between atoms: C5_12  and  C6_13 
REMARK    4  A    between atoms: C8_15  and  C9_16 
REMARK    5  A    between atoms: N8_28  and  C16_30 
ROOT
HETATM    1  C6  UNL     1      16.457 -39.489 -16.013  1.00  0.00     0.054 A 
HETATM    2  C7  UNL     1      17.840 -39.491 -16.033  1.00  0.00     0.028 A 
HETATM    3  C8  UNL     1      18.603 -38.432 -16.450  1.00  0.00    -0.037 A 
HETATM    4  C14 UNL     1      17.921 -37.314 -16.870  1.00  0.00     0.097 A 
HETATM    5  N7  UNL     1      16.569 -37.276 -16.865  1.00  0.00    -0.351 N 
ATOM      6  H7  UNL     1      16.093 -36.431 -17.183  1.00  0.00     0.166 HD
HETATM    7  C15 UNL     1      15.827 -38.343 -16.444  1.00  0.00     0.115 A 
HETATM    8  N8  UNL     1      14.574 -38.190 -16.480  1.00  0.00    -0.371 N 
ATOM      9  H8  UNL     1      14.005 -38.976 -16.166  1.00  0.00     0.161 HD
ENDROOT
BRANCH   1  10
HETATM   10  C5  UNL     1      15.689 -40.633 -15.577  1.00  0.00     0.150 A 
HETATM   11  N5  UNL     1      15.668 -41.771 -16.344  1.00  0.00    -0.270 N 
HETATM   12  N4  UNL     1      14.900 -42.667 -15.761  1.00  0.00    -0.129 N 
ATOM     13  H5  UNL     1      16.166 -41.901 -17.225  1.00  0.00     0.189 HD
HETATM   14  C4  UNL     1      14.397 -42.160 -14.607  1.00  0.00     0.712 A 
ATOM     15  H4  UNL     1      14.712 -43.602 -16.122  1.00  0.00     0.205 HD
HETATM   16  N9  UNL     1      14.913 -40.903 -14.536  1.00  0.00    -0.172 N 
ATOM     17  H9  UNL     1      14.726 -40.248 -13.776  1.00  0.00     0.186 HD
BRANCH  14  18
HETATM   18  N3  UNL     1      13.528 -42.843 -13.726  1.00  0.00    -0.122 N 
HETATM   19  N2  UNL     1      12.440 -42.338 -13.015  1.00  0.00    -0.084 NA
HETATM   20  C3  UNL     1      11.845 -43.412 -12.304  1.00  0.00     0.369 C 
HETATM   21  C22 UNL     1      12.986 -44.381 -12.095  1.00  0.00     0.241 C 
HETATM   22  C21 UNL     1      13.679 -44.278 -13.439  1.00  0.00     0.204 C 
HETATM   23  F1  UNL     1      13.877 -43.836 -11.171  1.00  0.00    -0.244 F 
BRANCH  20  24
HETATM   24  N1  UNL     1      11.322 -43.059 -10.999  1.00  0.00     0.104 N 
HETATM   25  C1  UNL     1      10.515 -44.144 -10.467  1.00  0.00     0.311 C 
HETATM   26  C2  UNL     1      10.466 -41.890 -11.069  1.00  0.00     0.311 C 
ENDBRANCH  20  24
ENDBRANCH  14  18
ENDBRANCH   1  10
BRANCH   3  27
HETATM   27  C9  UNL     1      20.068 -38.434 -16.470  1.00  0.00     0.023 C 
HETATM   28  C10 UNL     1      20.675 -37.416 -17.406  1.00  0.00     0.037 C 
HETATM   29  C11 UNL     1      22.086 -37.918 -17.723  1.00  0.00     0.233 C 
HETATM   30  N6  UNL     1      22.585 -38.635 -16.587  1.00  0.00    -0.075 N 
HETATM   31  C12 UNL     1      22.176 -38.073 -15.315  1.00  0.00     0.233 C 
ATOM     32  H62 UNL     1      22.330 -39.621 -16.644  1.00  0.00     0.277 HD
ATOM     33  H61 UNL     1      23.601 -38.718 -16.633  1.00  0.00     0.277 HD
HETATM   34  C13 UNL     1      20.678 -38.212 -15.105  1.00  0.00     0.037 C 
ENDBRANCH   3  27
BRANCH   8  35
HETATM   35  C16 UNL     1      13.873 -37.023 -16.918  1.00  0.00     0.087 C 
HETATM   36  C17 UNL     1      13.377 -37.169 -18.354  1.00  0.00     0.051 C 
HETATM   37  C18 UNL     1      12.596 -35.917 -18.690  1.00  0.00     0.169 C 
HETATM   38  O1  UNL     1      12.455 -35.100 -17.576  1.00  0.00    -0.391 OA
HETATM   39  C19 UNL     1      11.826 -35.754 -16.518  1.00  0.00     0.169 C 
HETATM   40  C20 UNL     1      12.586 -36.972 -16.064  1.00  0.00     0.051 C 
ENDBRANCH   8  35
TORSDOF 5
ENDMDL
MODEL 3
REMARK VINA RESULT: -9.045883651      1.264      1.527
REMARK  5 active torsions:
REMARK  status: ('A' for Active; 'I' for Inactive)
REMARK    1  A    between atoms: N1_2  and  C3_4 
REMARK    2  A    between atoms: N3_6  and  C4_7 
REMARK    3  A    between atoms: C5_12  and  C6_13 
REMARK    4  A    between atoms: C8_15  and  C9_16 
REMARK    5  A    between atoms: N8_28  and  C16_30 
ROOT
HETATM    1  C6  UNL     1      13.351 -37.996 -16.007  1.00  0.00     0.054 A 
HETATM    2  C7  UNL     1      13.004 -38.951 -15.069  1.00  0.00     0.028 A 
HETATM    3  C8  UNL     1      11.774 -39.024 -14.468  1.00  0.00    -0.037 A 
HETATM    4  C14 UNL     1      10.853 -38.075 -14.842  1.00  0.00     0.097 A 
HETATM    5  N7  UNL     1      11.156 -37.126 -15.756  1.00  0.00    -0.351 N 
ATOM      6  H7  UNL     1      10.449 -36.436 -16.012  1.00  0.00     0.166 HD
HETATM    7  C15 UNL     1      12.388 -37.071 -16.344  1.00  0.00     0.115 A 
HETATM    8  N8  UNL     1      12.555 -36.144 -17.185  1.00  0.00    -0.371 N 
ATOM      9  H8  UNL     1      13.468 -36.090 -17.636  1.00  0.00     0.161 HD
ENDROOT
BRANCH   1  10
HETATM   10  C5  UNL     1      14.664 -37.946 -16.608  1.00  0.00     0.150 A 
HETATM   11  N5  UNL     1      14.798 -37.565 -17.920  1.00  0.00    -0.270 N 
HETATM   12  N4  UNL     1      16.071 -37.605 -18.251  1.00  0.00    -0.129 N 
ATOM     13  H5  UNL     1      14.033 -37.295 -18.539  1.00  0.00     0.189 HD
HETATM   14  C4  UNL     1      16.811 -38.007 -17.186  1.00  0.00     0.712 A 
ATOM     15  H4  UNL     1      16.446 -37.370 -19.170  1.00  0.00     0.205 HD
HETATM   16  N9  UNL     1      15.898 -38.204 -16.196  1.00  0.00    -0.172 N 
ATOM     17  H9  UNL     1      16.133 -38.512 -15.252  1.00  0.00     0.186 HD
BRANCH  14  18
HETATM   18  N3  UNL     1      18.214 -38.170 -17.182  1.00  0.00    -0.122 N 
HETATM   19  N2  UNL     1      19.079 -38.221 -16.089  1.00  0.00    -0.084 NA
HETATM   20  C3  UNL     1      20.391 -38.446 -16.580  1.00  0.00     0.369 C 
HETATM   21  C22 UNL     1      20.358 -37.866 -17.975  1.00  0.00     0.241 C 
HETATM   22  C21 UNL     1      18.985 -38.320 -18.426  1.00  0.00     0.204 C 
HETATM   23  F1  UNL     1      20.282 -36.476 -17.883  1.00  0.00    -0.244 F 
BRANCH  20  24
HETATM   24  N1  UNL     1      21.438 -37.767 -15.844  1.00  0.00     0.104 N 
HETATM   25  C1  UNL     1      22.668 -37.743 -16.619  1.00  0.00     0.311 C 
HETATM   26  C2  UNL     1      21.737 -38.445 -14.597  1.00  0.00     0.311 C 
ENDBRANCH  20  24
ENDBRANCH  14  18
ENDBRANCH   1  10
BRANCH   3  27
HETATM   27  C9  UNL     1      11.406 -40.037 -13.474  1.00  0.00     0.023 C 
HETATM   28  C10 UNL     1      12.525 -40.987 -13.117  1.00  0.00     0.037 C 
HETATM   29  C11 UNL     1      11.854 -42.244 -12.559  1.00  0.00     0.233 C 
HETATM   30  N6  UNL     1      10.635 -41.864 -11.907  1.00  0.00    -0.075 N 
HETATM   31  C12 UNL     1      10.715 -40.594 -11.213  1.00  0.00     0.233 C 
ATOM     32  H62 UNL     1       9.858 -41.864 -12.569  1.00  0.00     0.277 HD
ATOM     33  H61 UNL     1      10.321 -42.600 -11.275  1.00  0.00     0.277 HD
HETATM   34  C13 UNL     1      10.890 -39.441 -12.185  1.00  0.00     0.037 C 
ENDBRANCH   3  27
BRANCH   8  35
HETATM   35  C16 UNL     1      11.589 -35.161 -17.568  1.00  0.00     0.087 C 
HETATM   36  C17 UNL     1      12.031 -33.754 -17.176  1.00  0.00     0.051 C 
HETATM   37  C18 UNL     1      10.979 -32.793 -17.686  1.00  0.00     0.169 C 
HETATM   38  O1  UNL     1      10.029 -33.452 -18.454  1.00  0.00    -0.391 OA
HETATM   39  C19 UNL     1      10.597 -34.118 -19.540  1.00  0.00     0.169 C 
HETATM   40  C20 UNL     1      11.601 -35.156 -19.114  1.00  0.00     0.051 C 
ENDBRANCH   8  35
TORSDOF 5
ENDMDL
MODEL 4
REMARK VINA RESULT: -8.988127282      3.858      9.248
REMARK  5 active torsions:
REMARK  status: ('A' for Active; 'I' for Inactive)
REMARK    1  A    between atoms: N1_2  and  C3_4 
REMARK    2  A    between atoms: N3_6  and  C4_7 
REMARK    3  A    between atoms: C5_12  and  C6_13 
REMARK    4  A    between atoms: C8_15  and  C9_16 
REMARK    5  A    between atoms: N8_28  and  C16_30 
ROOT
HETATM    1  C6  UNL     1      12.831 -38.454 -15.362  1.00  0.00     0.054 A 
HETATM    2  C7  UNL     1      12.239 -37.469 -16.130  1.00  0.00     0.028 A 
HETATM    3  C8  UNL     1      12.794 -36.947 -17.270  1.00  0.00    -0.037 A 
HETATM    4  C14 UNL     1      14.015 -37.455 -17.644  1.00  0.00     0.097 A 
HETATM    5  N7  UNL     1      14.626 -38.419 -16.917  1.00  0.00    -0.351 N 
ATOM      6  H7  UNL     1      15.532 -38.775 -17.222  1.00  0.00     0.166 HD
HETATM    7  C15 UNL     1      14.055 -38.927 -15.784  1.00  0.00     0.115 A 
HETATM    8  N8  UNL     1      14.715 -39.825 -15.191  1.00  0.00    -0.371 N 
ATOM      9  H8  UNL     1      14.301 -40.217 -14.345  1.00  0.00     0.161 HD
ENDROOT
BRANCH   1  10
HETATM   10  C5  UNL     1      12.218 -38.969 -14.159  1.00  0.00     0.150 A 
HETATM   11  N5  UNL     1      11.092 -38.367 -13.658  1.00  0.00    -0.270 N 
HETATM   12  N4  UNL     1      10.722 -38.992 -12.561  1.00  0.00    -0.129 N 
ATOM     13  H5  UNL     1      10.616 -37.563 -14.070  1.00  0.00     0.189 HD
HETATM   14  C4  UNL     1      11.578 -40.014 -12.304  1.00  0.00     0.712 A 
ATOM     15  H4  UNL     1       9.913 -38.747 -11.990  1.00  0.00     0.205 HD
HETATM   16  N9  UNL     1      12.484 -39.960 -13.318  1.00  0.00    -0.172 N 
ATOM     17  H9  UNL     1      13.270 -40.602 -13.420  1.00  0.00     0.186 HD
BRANCH  14  18
HETATM   18  N3  UNL     1      11.491 -40.894 -11.202  1.00  0.00    -0.122 N 
HETATM   19  N2  UNL     1      10.366 -41.548 -10.699  1.00  0.00    -0.084 NA
HETATM   20  C3  UNL     1      10.781 -42.363  -9.616  1.00  0.00     0.369 C 
HETATM   21  C22 UNL     1      12.016 -41.666  -9.093  1.00  0.00     0.241 C 
HETATM   22  C21 UNL     1      12.668 -41.255 -10.397  1.00  0.00     0.204 C 
HETATM   23  F1  UNL     1      11.633 -40.476  -8.474  1.00  0.00    -0.244 F 
BRANCH  20  24
HETATM   24  N1  UNL     1       9.831 -42.452  -8.525  1.00  0.00     0.104 N 
HETATM   25  C1  UNL     1       9.675 -43.833  -8.099  1.00  0.00     0.311 C 
HETATM   26  C2  UNL     1       8.518 -41.983  -8.926  1.00  0.00     0.311 C 
ENDBRANCH  20  24
ENDBRANCH  14  18
ENDBRANCH   1  10
BRANCH   3  27
HETATM   27  C9  UNL     1      12.165 -35.904 -18.085  1.00  0.00     0.023 C 
HETATM   28  C10 UNL     1      11.782 -34.664 -17.312  1.00  0.00     0.037 C 
HETATM   29  C11 UNL     1      10.688 -33.974 -18.131  1.00  0.00     0.233 C 
HETATM   30  N6  UNL     1      10.916 -34.241 -19.521  1.00  0.00    -0.075 N 
HETATM   31  C12 UNL     1      12.318 -34.280 -19.886  1.00  0.00     0.233 C 
ATOM     32  H62 UNL     1      10.446 -35.101 -19.804  1.00  0.00     0.277 HD
ATOM     33  H61 UNL     1      10.412 -33.571 -20.102  1.00  0.00     0.277 HD
HETATM   34  C13 UNL     1      13.023 -35.464 -19.248  1.00  0.00     0.037 C 
ENDBRANCH   3  27
BRANCH   8  35
HETATM   35  C16 UNL     1      15.985 -40.348 -15.588  1.00  0.00     0.087 C 
HETATM   36  C17 UNL     1      16.934 -40.485 -14.401  1.00  0.00     0.051 C 
HETATM   37  C18 UNL     1      18.213 -41.107 -14.917  1.00  0.00     0.169 C 
HETATM   38  O1  UNL     1      18.088 -41.480 -16.249  1.00  0.00    -0.391 OA
HETATM   39  C19 UNL     1      17.038 -42.375 -16.449  1.00  0.00     0.169 C 
HETATM   40  C20 UNL     1      15.709 -41.801 -16.037  1.00  0.00     0.051 C 
ENDBRANCH   8  35
TORSDOF 5
ENDMDL
MODEL 5
REMARK VINA RESULT: -8.811255843      4.001      9.283
REMARK  5 active torsions:
REMARK  status: ('A' for Active; 'I' for Inactive)
REMARK    1  A    between atoms: N1_2  and  C3_4 
REMARK    2  A    between atoms: N3_6  and  C4_7 
REMARK    3  A    between atoms: C5_12  and  C6_13 
REMARK    4  A    between atoms: C8_15  and  C9_16 
REMARK    5  A    between atoms: N8_28  and  C16_30 
ROOT
HETATM    1  C6  UNL     1      12.704 -38.456 -15.407  1.00  0.00     0.054 A 
HETATM    2  C7  UNL     1      12.137 -37.479 -16.204  1.00  0.00     0.028 A 
HETATM    3  C8  UNL     1      12.732 -36.963 -17.326  1.00  0.00    -0.037 A 
HETATM    4  C14 UNL     1      13.970 -37.468 -17.650  1.00  0.00     0.097 A 
HETATM    5  N7  UNL     1      14.556 -38.424 -16.893  1.00  0.00    -0.351 N 
ATOM      6  H7  UNL     1      15.475 -38.778 -17.160  1.00  0.00     0.166 HD
HETATM    7  C15 UNL     1      13.945 -38.925 -15.779  1.00  0.00     0.115 A 
HETATM    8  N8  UNL     1      14.586 -39.816 -15.154  1.00  0.00    -0.371 N 
ATOM      9  H8  UNL     1      14.142 -40.203 -14.321  1.00  0.00     0.161 HD
ENDROOT
BRANCH   1  10
HETATM   10  C5  UNL     1      12.048 -38.964 -14.224  1.00  0.00     0.150 A 
HETATM   11  N5  UNL     1      11.044 -38.236 -13.637  1.00  0.00    -0.270 N 
HETATM   12  N4  UNL     1      10.608 -38.883 -12.577  1.00  0.00    -0.129 N 
ATOM     13  H5  UNL     1      10.692 -37.337 -13.968  1.00  0.00     0.189 HD
HETATM   14  C4  UNL     1      11.298 -40.043 -12.430  1.00  0.00     0.712 A 
ATOM     15  H4  UNL     1       9.863 -38.562 -11.959  1.00  0.00     0.205 HD
HETATM   16  N9  UNL     1      12.175 -40.048 -13.471  1.00  0.00    -0.172 N 
ATOM     17  H9  UNL     1      12.847 -40.794 -13.650  1.00  0.00     0.186 HD
BRANCH  14  18
HETATM   18  N3  UNL     1      11.100 -40.984 -11.396  1.00  0.00    -0.122 N 
HETATM   19  N2  UNL     1      10.929 -42.364 -11.498  1.00  0.00    -0.084 NA
HETATM   20  C3  UNL     1      10.817 -42.890 -10.186  1.00  0.00     0.369 C 
HETATM   21  C22 UNL     1      10.266 -41.736  -9.381  1.00  0.00     0.241 C 
HETATM   22  C21 UNL     1      11.053 -40.588  -9.980  1.00  0.00     0.204 C 
HETATM   23  F1  UNL     1       8.940 -41.517  -9.756  1.00  0.00    -0.244 F 
BRANCH  20  24
HETATM   24  N1  UNL     1       9.893 -43.999 -10.055  1.00  0.00     0.104 N 
HETATM   25  C1  UNL     1       9.899 -44.505  -8.692  1.00  0.00     0.311 C 
HETATM   26  C2  UNL     1      10.264 -45.105 -10.918  1.00  0.00     0.311 C 
ENDBRANCH  20  24
ENDBRANCH  14  18
ENDBRANCH   1  10
BRANCH   3  27
HETATM   27  C9  UNL     1      12.130 -35.929 -18.173  1.00  0.00     0.023 C 
HETATM   28  C10 UNL     1      11.649 -34.715 -17.416  1.00  0.00     0.037 C 
HETATM   29  C11 UNL     1      10.596 -34.049 -18.305  1.00  0.00     0.233 C 
HETATM   30  N6  UNL     1      10.935 -34.287 -19.677  1.00  0.00    -0.075 N 
HETATM   31  C12 UNL     1      12.361 -34.275 -19.937  1.00  0.00     0.233 C 
ATOM     32  H62 UNL     1      10.518 -35.158 -20.005  1.00  0.00     0.277 HD
ATOM     33  H61 UNL     1      10.453 -33.626 -20.286  1.00  0.00     0.277 HD
HETATM   34  C13 UNL     1      13.057 -35.444 -19.264  1.00  0.00     0.037 C 
ENDBRANCH   3  27
BRANCH   8  35
HETATM   35  C16 UNL     1      15.872 -40.336 -15.498  1.00  0.00     0.087 C 
HETATM   36  C17 UNL     1      16.751 -40.527 -14.265  1.00  0.00     0.051 C 
HETATM   37  C18 UNL     1      18.053 -41.141 -14.732  1.00  0.00     0.169 C 
HETATM   38  O1  UNL     1      18.000 -41.463 -16.081  1.00  0.00    -0.391 OA
HETATM   39  C19 UNL     1      16.957 -42.340 -16.374  1.00  0.00     0.169 C 
HETATM   40  C20 UNL     1      15.611 -41.769 -16.016  1.00  0.00     0.051 C 
ENDBRANCH   8  35
TORSDOF 5
ENDMDL
