MODEL 1
REMARK VINA RESULT: -7.519600149      0.000      0.000
REMARK  9 active torsions:
REMARK  status: ('A' for Active; 'I' for Inactive)
REMARK    1  A    between atoms: C2_2  and  C3_3 
REMARK    2  A    between atoms: C3_3  and  C4_4 
REMARK    3  A    between atoms: N1_7  and  C7_8 
REMARK    4  A    between atoms: C7_8  and  C8_9 
REMARK    5  A    between atoms: C9_11  and  C10_12 
REMARK    6  A    between atoms: C10_12  and  O2_13 
REMARK    7  A    between atoms: C11_15  and  O3_16 
REMARK    8  A    between atoms: C12_18  and  O4_19 
REMARK    9  A    between atoms: C13_21  and  O5_22 
ROOT
HETATM    1  C8  UNL     1      14.081 -38.879 -15.675  1.00  0.00     0.171 C 
HETATM    2  O1  UNL     1      13.760 -39.473 -14.499  1.00  0.00    -0.371 OA
HETATM    3  C9  UNL     1      12.476 -39.274 -14.053  1.00  0.00     0.176 C 
HETATM    4  C11 UNL     1      11.913 -37.920 -14.334  1.00  0.00     0.180 C 
HETATM    5  C12 UNL     1      12.142 -37.434 -15.748  1.00  0.00     0.180 C 
HETATM    6  C13 UNL     1      12.810 -38.575 -16.483  1.00  0.00     0.180 C 
ENDROOT
BRANCH   1   7
HETATM    7  C7  UNL     1      15.042 -39.589 -16.564  1.00  0.00     0.166 C 
BRANCH   7   8
HETATM    8  N1  UNL     1      16.383 -39.070 -16.540  1.00  0.00    -0.314 N 
HETATM    9  C6  UNL     1      16.699 -38.051 -17.361  1.00  0.00     0.022 A 
HETATM   10  C5  UNL     1      18.015 -37.551 -17.366  1.00  0.00    -0.028 A 
HETATM   11  C16 UNL     1      15.937 -37.226 -18.334  1.00  0.00     0.058 C 
HETATM   12  C4  UNL     1      18.964 -38.111 -16.530  1.00  0.00    -0.027 A 
HETATM   13  C18 UNL     1      18.114 -36.437 -18.317  1.00  0.00     0.041 C 
HETATM   14  C15 UNL     1      18.593 -39.149 -15.708  1.00  0.00     0.086 A 
HETATM   15  C14 UNL     1      17.300 -39.615 -15.727  1.00  0.00     0.266 A 
HETATM   16 BR1  UNL     1      19.874 -39.902 -14.520  1.00  0.00    -0.045 Br
HETATM   17  O6  UNL     1      17.025 -40.580 -14.939  1.00  0.00    -0.267 OA
HETATM   18  C17 UNL     1      17.000 -36.786 -19.315  1.00  0.00     0.011 C 
BRANCH  12  19
HETATM   19  C3  UNL     1      20.356 -37.648 -16.494  1.00  0.00     0.040 C 
BRANCH  19  20
HETATM   20  C2  UNL     1      21.138 -37.947 -17.722  1.00  0.00     0.000 C 
HETATM   21  C1  UNL     1      22.646 -37.927 -17.507  1.00  0.00     0.005 C 
ENDBRANCH  19  20
ENDBRANCH  12  19
ENDBRANCH   7   8
ENDBRANCH   1   7
BRANCH   6  22
HETATM   22  O5  UNL     1      13.097 -38.285 -17.790  1.00  0.00    -0.390 OA
ATOM     23  H5  UNL     1      13.872 -37.741 -17.868  1.00  0.00     0.210 HD
ENDBRANCH   6  22
BRANCH   3  24
HETATM   24  C10 UNL     1      12.533 -39.416 -12.523  1.00  0.00     0.198 C 
BRANCH  24  25
HETATM   25  O2  UNL     1      13.820 -39.684 -12.123  1.00  0.00    -0.398 OA
ATOM     26  H2  UNL     1      14.218 -38.901 -11.761  1.00  0.00     0.209 HD
ENDBRANCH  24  25
ENDBRANCH   3  24
BRANCH   5  27
HETATM   27  O4  UNL     1      10.963 -37.032 -16.367  1.00  0.00    -0.390 OA
ATOM     28  H4  UNL     1      11.014 -37.088 -17.313  1.00  0.00     0.210 HD
ENDBRANCH   5  27
BRANCH   4  29
HETATM   29  O3  UNL     1      10.512 -38.009 -14.172  1.00  0.00    -0.390 OA
ATOM     30  H3  UNL     1      10.273 -37.420 -13.466  1.00  0.00     0.210 HD
ENDBRANCH   4  29
TORSDOF 9
ENDMDL
MODEL 2
REMARK VINA RESULT: -7.404667334      3.052      4.594
REMARK  9 active torsions:
REMARK  status: ('A' for Active; 'I' for Inactive)
REMARK    1  A    between atoms: C2_2  and  C3_3 
REMARK    2  A    between atoms: C3_3  and  C4_4 
REMARK    3  A    between atoms: N1_7  and  C7_8 
REMARK    4  A    between atoms: C7_8  and  C8_9 
REMARK    5  A    between atoms: C9_11  and  C10_12 
REMARK    6  A    between atoms: C10_12  and  O2_13 
REMARK    7  A    between atoms: C11_15  and  O3_16 
REMARK    8  A    between atoms: C12_18  and  O4_19 
REMARK    9  A    between atoms: C13_21  and  O5_22 
ROOT
HETATM    1  C8  UNL     1      16.710 -41.316 -15.531  1.00  0.00     0.171 C 
HETATM    2  O1  UNL     1      17.848 -41.874 -16.014  1.00  0.00    -0.371 OA
HETATM    3  C9  UNL     1      17.703 -43.081 -16.655  1.00  0.00     0.176 C 
HETATM    4  C11 UNL     1      16.669 -43.985 -16.070  1.00  0.00     0.180 C 
HETATM    5  C12 UNL     1      15.353 -43.306 -15.761  1.00  0.00     0.180 C 
HETATM    6  C13 UNL     1      15.484 -41.885 -16.262  1.00  0.00     0.180 C 
ENDROOT
BRANCH   1   7
HETATM    7  C7  UNL     1      16.613 -39.830 -15.543  1.00  0.00     0.166 C 
BRANCH   7   8
HETATM    8  N1  UNL     1      17.800 -39.152 -15.991  1.00  0.00    -0.314 N 
HETATM    9  C6  UNL     1      17.801 -38.585 -17.211  1.00  0.00     0.022 A 
HETATM   10  C5  UNL     1      18.965 -37.941 -17.672  1.00  0.00    -0.028 A 
HETATM   11  C16 UNL     1      16.787 -38.428 -18.284  1.00  0.00     0.058 C 
HETATM   12  C4  UNL     1      20.090 -37.898 -16.868  1.00  0.00    -0.027 A 
HETATM   13  C18 UNL     1      18.723 -37.383 -19.009  1.00  0.00     0.041 C 
HETATM   14  C15 UNL     1      20.039 -38.492 -15.627  1.00  0.00     0.086 A 
HETATM   15  C14 UNL     1      18.888 -39.113 -15.207  1.00  0.00     0.266 A 
HETATM   16 BR1  UNL     1      21.562 -38.405 -14.490  1.00  0.00    -0.045 Br
HETATM   17  O6  UNL     1      18.912 -39.642 -14.046  1.00  0.00    -0.267 OA
HETATM   18  C17 UNL     1      17.628 -38.321 -19.537  1.00  0.00     0.011 C 
BRANCH  12  19
HETATM   19  C3  UNL     1      21.339 -37.257 -17.290  1.00  0.00     0.040 C 
BRANCH  19  20
HETATM   20  C2  UNL     1      22.338 -38.182 -17.888  1.00  0.00     0.000 C 
HETATM   21  C1  UNL     1      23.739 -37.591 -17.982  1.00  0.00     0.005 C 
ENDBRANCH  19  20
ENDBRANCH  12  19
ENDBRANCH   7   8
ENDBRANCH   1   7
BRANCH   6  22
HETATM   22  O5  UNL     1      14.366 -41.127 -16.043  1.00  0.00    -0.390 OA
ATOM     23  H5  UNL     1      14.576 -40.204 -15.965  1.00  0.00     0.210 HD
ENDBRANCH   6  22
BRANCH   3  24
HETATM   24  C10 UNL     1      19.052 -43.803 -16.506  1.00  0.00     0.198 C 
BRANCH  24  25
HETATM   25  O2  UNL     1      19.767 -43.255 -15.467  1.00  0.00    -0.398 OA
ATOM     26  H2  UNL     1      19.665 -42.310 -15.465  1.00  0.00     0.209 HD
ENDBRANCH  24  25
ENDBRANCH   3  24
BRANCH   5  27
HETATM   27  O4  UNL     1      14.270 -43.965 -16.333  1.00  0.00    -0.390 OA
ATOM     28  H4  UNL     1      14.540 -44.660 -16.922  1.00  0.00     0.210 HD
ENDBRANCH   5  27
BRANCH   4  29
HETATM   29  O3  UNL     1      16.382 -44.972 -17.041  1.00  0.00    -0.390 OA
ATOM     30  H3  UNL     1      16.698 -45.801 -16.699  1.00  0.00     0.210 HD
ENDBRANCH   4  29
TORSDOF 9
ENDMDL
MODEL 3
REMARK VINA RESULT: -7.383868444      1.577      2.698
REMARK  9 active torsions:
REMARK  status: ('A' for Active; 'I' for Inactive)
REMARK    1  A    between atoms: C2_2  and  C3_3 
REMARK    2  A    between atoms: C3_3  and  C4_4 
REMARK    3  A    between atoms: N1_7  and  C7_8 
REMARK    4  A    between atoms: C7_8  and  C8_9 
REMARK    5  A    between atoms: C9_11  and  C10_12 
REMARK    6  A    between atoms: C10_12  and  O2_13 
REMARK    7  A    between atoms: C11_15  and  O3_16 
REMARK    8  A    between atoms: C12_18  and  O4_19 
REMARK    9  A    between atoms: C13_21  and  O5_22 
ROOT
HETATM    1  C8  UNL     1      13.863 -39.017 -15.572  1.00  0.00     0.171 C 
HETATM    2  O1  UNL     1      13.452 -39.576 -14.407  1.00  0.00    -0.371 OA
HETATM    3  C9  UNL     1      12.192 -39.230 -13.983  1.00  0.00     0.176 C 
HETATM    4  C11 UNL     1      11.800 -37.816 -14.262  1.00  0.00     0.180 C 
HETATM    5  C12 UNL     1      12.111 -37.351 -15.667  1.00  0.00     0.180 C 
HETATM    6  C13 UNL     1      12.652 -38.558 -16.400  1.00  0.00     0.180 C 
ENDROOT
BRANCH   1   7
HETATM    7  C7  UNL     1      14.749 -39.829 -16.451  1.00  0.00     0.166 C 
BRANCH   7   8
HETATM    8  N1  UNL     1      16.115 -39.382 -16.510  1.00  0.00    -0.314 N 
HETATM    9  C6  UNL     1      17.012 -39.927 -15.668  1.00  0.00     0.022 A 
HETATM   10  C5  UNL     1      18.347 -39.479 -15.697  1.00  0.00    -0.028 A 
HETATM   11  C16 UNL     1      16.955 -40.997 -14.639  1.00  0.00     0.058 C 
HETATM   12  C4  UNL     1      18.719 -38.488 -16.587  1.00  0.00    -0.027 A 
HETATM   13  C18 UNL     1      19.139 -40.229 -14.713  1.00  0.00     0.041 C 
HETATM   14  C15 UNL     1      17.765 -37.963 -17.429  1.00  0.00     0.086 A 
HETATM   15  C14 UNL     1      16.471 -38.421 -17.375  1.00  0.00     0.266 A 
HETATM   16 BR1  UNL     1      18.268 -36.630 -18.690  1.00  0.00    -0.045 Br
HETATM   17  O6  UNL     1      15.640 -37.890 -18.184  1.00  0.00    -0.267 OA
HETATM   18  C17 UNL     1      18.065 -40.614 -13.685  1.00  0.00     0.011 C 
BRANCH  12  19
HETATM   19  C3  UNL     1      20.087 -37.966 -16.661  1.00  0.00     0.040 C 
BRANCH  19  20
HETATM   20  C2  UNL     1      20.825 -37.980 -15.371  1.00  0.00     0.000 C 
HETATM   21  C1  UNL     1      22.339 -38.009 -15.532  1.00  0.00     0.005 C 
ENDBRANCH  19  20
ENDBRANCH  12  19
ENDBRANCH   7   8
ENDBRANCH   1   7
BRANCH   6  22
HETATM   22  O5  UNL     1      12.996 -38.294 -17.699  1.00  0.00    -0.390 OA
ATOM     23  H5  UNL     1      12.307 -38.544 -18.303  1.00  0.00     0.210 HD
ENDBRANCH   6  22
BRANCH   3  24
HETATM   24  C10 UNL     1      12.203 -39.389 -12.454  1.00  0.00     0.198 C 
BRANCH  24  25
HETATM   25  O2  UNL     1      13.458 -39.752 -12.027  1.00  0.00    -0.398 OA
ATOM     26  H2  UNL     1      13.949 -38.981 -11.767  1.00  0.00     0.209 HD
ENDBRANCH  24  25
ENDBRANCH   3  24
BRANCH   5  27
HETATM   27  O4  UNL     1      11.000 -36.807 -16.302  1.00  0.00    -0.390 OA
ATOM     28  H4  UNL     1      11.054 -35.862 -16.378  1.00  0.00     0.210 HD
ENDBRANCH   5  27
BRANCH   4  29
HETATM   29  O3  UNL     1      10.394 -37.740 -14.125  1.00  0.00    -0.390 OA
ATOM     30  H3  UNL     1      10.145 -36.840 -14.297  1.00  0.00     0.210 HD
ENDBRANCH   4  29
TORSDOF 9
ENDMDL
MODEL 4
REMARK VINA RESULT: -7.182116078      3.666      6.460
REMARK  9 active torsions:
REMARK  status: ('A' for Active; 'I' for Inactive)
REMARK    1  A    between atoms: C2_2  and  C3_3 
REMARK    2  A    between atoms: C3_3  and  C4_4 
REMARK    3  A    between atoms: N1_7  and  C7_8 
REMARK    4  A    between atoms: C7_8  and  C8_9 
REMARK    5  A    between atoms: C9_11  and  C10_12 
REMARK    6  A    between atoms: C10_12  and  O2_13 
REMARK    7  A    between atoms: C11_15  and  O3_16 
REMARK    8  A    between atoms: C12_18  and  O4_19 
REMARK    9  A    between atoms: C13_21  and  O5_22 
ROOT
HETATM    1  C8  UNL     1      15.477 -41.052 -16.028  1.00  0.00     0.171 C 
HETATM    2  O1  UNL     1      14.609 -41.868 -15.380  1.00  0.00    -0.371 OA
HETATM    3  C9  UNL     1      14.985 -43.184 -15.271  1.00  0.00     0.176 C 
HETATM    4  C11 UNL     1      15.718 -43.731 -16.451  1.00  0.00     0.180 C 
HETATM    5  C12 UNL     1      16.817 -42.832 -16.971  1.00  0.00     0.180 C 
HETATM    6  C13 UNL     1      16.888 -41.660 -16.019  1.00  0.00     0.180 C 
ENDROOT
BRANCH   1   7
HETATM    7  C7  UNL     1      15.572 -39.640 -15.563  1.00  0.00     0.166 C 
BRANCH   7   8
HETATM    8  N1  UNL     1      14.774 -38.704 -16.307  1.00  0.00    -0.314 N 
HETATM    9  C6  UNL     1      13.558 -38.371 -15.836  1.00  0.00     0.022 A 
HETATM   10  C5  UNL     1      12.755 -37.476 -16.568  1.00  0.00    -0.028 A 
HETATM   11  C16 UNL     1      12.786 -38.718 -14.615  1.00  0.00     0.058 C 
HETATM   12  C4  UNL     1      13.224 -36.951 -17.760  1.00  0.00    -0.027 A 
HETATM   13  C18 UNL     1      11.493 -37.248 -15.853  1.00  0.00     0.041 C 
HETATM   14  C15 UNL     1      14.474 -37.321 -18.199  1.00  0.00     0.086 A 
HETATM   15  C14 UNL     1      15.233 -38.197 -17.461  1.00  0.00     0.266 A 
HETATM   16 BR1  UNL     1      15.153 -36.576 -19.812  1.00  0.00    -0.045 Br
HETATM   17  O6  UNL     1      16.382 -38.497 -17.928  1.00  0.00    -0.267 OA
HETATM   18  C17 UNL     1      11.350 -38.556 -15.061  1.00  0.00     0.011 C 
BRANCH  12  19
HETATM   19  C3  UNL     1      12.436 -36.025 -18.579  1.00  0.00     0.040 C 
BRANCH  19  20
HETATM   20  C2  UNL     1      12.145 -34.720 -17.930  1.00  0.00     0.000 C 
HETATM   21  C1  UNL     1      10.692 -34.281 -18.065  1.00  0.00     0.005 C 
ENDBRANCH  19  20
ENDBRANCH  12  19
ENDBRANCH   7   8
ENDBRANCH   1   7
BRANCH   6  22
HETATM   22  O5  UNL     1      17.840 -40.737 -16.363  1.00  0.00    -0.390 OA
ATOM     23  H5  UNL     1      17.724 -40.427 -17.254  1.00  0.00     0.210 HD
ENDBRANCH   6  22
BRANCH   3  24
HETATM   24  C10 UNL     1      13.681 -43.989 -15.153  1.00  0.00     0.198 C 
BRANCH  24  25
HETATM   25  O2  UNL     1      13.235 -44.349 -16.402  1.00  0.00    -0.398 OA
ATOM     26  H2  UNL     1      12.342 -44.051 -16.528  1.00  0.00     0.209 HD
ENDBRANCH  24  25
ENDBRANCH   3  24
BRANCH   5  27
HETATM   27  O4  UNL     1      18.035 -43.494 -17.080  1.00  0.00    -0.390 OA
ATOM     28  H4  UNL     1      18.183 -44.098 -16.362  1.00  0.00     0.210 HD
ENDBRANCH   5  27
BRANCH   4  29
HETATM   29  O3  UNL     1      16.351 -44.923 -16.033  1.00  0.00    -0.390 OA
ATOM     30  H3  UNL     1      16.572 -44.816 -15.115  1.00  0.00     0.210 HD
ENDBRANCH   4  29
TORSDOF 9
ENDMDL
MODEL 5
REMARK VINA RESULT: -7.047579316      2.984      7.614
REMARK  9 active torsions:
REMARK  status: ('A' for Active; 'I' for Inactive)
REMARK    1  A    between atoms: C2_2  and  C3_3 
REMARK    2  A    between atoms: C3_3  and  C4_4 
REMARK    3  A    between atoms: N1_7  and  C7_8 
REMARK    4  A    between atoms: C7_8  and  C8_9 
REMARK    5  A    between atoms: C9_11  and  C10_12 
REMARK    6  A    between atoms: C10_12  and  O2_13 
REMARK    7  A    between atoms: C11_15  and  O3_16 
REMARK    8  A    between atoms: C12_18  and  O4_19 
REMARK    9  A    between atoms: C13_21  and  O5_22 
ROOT
HETATM    1  C8  UNL     1      16.559 -39.399 -16.374  1.00  0.00     0.171 C 
HETATM    2  O1  UNL     1      16.307 -38.906 -17.612  1.00  0.00    -0.371 OA
HETATM    3  C9  UNL     1      17.395 -38.434 -18.306  1.00  0.00     0.176 C 
HETATM    4  C11 UNL     1      18.426 -37.748 -17.472  1.00  0.00     0.180 C 
HETATM    5  C12 UNL     1      18.795 -38.490 -16.207  1.00  0.00     0.180 C 
HETATM    6  C13 UNL     1      18.038 -39.798 -16.249  1.00  0.00     0.180 C 
ENDROOT
BRANCH   1   7
HETATM    7  C7  UNL     1      15.725 -40.540 -15.904  1.00  0.00     0.166 C 
BRANCH   7   8
HETATM    8  N1  UNL     1      14.700 -40.189 -14.958  1.00  0.00    -0.314 N 
HETATM    9  C6  UNL     1      14.852 -40.554 -13.672  1.00  0.00     0.022 A 
HETATM   10  C5  UNL     1      13.844 -40.240 -12.741  1.00  0.00    -0.028 A 
HETATM   11  C16 UNL     1      15.923 -41.244 -12.908  1.00  0.00     0.058 C 
HETATM   12  C4  UNL     1      12.713 -39.562 -13.158  1.00  0.00    -0.027 A 
HETATM   13  C18 UNL     1      14.239 -40.715 -11.409  1.00  0.00     0.041 C 
HETATM   14  C15 UNL     1      12.603 -39.209 -14.484  1.00  0.00     0.086 A 
HETATM   15  C14 UNL     1      13.605 -39.531 -15.367  1.00  0.00     0.266 A 
HETATM   16 BR1  UNL     1      11.075 -38.238 -15.066  1.00  0.00    -0.045 Br
HETATM   17  O6  UNL     1      13.438 -39.173 -16.580  1.00  0.00    -0.267 OA
HETATM   18  C17 UNL     1      15.168 -41.885 -11.764  1.00  0.00     0.011 C 
BRANCH  12  19
HETATM   19  C3  UNL     1      11.618 -39.215 -12.246  1.00  0.00     0.040 C 
BRANCH  19  20
HETATM   20  C2  UNL     1      10.769 -40.364 -11.835  1.00  0.00     0.000 C 
HETATM   21  C1  UNL     1      10.181 -40.220 -10.437  1.00  0.00     0.005 C 
ENDBRANCH  19  20
ENDBRANCH  12  19
ENDBRANCH   7   8
ENDBRANCH   1   7
BRANCH   6  22
HETATM   22  O5  UNL     1      18.259 -40.589 -15.153  1.00  0.00    -0.390 OA
ATOM     23  H5  UNL     1      17.787 -41.411 -15.211  1.00  0.00     0.210 HD
ENDBRANCH   6  22
BRANCH   3  24
HETATM   24  C10 UNL     1      16.848 -37.380 -19.283  1.00  0.00     0.198 C 
BRANCH  24  25
HETATM   25  O2  UNL     1      17.343 -36.139 -18.960  1.00  0.00    -0.398 OA
ATOM     26  H2  UNL     1      17.134 -35.517 -19.647  1.00  0.00     0.209 HD
ENDBRANCH  24  25
ENDBRANCH   3  24
BRANCH   5  27
HETATM   27  O4  UNL     1      20.167 -38.683 -16.088  1.00  0.00    -0.390 OA
ATOM     28  H4  UNL     1      20.597 -37.960 -15.646  1.00  0.00     0.210 HD
ENDBRANCH   5  27
BRANCH   4  29
HETATM   29  O3  UNL     1      19.608 -37.679 -18.246  1.00  0.00    -0.390 OA
ATOM     30  H3  UNL     1      19.808 -36.758 -18.369  1.00  0.00     0.210 HD
ENDBRANCH   4  29
TORSDOF 9
ENDMDL
