MODEL 1
REMARK VINA RESULT: -7.568576686      0.000      0.000
REMARK  8 active torsions:
REMARK  status: ('A' for Active; 'I' for Inactive)
REMARK    1  A    between atoms: N1_1  and  C1_4 
REMARK    2  A    between atoms: N3_7  and  C2_8 
REMARK    3  A    between atoms: C4_10  and  O1_11 
REMARK    4  A    between atoms: C5_13  and  C6_14 
REMARK    5  A    between atoms: C6_14  and  O2_15 
REMARK    6  A    between atoms: C7_18  and  C8_19 
REMARK    7  A    between atoms: C8_19  and  N4_20 
REMARK    8  A    between atoms: N5_23  and  C11_24 
ROOT
HETATM    1  C1  UNL     1      20.873 -37.595 -17.286  1.00  0.00     0.133 A 
HETATM    2  N2  UNL     1      19.686 -37.604 -17.883  1.00  0.00    -0.280 N 
ATOM      3  H2  UNL     1      19.504 -37.242 -18.819  1.00  0.00     0.189 HD
HETATM    4  N3  UNL     1      18.758 -38.157 -17.083  1.00  0.00    -0.262 N 
HETATM    5  C7  UNL     1      19.328 -38.536 -15.982  1.00  0.00     0.081 A 
HETATM    6  C17 UNL     1      20.710 -38.172 -16.072  1.00  0.00     0.081 A 
HETATM    7 BR1  UNL     1      22.057 -38.418 -14.723  1.00  0.00    -0.045 Br
ENDROOT
BRANCH   5   8
HETATM    8  C8  UNL     1      18.895 -39.211 -14.747  1.00  0.00     0.332 C 
BRANCH   8   9
HETATM    9  N4  UNL     1      18.599 -40.646 -14.869  1.00  0.00     0.097 N 
HETATM   10  C9  UNL     1      19.393 -41.370 -13.868  1.00  0.00     0.303 C 
HETATM   11  C10 UNL     1      18.462 -42.205 -13.023  1.00  0.00     0.303 C 
HETATM   12  N5  UNL     1      17.818 -41.236 -12.144  1.00  0.00     0.096 N 
HETATM   13  C15 UNL     1      16.958 -40.414 -13.009  1.00  0.00     0.303 C 
HETATM   14  C16 UNL     1      17.179 -40.798 -14.433  1.00  0.00     0.303 C 
BRANCH  12  15
HETATM   15  C11 UNL     1      17.155 -41.700 -11.017  1.00  0.00     0.223 C 
HETATM   16  C12 UNL     1      16.289 -40.902 -10.119  1.00  0.00     0.036 C 
HETATM   17  C13 UNL     1      17.348 -41.124  -9.004  1.00  0.00     0.004 C 
HETATM   18  C14 UNL     1      17.811 -42.333  -9.836  1.00  0.00     0.036 C 
ENDBRANCH  12  15
ENDBRANCH   8   9
ENDBRANCH   5   8
BRANCH   4  19
HETATM   19  C2  UNL     1      17.305 -38.070 -17.409  1.00  0.00     0.247 C 
HETATM   20  C3  UNL     1      16.886 -39.164 -18.338  1.00  0.00     0.089 C 
HETATM   21  C4  UNL     1      17.121 -38.603 -19.709  1.00  0.00     0.153 C 
HETATM   22  C5  UNL     1      16.928 -37.137 -19.442  1.00  0.00     0.176 C 
HETATM   23  O3  UNL     1      17.089 -36.874 -18.113  1.00  0.00    -0.355 OA
BRANCH  21  24
HETATM   24  O1  UNL     1      18.331 -38.795 -20.308  1.00  0.00    -0.393 OA
ATOM     25  H1  UNL     1      18.370 -39.256 -21.139  1.00  0.00     0.210 HD
ENDBRANCH  21  24
BRANCH  22  26
HETATM   26  C6  UNL     1      15.532 -36.761 -19.897  1.00  0.00     0.198 C 
BRANCH  26  27
HETATM   27  O2  UNL     1      14.989 -37.692 -20.794  1.00  0.00    -0.398 OA
ATOM     28  H2  UNL     1      15.057 -37.409 -21.699  1.00  0.00     0.209 HD
ENDBRANCH  26  27
ENDBRANCH  22  26
ENDBRANCH   4  19
BRANCH   1  29
HETATM   29  N1  UNL     1      22.033 -37.186 -17.752  1.00  0.00    -0.383 N 
ATOM     30  H12 UNL     1      22.699 -37.793 -18.230  1.00  0.00     0.157 HD
ATOM     31  H11 UNL     1      22.423 -36.244 -17.769  1.00  0.00     0.157 HD
ENDBRANCH   1  29
TORSDOF 8
ENDMDL
MODEL 2
REMARK VINA RESULT: -7.451760928      1.350      1.702
REMARK  8 active torsions:
REMARK  status: ('A' for Active; 'I' for Inactive)
REMARK    1  A    between atoms: N1_1  and  C1_4 
REMARK    2  A    between atoms: N3_7  and  C2_8 
REMARK    3  A    between atoms: C4_10  and  O1_11 
REMARK    4  A    between atoms: C5_13  and  C6_14 
REMARK    5  A    between atoms: C6_14  and  O2_15 
REMARK    6  A    between atoms: C7_18  and  C8_19 
REMARK    7  A    between atoms: C8_19  and  N4_20 
REMARK    8  A    between atoms: N5_23  and  C11_24 
ROOT
HETATM    1  C1  UNL     1      20.864 -37.628 -17.255  1.00  0.00     0.133 A 
HETATM    2  N2  UNL     1      19.683 -37.623 -17.866  1.00  0.00    -0.280 N 
ATOM      3  H2  UNL     1      19.518 -37.266 -18.807  1.00  0.00     0.189 HD
HETATM    4  N3  UNL     1      18.738 -38.154 -17.072  1.00  0.00    -0.262 N 
HETATM    5  C7  UNL     1      19.289 -38.533 -15.962  1.00  0.00     0.081 A 
HETATM    6  C17 UNL     1      20.678 -38.193 -16.039  1.00  0.00     0.081 A 
HETATM    7 BR1  UNL     1      22.005 -38.449 -14.672  1.00  0.00    -0.045 Br
ENDROOT
BRANCH   5   8
HETATM    8  C8  UNL     1      18.831 -39.191 -14.726  1.00  0.00     0.332 C 
BRANCH   8   9
HETATM    9  N4  UNL     1      18.813 -40.662 -14.751  1.00  0.00     0.097 N 
HETATM   10  C9  UNL     1      18.674 -41.146 -13.371  1.00  0.00     0.303 C 
HETATM   11  C10 UNL     1      17.479 -42.064 -13.298  1.00  0.00     0.303 C 
HETATM   12  N5  UNL     1      16.336 -41.160 -13.336  1.00  0.00     0.096 N 
HETATM   13  C15 UNL     1      16.323 -40.580 -14.688  1.00  0.00     0.303 C 
HETATM   14  C16 UNL     1      17.536 -41.032 -15.430  1.00  0.00     0.303 C 
BRANCH  12  15
HETATM   15  C11 UNL     1      15.094 -41.643 -12.949  1.00  0.00     0.223 C 
HETATM   16  C12 UNL     1      13.784 -41.238 -13.507  1.00  0.00     0.036 C 
HETATM   17  C13 UNL     1      13.450 -40.631 -12.117  1.00  0.00     0.004 C 
HETATM   18  C14 UNL     1      14.537 -41.571 -11.567  1.00  0.00     0.036 C 
ENDBRANCH  12  15
ENDBRANCH   8   9
ENDBRANCH   5   8
BRANCH   4  19
HETATM   19  C2  UNL     1      17.291 -38.047 -17.416  1.00  0.00     0.247 C 
HETATM   20  C3  UNL     1      16.869 -39.129 -18.358  1.00  0.00     0.089 C 
HETATM   21  C4  UNL     1      17.128 -38.563 -19.722  1.00  0.00     0.153 C 
HETATM   22  C5  UNL     1      16.950 -37.096 -19.448  1.00  0.00     0.176 C 
HETATM   23  O3  UNL     1      17.098 -36.844 -18.114  1.00  0.00    -0.355 OA
BRANCH  21  24
HETATM   24  O1  UNL     1      18.343 -38.766 -20.307  1.00  0.00    -0.393 OA
ATOM     25  H1  UNL     1      19.097 -38.281 -19.991  1.00  0.00     0.210 HD
ENDBRANCH  21  24
BRANCH  22  26
HETATM   26  C6  UNL     1      15.565 -36.699 -19.917  1.00  0.00     0.198 C 
BRANCH  26  27
HETATM   27  O2  UNL     1      15.005 -37.638 -20.796  1.00  0.00    -0.398 OA
ATOM     28  H2  UNL     1      14.285 -38.119 -20.405  1.00  0.00     0.209 HD
ENDBRANCH  26  27
ENDBRANCH  22  26
ENDBRANCH   4  19
BRANCH   1  29
HETATM   29  N1  UNL     1      22.035 -37.242 -17.712  1.00  0.00    -0.383 N 
ATOM     30  H12 UNL     1      22.358 -36.274 -17.701  1.00  0.00     0.157 HD
ATOM     31  H11 UNL     1      22.799 -37.807 -18.081  1.00  0.00     0.157 HD
ENDBRANCH   1  29
TORSDOF 8
ENDMDL
MODEL 3
REMARK VINA RESULT: -7.323845894      5.480      6.709
REMARK  8 active torsions:
REMARK  status: ('A' for Active; 'I' for Inactive)
REMARK    1  A    between atoms: N1_1  and  C1_4 
REMARK    2  A    between atoms: N3_7  and  C2_8 
REMARK    3  A    between atoms: C4_10  and  O1_11 
REMARK    4  A    between atoms: C5_13  and  C6_14 
REMARK    5  A    between atoms: C6_14  and  O2_15 
REMARK    6  A    between atoms: C7_18  and  C8_19 
REMARK    7  A    between atoms: C8_19  and  N4_20 
REMARK    8  A    between atoms: N5_23  and  C11_24 
ROOT
HETATM    1  C1  UNL     1      15.367 -40.581 -15.572  1.00  0.00     0.133 A 
HETATM    2  N2  UNL     1      14.484 -39.602 -15.737  1.00  0.00    -0.280 N 
ATOM      3  H2  UNL     1      14.458 -38.973 -16.540  1.00  0.00     0.189 HD
HETATM    4  N3  UNL     1      13.630 -39.554 -14.701  1.00  0.00    -0.262 N 
HETATM    5  C7  UNL     1      13.924 -40.508 -13.873  1.00  0.00     0.081 A 
HETATM    6  C17 UNL     1      15.065 -41.193 -14.403  1.00  0.00     0.081 A 
HETATM    7 BR1  UNL     1      16.005 -42.663 -13.595  1.00  0.00    -0.045 Br
ENDROOT
BRANCH   5   8
HETATM    8  C8  UNL     1      13.380 -41.005 -12.598  1.00  0.00     0.332 C 
BRANCH   8   9
HETATM    9  N4  UNL     1      12.376 -42.074 -12.702  1.00  0.00     0.097 N 
HETATM   10  C9  UNL     1      12.262 -42.731 -11.393  1.00  0.00     0.303 C 
HETATM   11  C10 UNL     1      10.818 -42.698 -10.959  1.00  0.00     0.303 C 
HETATM   12  N5  UNL     1      10.607 -41.318 -10.538  1.00  0.00     0.096 N 
HETATM   13  C15 UNL     1      10.684 -40.506 -11.762  1.00  0.00     0.303 C 
HETATM   14  C16 UNL     1      11.073 -41.377 -12.909  1.00  0.00     0.303 C 
BRANCH  12  15
HETATM   15  C11 UNL     1       9.491 -41.022  -9.769  1.00  0.00     0.223 C 
HETATM   16  C12 UNL     1       9.460 -40.161  -8.564  1.00  0.00     0.036 C 
HETATM   17  C13 UNL     1       9.099 -41.430  -7.744  1.00  0.00     0.004 C 
HETATM   18  C14 UNL     1       8.630 -42.028  -9.082  1.00  0.00     0.036 C 
ENDBRANCH  12  15
ENDBRANCH   8   9
ENDBRANCH   5   8
BRANCH   4  19
HETATM   19  C2  UNL     1      12.699 -38.404 -14.518  1.00  0.00     0.247 C 
HETATM   20  C3  UNL     1      11.426 -38.604 -15.275  1.00  0.00     0.089 C 
HETATM   21  C4  UNL     1      11.701 -38.031 -16.633  1.00  0.00     0.153 C 
HETATM   22  C5  UNL     1      12.721 -36.983 -16.286  1.00  0.00     0.176 C 
HETATM   23  O3  UNL     1      13.299 -37.267 -15.083  1.00  0.00    -0.355 OA
BRANCH  21  24
HETATM   24  O1  UNL     1      12.204 -38.841 -17.608  1.00  0.00    -0.393 OA
ATOM     25  H1  UNL     1      11.906 -39.742 -17.662  1.00  0.00     0.210 HD
ENDBRANCH  21  24
BRANCH  22  26
HETATM   26  C6  UNL     1      12.013 -35.643 -16.238  1.00  0.00     0.198 C 
BRANCH  26  27
HETATM   27  O2  UNL     1      10.903 -35.589 -17.093  1.00  0.00    -0.398 OA
ATOM     28  H2  UNL     1      10.869 -34.783 -17.596  1.00  0.00     0.209 HD
ENDBRANCH  26  27
ENDBRANCH  22  26
ENDBRANCH   4  19
BRANCH   1  29
HETATM   29  N1  UNL     1      16.327 -40.978 -16.379  1.00  0.00    -0.383 N 
ATOM     30  H12 UNL     1      16.164 -41.490 -17.247  1.00  0.00     0.157 HD
ATOM     31  H11 UNL     1      17.330 -40.808 -16.316  1.00  0.00     0.157 HD
ENDBRANCH   1  29
TORSDOF 8
ENDMDL
MODEL 4
REMARK VINA RESULT: -7.166389277      1.398      1.833
REMARK  8 active torsions:
REMARK  status: ('A' for Active; 'I' for Inactive)
REMARK    1  A    between atoms: N1_1  and  C1_4 
REMARK    2  A    between atoms: N3_7  and  C2_8 
REMARK    3  A    between atoms: C4_10  and  O1_11 
REMARK    4  A    between atoms: C5_13  and  C6_14 
REMARK    5  A    between atoms: C6_14  and  O2_15 
REMARK    6  A    between atoms: C7_18  and  C8_19 
REMARK    7  A    between atoms: C8_19  and  N4_20 
REMARK    8  A    between atoms: N5_23  and  C11_24 
ROOT
HETATM    1  C1  UNL     1      20.851 -37.637 -17.252  1.00  0.00     0.133 A 
HETATM    2  N2  UNL     1      19.671 -37.627 -17.864  1.00  0.00    -0.280 N 
ATOM      3  H2  UNL     1      19.505 -37.257 -18.800  1.00  0.00     0.189 HD
HETATM    4  N3  UNL     1      18.728 -38.174 -17.079  1.00  0.00    -0.262 N 
HETATM    5  C7  UNL     1      19.279 -38.567 -15.973  1.00  0.00     0.081 A 
HETATM    6  C17 UNL     1      20.667 -38.219 -16.044  1.00  0.00     0.081 A 
HETATM    7 BR1  UNL     1      21.995 -38.490 -14.681  1.00  0.00    -0.045 Br
ENDROOT
BRANCH   5   8
HETATM    8  C8  UNL     1      18.824 -39.244 -14.748  1.00  0.00     0.332 C 
BRANCH   8   9
HETATM    9  N4  UNL     1      17.643 -40.109 -14.894  1.00  0.00     0.097 N 
HETATM   10  C9  UNL     1      18.037 -41.309 -15.644  1.00  0.00     0.303 C 
HETATM   11  C10 UNL     1      17.670 -42.528 -14.835  1.00  0.00     0.303 C 
HETATM   12  N5  UNL     1      18.682 -42.575 -13.787  1.00  0.00     0.096 N 
HETATM   13  C15 UNL     1      18.419 -41.416 -12.920  1.00  0.00     0.303 C 
HETATM   14  C16 UNL     1      17.330 -40.590 -13.516  1.00  0.00     0.303 C 
BRANCH  12  15
HETATM   15  C11 UNL     1      18.842 -43.752 -13.071  1.00  0.00     0.223 C 
HETATM   16  C12 UNL     1      18.040 -44.987 -13.223  1.00  0.00     0.036 C 
HETATM   17  C13 UNL     1      17.508 -44.743 -11.783  1.00  0.00     0.004 C 
HETATM   18  C14 UNL     1      18.761 -43.872 -11.586  1.00  0.00     0.036 C 
ENDBRANCH  12  15
ENDBRANCH   8   9
ENDBRANCH   5   8
BRANCH   4  19
HETATM   19  C2  UNL     1      17.280 -38.068 -17.422  1.00  0.00     0.247 C 
HETATM   20  C3  UNL     1      16.860 -39.148 -18.366  1.00  0.00     0.089 C 
HETATM   21  C4  UNL     1      17.118 -38.577 -19.729  1.00  0.00     0.153 C 
HETATM   22  C5  UNL     1      16.939 -37.111 -19.451  1.00  0.00     0.176 C 
HETATM   23  O3  UNL     1      17.086 -36.863 -18.117  1.00  0.00    -0.355 OA
BRANCH  21  24
HETATM   24  O1  UNL     1      18.334 -38.777 -20.315  1.00  0.00    -0.393 OA
ATOM     25  H1  UNL     1      18.553 -38.294 -21.104  1.00  0.00     0.210 HD
ENDBRANCH  21  24
BRANCH  22  26
HETATM   26  C6  UNL     1      15.553 -36.715 -19.919  1.00  0.00     0.198 C 
BRANCH  26  27
HETATM   27  O2  UNL     1      14.982 -37.666 -20.778  1.00  0.00    -0.398 OA
ATOM     28  H2  UNL     1      15.211 -38.557 -20.539  1.00  0.00     0.209 HD
ENDBRANCH  26  27
ENDBRANCH  22  26
ENDBRANCH   4  19
BRANCH   1  29
HETATM   29  N1  UNL     1      22.021 -37.238 -17.702  1.00  0.00    -0.383 N 
ATOM     30  H12 UNL     1      22.183 -36.914 -18.656  1.00  0.00     0.157 HD
ATOM     31  H11 UNL     1      22.903 -37.137 -17.199  1.00  0.00     0.157 HD
ENDBRANCH   1  29
TORSDOF 8
ENDMDL
MODEL 5
REMARK VINA RESULT: -7.125296130      5.749      7.162
REMARK  8 active torsions:
REMARK  status: ('A' for Active; 'I' for Inactive)
REMARK    1  A    between atoms: N1_1  and  C1_4 
REMARK    2  A    between atoms: N3_7  and  C2_8 
REMARK    3  A    between atoms: C4_10  and  O1_11 
REMARK    4  A    between atoms: C5_13  and  C6_14 
REMARK    5  A    between atoms: C6_14  and  O2_15 
REMARK    6  A    between atoms: C7_18  and  C8_19 
REMARK    7  A    between atoms: C8_19  and  N4_20 
REMARK    8  A    between atoms: N5_23  and  C11_24 
ROOT
HETATM    1  C1  UNL     1      15.102 -40.628 -14.928  1.00  0.00     0.133 A 
HETATM    2  N2  UNL     1      14.354 -39.569 -15.217  1.00  0.00    -0.280 N 
ATOM      3  H2  UNL     1      14.586 -38.870 -15.923  1.00  0.00     0.189 HD
HETATM    4  N3  UNL     1      13.250 -39.545 -14.452  1.00  0.00    -0.262 N 
HETATM    5  C7  UNL     1      13.251 -40.591 -13.685  1.00  0.00     0.081 A 
HETATM    6  C17 UNL     1      14.455 -41.317 -13.958  1.00  0.00     0.081 A 
HETATM    7 BR1  UNL     1      15.053 -42.926 -13.093  1.00  0.00    -0.045 Br
ENDROOT
BRANCH   5   8
HETATM    8  C8  UNL     1      12.349 -41.155 -12.668  1.00  0.00     0.332 C 
BRANCH   8   9
HETATM    9  N4  UNL     1      12.152 -40.339 -11.460  1.00  0.00     0.097 N 
HETATM   10  C9  UNL     1      10.756 -39.885 -11.431  1.00  0.00     0.303 C 
HETATM   11  C10 UNL     1      10.139 -40.298 -10.117  1.00  0.00     0.303 C 
HETATM   12  N5  UNL     1       9.908 -41.730 -10.270  1.00  0.00     0.096 N 
HETATM   13  C15 UNL     1      11.240 -42.353 -10.310  1.00  0.00     0.303 C 
HETATM   14  C16 UNL     1      12.284 -41.287 -10.314  1.00  0.00     0.303 C 
BRANCH  12  15
HETATM   15  C11 UNL     1       9.049 -42.362  -9.383  1.00  0.00     0.223 C 
HETATM   16  C12 UNL     1       8.253 -41.710  -8.318  1.00  0.00     0.036 C 
HETATM   17  C13 UNL     1       9.121 -42.482  -7.286  1.00  0.00     0.004 C 
HETATM   18  C14 UNL     1       9.438 -43.450  -8.439  1.00  0.00     0.036 C 
ENDBRANCH  12  15
ENDBRANCH   8   9
ENDBRANCH   5   8
BRANCH   4  19
HETATM   19  C2  UNL     1      12.369 -38.344 -14.402  1.00  0.00     0.247 C 
HETATM   20  C3  UNL     1      11.177 -38.501 -15.291  1.00  0.00     0.089 C 
HETATM   21  C4  UNL     1      11.630 -37.985 -16.624  1.00  0.00     0.153 C 
HETATM   22  C5  UNL     1      12.661 -36.980 -16.192  1.00  0.00     0.176 C 
HETATM   23  O3  UNL     1      13.087 -37.257 -14.925  1.00  0.00    -0.355 OA
BRANCH  21  24
HETATM   24  O1  UNL     1      12.193 -38.850 -17.516  1.00  0.00    -0.393 OA
ATOM     25  H1  UNL     1      11.811 -39.713 -17.630  1.00  0.00     0.210 HD
ENDBRANCH  21  24
BRANCH  22  26
HETATM   26  C6  UNL     1      12.027 -35.605 -16.256  1.00  0.00     0.198 C 
BRANCH  26  27
HETATM   27  O2  UNL     1      10.867 -35.584 -17.044  1.00  0.00    -0.398 OA
ATOM     28  H2  UNL     1      10.215 -36.210 -16.750  1.00  0.00     0.209 HD
ENDBRANCH  26  27
ENDBRANCH  22  26
ENDBRANCH   4  19
BRANCH   1  29
HETATM   29  N1  UNL     1      16.226 -41.027 -15.484  1.00  0.00    -0.383 N 
ATOM     30  H12 UNL     1      16.868 -40.406 -15.976  1.00  0.00     0.157 HD
ATOM     31  H11 UNL     1      16.654 -41.953 -15.475  1.00  0.00     0.157 HD
ENDBRANCH   1  29
TORSDOF 8
ENDMDL
