MODEL 1
REMARK VINA RESULT: -7.652463604      0.000      0.000
REMARK  8 active torsions:
REMARK  status: ('A' for Active; 'I' for Inactive)
REMARK    1  A    between atoms: N1_1  and  C1_5 
REMARK    2  A    between atoms: C6_10  and  O1_11 
REMARK    3  A    between atoms: O1_11  and  C7_12 
REMARK    4  A    between atoms: C9_14  and  N2_15 
REMARK    5  A    between atoms: N2_15  and  C10_17 
REMARK    6  A    between atoms: C10_17  and  C11_18 
REMARK    7  A    between atoms: C13_23  and  O2_24 
REMARK    8  A    between atoms: N5_29  and  C15_31 
ROOT
HETATM    1  C7  UNL     1       3.641 -26.665 -14.837  1.00  0.00     0.161 A 
HETATM    2  C8  UNL     1       4.833 -26.870 -14.144  1.00  0.00     0.105 A 
HETATM    3  C9  UNL     1       4.878 -26.836 -12.773  1.00  0.00     0.121 A 
HETATM    4  N4  UNL     1       3.721 -26.596 -12.119  1.00  0.00    -0.177 N 
ATOM      5  H4  UNL     1       3.725 -26.565 -11.099  1.00  0.00     0.185 HD
HETATM    6  C14 UNL     1       2.563 -26.396 -12.776  1.00  0.00     0.682 A 
HETATM    7  N5  UNL     1       1.457 -26.167 -12.164  1.00  0.00    -0.221 N 
ATOM      8  H5  UNL     1       0.612 -26.025 -12.717  1.00  0.00     0.178 HD
HETATM    9  N6  UNL     1       2.519 -26.431 -14.142  1.00  0.00    -0.170 N 
ATOM     10  H6  UNL     1       1.637 -26.279 -14.630  1.00  0.00     0.186 HD
ENDROOT
BRANCH   1  11
HETATM   11  O1  UNL     1       3.619 -26.704 -16.202  1.00  0.00    -0.328 OA
BRANCH  11  12
HETATM   12  C6  UNL     1       3.484 -25.668 -17.108  1.00  0.00     0.161 C 
HETATM   13  C1  UNL     1       3.803 -26.195 -18.492  1.00  0.00     0.212 C 
HETATM   14  C2  UNL     1       5.070 -27.020 -18.324  1.00  0.00     0.035 C 
HETATM   15  C3  UNL     1       6.159 -26.303 -17.624  1.00  0.00     0.002 C 
HETATM   16  C4  UNL     1       5.885 -24.911 -17.213  1.00  0.00     0.003 C 
HETATM   17  C5  UNL     1       4.493 -24.596 -16.801  1.00  0.00     0.035 C 
BRANCH  13  18
HETATM   18  N1  UNL     1       3.960 -25.148 -19.461  1.00  0.00    -0.073 N 
ATOM     19  H13 UNL     1       4.349 -24.307 -19.035  1.00  0.00     0.274 HD
ATOM     20  H12 UNL     1       4.713 -25.361 -20.114  1.00  0.00     0.274 HD
ATOM     21  H11 UNL     1       3.090 -24.945 -19.954  1.00  0.00     0.274 HD
ENDBRANCH  13  18
ENDBRANCH  11  12
ENDBRANCH   1  11
BRANCH   3  22
HETATM   22  N2  UNL     1       5.970 -27.022 -12.103  1.00  0.00    -0.374 N 
ATOM     23  H2  UNL     1       6.138 -26.543 -11.218  1.00  0.00     0.161 HD
BRANCH  22  24
HETATM   24  C10 UNL     1       6.939 -27.934 -12.659  1.00  0.00     0.157 C 
BRANCH  24  25
HETATM   25  C11 UNL     1       8.344 -27.366 -12.602  1.00  0.00     0.233 C 
HETATM   26  N3  UNL     1       8.481 -26.298 -11.628  1.00  0.00    -0.064 N 
HETATM   27  C12 UNL     1       9.360 -25.622 -12.561  1.00  0.00     0.266 C 
ATOM     28  H32 UNL     1       7.659 -25.828 -11.251  1.00  0.00     0.277 HD
ATOM     29  H31 UNL     1       8.785 -26.497 -10.675  1.00  0.00     0.277 HD
HETATM   30  C13 UNL     1       8.636 -26.351 -13.677  1.00  0.00     0.176 C 
BRANCH  30  31
HETATM   31  O2  UNL     1       9.461 -26.795 -14.701  1.00  0.00    -0.392 OA
ATOM     32  H2  UNL     1      10.009 -26.128 -15.097  1.00  0.00     0.210 HD
ENDBRANCH  30  31
ENDBRANCH  24  25
ENDBRANCH  22  24
ENDBRANCH   3  22
BRANCH   7  33
HETATM   33  C15 UNL     1       1.362 -26.104 -10.739  1.00  0.00     0.099 C 
HETATM   34  C16 UNL     1       0.037 -25.537 -10.269  1.00  0.00     0.026 C 
HETATM   35  C17 UNL     1       0.044 -25.931  -8.798  1.00  0.00     0.002 C 
HETATM   36  C18 UNL     1       0.577 -27.324  -8.835  1.00  0.00     0.002 C 
HETATM   37  C19 UNL     1       1.277 -27.515 -10.150  1.00  0.00     0.026 C 
ENDBRANCH   7  33
TORSDOF 8
ENDMDL
MODEL 2
REMARK VINA RESULT: -7.577549623      1.678      2.336
REMARK  8 active torsions:
REMARK  status: ('A' for Active; 'I' for Inactive)
REMARK    1  A    between atoms: N1_1  and  C1_5 
REMARK    2  A    between atoms: C6_10  and  O1_11 
REMARK    3  A    between atoms: O1_11  and  C7_12 
REMARK    4  A    between atoms: C9_14  and  N2_15 
REMARK    5  A    between atoms: N2_15  and  C10_17 
REMARK    6  A    between atoms: C10_17  and  C11_18 
REMARK    7  A    between atoms: C13_23  and  O2_24 
REMARK    8  A    between atoms: N5_29  and  C15_31 
ROOT
HETATM    1  C7  UNL     1       2.963 -25.395 -14.574  1.00  0.00     0.161 A 
HETATM    2  C8  UNL     1       4.154 -26.104 -14.424  1.00  0.00     0.105 A 
HETATM    3  C9  UNL     1       4.372 -26.913 -13.336  1.00  0.00     0.121 A 
HETATM    4  N4  UNL     1       3.388 -26.997 -12.416  1.00  0.00    -0.177 N 
ATOM      5  H4  UNL     1       3.523 -27.591 -11.598  1.00  0.00     0.185 HD
HETATM    6  C14 UNL     1       2.233 -26.317 -12.549  1.00  0.00     0.682 A 
HETATM    7  N5  UNL     1       1.290 -26.389 -11.681  1.00  0.00    -0.221 N 
ATOM      8  H5  UNL     1       0.437 -25.851 -11.838  1.00  0.00     0.178 HD
HETATM    9  N6  UNL     1       2.016 -25.512 -13.633  1.00  0.00    -0.170 N 
ATOM     10  H6  UNL     1       1.138 -25.002 -13.725  1.00  0.00     0.186 HD
ENDROOT
BRANCH   1  11
HETATM   11  O1  UNL     1       2.768 -24.596 -15.664  1.00  0.00    -0.328 OA
BRANCH  11  12
HETATM   12  C6  UNL     1       3.668 -23.788 -16.333  1.00  0.00     0.161 C 
HETATM   13  C1  UNL     1       3.017 -22.442 -16.577  1.00  0.00     0.212 C 
HETATM   14  C2  UNL     1       1.618 -22.761 -17.085  1.00  0.00     0.035 C 
HETATM   15  C3  UNL     1       1.598 -23.719 -18.212  1.00  0.00     0.002 C 
HETATM   16  C4  UNL     1       2.906 -24.207 -18.697  1.00  0.00     0.003 C 
HETATM   17  C5  UNL     1       3.974 -24.381 -17.680  1.00  0.00     0.035 C 
BRANCH  13  18
HETATM   18  N1  UNL     1       3.756 -21.627 -17.498  1.00  0.00    -0.073 N 
ATOM     19  H13 UNL     1       3.257 -21.524 -18.381  1.00  0.00     0.274 HD
ATOM     20  H12 UNL     1       3.764 -20.651 -17.202  1.00  0.00     0.274 HD
ATOM     21  H11 UNL     1       4.703 -21.975 -17.647  1.00  0.00     0.274 HD
ENDBRANCH  13  18
ENDBRANCH  11  12
ENDBRANCH   1  11
BRANCH   3  22
HETATM   22  N2  UNL     1       5.467 -27.583 -13.170  1.00  0.00    -0.374 N 
ATOM     23  H2  UNL     1       5.642 -28.449 -13.680  1.00  0.00     0.161 HD
BRANCH  22  24
HETATM   24  C10 UNL     1       6.430 -27.056 -12.234  1.00  0.00     0.157 C 
BRANCH  24  25
HETATM   25  C11 UNL     1       7.810 -26.938 -12.851  1.00  0.00     0.233 C 
HETATM   26  N3  UNL     1       8.744 -26.215 -12.007  1.00  0.00    -0.064 N 
HETATM   27  C12 UNL     1       9.291 -25.613 -13.206  1.00  0.00     0.266 C 
ATOM     28  H32 UNL     1       8.412 -25.635 -11.238  1.00  0.00     0.277 HD
ATOM     29  H31 UNL     1       9.347 -26.712 -11.351  1.00  0.00     0.277 HD
HETATM   30  C13 UNL     1       7.937 -25.821 -13.855  1.00  0.00     0.176 C 
BRANCH  30  31
HETATM   31  O2  UNL     1       7.993 -26.224 -15.182  1.00  0.00    -0.392 OA
ATOM     32  H2  UNL     1       7.150 -26.327 -15.609  1.00  0.00     0.210 HD
ENDBRANCH  30  31
ENDBRANCH  24  25
ENDBRANCH  22  24
ENDBRANCH   3  22
BRANCH   7  33
HETATM   33  C15 UNL     1       1.386 -27.193 -10.502  1.00  0.00     0.099 C 
HETATM   34  C16 UNL     1       2.403 -26.656  -9.514  1.00  0.00     0.026 C 
HETATM   35  C17 UNL     1       2.036 -27.429  -8.253  1.00  0.00     0.002 C 
HETATM   36  C18 UNL     1       0.545 -27.393  -8.270  1.00  0.00     0.002 C 
HETATM   37  C19 UNL     1       0.107 -27.067  -9.669  1.00  0.00     0.026 C 
ENDBRANCH   7  33
TORSDOF 8
ENDMDL
MODEL 3
REMARK VINA RESULT: -7.512074276      3.262      5.862
REMARK  8 active torsions:
REMARK  status: ('A' for Active; 'I' for Inactive)
REMARK    1  A    between atoms: N1_1  and  C1_5 
REMARK    2  A    between atoms: C6_10  and  O1_11 
REMARK    3  A    between atoms: O1_11  and  C7_12 
REMARK    4  A    between atoms: C9_14  and  N2_15 
REMARK    5  A    between atoms: N2_15  and  C10_17 
REMARK    6  A    between atoms: C10_17  and  C11_18 
REMARK    7  A    between atoms: C13_23  and  O2_24 
REMARK    8  A    between atoms: N5_29  and  C15_31 
ROOT
HETATM    1  C7  UNL     1       2.056 -25.004 -14.924  1.00  0.00     0.161 A 
HETATM    2  C8  UNL     1       3.348 -25.181 -14.431  1.00  0.00     0.105 A 
HETATM    3  C9  UNL     1       4.168 -26.171 -14.913  1.00  0.00     0.121 A 
HETATM    4  N4  UNL     1       3.675 -26.967 -15.886  1.00  0.00    -0.177 N 
ATOM      5  H4  UNL     1       4.263 -27.711 -16.263  1.00  0.00     0.185 HD
HETATM    6  C14 UNL     1       2.429 -26.807 -16.371  1.00  0.00     0.682 A 
HETATM    7  N5  UNL     1       1.951 -27.558 -17.296  1.00  0.00    -0.221 N 
ATOM      8  H5  UNL     1       1.000 -27.387 -17.623  1.00  0.00     0.178 HD
HETATM    9  N6  UNL     1       1.613 -25.821 -15.890  1.00  0.00    -0.170 N 
ATOM     10  H6  UNL     1       0.672 -25.707 -16.265  1.00  0.00     0.186 HD
ENDROOT
BRANCH   1  11
HETATM   11  O1  UNL     1       1.257 -24.013 -14.430  1.00  0.00    -0.328 OA
BRANCH  11  12
HETATM   12  C6  UNL     1       1.216 -22.671 -14.761  1.00  0.00     0.161 C 
HETATM   13  C1  UNL     1      -0.124 -22.111 -14.334  1.00  0.00     0.212 C 
HETATM   14  C2  UNL     1      -1.151 -23.135 -14.797  1.00  0.00     0.035 C 
HETATM   15  C3  UNL     1      -1.016 -23.511 -16.221  1.00  0.00     0.002 C 
HETATM   16  C4  UNL     1       0.054 -22.843 -16.990  1.00  0.00     0.003 C 
HETATM   17  C5  UNL     1       1.303 -22.519 -16.254  1.00  0.00     0.035 C 
BRANCH  13  18
HETATM   18  N1  UNL     1      -0.377 -20.805 -14.874  1.00  0.00    -0.073 N 
ATOM     19  H13 UNL     1      -0.124 -20.760 -15.861  1.00  0.00     0.274 HD
ATOM     20  H12 UNL     1      -1.378 -20.629 -14.956  1.00  0.00     0.274 HD
ATOM     21  H11 UNL     1       0.085 -20.071 -14.339  1.00  0.00     0.274 HD
ENDBRANCH  13  18
ENDBRANCH  11  12
ENDBRANCH   1  11
BRANCH   3  22
HETATM   22  N2  UNL     1       5.371 -26.359 -14.475  1.00  0.00    -0.374 N 
ATOM     23  H2  UNL     1       6.185 -26.068 -15.017  1.00  0.00     0.161 HD
BRANCH  22  24
HETATM   24  C10 UNL     1       5.514 -26.998 -13.189  1.00  0.00     0.157 C 
BRANCH  24  25
HETATM   25  C11 UNL     1       6.965 -27.304 -12.871  1.00  0.00     0.233 C 
HETATM   26  N3  UNL     1       7.347 -26.891 -11.532  1.00  0.00    -0.064 N 
HETATM   27  C12 UNL     1       8.630 -26.488 -12.072  1.00  0.00     0.266 C 
ATOM     28  H32 UNL     1       6.773 -26.233 -11.005  1.00  0.00     0.277 HD
ATOM     29  H31 UNL     1       7.291 -27.542 -10.749  1.00  0.00     0.277 HD
HETATM   30  C13 UNL     1       7.937 -26.283 -13.405  1.00  0.00     0.176 C 
BRANCH  30  31
HETATM   31  O2  UNL     1       8.677 -26.691 -14.505  1.00  0.00    -0.392 OA
ATOM     32  H2  UNL     1       9.293 -27.395 -14.339  1.00  0.00     0.210 HD
ENDBRANCH  30  31
ENDBRANCH  24  25
ENDBRANCH  22  24
ENDBRANCH   3  22
BRANCH   7  33
HETATM   33  C15 UNL     1       2.697 -28.626 -17.886  1.00  0.00     0.099 C 
HETATM   34  C16 UNL     1       1.814 -29.614 -18.624  1.00  0.00     0.026 C 
HETATM   35  C17 UNL     1       2.841 -30.382 -19.445  1.00  0.00     0.002 C 
HETATM   36  C18 UNL     1       3.750 -29.301 -19.927  1.00  0.00     0.002 C 
HETATM   37  C19 UNL     1       3.546 -28.101 -19.048  1.00  0.00     0.026 C 
ENDBRANCH   7  33
TORSDOF 8
ENDMDL
MODEL 4
REMARK VINA RESULT: -7.403407777      1.933      6.497
REMARK  8 active torsions:
REMARK  status: ('A' for Active; 'I' for Inactive)
REMARK    1  A    between atoms: N1_1  and  C1_5 
REMARK    2  A    between atoms: C6_10  and  O1_11 
REMARK    3  A    between atoms: O1_11  and  C7_12 
REMARK    4  A    between atoms: C9_14  and  N2_15 
REMARK    5  A    between atoms: N2_15  and  C10_17 
REMARK    6  A    between atoms: C10_17  and  C11_18 
REMARK    7  A    between atoms: C13_23  and  O2_24 
REMARK    8  A    between atoms: N5_29  and  C15_31 
ROOT
HETATM    1  C7  UNL     1       2.186 -26.117 -12.287  1.00  0.00     0.161 A 
HETATM    2  C8  UNL     1       3.431 -26.284 -11.681  1.00  0.00     0.105 A 
HETATM    3  C9  UNL     1       4.527 -26.691 -12.399  1.00  0.00     0.121 A 
HETATM    4  N4  UNL     1       4.354 -26.925 -13.718  1.00  0.00    -0.177 N 
ATOM      5  H4  UNL     1       5.152 -27.229 -14.276  1.00  0.00     0.185 HD
HETATM    6  C14 UNL     1       3.158 -26.768 -14.316  1.00  0.00     0.682 A 
HETATM    7  N5  UNL     1       2.983 -26.986 -15.569  1.00  0.00    -0.221 N 
ATOM      8  H5  UNL     1       2.052 -26.849 -15.965  1.00  0.00     0.178 HD
HETATM    9  N6  UNL     1       2.066 -26.361 -13.599  1.00  0.00    -0.170 N 
ATOM     10  H6  UNL     1       1.165 -26.244 -14.062  1.00  0.00     0.186 HD
ENDROOT
BRANCH   1  11
HETATM   11  O1  UNL     1       1.109 -25.710 -11.553  1.00  0.00    -0.328 OA
BRANCH  11  12
HETATM   12  C6  UNL     1      -0.221 -26.067 -11.674  1.00  0.00     0.161 C 
HETATM   13  C1  UNL     1      -1.053 -25.114 -10.841  1.00  0.00     0.212 C 
HETATM   14  C2  UNL     1      -0.319 -24.999  -9.513  1.00  0.00     0.035 C 
HETATM   15  C3  UNL     1       0.005 -26.305  -8.896  1.00  0.00     0.002 C 
HETATM   16  C4  UNL     1      -0.437 -27.513  -9.622  1.00  0.00     0.003 C 
HETATM   17  C5  UNL     1      -0.426 -27.444 -11.106  1.00  0.00     0.035 C 
BRANCH  13  18
HETATM   18  N1  UNL     1      -2.408 -25.558 -10.676  1.00  0.00    -0.073 N 
ATOM     19  H13 UNL     1      -2.442 -26.496 -10.276  1.00  0.00     0.274 HD
ATOM     20  H12 UNL     1      -2.875 -25.046  -9.929  1.00  0.00     0.274 HD
ATOM     21  H11 UNL     1      -2.938 -25.508 -11.546  1.00  0.00     0.274 HD
ENDBRANCH  13  18
ENDBRANCH  11  12
ENDBRANCH   1  11
BRANCH   3  22
HETATM   22  N2  UNL     1       5.694 -26.855 -11.864  1.00  0.00    -0.374 N 
ATOM     23  H2  UNL     1       5.874 -26.591 -10.895  1.00  0.00     0.161 HD
BRANCH  22  24
HETATM   24  C10 UNL     1       6.729 -27.424 -12.692  1.00  0.00     0.157 C 
BRANCH  24  25
HETATM   25  C11 UNL     1       7.860 -26.443 -12.933  1.00  0.00     0.233 C 
HETATM   26  N3  UNL     1       7.921 -25.980 -14.307  1.00  0.00    -0.064 N 
HETATM   27  C12 UNL     1       9.366 -26.027 -14.211  1.00  0.00     0.266 C 
ATOM     28  H32 UNL     1       7.431 -26.479 -15.049  1.00  0.00     0.277 HD
ATOM     29  H31 UNL     1       7.444 -25.124 -14.591  1.00  0.00     0.277 HD
HETATM   30  C13 UNL     1       9.200 -27.098 -13.152  1.00  0.00     0.176 C 
BRANCH  30  31
HETATM   31  O2  UNL     1      10.087 -26.996 -12.089  1.00  0.00    -0.392 OA
ATOM     32  H2  UNL     1       9.685 -26.939 -11.230  1.00  0.00     0.210 HD
ENDBRANCH  30  31
ENDBRANCH  24  25
ENDBRANCH  22  24
ENDBRANCH   3  22
BRANCH   7  33
HETATM   33  C15 UNL     1       4.038 -27.415 -16.433  1.00  0.00     0.099 C 
HETATM   34  C16 UNL     1       3.611 -28.537 -17.360  1.00  0.00     0.026 C 
HETATM   35  C17 UNL     1       4.739 -28.529 -18.383  1.00  0.00     0.002 C 
HETATM   36  C18 UNL     1       4.961 -27.071 -18.614  1.00  0.00     0.002 C 
HETATM   37  C19 UNL     1       4.361 -26.324 -17.458  1.00  0.00     0.026 C 
ENDBRANCH   7  33
TORSDOF 8
ENDMDL
MODEL 5
REMARK VINA RESULT: -7.329268507      1.277      1.442
REMARK  8 active torsions:
REMARK  status: ('A' for Active; 'I' for Inactive)
REMARK    1  A    between atoms: N1_1  and  C1_5 
REMARK    2  A    between atoms: C6_10  and  O1_11 
REMARK    3  A    between atoms: O1_11  and  C7_12 
REMARK    4  A    between atoms: C9_14  and  N2_15 
REMARK    5  A    between atoms: N2_15  and  C10_17 
REMARK    6  A    between atoms: C10_17  and  C11_18 
REMARK    7  A    between atoms: C13_23  and  O2_24 
REMARK    8  A    between atoms: N5_29  and  C15_31 
ROOT
HETATM    1  C7  UNL     1       3.969 -26.835 -14.819  1.00  0.00     0.161 A 
HETATM    2  C8  UNL     1       5.149 -27.011 -14.096  1.00  0.00     0.105 A 
HETATM    3  C9  UNL     1       5.166 -26.929 -12.726  1.00  0.00     0.121 A 
HETATM    4  N4  UNL     1       3.996 -26.673 -12.104  1.00  0.00    -0.177 N 
ATOM      5  H4  UNL     1       3.980 -26.607 -11.086  1.00  0.00     0.185 HD
HETATM    6  C14 UNL     1       2.850 -26.501 -12.790  1.00  0.00     0.682 A 
HETATM    7  N5  UNL     1       1.731 -26.257 -12.208  1.00  0.00    -0.221 N 
ATOM      8  H5  UNL     1       0.897 -26.138 -12.782  1.00  0.00     0.178 HD
HETATM    9  N6  UNL     1       2.833 -26.583 -14.155  1.00  0.00    -0.170 N 
ATOM     10  H6  UNL     1       1.960 -26.452 -14.665  1.00  0.00     0.186 HD
ENDROOT
BRANCH   1  11
HETATM   11  O1  UNL     1       3.975 -26.921 -16.182  1.00  0.00    -0.328 OA
BRANCH  11  12
HETATM   12  C6  UNL     1       2.913 -26.907 -17.067  1.00  0.00     0.161 C 
HETATM   13  C1  UNL     1       2.609 -28.333 -17.475  1.00  0.00     0.212 C 
HETATM   14  C2  UNL     1       3.962 -28.960 -17.778  1.00  0.00     0.035 C 
HETATM   15  C3  UNL     1       4.789 -28.168 -18.715  1.00  0.00     0.002 C 
HETATM   16  C4  UNL     1       4.196 -26.918 -19.235  1.00  0.00     0.003 C 
HETATM   17  C5  UNL     1       3.307 -26.166 -18.314  1.00  0.00     0.035 C 
BRANCH  13  18
HETATM   18  N1  UNL     1       1.711 -28.411 -18.593  1.00  0.00    -0.073 N 
ATOM     19  H13 UNL     1       2.148 -28.051 -19.441  1.00  0.00     0.274 HD
ATOM     20  H12 UNL     1       1.567 -29.378 -18.882  1.00  0.00     0.274 HD
ATOM     21  H11 UNL     1       0.823 -27.945 -18.408  1.00  0.00     0.274 HD
ENDBRANCH  13  18
ENDBRANCH  11  12
ENDBRANCH   1  11
BRANCH   3  22
HETATM   22  N2  UNL     1       6.245 -27.087 -12.029  1.00  0.00    -0.374 N 
ATOM     23  H2  UNL     1       6.369 -26.622 -11.129  1.00  0.00     0.161 HD
BRANCH  22  24
HETATM   24  C10 UNL     1       7.267 -27.947 -12.576  1.00  0.00     0.157 C 
BRANCH  24  25
HETATM   25  C11 UNL     1       8.603 -27.238 -12.680  1.00  0.00     0.233 C 
HETATM   26  N3  UNL     1       8.684 -26.062 -11.833  1.00  0.00    -0.064 N 
HETATM   27  C12 UNL     1       9.427 -25.408 -12.891  1.00  0.00     0.266 C 
ATOM     28  H32 UNL     1       7.841 -25.637 -11.448  1.00  0.00     0.277 HD
ATOM     29  H31 UNL     1       9.065 -26.123 -10.888  1.00  0.00     0.277 HD
HETATM   30  C13 UNL     1       8.719 -26.323 -13.871  1.00  0.00     0.176 C 
BRANCH  30  31
HETATM   31  O2  UNL     1       9.523 -26.792 -14.900  1.00  0.00    -0.392 OA
ATOM     32  H2  UNL     1      10.248 -27.343 -14.628  1.00  0.00     0.210 HD
ENDBRANCH  30  31
ENDBRANCH  24  25
ENDBRANCH  22  24
ENDBRANCH   3  22
BRANCH   7  33
HETATM   33  C15 UNL     1       1.608 -26.145 -10.788  1.00  0.00     0.099 C 
HETATM   34  C16 UNL     1       0.280 -25.549 -10.364  1.00  0.00     0.026 C 
HETATM   35  C17 UNL     1       0.253 -25.895  -8.881  1.00  0.00     0.002 C 
HETATM   36  C18 UNL     1       0.772 -27.294  -8.862  1.00  0.00     0.002 C 
HETATM   37  C19 UNL     1       1.496 -27.535 -10.155  1.00  0.00     0.026 C 
ENDBRANCH   7  33
TORSDOF 8
ENDMDL
