MODEL 1
REMARK VINA RESULT: -7.845641642      0.000      0.000
REMARK  9 active torsions:
REMARK  status: ('A' for Active; 'I' for Inactive)
REMARK    1  A    between atoms: C1_2  and  C2_4 
REMARK    2  A    between atoms: C2_4  and  C3_5 
REMARK    3  A    between atoms: C10_12  and  C11_13 
REMARK    4  A    between atoms: C11_13  and  O3_14 
REMARK    5  A    between atoms: C14_18  and  O4_19 
REMARK    6  A    between atoms: O4_19  and  C15_20 
REMARK    7  A    between atoms: C18_24  and  O6_25 
REMARK    8  A    between atoms: C19_27  and  C20_28 
REMARK    9  A    between atoms: C20_28  and  O7_29 
ROOT
HETATM    1  C3  UNL     1       4.870 -25.917 -14.173  1.00  0.00     0.008 C 
HETATM    2  C4  UNL     1       3.809 -26.864 -13.654  1.00  0.00     0.015 C 
HETATM    3  C5  UNL     1       2.880 -25.875 -14.338  1.00  0.00     0.020 C 
HETATM    4  C6  UNL     1       1.590 -26.294 -14.747  1.00  0.00    -0.025 C 
HETATM    5  C7  UNL     1       1.069 -26.578 -15.909  1.00  0.00    -0.023 C 
HETATM    6  C8  UNL     1       1.630 -26.570 -17.238  1.00  0.00     0.038 C 
HETATM    7  C9  UNL     1       2.877 -25.824 -17.499  1.00  0.00     0.023 C 
HETATM    8  C10 UNL     1       4.045 -26.218 -16.583  1.00  0.00    -0.008 C 
HETATM    9  C12 UNL     1       4.218 -27.662 -16.766  1.00  0.00     0.015 C 
HETATM   10  C13 UNL     1       3.005 -28.552 -16.897  1.00  0.00     0.034 C 
HETATM   11  C14 UNL     1       1.875 -28.002 -17.692  1.00  0.00     0.132 C 
HETATM   12  C19 UNL     1       3.954 -25.561 -15.309  1.00  0.00     0.002 C 
ENDROOT
BRANCH  11  13
HETATM   13  O4  UNL     1       2.068 -28.097 -19.052  1.00  0.00    -0.352 OA
BRANCH  13  14
HETATM   14  C15 UNL     1       2.486 -29.352 -19.464  1.00  0.00     0.298 C 
HETATM   15  O5  UNL     1       1.339 -30.194 -19.520  1.00  0.00    -0.330 OA
HETATM   16  C16 UNL     1       1.069 -30.519 -20.844  1.00  0.00     0.137 C 
HETATM   17  C17 UNL     1       1.998 -30.083 -21.651  1.00  0.00     0.033 C 
HETATM   18  C18 UNL     1       3.031 -29.383 -20.849  1.00  0.00     0.198 C 
BRANCH  18  19
HETATM   19  O6  UNL     1       3.329 -28.121 -21.356  1.00  0.00    -0.387 OA
ATOM     20  H6  UNL     1       3.911 -27.618 -20.800  1.00  0.00     0.210 HD
ENDBRANCH  18  19
ENDBRANCH  13  14
ENDBRANCH  11  13
BRANCH   8  21
HETATM   21  C11 UNL     1       5.240 -25.573 -17.336  1.00  0.00     0.174 C 
BRANCH  21  22
HETATM   22  O3  UNL     1       6.124 -26.563 -17.762  1.00  0.00    -0.400 OA
ATOM     23  H3  UNL     1       5.706 -27.111 -18.416  1.00  0.00     0.209 HD
ENDBRANCH  21  22
ENDBRANCH   8  21
BRANCH  12  24
HETATM   24  C20 UNL     1       3.921 -24.034 -15.482  1.00  0.00     0.175 C 
BRANCH  24  25
HETATM   25  O7  UNL     1       4.024 -23.409 -14.219  1.00  0.00    -0.400 OA
ATOM     26  H7  UNL     1       3.853 -22.478 -14.306  1.00  0.00     0.209 HD
ENDBRANCH  24  25
ENDBRANCH  12  24
BRANCH   1  27
HETATM   27  C2  UNL     1       6.233 -26.356 -14.262  1.00  0.00     0.118 C 
BRANCH  27  28
HETATM   28  C1  UNL     1       6.511 -27.140 -12.988  1.00  0.00     0.172 C 
HETATM   29  O1  UNL     1       6.487 -26.596 -11.857  1.00  0.00    -0.648 OA
HETATM   30  O2  UNL     1       6.801 -28.494 -13.038  1.00  0.00    -0.648 OA
ENDBRANCH  27  28
ENDBRANCH   1  27
TORSDOF 9
ENDMDL
MODEL 2
REMARK VINA RESULT: -7.686819743      3.012      6.450
REMARK  9 active torsions:
REMARK  status: ('A' for Active; 'I' for Inactive)
REMARK    1  A    between atoms: C1_2  and  C2_4 
REMARK    2  A    between atoms: C2_4  and  C3_5 
REMARK    3  A    between atoms: C10_12  and  C11_13 
REMARK    4  A    between atoms: C11_13  and  O3_14 
REMARK    5  A    between atoms: C14_18  and  O4_19 
REMARK    6  A    between atoms: O4_19  and  C15_20 
REMARK    7  A    between atoms: C18_24  and  O6_25 
REMARK    8  A    between atoms: C19_27  and  C20_28 
REMARK    9  A    between atoms: C20_28  and  O7_29 
ROOT
HETATM    1  C3  UNL     1       4.034 -27.282 -17.586  1.00  0.00     0.008 C 
HETATM    2  C4  UNL     1       3.549 -27.652 -16.200  1.00  0.00     0.015 C 
HETATM    3  C5  UNL     1       4.513 -26.552 -15.790  1.00  0.00     0.020 C 
HETATM    4  C6  UNL     1       4.328 -25.883 -14.556  1.00  0.00    -0.025 C 
HETATM    5  C7  UNL     1       3.878 -24.699 -14.239  1.00  0.00    -0.023 C 
HETATM    6  C8  UNL     1       3.390 -23.611 -15.050  1.00  0.00     0.038 C 
HETATM    7  C9  UNL     1       3.712 -23.575 -16.491  1.00  0.00     0.023 C 
HETATM    8  C10 UNL     1       3.306 -24.845 -17.254  1.00  0.00    -0.008 C 
HETATM    9  C12 UNL     1       1.869 -25.006 -17.013  1.00  0.00     0.015 C 
HETATM   10  C13 UNL     1       1.300 -24.711 -15.646  1.00  0.00     0.034 C 
HETATM   11  C14 UNL     1       1.874 -23.536 -14.940  1.00  0.00     0.132 C 
HETATM   12  C19 UNL     1       4.283 -25.885 -17.094  1.00  0.00     0.002 C 
ENDROOT
BRANCH  11  13
HETATM   13  O4  UNL     1       1.373 -22.334 -15.385  1.00  0.00    -0.352 OA
BRANCH  13  14
HETATM   14  C15 UNL     1      -0.009 -22.318 -15.494  1.00  0.00     0.298 C 
HETATM   15  O5  UNL     1      -0.547 -22.269 -14.177  1.00  0.00    -0.330 OA
HETATM   16  C16 UNL     1      -1.157 -21.037 -13.974  1.00  0.00     0.137 C 
HETATM   17  C17 UNL     1      -1.188 -20.323 -15.066  1.00  0.00     0.033 C 
HETATM   18  C18 UNL     1      -0.548 -21.099 -16.156  1.00  0.00     0.198 C 
BRANCH  18  19
HETATM   19  O6  UNL     1       0.419 -20.361 -16.833  1.00  0.00    -0.387 OA
ATOM     20  H6  UNL     1       0.732 -19.609 -16.345  1.00  0.00     0.210 HD
ENDBRANCH  18  19
ENDBRANCH  13  14
ENDBRANCH  11  13
BRANCH   8  21
HETATM   21  C11 UNL     1       3.413 -24.352 -18.724  1.00  0.00     0.174 C 
BRANCH  21  22
HETATM   22  O3  UNL     1       3.077 -23.001 -18.798  1.00  0.00    -0.400 OA
ATOM     23  H3  UNL     1       2.136 -22.896 -18.711  1.00  0.00     0.209 HD
ENDBRANCH  21  22
ENDBRANCH   8  21
BRANCH  12  24
HETATM   24  C20 UNL     1       5.667 -25.414 -17.567  1.00  0.00     0.175 C 
BRANCH  24  25
HETATM   25  O7  UNL     1       6.522 -26.528 -17.726  1.00  0.00    -0.400 OA
ATOM     26  H7  UNL     1       6.490 -26.831 -18.626  1.00  0.00     0.209 HD
ENDBRANCH  24  25
ENDBRANCH  12  24
BRANCH   1  27
HETATM   27  C2  UNL     1       3.268 -27.674 -18.735  1.00  0.00     0.118 C 
BRANCH  27  28
HETATM   28  C1  UNL     1       4.277 -28.066 -19.805  1.00  0.00     0.172 C 
HETATM   29  O1  UNL     1       5.296 -28.748 -19.535  1.00  0.00    -0.648 OA
HETATM   30  O2  UNL     1       4.099 -27.678 -21.123  1.00  0.00    -0.648 OA
ENDBRANCH  27  28
ENDBRANCH   1  27
TORSDOF 9
ENDMDL
MODEL 3
REMARK VINA RESULT: -7.606246342      1.706      2.183
REMARK  9 active torsions:
REMARK  status: ('A' for Active; 'I' for Inactive)
REMARK    1  A    between atoms: C1_2  and  C2_4 
REMARK    2  A    between atoms: C2_4  and  C3_5 
REMARK    3  A    between atoms: C10_12  and  C11_13 
REMARK    4  A    between atoms: C11_13  and  O3_14 
REMARK    5  A    between atoms: C14_18  and  O4_19 
REMARK    6  A    between atoms: O4_19  and  C15_20 
REMARK    7  A    between atoms: C18_24  and  O6_25 
REMARK    8  A    between atoms: C19_27  and  C20_28 
REMARK    9  A    between atoms: C20_28  and  O7_29 
ROOT
HETATM    1  C3  UNL     1       2.446 -25.700 -13.265  1.00  0.00     0.008 C 
HETATM    2  C4  UNL     1       0.939 -25.703 -13.403  1.00  0.00     0.015 C 
HETATM    3  C5  UNL     1       1.244 -24.742 -14.540  1.00  0.00     0.020 C 
HETATM    4  C6  UNL     1       0.310 -24.583 -15.593  1.00  0.00    -0.025 C 
HETATM    5  C7  UNL     1       0.279 -24.998 -16.830  1.00  0.00    -0.023 C 
HETATM    6  C8  UNL     1       1.208 -25.790 -17.599  1.00  0.00     0.038 C 
HETATM    7  C9  UNL     1       2.602 -25.935 -17.133  1.00  0.00     0.023 C 
HETATM    8  C10 UNL     1       2.730 -26.464 -15.698  1.00  0.00    -0.008 C 
HETATM    9  C12 UNL     1       2.009 -27.739 -15.683  1.00  0.00     0.015 C 
HETATM   10  C13 UNL     1       0.711 -27.876 -16.443  1.00  0.00     0.034 C 
HETATM   11  C14 UNL     1       0.655 -27.198 -17.765  1.00  0.00     0.132 C 
HETATM   12  C19 UNL     1       2.551 -25.412 -14.736  1.00  0.00     0.002 C 
ENDROOT
BRANCH  11  13
HETATM   13  O4  UNL     1       1.292 -27.899 -18.764  1.00  0.00    -0.352 OA
BRANCH  13  14
HETATM   14  C15 UNL     1       1.069 -29.266 -18.709  1.00  0.00     0.298 C 
HETATM   15  O5  UNL     1       0.371 -29.640 -19.892  1.00  0.00    -0.330 OA
HETATM   16  C16 UNL     1       1.198 -30.422 -20.688  1.00  0.00     0.137 C 
HETATM   17  C17 UNL     1       2.323 -30.708 -20.089  1.00  0.00     0.033 C 
HETATM   18  C18 UNL     1       2.313 -30.082 -18.744  1.00  0.00     0.198 C 
BRANCH  18  19
HETATM   19  O6  UNL     1       3.467 -29.345 -18.495  1.00  0.00    -0.387 OA
ATOM     20  H6  UNL     1       4.243 -29.705 -18.909  1.00  0.00     0.210 HD
ENDBRANCH  18  19
ENDBRANCH  13  14
ENDBRANCH  11  13
BRANCH   8  21
HETATM   21  C11 UNL     1       4.233 -26.853 -15.660  1.00  0.00     0.174 C 
BRANCH  21  22
HETATM   22  O3  UNL     1       4.370 -28.234 -15.798  1.00  0.00    -0.400 OA
ATOM     23  H3  UNL     1       5.249 -28.445 -16.090  1.00  0.00     0.209 HD
ENDBRANCH  21  22
ENDBRANCH   8  21
BRANCH  12  24
HETATM   24  C20 UNL     1       3.565 -24.280 -14.966  1.00  0.00     0.175 C 
BRANCH  24  25
HETATM   25  O7  UNL     1       3.953 -23.728 -13.725  1.00  0.00    -0.400 OA
ATOM     26  H7  UNL     1       4.412 -22.908 -13.868  1.00  0.00     0.209 HD
ENDBRANCH  24  25
ENDBRANCH  12  24
BRANCH   1  27
HETATM   27  C2  UNL     1       3.096 -26.753 -12.538  1.00  0.00     0.118 C 
BRANCH  27  28
HETATM   28  C1  UNL     1       4.108 -26.078 -11.625  1.00  0.00     0.172 C 
HETATM   29  O1  UNL     1       3.797 -25.102 -10.899  1.00  0.00    -0.648 OA
HETATM   30  O2  UNL     1       5.418 -26.526 -11.565  1.00  0.00    -0.648 OA
ENDBRANCH  27  28
ENDBRANCH   1  27
TORSDOF 9
ENDMDL
MODEL 4
REMARK VINA RESULT: -7.574613360      2.869      5.824
REMARK  9 active torsions:
REMARK  status: ('A' for Active; 'I' for Inactive)
REMARK    1  A    between atoms: C1_2  and  C2_4 
REMARK    2  A    between atoms: C2_4  and  C3_5 
REMARK    3  A    between atoms: C10_12  and  C11_13 
REMARK    4  A    between atoms: C11_13  and  O3_14 
REMARK    5  A    between atoms: C14_18  and  O4_19 
REMARK    6  A    between atoms: O4_19  and  C15_20 
REMARK    7  A    between atoms: C18_24  and  O6_25 
REMARK    8  A    between atoms: C19_27  and  C20_28 
REMARK    9  A    between atoms: C20_28  and  O7_29 
ROOT
HETATM    1  C3  UNL     1       5.383 -26.291 -15.637  1.00  0.00     0.008 C 
HETATM    2  C4  UNL     1       6.012 -25.473 -16.746  1.00  0.00     0.015 C 
HETATM    3  C5  UNL     1       4.913 -26.122 -17.571  1.00  0.00     0.020 C 
HETATM    4  C6  UNL     1       4.469 -25.496 -18.762  1.00  0.00    -0.025 C 
HETATM    5  C7  UNL     1       3.395 -24.821 -19.070  1.00  0.00    -0.023 C 
HETATM    6  C8  UNL     1       2.237 -24.455 -18.293  1.00  0.00     0.038 C 
HETATM    7  C9  UNL     1       1.943 -25.178 -17.040  1.00  0.00     0.023 C 
HETATM    8  C10 UNL     1       3.103 -25.184 -16.034  1.00  0.00    -0.008 C 
HETATM    9  C12 UNL     1       3.424 -23.775 -15.795  1.00  0.00     0.015 C 
HETATM   10  C13 UNL     1       3.404 -22.796 -16.945  1.00  0.00     0.034 C 
HETATM   11  C14 UNL     1       2.312 -22.977 -17.937  1.00  0.00     0.132 C 
HETATM   12  C19 UNL     1       4.067 -26.199 -16.356  1.00  0.00     0.002 C 
ENDROOT
BRANCH  11  13
HETATM   13  O4  UNL     1       1.101 -22.476 -17.514  1.00  0.00    -0.352 OA
BRANCH  13  14
HETATM   14  C15 UNL     1       1.217 -21.522 -16.516  1.00  0.00     0.298 C 
HETATM   15  O5  UNL     1       0.748 -20.285 -17.042  1.00  0.00    -0.330 OA
HETATM   16  C16 UNL     1      -0.433 -19.930 -16.402  1.00  0.00     0.137 C 
HETATM   17  C17 UNL     1      -0.717 -20.741 -15.420  1.00  0.00     0.033 C 
HETATM   18  C18 UNL     1       0.345 -21.773 -15.337  1.00  0.00     0.198 C 
BRANCH  18  19
HETATM   19  O6  UNL     1      -0.174 -23.064 -15.295  1.00  0.00    -0.387 OA
ATOM     20  H6  UNL     1       0.128 -23.569 -14.550  1.00  0.00     0.210 HD
ENDBRANCH  18  19
ENDBRANCH  13  14
ENDBRANCH  11  13
BRANCH   8  21
HETATM   21  C11 UNL     1       2.374 -25.653 -14.745  1.00  0.00     0.174 C 
BRANCH  21  22
HETATM   22  O3  UNL     1       2.084 -24.555 -13.936  1.00  0.00    -0.400 OA
ATOM     23  H3  UNL     1       2.564 -23.793 -14.241  1.00  0.00     0.209 HD
ENDBRANCH  21  22
ENDBRANCH   8  21
BRANCH  12  24
HETATM   24  C20 UNL     1       3.408 -27.587 -16.399  1.00  0.00     0.175 C 
BRANCH  24  25
HETATM   25  O7  UNL     1       4.376 -28.583 -16.135  1.00  0.00    -0.400 OA
ATOM     26  H7  UNL     1       4.036 -29.435 -16.383  1.00  0.00     0.209 HD
ENDBRANCH  24  25
ENDBRANCH  12  24
BRANCH   1  27
HETATM   27  C2  UNL     1       5.650 -25.955 -14.268  1.00  0.00     0.118 C 
BRANCH  27  28
HETATM   28  C1  UNL     1       5.607 -27.264 -13.493  1.00  0.00     0.172 C 
HETATM   29  O1  UNL     1       4.523 -27.780 -13.125  1.00  0.00    -0.648 OA
HETATM   30  O2  UNL     1       6.775 -27.933 -13.168  1.00  0.00    -0.648 OA
ENDBRANCH  27  28
ENDBRANCH   1  27
TORSDOF 9
ENDMDL
MODEL 5
REMARK VINA RESULT: -7.449416549      1.965      6.815
REMARK  9 active torsions:
REMARK  status: ('A' for Active; 'I' for Inactive)
REMARK    1  A    between atoms: C1_2  and  C2_4 
REMARK    2  A    between atoms: C2_4  and  C3_5 
REMARK    3  A    between atoms: C10_12  and  C11_13 
REMARK    4  A    between atoms: C11_13  and  O3_14 
REMARK    5  A    between atoms: C14_18  and  O4_19 
REMARK    6  A    between atoms: O4_19  and  C15_20 
REMARK    7  A    between atoms: C18_24  and  O6_25 
REMARK    8  A    between atoms: C19_27  and  C20_28 
REMARK    9  A    between atoms: C20_28  and  O7_29 
ROOT
HETATM    1  C3  UNL     1       3.284 -26.749 -19.663  1.00  0.00     0.008 C 
HETATM    2  C4  UNL     1       3.806 -25.327 -19.665  1.00  0.00     0.015 C 
HETATM    3  C5  UNL     1       3.132 -25.294 -18.304  1.00  0.00     0.020 C 
HETATM    4  C6  UNL     1       3.565 -24.359 -17.331  1.00  0.00    -0.025 C 
HETATM    5  C7  UNL     1       4.277 -24.465 -16.244  1.00  0.00    -0.023 C 
HETATM    6  C8  UNL     1       4.904 -25.602 -15.616  1.00  0.00     0.038 C 
HETATM    7  C9  UNL     1       4.467 -26.966 -15.976  1.00  0.00     0.023 C 
HETATM    8  C10 UNL     1       4.530 -27.266 -17.481  1.00  0.00    -0.008 C 
HETATM    9  C12 UNL     1       5.917 -27.009 -17.876  1.00  0.00     0.015 C 
HETATM   10  C13 UNL     1       6.657 -25.829 -17.292  1.00  0.00     0.034 C 
HETATM   11  C14 UNL     1       6.406 -25.549 -15.854  1.00  0.00     0.132 C 
HETATM   12  C19 UNL     1       3.377 -26.749 -18.164  1.00  0.00     0.002 C 
ENDROOT
BRANCH  11  13
HETATM   13  O4  UNL     1       7.104 -26.380 -15.007  1.00  0.00    -0.352 OA
BRANCH  13  14
HETATM   14  C15 UNL     1       7.641 -25.727 -13.909  1.00  0.00     0.298 C 
HETATM   15  O5  UNL     1       7.009 -26.246 -12.743  1.00  0.00    -0.330 OA
HETATM   16  C16 UNL     1       7.935 -26.968 -12.000  1.00  0.00     0.137 C 
HETATM   17  C17 UNL     1       9.140 -26.866 -12.492  1.00  0.00     0.033 C 
HETATM   18  C18 UNL     1       9.088 -25.997 -13.694  1.00  0.00     0.198 C 
BRANCH  18  19
HETATM   19  O6  UNL     1       9.714 -26.577 -14.793  1.00  0.00    -0.387 OA
ATOM     20  H6  UNL     1      10.405 -27.185 -14.559  1.00  0.00     0.210 HD
ENDBRANCH  18  19
ENDBRANCH  13  14
ENDBRANCH  11  13
BRANCH   8  21
HETATM   21  C11 UNL     1       4.393 -28.813 -17.479  1.00  0.00     0.174 C 
BRANCH  21  22
HETATM   22  O3  UNL     1       4.459 -29.295 -16.173  1.00  0.00    -0.400 OA
ATOM     23  H3  UNL     1       5.209 -28.920 -15.726  1.00  0.00     0.209 HD
ENDBRANCH  21  22
ENDBRANCH   8  21
BRANCH  12  24
HETATM   24  C20 UNL     1       2.083 -27.330 -17.571  1.00  0.00     0.175 C 
BRANCH  24  25
HETATM   25  O7  UNL     1       0.971 -26.880 -18.319  1.00  0.00    -0.400 OA
ATOM     26  H7  UNL     1       0.174 -27.259 -17.968  1.00  0.00     0.209 HD
ENDBRANCH  24  25
ENDBRANCH  12  24
BRANCH   1  27
HETATM   27  C2  UNL     1       3.844 -27.712 -20.568  1.00  0.00     0.118 C 
BRANCH  27  28
HETATM   28  C1  UNL     1       2.946 -28.939 -20.491  1.00  0.00     0.172 C 
HETATM   29  O1  UNL     1       1.702 -28.840 -20.347  1.00  0.00    -0.648 OA
HETATM   30  O2  UNL     1       3.479 -30.214 -20.581  1.00  0.00    -0.648 OA
ENDBRANCH  27  28
ENDBRANCH   1  27
TORSDOF 9
ENDMDL
