MODEL 1
REMARK VINA RESULT: -8.228576689      0.000      0.000
REMARK  9 active torsions:
REMARK  status: ('A' for Active; 'I' for Inactive)
REMARK    1  A    between atoms: C2_2  and  C3_3 
REMARK    2  A    between atoms: C10_11  and  C12_13 
REMARK    3  A    between atoms: C12_13  and  C13_14 
REMARK    4  A    between atoms: C13_14  and  C14_15 
REMARK    5  A    between atoms: C15_17  and  C16_18 
REMARK    6  A    between atoms: C16_18  and  O3_19 
REMARK    7  A    between atoms: C17_21  and  O4_22 
REMARK    8  A    between atoms: C18_24  and  O5_25 
REMARK    9  A    between atoms: C19_27  and  O6_28 
ROOT
HETATM    1  C14 UNL     1       6.870 -27.067 -13.582  1.00  0.00     0.153 C 
HETATM    2  O2  UNL     1       7.377 -25.816 -13.280  1.00  0.00    -0.373 OA
HETATM    3  C15 UNL     1       8.743 -25.767 -13.175  1.00  0.00     0.176 C 
HETATM    4  C17 UNL     1       9.365 -27.053 -12.722  1.00  0.00     0.180 C 
HETATM    5  C18 UNL     1       8.392 -27.730 -11.780  1.00  0.00     0.180 C 
HETATM    6  C19 UNL     1       7.132 -28.102 -12.534  1.00  0.00     0.178 C 
ENDROOT
BRANCH   1   7
HETATM    7  C13 UNL     1       5.408 -26.946 -13.949  1.00  0.00     0.035 C 
BRANCH   7   8
HETATM    8  C12 UNL     1       5.125 -25.638 -14.597  1.00  0.00     0.012 C 
BRANCH   8   9
HETATM    9  C10 UNL     1       4.651 -25.725 -16.032  1.00  0.00    -0.035 C 
HETATM   10  C9  UNL     1       4.128 -24.345 -16.471  1.00  0.00     0.013 C 
HETATM   11  C8  UNL     1       2.966 -23.890 -15.622  1.00  0.00     0.028 C 
HETATM   12  C7  UNL     1       1.923 -24.950 -15.782  1.00  0.00    -0.023 C 
HETATM   13  C6  UNL     1       2.211 -26.180 -16.059  1.00  0.00    -0.071 C 
HETATM   14  C5  UNL     1       1.379 -27.417 -16.271  1.00  0.00     0.113 C 
HETATM   15  C20 UNL     1       3.613 -26.738 -16.257  1.00  0.00     0.037 C 
HETATM   16  C4  UNL     1       2.067 -27.973 -17.484  1.00  0.00     0.139 C 
HETATM   17  C3  UNL     1       3.454 -27.362 -17.582  1.00  0.00     0.086 C 
HETATM   18  O1  UNL     1       1.536 -28.778 -18.217  1.00  0.00    -0.297 OA
HETATM   19  C11 UNL     1       5.908 -25.906 -16.856  1.00  0.00     0.016 C 
BRANCH  17  20
HETATM   20  C2  UNL     1       4.344 -28.475 -17.932  1.00  0.00    -0.024 C 
HETATM   21  C1  UNL     1       4.850 -28.561 -19.134  1.00  0.00     0.008 C 
ENDBRANCH  17  20
ENDBRANCH   8   9
ENDBRANCH   7   8
ENDBRANCH   1   7
BRANCH   6  22
HETATM   22  O6  UNL     1       7.408 -29.342 -13.153  1.00  0.00    -0.390 OA
ATOM     23  H6  UNL     1       8.264 -29.650 -12.879  1.00  0.00     0.210 HD
ENDBRANCH   6  22
BRANCH   3  24
HETATM   24  C16 UNL     1       9.432 -25.279 -14.427  1.00  0.00     0.198 C 
BRANCH  24  25
HETATM   25  O3  UNL     1      10.150 -26.312 -15.026  1.00  0.00    -0.398 OA
ATOM     26  H3  UNL     1      10.758 -25.968 -15.669  1.00  0.00     0.209 HD
ENDBRANCH  24  25
ENDBRANCH   3  24
BRANCH   5  27
HETATM   27  O5  UNL     1       8.143 -26.887 -10.714  1.00  0.00    -0.390 OA
ATOM     28  H5  UNL     1       7.865 -27.408  -9.970  1.00  0.00     0.210 HD
ENDBRANCH   5  27
BRANCH   4  29
HETATM   29  O4  UNL     1      10.535 -26.745 -12.027  1.00  0.00    -0.390 OA
ATOM     30  H4  UNL     1      11.225 -26.596 -12.662  1.00  0.00     0.210 HD
ENDBRANCH   4  29
TORSDOF 9
ENDMDL
MODEL 2
REMARK VINA RESULT: -7.692529340      1.768      3.345
REMARK  9 active torsions:
REMARK  status: ('A' for Active; 'I' for Inactive)
REMARK    1  A    between atoms: C2_2  and  C3_3 
REMARK    2  A    between atoms: C10_11  and  C12_13 
REMARK    3  A    between atoms: C12_13  and  C13_14 
REMARK    4  A    between atoms: C13_14  and  C14_15 
REMARK    5  A    between atoms: C15_17  and  C16_18 
REMARK    6  A    between atoms: C16_18  and  O3_19 
REMARK    7  A    between atoms: C17_21  and  O4_22 
REMARK    8  A    between atoms: C18_24  and  O5_25 
REMARK    9  A    between atoms: C19_27  and  O6_28 
ROOT
HETATM    1  C14 UNL     1       6.865 -27.100 -13.518  1.00  0.00     0.153 C 
HETATM    2  O2  UNL     1       7.363 -25.843 -13.225  1.00  0.00    -0.373 OA
HETATM    3  C15 UNL     1       8.731 -25.777 -13.153  1.00  0.00     0.176 C 
HETATM    4  C17 UNL     1       9.381 -27.057 -12.720  1.00  0.00     0.180 C 
HETATM    5  C18 UNL     1       8.439 -27.750 -11.757  1.00  0.00     0.180 C 
HETATM    6  C19 UNL     1       7.166 -28.136 -12.480  1.00  0.00     0.178 C 
ENDROOT
BRANCH   1   7
HETATM    7  C13 UNL     1       5.393 -26.996 -13.849  1.00  0.00     0.035 C 
BRANCH   7   8
HETATM    8  C12 UNL     1       5.103 -25.757 -14.616  1.00  0.00     0.012 C 
BRANCH   8   9
HETATM    9  C10 UNL     1       3.742 -25.717 -15.277  1.00  0.00    -0.035 C 
HETATM   10  C9  UNL     1       3.726 -26.713 -16.451  1.00  0.00     0.013 C 
HETATM   11  C8  UNL     1       4.761 -26.369 -17.493  1.00  0.00     0.028 C 
HETATM   12  C7  UNL     1       4.420 -24.983 -17.943  1.00  0.00    -0.023 C 
HETATM   13  C6  UNL     1       3.807 -24.132 -17.186  1.00  0.00    -0.071 C 
HETATM   14  C5  UNL     1       3.351 -22.710 -17.382  1.00  0.00     0.113 C 
HETATM   15  C20 UNL     1       3.350 -24.386 -15.757  1.00  0.00     0.037 C 
HETATM   16  C4  UNL     1       1.981 -22.804 -16.777  1.00  0.00     0.139 C 
HETATM   17  C3  UNL     1       1.926 -24.025 -15.877  1.00  0.00     0.086 C 
HETATM   18  O1  UNL     1       1.111 -21.996 -17.017  1.00  0.00    -0.297 OA
HETATM   19  C11 UNL     1       2.794 -26.337 -14.273  1.00  0.00     0.016 C 
BRANCH  17  20
HETATM   20  C2  UNL     1       1.222 -23.585 -14.668  1.00  0.00    -0.024 C 
HETATM   21  C1  UNL     1      -0.011 -23.958 -14.450  1.00  0.00     0.008 C 
ENDBRANCH  17  20
ENDBRANCH   8   9
ENDBRANCH   7   8
ENDBRANCH   1   7
BRANCH   6  22
HETATM   22  O6  UNL     1       7.443 -29.370 -13.111  1.00  0.00    -0.390 OA
ATOM     23  H6  UNL     1       7.837 -29.965 -12.484  1.00  0.00     0.210 HD
ENDBRANCH   6  22
BRANCH   3  24
HETATM   24  C16 UNL     1       9.383 -25.277 -14.419  1.00  0.00     0.198 C 
BRANCH  24  25
HETATM   25  O3  UNL     1      10.132 -26.288 -15.018  1.00  0.00    -0.398 OA
ATOM     26  H3  UNL     1      11.057 -26.071 -15.007  1.00  0.00     0.209 HD
ENDBRANCH  24  25
ENDBRANCH   3  24
BRANCH   5  27
HETATM   27  O5  UNL     1       8.206 -26.913 -10.682  1.00  0.00    -0.390 OA
ATOM     28  H5  UNL     1       7.477 -27.256 -10.179  1.00  0.00     0.210 HD
ENDBRANCH   5  27
BRANCH   4  29
HETATM   29  O4  UNL     1      10.563 -26.736 -12.052  1.00  0.00    -0.390 OA
ATOM     30  H4  UNL     1      10.353 -26.115 -11.364  1.00  0.00     0.210 HD
ENDBRANCH   4  29
TORSDOF 9
ENDMDL
MODEL 3
REMARK VINA RESULT: -7.517406088      2.976      7.299
REMARK  9 active torsions:
REMARK  status: ('A' for Active; 'I' for Inactive)
REMARK    1  A    between atoms: C2_2  and  C3_3 
REMARK    2  A    between atoms: C10_11  and  C12_13 
REMARK    3  A    between atoms: C12_13  and  C13_14 
REMARK    4  A    between atoms: C13_14  and  C14_15 
REMARK    5  A    between atoms: C15_17  and  C16_18 
REMARK    6  A    between atoms: C16_18  and  O3_19 
REMARK    7  A    between atoms: C17_21  and  O4_22 
REMARK    8  A    between atoms: C18_24  and  O5_25 
REMARK    9  A    between atoms: C19_27  and  O6_28 
ROOT
HETATM    1  C14 UNL     1       2.285 -28.464 -18.155  1.00  0.00     0.153 C 
HETATM    2  O2  UNL     1       1.366 -28.673 -19.168  1.00  0.00    -0.373 OA
HETATM    3  C15 UNL     1       1.607 -29.784 -19.933  1.00  0.00     0.176 C 
HETATM    4  C17 UNL     1       3.055 -30.155 -20.029  1.00  0.00     0.180 C 
HETATM    5  C18 UNL     1       3.864 -28.875 -19.982  1.00  0.00     0.180 C 
HETATM    6  C19 UNL     1       3.678 -28.206 -18.636  1.00  0.00     0.178 C 
ENDROOT
BRANCH   1   7
HETATM    7  C13 UNL     1       1.769 -27.396 -17.217  1.00  0.00     0.035 C 
BRANCH   7   8
HETATM    8  C12 UNL     1       2.303 -26.058 -17.582  1.00  0.00     0.012 C 
BRANCH   8   9
HETATM    9  C10 UNL     1       2.730 -25.199 -16.412  1.00  0.00    -0.035 C 
HETATM   10  C9  UNL     1       3.787 -24.188 -16.891  1.00  0.00     0.013 C 
HETATM   11  C8  UNL     1       5.014 -24.876 -17.438  1.00  0.00     0.028 C 
HETATM   12  C7  UNL     1       5.528 -25.715 -16.311  1.00  0.00    -0.023 C 
HETATM   13  C6  UNL     1       4.762 -26.180 -15.378  1.00  0.00    -0.071 C 
HETATM   14  C5  UNL     1       5.012 -27.027 -14.158  1.00  0.00     0.113 C 
HETATM   15  C20 UNL     1       3.260 -25.961 -15.274  1.00  0.00     0.037 C 
HETATM   16  C4  UNL     1       4.182 -26.274 -13.159  1.00  0.00     0.139 C 
HETATM   17  C3  UNL     1       3.176 -25.418 -13.907  1.00  0.00     0.086 C 
HETATM   18  O1  UNL     1       4.349 -26.385 -11.965  1.00  0.00    -0.297 OA
HETATM   19  C11 UNL     1       1.529 -24.334 -16.094  1.00  0.00     0.016 C 
BRANCH  17  20
HETATM   20  C2  UNL     1       1.913 -25.578 -13.178  1.00  0.00    -0.024 C 
HETATM   21  C1  UNL     1       1.210 -26.673 -13.311  1.00  0.00     0.008 C 
ENDBRANCH  17  20
ENDBRANCH   8   9
ENDBRANCH   7   8
ENDBRANCH   1   7
BRANCH   6  22
HETATM   22  O6  UNL     1       4.601 -28.831 -17.767  1.00  0.00    -0.390 OA
ATOM     23  H6  UNL     1       5.338 -29.157 -18.269  1.00  0.00     0.210 HD
ENDBRANCH   6  22
BRANCH   3  24
HETATM   24  C16 UNL     1       0.797 -30.991 -19.525  1.00  0.00     0.198 C 
BRANCH  24  25
HETATM   25  O3  UNL     1      -0.287 -31.168 -20.384  1.00  0.00    -0.398 OA
ATOM     26  H3  UNL     1      -0.989 -31.634 -19.945  1.00  0.00     0.209 HD
ENDBRANCH  24  25
ENDBRANCH   3  24
BRANCH   5  27
HETATM   27  O5  UNL     1       3.479 -28.067 -21.035  1.00  0.00    -0.390 OA
ATOM     28  H5  UNL     1       3.863 -27.206 -20.916  1.00  0.00     0.210 HD
ENDBRANCH   5  27
BRANCH   4  29
HETATM   29  O4  UNL     1       3.261 -30.780 -21.259  1.00  0.00    -0.390 OA
ATOM     30  H4  UNL     1       3.339 -31.715 -21.105  1.00  0.00     0.210 HD
ENDBRANCH   4  29
TORSDOF 9
ENDMDL
MODEL 4
REMARK VINA RESULT: -7.513764562      3.671      7.520
REMARK  9 active torsions:
REMARK  status: ('A' for Active; 'I' for Inactive)
REMARK    1  A    between atoms: C2_2  and  C3_3 
REMARK    2  A    between atoms: C10_11  and  C12_13 
REMARK    3  A    between atoms: C12_13  and  C13_14 
REMARK    4  A    between atoms: C13_14  and  C14_15 
REMARK    5  A    between atoms: C15_17  and  C16_18 
REMARK    6  A    between atoms: C16_18  and  O3_19 
REMARK    7  A    between atoms: C17_21  and  O4_22 
REMARK    8  A    between atoms: C18_24  and  O5_25 
REMARK    9  A    between atoms: C19_27  and  O6_28 
ROOT
HETATM    1  C14 UNL     1       1.768 -28.701 -18.313  1.00  0.00     0.153 C 
HETATM    2  O2  UNL     1       1.038 -28.849 -19.478  1.00  0.00    -0.373 OA
HETATM    3  C15 UNL     1       1.419 -29.911 -20.257  1.00  0.00     0.176 C 
HETATM    4  C17 UNL     1       2.867 -30.273 -20.126  1.00  0.00     0.180 C 
HETATM    5  C18 UNL     1       3.640 -28.996 -19.864  1.00  0.00     0.180 C 
HETATM    6  C19 UNL     1       3.219 -28.412 -18.533  1.00  0.00     0.178 C 
ENDROOT
BRANCH   1   7
HETATM    7  C13 UNL     1       1.087 -27.694 -17.413  1.00  0.00     0.035 C 
BRANCH   7   8
HETATM    8  C12 UNL     1       1.268 -26.310 -17.925  1.00  0.00     0.012 C 
BRANCH   8   9
HETATM    9  C10 UNL     1       1.257 -25.230 -16.864  1.00  0.00    -0.035 C 
HETATM   10  C9  UNL     1       1.508 -23.867 -17.535  1.00  0.00     0.013 C 
HETATM   11  C8  UNL     1       2.845 -23.823 -18.232  1.00  0.00     0.028 C 
HETATM   12  C7  UNL     1       3.855 -24.104 -17.165  1.00  0.00    -0.023 C 
HETATM   13  C6  UNL     1       3.583 -24.803 -16.110  1.00  0.00    -0.071 C 
HETATM   14  C5  UNL     1       4.390 -25.226 -14.911  1.00  0.00     0.113 C 
HETATM   15  C20 UNL     1       2.237 -25.438 -15.791  1.00  0.00     0.037 C 
HETATM   16  C4  UNL     1       3.389 -24.946 -13.828  1.00  0.00     0.139 C 
HETATM   17  C3  UNL     1       2.004 -24.878 -14.448  1.00  0.00     0.086 C 
HETATM   18  O1  UNL     1       3.711 -24.809 -12.669  1.00  0.00    -0.297 OA
HETATM   19  C11 UNL     1      -0.182 -25.140 -16.404  1.00  0.00     0.016 C 
BRANCH  17  20
HETATM   20  C2  UNL     1       1.132 -25.623 -13.533  1.00  0.00    -0.024 C 
HETATM   21  C1  UNL     1       1.148 -26.930 -13.526  1.00  0.00     0.008 C 
ENDBRANCH  17  20
ENDBRANCH   8   9
ENDBRANCH   7   8
ENDBRANCH   1   7
BRANCH   6  22
HETATM   22  O6  UNL     1       3.988 -29.087 -17.558  1.00  0.00    -0.390 OA
ATOM     23  H6  UNL     1       4.890 -29.145 -17.850  1.00  0.00     0.210 HD
ENDBRANCH   6  22
BRANCH   3  24
HETATM   24  C16 UNL     1       0.566 -31.142 -20.066  1.00  0.00     0.198 C 
BRANCH  24  25
HETATM   25  O3  UNL     1      -0.696 -30.956 -20.629  1.00  0.00    -0.398 OA
ATOM     26  H3  UNL     1      -0.658 -31.049 -21.573  1.00  0.00     0.209 HD
ENDBRANCH  24  25
ENDBRANCH   3  24
BRANCH   5  27
HETATM   27  O5  UNL     1       3.431 -28.125 -20.917  1.00  0.00    -0.390 OA
ATOM     28  H5  UNL     1       3.802 -27.280 -20.694  1.00  0.00     0.210 HD
ENDBRANCH   5  27
BRANCH   4  29
HETATM   29  O4  UNL     1       3.287 -30.820 -21.338  1.00  0.00    -0.390 OA
ATOM     30  H4  UNL     1       2.536 -31.232 -21.751  1.00  0.00     0.210 HD
ENDBRANCH   4  29
TORSDOF 9
ENDMDL
MODEL 5
REMARK VINA RESULT: -7.499648797      1.841      2.998
REMARK  9 active torsions:
REMARK  status: ('A' for Active; 'I' for Inactive)
REMARK    1  A    between atoms: C2_2  and  C3_3 
REMARK    2  A    between atoms: C10_11  and  C12_13 
REMARK    3  A    between atoms: C12_13  and  C13_14 
REMARK    4  A    between atoms: C13_14  and  C14_15 
REMARK    5  A    between atoms: C15_17  and  C16_18 
REMARK    6  A    between atoms: C16_18  and  O3_19 
REMARK    7  A    between atoms: C17_21  and  O4_22 
REMARK    8  A    between atoms: C18_24  and  O5_25 
REMARK    9  A    between atoms: C19_27  and  O6_28 
ROOT
HETATM    1  C14 UNL     1       6.871 -27.016 -13.521  1.00  0.00     0.153 C 
HETATM    2  O2  UNL     1       7.410 -25.783 -13.202  1.00  0.00    -0.373 OA
HETATM    3  C15 UNL     1       8.778 -25.766 -13.120  1.00  0.00     0.176 C 
HETATM    4  C17 UNL     1       9.380 -27.075 -12.706  1.00  0.00     0.180 C 
HETATM    5  C18 UNL     1       8.408 -27.752 -11.762  1.00  0.00     0.180 C 
HETATM    6  C19 UNL     1       7.127 -28.080 -12.501  1.00  0.00     0.178 C 
ENDROOT
BRANCH   1   7
HETATM    7  C13 UNL     1       5.406 -26.854 -13.861  1.00  0.00     0.035 C 
BRANCH   7   8
HETATM    8  C12 UNL     1       5.211 -25.829 -14.919  1.00  0.00     0.012 C 
BRANCH   8   9
HETATM    9  C10 UNL     1       3.869 -25.879 -15.618  1.00  0.00    -0.035 C 
HETATM   10  C9  UNL     1       4.076 -25.622 -17.121  1.00  0.00     0.013 C 
HETATM   11  C8  UNL     1       4.688 -24.267 -17.380  1.00  0.00     0.028 C 
HETATM   12  C7  UNL     1       3.732 -23.284 -16.782  1.00  0.00    -0.023 C 
HETATM   13  C6  UNL     1       2.954 -23.578 -15.791  1.00  0.00    -0.071 C 
HETATM   14  C5  UNL     1       1.922 -22.800 -15.017  1.00  0.00     0.113 C 
HETATM   15  C20 UNL     1       2.886 -24.926 -15.088  1.00  0.00     0.037 C 
HETATM   16  C4  UNL     1       0.835 -23.832 -14.947  1.00  0.00     0.139 C 
HETATM   17  C3  UNL     1       1.442 -25.200 -15.204  1.00  0.00     0.086 C 
HETATM   18  O1  UNL     1      -0.319 -23.542 -14.718  1.00  0.00    -0.297 OA
HETATM   19  C11 UNL     1       3.444 -27.330 -15.561  1.00  0.00     0.016 C 
BRANCH  17  20
HETATM   20  C2  UNL     1       0.828 -26.089 -14.212  1.00  0.00    -0.024 C 
HETATM   21  C1  UNL     1       1.227 -26.064 -12.967  1.00  0.00     0.008 C 
ENDBRANCH  17  20
ENDBRANCH   8   9
ENDBRANCH   7   8
ENDBRANCH   1   7
BRANCH   6  22
HETATM   22  O6  UNL     1       7.365 -29.311 -13.152  1.00  0.00    -0.390 OA
ATOM     23  H6  UNL     1       8.260 -29.588 -12.991  1.00  0.00     0.210 HD
ENDBRANCH   6  22
BRANCH   3  24
HETATM   24  C16 UNL     1       9.457 -25.266 -14.372  1.00  0.00     0.198 C 
BRANCH  24  25
HETATM   25  O3  UNL     1      10.166 -26.294 -14.990  1.00  0.00    -0.398 OA
ATOM     26  H3  UNL     1      10.900 -25.946 -15.482  1.00  0.00     0.209 HD
ENDBRANCH  24  25
ENDBRANCH   3  24
BRANCH   5  27
HETATM   27  O5  UNL     1       8.197 -26.928 -10.673  1.00  0.00    -0.390 OA
ATOM     28  H5  UNL     1       8.418 -27.403  -9.881  1.00  0.00     0.210 HD
ENDBRANCH   5  27
BRANCH   4  29
HETATM   29  O4  UNL     1      10.568 -26.809 -12.025  1.00  0.00    -0.390 OA
ATOM     30  H4  UNL     1      10.396 -26.123 -11.390  1.00  0.00     0.210 HD
ENDBRANCH   4  29
TORSDOF 9
ENDMDL
