MODEL 1
REMARK VINA RESULT: -8.104947437      0.000      0.000
REMARK  9 active torsions:
REMARK  status: ('A' for Active; 'I' for Inactive)
REMARK    1  A    between atoms: C2_2  and  O1_3 
REMARK    2  A    between atoms: O1_3  and  C3_4 
REMARK    3  A    between atoms: C3_4  and  C4_6 
REMARK    4  A    between atoms: C4_6  and  N1_7 
REMARK       I    between atoms: N1_7  and  C5_9 
REMARK       I    between atoms: C5_9  and  N2_11 
REMARK    5  A    between atoms: C9_15  and  C10_16 
REMARK       I    between atoms: C10_16  and  N3_18 
REMARK    6  A    between atoms: N3_18  and  N4_20 
REMARK    7  A    between atoms: N4_20  and  C11_22 
REMARK    8  A    between atoms: C11_22  and  S1_26 
REMARK    9  A    between atoms: S1_26  and  C12_27 
ROOT
HETATM    1  N1  UNL     1       5.464 -26.605 -14.099  1.00  0.00    -0.334 N 
ATOM      2  H1  UNL     1       6.181 -26.308 -14.762  1.00  0.00     0.164 HD
HETATM    3  C5  UNL     1       4.181 -26.912 -14.587  1.00  0.00     0.318 C 
HETATM    4  O3  UNL     1       3.277 -27.279 -13.806  1.00  0.00    -0.247 OA
HETATM    5  N2  UNL     1       3.862 -26.817 -15.987  1.00  0.00    -0.334 N 
HETATM    6  C6  UNL     1       2.481 -27.114 -16.311  1.00  0.00     0.127 C 
HETATM    7  C7  UNL     1       2.424 -28.284 -17.240  1.00  0.00     0.021 C 
HETATM    8  C8  UNL     1       3.744 -28.994 -17.434  1.00  0.00     0.015 C 
HETATM    9  C9  UNL     1       4.601 -28.317 -18.473  1.00  0.00     0.081 C 
HETATM   10  C14 UNL     1       4.620 -26.815 -18.292  1.00  0.00     0.034 C 
HETATM   11  C15 UNL     1       4.950 -26.452 -16.858  1.00  0.00     0.128 C 
ENDROOT
BRANCH   9  12
HETATM   12  C10 UNL     1       4.180 -28.694 -19.849  1.00  0.00     0.240 C 
HETATM   13  O4  UNL     1       4.219 -27.854 -20.800  1.00  0.00    -0.271 OA
HETATM   14  N3  UNL     1       3.737 -30.016 -20.069  1.00  0.00    -0.268 N 
ATOM     15  H3  UNL     1       3.700 -30.683 -19.297  1.00  0.00     0.190 HD
BRANCH  14  16
HETATM   16  N4  UNL     1       3.351 -30.399 -21.343  1.00  0.00    -0.278 N 
ATOM     17  H4  UNL     1       4.057 -30.698 -22.016  1.00  0.00     0.189 HD
BRANCH  16  18
HETATM   18  C11 UNL     1       1.993 -30.381 -21.720  1.00  0.00     0.152 C 
HETATM   19  N5  UNL     1       1.624 -30.354 -22.971  1.00  0.00    -0.379 N 
ATOM     20  H52 UNL     1       2.346 -30.351 -23.691  1.00  0.00     0.158 HD
ATOM     21  H51 UNL     1       0.641 -30.341 -23.243  1.00  0.00     0.158 HD
BRANCH  18  22
HETATM   22  S1  UNL     1       0.736 -30.387 -20.464  1.00  0.00    -0.093 SA
BRANCH  22  23
HETATM   23  C12 UNL     1       0.847 -31.931 -19.531  1.00  0.00     0.078 C 
HETATM   24  C13 UNL     1       0.847 -31.586 -18.057  1.00  0.00     0.016 C 
ENDBRANCH  22  23
ENDBRANCH  18  22
ENDBRANCH  16  18
ENDBRANCH  14  16
ENDBRANCH   9  12
BRANCH   1  25
HETATM   25  C4  UNL     1       5.801 -26.690 -12.720  1.00  0.00     0.235 C 
BRANCH  25  26
HETATM   26  C3  UNL     1       7.081 -27.366 -12.410  1.00  0.00     0.276 C 
HETATM   27  O2  UNL     1       7.261 -28.545 -12.778  1.00  0.00    -0.263 OA
BRANCH  26  28
HETATM   28  O1  UNL     1       8.100 -26.750 -11.728  1.00  0.00    -0.321 OA
BRANCH  28  29
HETATM   29  C2  UNL     1       9.315 -26.305 -12.248  1.00  0.00     0.174 C 
HETATM   30  C1  UNL     1       9.148 -25.240 -13.339  1.00  0.00     0.034 C 
ENDBRANCH  28  29
ENDBRANCH  26  28
ENDBRANCH  25  26
ENDBRANCH   1  25
TORSDOF 9
ENDMDL
MODEL 2
REMARK VINA RESULT: -7.237917431      1.231      1.543
REMARK  9 active torsions:
REMARK  status: ('A' for Active; 'I' for Inactive)
REMARK    1  A    between atoms: C2_2  and  O1_3 
REMARK    2  A    between atoms: O1_3  and  C3_4 
REMARK    3  A    between atoms: C3_4  and  C4_6 
REMARK    4  A    between atoms: C4_6  and  N1_7 
REMARK       I    between atoms: N1_7  and  C5_9 
REMARK       I    between atoms: C5_9  and  N2_11 
REMARK    5  A    between atoms: C9_15  and  C10_16 
REMARK       I    between atoms: C10_16  and  N3_18 
REMARK    6  A    between atoms: N3_18  and  N4_20 
REMARK    7  A    between atoms: N4_20  and  C11_22 
REMARK    8  A    between atoms: C11_22  and  S1_26 
REMARK    9  A    between atoms: S1_26  and  C12_27 
ROOT
HETATM    1  N1  UNL     1       6.334 -25.987 -15.002  1.00  0.00    -0.334 N 
ATOM      2  H1  UNL     1       6.873 -25.732 -15.830  1.00  0.00     0.164 HD
HETATM    3  C5  UNL     1       5.004 -26.412 -15.167  1.00  0.00     0.318 C 
HETATM    4  O3  UNL     1       4.313 -26.733 -14.177  1.00  0.00    -0.247 OA
HETATM    5  N2  UNL     1       4.393 -26.492 -16.468  1.00  0.00    -0.334 N 
HETATM    6  C6  UNL     1       3.000 -26.892 -16.454  1.00  0.00     0.127 C 
HETATM    7  C7  UNL     1       2.835 -28.161 -17.227  1.00  0.00     0.021 C 
HETATM    8  C8  UNL     1       4.134 -28.822 -17.631  1.00  0.00     0.015 C 
HETATM    9  C9  UNL     1       4.702 -28.224 -18.893  1.00  0.00     0.081 C 
HETATM   10  C14 UNL     1       4.649 -26.713 -18.871  1.00  0.00     0.034 C 
HETATM   11  C15 UNL     1       5.245 -26.173 -17.585  1.00  0.00     0.128 C 
ENDROOT
BRANCH   9  12
HETATM   12  C10 UNL     1       4.031 -28.775 -20.100  1.00  0.00     0.240 C 
HETATM   13  O4  UNL     1       3.601 -28.010 -21.017  1.00  0.00    -0.271 OA
HETATM   14  N3  UNL     1       3.887 -30.176 -20.199  1.00  0.00    -0.268 N 
ATOM     15  H3  UNL     1       4.228 -30.783 -19.453  1.00  0.00     0.190 HD
BRANCH  14  16
HETATM   16  N4  UNL     1       3.278 -30.718 -21.319  1.00  0.00    -0.278 N 
ATOM     17  H4  UNL     1       3.782 -31.397 -21.889  1.00  0.00     0.189 HD
BRANCH  16  18
HETATM   18  C11 UNL     1       1.968 -30.341 -21.678  1.00  0.00     0.152 C 
HETATM   19  N5  UNL     1       1.665 -29.971 -22.892  1.00  0.00    -0.379 N 
ATOM     20  H52 UNL     1       2.403 -29.960 -23.597  1.00  0.00     0.158 HD
ATOM     21  H51 UNL     1       0.717 -29.699 -23.152  1.00  0.00     0.158 HD
BRANCH  18  22
HETATM   22  S1  UNL     1       0.683 -30.361 -20.451  1.00  0.00    -0.093 SA
BRANCH  22  23
HETATM   23  C12 UNL     1       0.872 -31.840 -19.429  1.00  0.00     0.078 C 
HETATM   24  C13 UNL     1       1.032 -31.394 -17.991  1.00  0.00     0.016 C 
ENDBRANCH  22  23
ENDBRANCH  18  22
ENDBRANCH  16  18
ENDBRANCH  14  16
ENDBRANCH   9  12
BRANCH   1  25
HETATM   25  C4  UNL     1       6.958 -25.899 -13.727  1.00  0.00     0.235 C 
BRANCH  25  26
HETATM   26  C3  UNL     1       8.431 -26.058 -13.717  1.00  0.00     0.276 C 
HETATM   27  O2  UNL     1       9.154 -25.128 -14.126  1.00  0.00    -0.263 OA
BRANCH  26  28
HETATM   28  O1  UNL     1       9.052 -27.197 -13.270  1.00  0.00    -0.321 OA
BRANCH  28  29
HETATM   29  C2  UNL     1       8.555 -28.126 -12.356  1.00  0.00     0.174 C 
HETATM   30  C1  UNL     1       9.394 -29.408 -12.286  1.00  0.00     0.034 C 
ENDBRANCH  28  29
ENDBRANCH  26  28
ENDBRANCH  25  26
ENDBRANCH   1  25
TORSDOF 9
ENDMDL
MODEL 3
REMARK VINA RESULT: -7.111263541      4.703      6.671
REMARK  9 active torsions:
REMARK  status: ('A' for Active; 'I' for Inactive)
REMARK    1  A    between atoms: C2_2  and  O1_3 
REMARK    2  A    between atoms: O1_3  and  C3_4 
REMARK    3  A    between atoms: C3_4  and  C4_6 
REMARK    4  A    between atoms: C4_6  and  N1_7 
REMARK       I    between atoms: N1_7  and  C5_9 
REMARK       I    between atoms: C5_9  and  N2_11 
REMARK    5  A    between atoms: C9_15  and  C10_16 
REMARK       I    between atoms: C10_16  and  N3_18 
REMARK    6  A    between atoms: N3_18  and  N4_20 
REMARK    7  A    between atoms: N4_20  and  C11_22 
REMARK    8  A    between atoms: C11_22  and  S1_26 
REMARK    9  A    between atoms: S1_26  and  C12_27 
ROOT
HETATM    1  N1  UNL     1       5.498 -26.648 -13.135  1.00  0.00    -0.334 N 
ATOM      2  H1  UNL     1       5.353 -25.779 -12.622  1.00  0.00     0.164 HD
HETATM    3  C5  UNL     1       4.681 -26.919 -14.248  1.00  0.00     0.318 C 
HETATM    4  O3  UNL     1       4.829 -27.974 -14.902  1.00  0.00    -0.247 OA
HETATM    5  N2  UNL     1       3.654 -26.004 -14.672  1.00  0.00    -0.334 N 
HETATM    6  C6  UNL     1       2.867 -26.463 -15.798  1.00  0.00     0.127 C 
HETATM    7  C7  UNL     1       3.014 -25.505 -16.936  1.00  0.00     0.021 C 
HETATM    8  C8  UNL     1       4.079 -24.451 -16.734  1.00  0.00     0.015 C 
HETATM    9  C9  UNL     1       3.572 -23.284 -15.925  1.00  0.00     0.081 C 
HETATM   10  C14 UNL     1       2.783 -23.740 -14.718  1.00  0.00     0.034 C 
HETATM   11  C15 UNL     1       3.560 -24.774 -13.928  1.00  0.00     0.128 C 
ENDROOT
BRANCH   9  12
HETATM   12  C10 UNL     1       2.785 -22.346 -16.768  1.00  0.00     0.240 C 
HETATM   13  O4  UNL     1       3.069 -22.167 -17.992  1.00  0.00    -0.271 OA
HETATM   14  N3  UNL     1       1.708 -21.658 -16.168  1.00  0.00    -0.268 N 
ATOM     15  H3  UNL     1       1.491 -21.800 -15.182  1.00  0.00     0.190 HD
BRANCH  14  16
HETATM   16  N4  UNL     1       0.948 -20.787 -16.933  1.00  0.00    -0.278 N 
ATOM     17  H4  UNL     1       1.287 -20.493 -17.849  1.00  0.00     0.189 HD
BRANCH  16  18
HETATM   18  C11 UNL     1      -0.288 -20.303 -16.458  1.00  0.00     0.152 C 
HETATM   19  N5  UNL     1      -0.636 -19.053 -16.592  1.00  0.00    -0.379 N 
ATOM     20  H52 UNL     1       0.008 -18.415 -17.059  1.00  0.00     0.158 HD
ATOM     21  H51 UNL     1      -1.531 -18.703 -16.249  1.00  0.00     0.158 HD
BRANCH  18  22
HETATM   22  S1  UNL     1      -1.409 -21.415 -15.644  1.00  0.00    -0.093 SA
BRANCH  22  23
HETATM   23  C12 UNL     1      -1.484 -20.993 -13.889  1.00  0.00     0.078 C 
HETATM   24  C13 UNL     1      -1.365 -22.277 -13.096  1.00  0.00     0.016 C 
ENDBRANCH  22  23
ENDBRANCH  18  22
ENDBRANCH  16  18
ENDBRANCH  14  16
ENDBRANCH   9  12
BRANCH   1  25
HETATM   25  C4  UNL     1       6.517 -27.538 -12.698  1.00  0.00     0.235 C 
BRANCH  25  26
HETATM   26  C3  UNL     1       7.696 -26.905 -12.062  1.00  0.00     0.276 C 
HETATM   27  O2  UNL     1       8.195 -27.419 -11.041  1.00  0.00    -0.263 OA
BRANCH  26  28
HETATM   28  O1  UNL     1       8.279 -25.762 -12.549  1.00  0.00    -0.321 OA
BRANCH  28  29
HETATM   29  C2  UNL     1       9.433 -25.669 -13.326  1.00  0.00     0.174 C 
HETATM   30  C1  UNL     1       9.187 -25.972 -14.808  1.00  0.00     0.034 C 
ENDBRANCH  28  29
ENDBRANCH  26  28
ENDBRANCH  25  26
ENDBRANCH   1  25
TORSDOF 9
ENDMDL
MODEL 4
REMARK VINA RESULT: -6.856226216      4.443      8.243
REMARK  9 active torsions:
REMARK  status: ('A' for Active; 'I' for Inactive)
REMARK    1  A    between atoms: C2_2  and  O1_3 
REMARK    2  A    between atoms: O1_3  and  C3_4 
REMARK    3  A    between atoms: C3_4  and  C4_6 
REMARK    4  A    between atoms: C4_6  and  N1_7 
REMARK       I    between atoms: N1_7  and  C5_9 
REMARK       I    between atoms: C5_9  and  N2_11 
REMARK    5  A    between atoms: C9_15  and  C10_16 
REMARK       I    between atoms: C10_16  and  N3_18 
REMARK    6  A    between atoms: N3_18  and  N4_20 
REMARK    7  A    between atoms: N4_20  and  C11_22 
REMARK    8  A    between atoms: C11_22  and  S1_26 
REMARK    9  A    between atoms: S1_26  and  C12_27 
ROOT
HETATM    1  N1  UNL     1       1.830 -30.215 -18.104  1.00  0.00    -0.334 N 
ATOM      2  H1  UNL     1       2.806 -30.083 -18.369  1.00  0.00     0.164 HD
HETATM    3  C5  UNL     1       1.248 -29.310 -17.198  1.00  0.00     0.318 C 
HETATM    4  O3  UNL     1       0.055 -29.440 -16.850  1.00  0.00    -0.247 OA
HETATM    5  N2  UNL     1       1.995 -28.213 -16.642  1.00  0.00    -0.334 N 
HETATM    6  C6  UNL     1       1.263 -27.412 -15.682  1.00  0.00     0.127 C 
HETATM    7  C7  UNL     1       1.172 -26.002 -16.171  1.00  0.00     0.021 C 
HETATM    8  C8  UNL     1       1.645 -25.800 -17.592  1.00  0.00     0.015 C 
HETATM    9  C9  UNL     1       3.142 -25.644 -17.672  1.00  0.00     0.081 C 
HETATM   10  C14 UNL     1       3.859 -26.669 -16.822  1.00  0.00     0.034 C 
HETATM   11  C15 UNL     1       3.347 -28.065 -17.119  1.00  0.00     0.128 C 
ENDROOT
BRANCH   9  12
HETATM   12  C10 UNL     1       3.559 -24.259 -17.323  1.00  0.00     0.240 C 
HETATM   13  O4  UNL     1       4.214 -24.020 -16.263  1.00  0.00    -0.271 OA
HETATM   14  N3  UNL     1       3.206 -23.216 -18.207  1.00  0.00    -0.268 N 
ATOM     15  H3  UNL     1       2.672 -23.416 -19.052  1.00  0.00     0.190 HD
BRANCH  14  16
HETATM   16  N4  UNL     1       3.593 -21.918 -17.913  1.00  0.00    -0.278 N 
ATOM     17  H4  UNL     1       4.584 -21.680 -17.889  1.00  0.00     0.189 HD
BRANCH  16  18
HETATM   18  C11 UNL     1       2.629 -20.924 -17.649  1.00  0.00     0.152 C 
HETATM   19  N5  UNL     1       2.779 -19.694 -18.057  1.00  0.00    -0.379 N 
ATOM     20  H52 UNL     1       3.617 -19.454 -18.586  1.00  0.00     0.158 HD
ATOM     21  H51 UNL     1       2.081 -18.974 -17.866  1.00  0.00     0.158 HD
BRANCH  18  22
HETATM   22  S1  UNL     1       1.169 -21.342 -16.727  1.00  0.00    -0.093 SA
BRANCH  22  23
HETATM   23  C12 UNL     1       0.017 -19.951 -16.792  1.00  0.00     0.078 C 
HETATM   24  C13 UNL     1      -1.151 -20.272 -15.884  1.00  0.00     0.016 C 
ENDBRANCH  22  23
ENDBRANCH  18  22
ENDBRANCH  16  18
ENDBRANCH  14  16
ENDBRANCH   9  12
BRANCH   1  25
HETATM   25  C4  UNL     1       1.112 -31.307 -18.665  1.00  0.00     0.235 C 
BRANCH  25  26
HETATM   26  C3  UNL     1       0.325 -31.004 -19.882  1.00  0.00     0.276 C 
HETATM   27  O2  UNL     1      -0.774 -31.565 -20.061  1.00  0.00    -0.263 OA
BRANCH  26  28
HETATM   28  O1  UNL     1       0.752 -30.119 -20.841  1.00  0.00    -0.321 OA
BRANCH  28  29
HETATM   29  C2  UNL     1       1.951 -30.158 -21.552  1.00  0.00     0.174 C 
HETATM   30  C1  UNL     1       2.968 -29.117 -21.071  1.00  0.00     0.034 C 
ENDBRANCH  28  29
ENDBRANCH  26  28
ENDBRANCH  25  26
ENDBRANCH   1  25
TORSDOF 9
ENDMDL
MODEL 5
REMARK VINA RESULT: -6.713397168      4.812      7.211
REMARK  9 active torsions:
REMARK  status: ('A' for Active; 'I' for Inactive)
REMARK    1  A    between atoms: C2_2  and  O1_3 
REMARK    2  A    between atoms: O1_3  and  C3_4 
REMARK    3  A    between atoms: C3_4  and  C4_6 
REMARK    4  A    between atoms: C4_6  and  N1_7 
REMARK       I    between atoms: N1_7  and  C5_9 
REMARK       I    between atoms: C5_9  and  N2_11 
REMARK    5  A    between atoms: C9_15  and  C10_16 
REMARK       I    between atoms: C10_16  and  N3_18 
REMARK    6  A    between atoms: N3_18  and  N4_20 
REMARK    7  A    between atoms: N4_20  and  C11_22 
REMARK    8  A    between atoms: C11_22  and  S1_26 
REMARK    9  A    between atoms: S1_26  and  C12_27 
ROOT
HETATM    1  N1  UNL     1       6.886 -25.904 -14.503  1.00  0.00    -0.334 N 
ATOM      2  H1  UNL     1       6.418 -25.848 -13.598  1.00  0.00     0.164 HD
HETATM    3  C5  UNL     1       6.102 -25.882 -15.670  1.00  0.00     0.318 C 
HETATM    4  O3  UNL     1       6.640 -25.948 -16.796  1.00  0.00    -0.247 OA
HETATM    5  N2  UNL     1       4.667 -25.785 -15.615  1.00  0.00    -0.334 N 
HETATM    6  C6  UNL     1       4.011 -25.834 -16.906  1.00  0.00     0.127 C 
HETATM    7  C7  UNL     1       3.246 -24.569 -17.128  1.00  0.00     0.021 C 
HETATM    8  C8  UNL     1       3.509 -23.490 -16.102  1.00  0.00     0.015 C 
HETATM    9  C9  UNL     1       2.676 -23.679 -14.860  1.00  0.00     0.081 C 
HETATM   10  C14 UNL     1       2.678 -25.118 -14.396  1.00  0.00     0.034 C 
HETATM   11  C15 UNL     1       4.095 -25.649 -14.300  1.00  0.00     0.128 C 
ENDROOT
BRANCH   9  12
HETATM   12  C10 UNL     1       1.291 -23.172 -15.057  1.00  0.00     0.240 C 
HETATM   13  O4  UNL     1       0.341 -23.960 -15.349  1.00  0.00    -0.271 OA
HETATM   14  N3  UNL     1       1.063 -21.787 -14.907  1.00  0.00    -0.268 N 
ATOM     15  H3  UNL     1       1.834 -21.159 -14.680  1.00  0.00     0.190 HD
BRANCH  14  16
HETATM   16  N4  UNL     1      -0.220 -21.289 -15.072  1.00  0.00    -0.278 N 
ATOM     17  H4  UNL     1      -0.527 -20.982 -15.995  1.00  0.00     0.189 HD
BRANCH  16  18
HETATM   18  C11 UNL     1      -1.104 -21.203 -13.977  1.00  0.00     0.152 C 
HETATM   19  N5  UNL     1      -0.785 -20.571 -12.882  1.00  0.00    -0.379 N 
ATOM     20  H52 UNL     1       0.131 -20.125 -12.825  1.00  0.00     0.158 HD
ATOM     21  H51 UNL     1      -1.425 -20.509 -12.090  1.00  0.00     0.158 HD
BRANCH  18  22
HETATM   22  S1  UNL     1      -2.699 -21.979 -14.077  1.00  0.00    -0.093 SA
BRANCH  22  23
HETATM   23  C12 UNL     1      -2.670 -23.504 -13.108  1.00  0.00     0.078 C 
HETATM   24  C13 UNL     1      -3.073 -23.161 -11.689  1.00  0.00     0.016 C 
ENDBRANCH  22  23
ENDBRANCH  18  22
ENDBRANCH  16  18
ENDBRANCH  14  16
ENDBRANCH   9  12
BRANCH   1  25
HETATM   25  C4  UNL     1       8.304 -26.001 -14.533  1.00  0.00     0.235 C 
BRANCH  25  26
HETATM   26  C3  UNL     1       9.002 -25.646 -13.276  1.00  0.00     0.276 C 
HETATM   27  O2  UNL     1       9.297 -24.455 -13.049  1.00  0.00    -0.263 OA
BRANCH  26  28
HETATM   28  O1  UNL     1       9.344 -26.578 -12.328  1.00  0.00    -0.321 OA
BRANCH  28  29
HETATM   29  C2  UNL     1       8.571 -27.648 -11.879  1.00  0.00     0.174 C 
HETATM   30  C1  UNL     1       9.146 -29.013 -12.278  1.00  0.00     0.034 C 
ENDBRANCH  28  29
ENDBRANCH  26  28
ENDBRANCH  25  26
ENDBRANCH   1  25
TORSDOF 9
ENDMDL
