MODEL 1
REMARK VINA RESULT: -8.112176689      0.000      0.000
REMARK  5 active torsions:
REMARK  status: ('A' for Active; 'I' for Inactive)
REMARK       I    between atoms: N1_4  and  C3_5 
REMARK       I    between atoms: C3_5  and  N2_7 
REMARK    1  A    between atoms: N2_7  and  C4_9 
REMARK    2  A    between atoms: C4_9  and  C5_10 
REMARK    3  A    between atoms: C5_10  and  C6_11 
REMARK    4  A    between atoms: C6_11  and  C7_12 
REMARK    5  A    between atoms: C7_12  and  C8_13 
ROOT
HETATM    1  O1  UNL     1       1.810 -24.828 -13.544  1.00  0.00    -0.263 OA
HETATM    2  C1  UNL     1       0.659 -24.542 -13.961  1.00  0.00     0.277 C 
HETATM    3  C2  UNL     1       0.243 -25.061 -15.281  1.00  0.00     0.238 C 
HETATM    4  N1  UNL     1       1.031 -24.552 -16.376  1.00  0.00    -0.325 N 
HETATM    5  C3  UNL     1       2.267 -25.153 -16.666  1.00  0.00     0.318 C 
HETATM    6  O2  UNL     1       2.678 -26.125 -15.974  1.00  0.00    -0.247 OA
HETATM    7  N2  UNL     1       3.067 -24.683 -17.731  1.00  0.00    -0.343 N 
ATOM      8  H2  UNL     1       2.718 -23.895 -18.276  1.00  0.00     0.164 HD
HETATM    9  C13 UNL     1       0.564 -23.441 -17.168  1.00  0.00     0.129 C 
HETATM   10  C14 UNL     1       1.246 -22.155 -16.858  1.00  0.00     0.039 C 
HETATM   11  C15 UNL     1       0.414 -21.210 -16.032  1.00  0.00     0.115 C 
HETATM   12  N4  UNL     1      -0.923 -21.015 -16.488  1.00  0.00    -0.420 N 
ATOM     13  H4  UNL     1      -1.130 -20.630 -17.410  1.00  0.00     0.153 HD
HETATM   14  C16 UNL     1      -1.952 -21.392 -15.576  1.00  0.00     0.133 C 
HETATM   15  C17 UNL     1      -1.932 -20.690 -14.270  1.00  0.00     0.133 C 
HETATM   16  N5  UNL     1      -1.431 -21.431 -13.173  1.00  0.00    -0.418 N 
ATOM     17  H5  UNL     1      -0.571 -21.162 -12.696  1.00  0.00     0.153 HD
HETATM   18  C18 UNL     1      -2.178 -22.562 -12.767  1.00  0.00     0.140 C 
HETATM   19  C19 UNL     1      -1.519 -23.881 -12.978  1.00  0.00     0.198 C 
HETATM   20  O3  UNL     1      -0.139 -23.755 -13.143  1.00  0.00    -0.319 OA
ENDROOT
BRANCH   7  21
HETATM   21  C4  UNL     1       4.356 -25.246 -18.103  1.00  0.00     0.124 C 
BRANCH  21  22
HETATM   22  C5  UNL     1       4.255 -26.321 -19.133  1.00  0.00     0.020 C 
BRANCH  22  23
HETATM   23  C6  UNL     1       4.621 -27.641 -18.451  1.00  0.00     0.004 C 
BRANCH  23  24
HETATM   24  C7  UNL     1       4.887 -28.705 -19.482  1.00  0.00     0.033 C 
BRANCH  24  25
HETATM   25  C8  UNL     1       3.681 -29.557 -19.714  1.00  0.00     0.185 C 
HETATM   26  C9  UNL     1       2.696 -29.557 -18.584  1.00  0.00     0.033 C 
HETATM   27  C10 UNL     1       1.717 -30.687 -18.831  1.00  0.00     0.004 C 
HETATM   28  C11 UNL     1       1.801 -31.206 -20.238  1.00  0.00     0.027 C 
HETATM   29  C12 UNL     1       1.956 -30.098 -21.251  1.00  0.00     0.232 C 
HETATM   30  N3  UNL     1       2.974 -29.153 -20.918  1.00  0.00    -0.071 N 
ATOM     31  H32 UNL     1       2.598 -28.209 -20.835  1.00  0.00     0.277 HD
ATOM     32  H31 UNL     1       3.613 -28.997 -21.696  1.00  0.00     0.277 HD
ENDBRANCH  24  25
ENDBRANCH  23  24
ENDBRANCH  22  23
ENDBRANCH  21  22
ENDBRANCH   7  21
TORSDOF 5
ENDMDL
MODEL 2
REMARK VINA RESULT: -8.010089585      2.924      3.603
REMARK  5 active torsions:
REMARK  status: ('A' for Active; 'I' for Inactive)
REMARK       I    between atoms: N1_4  and  C3_5 
REMARK       I    between atoms: C3_5  and  N2_7 
REMARK    1  A    between atoms: N2_7  and  C4_9 
REMARK    2  A    between atoms: C4_9  and  C5_10 
REMARK    3  A    between atoms: C5_10  and  C6_11 
REMARK    4  A    between atoms: C6_11  and  C7_12 
REMARK    5  A    between atoms: C7_12  and  C8_13 
ROOT
HETATM    1  O1  UNL     1       3.868 -25.167 -11.129  1.00  0.00    -0.263 OA
HETATM    2  C1  UNL     1       2.848 -25.903 -11.115  1.00  0.00     0.277 C 
HETATM    3  C2  UNL     1       2.823 -27.080 -12.010  1.00  0.00     0.238 C 
HETATM    4  N1  UNL     1       2.861 -26.741 -13.412  1.00  0.00    -0.325 N 
HETATM    5  C3  UNL     1       4.098 -26.463 -14.014  1.00  0.00     0.318 C 
HETATM    6  O2  UNL     1       5.160 -26.510 -13.334  1.00  0.00    -0.247 OA
HETATM    7  N2  UNL     1       4.176 -26.128 -15.384  1.00  0.00    -0.343 N 
ATOM      8  H2  UNL     1       3.306 -26.094 -15.915  1.00  0.00     0.164 HD
HETATM    9  C13 UNL     1       1.649 -26.688 -14.190  1.00  0.00     0.129 C 
HETATM   10  C14 UNL     1       1.182 -25.303 -14.477  1.00  0.00     0.039 C 
HETATM   11  C15 UNL     1       0.012 -24.870 -13.634  1.00  0.00     0.115 C 
HETATM   12  N4  UNL     1      -1.068 -25.799 -13.562  1.00  0.00    -0.420 N 
ATOM     13  H4  UNL     1      -1.583 -26.096 -14.391  1.00  0.00     0.153 HD
HETATM   14  C16 UNL     1      -1.381 -26.289 -12.261  1.00  0.00     0.133 C 
HETATM   15  C17 UNL     1      -1.756 -25.255 -11.266  1.00  0.00     0.133 C 
HETATM   16  N5  UNL     1      -0.765 -24.919 -10.313  1.00  0.00    -0.418 N 
ATOM     17  H5  UNL     1      -0.344 -23.990 -10.286  1.00  0.00     0.153 HD
HETATM   18  C18 UNL     1      -0.384 -25.929  -9.400  1.00  0.00     0.140 C 
HETATM   19  C19 UNL     1       1.009 -26.437  -9.541  1.00  0.00     0.198 C 
HETATM   20  O3  UNL     1       1.817 -25.552 -10.256  1.00  0.00    -0.319 OA
ENDROOT
BRANCH   7  21
HETATM   21  C4  UNL     1       5.413 -25.828 -16.089  1.00  0.00     0.124 C 
BRANCH  21  22
HETATM   22  C5  UNL     1       5.339 -26.108 -17.553  1.00  0.00     0.020 C 
BRANCH  22  23
HETATM   23  C6  UNL     1       4.487 -27.365 -17.735  1.00  0.00     0.004 C 
BRANCH  23  24
HETATM   24  C7  UNL     1       5.095 -28.263 -18.779  1.00  0.00     0.033 C 
BRANCH  24  25
HETATM   25  C8  UNL     1       4.064 -29.134 -19.420  1.00  0.00     0.185 C 
HETATM   26  C9  UNL     1       2.927 -29.514 -18.520  1.00  0.00     0.033 C 
HETATM   27  C10 UNL     1       2.158 -30.628 -19.201  1.00  0.00     0.004 C 
HETATM   28  C11 UNL     1       2.524 -30.759 -20.652  1.00  0.00     0.027 C 
HETATM   29  C12 UNL     1       2.682 -29.419 -21.328  1.00  0.00     0.232 C 
HETATM   30  N3  UNL     1       3.500 -28.502 -20.601  1.00  0.00    -0.071 N 
ATOM     31  H32 UNL     1       2.993 -27.649 -20.367  1.00  0.00     0.277 HD
ATOM     32  H31 UNL     1       4.224 -28.093 -21.192  1.00  0.00     0.277 HD
ENDBRANCH  24  25
ENDBRANCH  23  24
ENDBRANCH  22  23
ENDBRANCH  21  22
ENDBRANCH   7  21
TORSDOF 5
ENDMDL
MODEL 3
REMARK VINA RESULT: -7.961727408      1.071      1.078
REMARK  5 active torsions:
REMARK  status: ('A' for Active; 'I' for Inactive)
REMARK       I    between atoms: N1_4  and  C3_5 
REMARK       I    between atoms: C3_5  and  N2_7 
REMARK    1  A    between atoms: N2_7  and  C4_9 
REMARK    2  A    between atoms: C4_9  and  C5_10 
REMARK    3  A    between atoms: C5_10  and  C6_11 
REMARK    4  A    between atoms: C6_11  and  C7_12 
REMARK    5  A    between atoms: C7_12  and  C8_13 
ROOT
HETATM    1  O1  UNL     1       1.543 -25.713 -12.582  1.00  0.00    -0.263 OA
HETATM    2  C1  UNL     1       0.496 -25.321 -13.157  1.00  0.00     0.277 C 
HETATM    3  C2  UNL     1       0.194 -25.857 -14.501  1.00  0.00     0.238 C 
HETATM    4  N1  UNL     1       1.170 -25.498 -15.500  1.00  0.00    -0.325 N 
HETATM    5  C3  UNL     1       2.353 -26.248 -15.601  1.00  0.00     0.318 C 
HETATM    6  O2  UNL     1       2.554 -27.223 -14.826  1.00  0.00    -0.247 OA
HETATM    7  N2  UNL     1       3.332 -25.926 -16.567  1.00  0.00    -0.343 N 
ATOM      8  H2  UNL     1       3.151 -25.134 -17.182  1.00  0.00     0.164 HD
HETATM    9  C13 UNL     1       0.942 -24.384 -16.387  1.00  0.00     0.129 C 
HETATM   10  C14 UNL     1       1.726 -23.168 -16.036  1.00  0.00     0.039 C 
HETATM   11  C15 UNL     1       0.913 -22.094 -15.363  1.00  0.00     0.115 C 
HETATM   12  N4  UNL     1      -0.323 -21.774 -16.000  1.00  0.00    -0.420 N 
ATOM     13  H4  UNL     1      -0.364 -21.416 -16.954  1.00  0.00     0.153 HD
HETATM   14  C16 UNL     1      -1.497 -21.985 -15.220  1.00  0.00     0.133 C 
HETATM   15  C17 UNL     1      -1.561 -21.224 -13.949  1.00  0.00     0.133 C 
HETATM   16  N5  UNL     1      -1.295 -21.959 -12.768  1.00  0.00    -0.418 N 
ATOM     17  H5  UNL     1      -0.477 -21.763 -12.191  1.00  0.00     0.153 HD
HETATM   18  C18 UNL     1      -2.216 -22.976 -12.425  1.00  0.00     0.140 C 
HETATM   19  C19 UNL     1      -1.696 -24.370 -12.497  1.00  0.00     0.198 C 
HETATM   20  O3  UNL     1      -0.301 -24.408 -12.482  1.00  0.00    -0.319 OA
ENDROOT
BRANCH   7  21
HETATM   21  C4  UNL     1       4.582 -26.649 -16.744  1.00  0.00     0.124 C 
BRANCH  21  22
HETATM   22  C5  UNL     1       5.277 -26.322 -18.023  1.00  0.00     0.020 C 
BRANCH  22  23
HETATM   23  C6  UNL     1       4.547 -27.068 -19.141  1.00  0.00     0.004 C 
BRANCH  23  24
HETATM   24  C7  UNL     1       4.948 -28.519 -19.152  1.00  0.00     0.033 C 
BRANCH  24  25
HETATM   25  C8  UNL     1       3.837 -29.392 -19.636  1.00  0.00     0.185 C 
HETATM   26  C9  UNL     1       2.749 -29.625 -18.631  1.00  0.00     0.033 C 
HETATM   27  C10 UNL     1       1.884 -30.757 -19.147  1.00  0.00     0.004 C 
HETATM   28  C11 UNL     1       2.142 -31.044 -20.599  1.00  0.00     0.027 C 
HETATM   29  C12 UNL     1       2.313 -29.785 -21.413  1.00  0.00     0.232 C 
HETATM   30  N3  UNL     1       3.221 -28.846 -20.835  1.00  0.00    -0.071 N 
ATOM     31  H32 UNL     1       2.771 -27.950 -20.653  1.00  0.00     0.277 HD
ATOM     32  H31 UNL     1       3.920 -28.534 -21.508  1.00  0.00     0.277 HD
ENDBRANCH  24  25
ENDBRANCH  23  24
ENDBRANCH  22  23
ENDBRANCH  21  22
ENDBRANCH   7  21
TORSDOF 5
ENDMDL
MODEL 4
REMARK VINA RESULT: -7.866504860      1.704      2.201
REMARK  5 active torsions:
REMARK  status: ('A' for Active; 'I' for Inactive)
REMARK       I    between atoms: N1_4  and  C3_5 
REMARK       I    between atoms: C3_5  and  N2_7 
REMARK    1  A    between atoms: N2_7  and  C4_9 
REMARK    2  A    between atoms: C4_9  and  C5_10 
REMARK    3  A    between atoms: C5_10  and  C6_11 
REMARK    4  A    between atoms: C6_11  and  C7_12 
REMARK    5  A    between atoms: C7_12  and  C8_13 
ROOT
HETATM    1  O1  UNL     1       3.026 -25.685 -13.784  1.00  0.00    -0.263 OA
HETATM    2  C1  UNL     1       1.798 -25.752 -14.047  1.00  0.00     0.277 C 
HETATM    3  C2  UNL     1       1.340 -26.794 -14.989  1.00  0.00     0.238 C 
HETATM    4  N1  UNL     1       1.866 -26.640 -16.323  1.00  0.00    -0.325 N 
HETATM    5  C3  UNL     1       3.154 -27.121 -16.608  1.00  0.00     0.318 C 
HETATM    6  O2  UNL     1       3.838 -27.680 -15.708  1.00  0.00    -0.247 OA
HETATM    7  N2  UNL     1       3.704 -26.988 -17.903  1.00  0.00    -0.343 N 
ATOM      8  H2  UNL     1       3.136 -26.532 -18.616  1.00  0.00     0.164 HD
HETATM    9  C13 UNL     1       1.087 -26.002 -17.354  1.00  0.00     0.129 C 
HETATM   10  C14 UNL     1       1.522 -24.611 -17.661  1.00  0.00     0.039 C 
HETATM   11  C15 UNL     1       0.622 -23.552 -17.084  1.00  0.00     0.115 C 
HETATM   12  N4  UNL     1      -0.773 -23.743 -17.316  1.00  0.00    -0.420 N 
ATOM     13  H4  UNL     1      -1.166 -23.778 -18.256  1.00  0.00     0.153 HD
HETATM   14  C16 UNL     1      -1.583 -23.883 -16.151  1.00  0.00     0.133 C 
HETATM   15  C17 UNL     1      -1.548 -22.736 -15.211  1.00  0.00     0.133 C 
HETATM   16  N5  UNL     1      -0.775 -22.915 -14.039  1.00  0.00    -0.418 N 
ATOM     17  H5  UNL     1       0.063 -22.361 -13.863  1.00  0.00     0.153 HD
HETATM   18  C18 UNL     1      -1.218 -23.896 -13.122  1.00  0.00     0.140 C 
HETATM   19  C19 UNL     1      -0.332 -25.084 -12.969  1.00  0.00     0.198 C 
HETATM   20  O3  UNL     1       0.961 -24.834 -13.428  1.00  0.00    -0.319 OA
ENDROOT
BRANCH   7  21
HETATM   21  C4  UNL     1       5.026 -27.459 -18.288  1.00  0.00     0.124 C 
BRANCH  21  22
HETATM   22  C5  UNL     1       4.990 -28.654 -19.181  1.00  0.00     0.020 C 
BRANCH  22  23
HETATM   23  C6  UNL     1       3.578 -28.745 -19.763  1.00  0.00     0.004 C 
BRANCH  23  24
HETATM   24  C7  UNL     1       3.317 -30.130 -20.289  1.00  0.00     0.033 C 
BRANCH  24  25
HETATM   25  C8  UNL     1       2.221 -30.807 -19.533  1.00  0.00     0.185 C 
HETATM   26  C9  UNL     1       1.925 -30.199 -18.195  1.00  0.00     0.033 C 
HETATM   27  C10 UNL     1       1.038 -31.167 -17.439  1.00  0.00     0.004 C 
HETATM   28  C11 UNL     1       0.455 -32.218 -18.341  1.00  0.00     0.027 C 
HETATM   29  C12 UNL     1       0.008 -31.653 -19.666  1.00  0.00     0.232 C 
HETATM   30  N3  UNL     1       0.984 -30.822 -20.296  1.00  0.00    -0.071 N 
ATOM     31  H32 UNL     1       0.629 -29.880 -20.456  1.00  0.00     0.277 HD
ATOM     32  H31 UNL     1       1.142 -31.095 -21.265  1.00  0.00     0.277 HD
ENDBRANCH  24  25
ENDBRANCH  23  24
ENDBRANCH  22  23
ENDBRANCH  21  22
ENDBRANCH   7  21
TORSDOF 5
ENDMDL
MODEL 5
REMARK VINA RESULT: -7.822251577      2.204      3.507
REMARK  5 active torsions:
REMARK  status: ('A' for Active; 'I' for Inactive)
REMARK       I    between atoms: N1_4  and  C3_5 
REMARK       I    between atoms: C3_5  and  N2_7 
REMARK    1  A    between atoms: N2_7  and  C4_9 
REMARK    2  A    between atoms: C4_9  and  C5_10 
REMARK    3  A    between atoms: C5_10  and  C6_11 
REMARK    4  A    between atoms: C6_11  and  C7_12 
REMARK    5  A    between atoms: C7_12  and  C8_13 
ROOT
HETATM    1  O1  UNL     1       3.000 -23.503 -18.769  1.00  0.00    -0.263 OA
HETATM    2  C1  UNL     1       2.557 -23.356 -17.602  1.00  0.00     0.277 C 
HETATM    3  C2  UNL     1       3.237 -24.071 -16.501  1.00  0.00     0.238 C 
HETATM    4  N1  UNL     1       3.162 -25.507 -16.611  1.00  0.00    -0.325 N 
HETATM    5  C3  UNL     1       4.073 -26.177 -17.444  1.00  0.00     0.318 C 
HETATM    6  O2  UNL     1       4.944 -25.526 -18.084  1.00  0.00    -0.247 OA
HETATM    7  N2  UNL     1       4.032 -27.582 -17.577  1.00  0.00    -0.343 N 
ATOM      8  H2  UNL     1       3.320 -28.089 -17.052  1.00  0.00     0.164 HD
HETATM    9  C13 UNL     1       2.169 -26.253 -15.878  1.00  0.00     0.129 C 
HETATM   10  C14 UNL     1       1.033 -26.723 -16.719  1.00  0.00     0.039 C 
HETATM   11  C15 UNL     1      -0.228 -25.920 -16.541  1.00  0.00     0.115 C 
HETATM   12  N4  UNL     1      -0.618 -25.686 -15.188  1.00  0.00    -0.420 N 
ATOM     13  H4  UNL     1      -0.835 -26.449 -14.548  1.00  0.00     0.153 HD
HETATM   14  C16 UNL     1      -0.684 -24.320 -14.788  1.00  0.00     0.133 C 
HETATM   15  C17 UNL     1      -1.624 -23.474 -15.564  1.00  0.00     0.133 C 
HETATM   16  N5  UNL     1      -1.039 -22.607 -16.518  1.00  0.00    -0.418 N 
ATOM     17  H5  UNL     1      -1.202 -22.726 -17.517  1.00  0.00     0.153 HD
HETATM   18  C18 UNL     1      -0.217 -21.568 -16.022  1.00  0.00     0.140 C 
HETATM   19  C19 UNL     1       1.230 -21.672 -16.357  1.00  0.00     0.198 C 
HETATM   20  O3  UNL     1       1.456 -22.529 -17.435  1.00  0.00    -0.319 OA
ENDROOT
BRANCH   7  21
HETATM   21  C4  UNL     1       4.937 -28.357 -18.413  1.00  0.00     0.124 C 
BRANCH  21  22
HETATM   22  C5  UNL     1       4.547 -28.366 -19.853  1.00  0.00     0.020 C 
BRANCH  22  23
HETATM   23  C6  UNL     1       3.084 -28.805 -19.926  1.00  0.00     0.004 C 
BRANCH  23  24
HETATM   24  C7  UNL     1       2.994 -30.278 -20.226  1.00  0.00     0.033 C 
BRANCH  24  25
HETATM   25  C8  UNL     1       1.986 -30.954 -19.354  1.00  0.00     0.185 C 
HETATM   26  C9  UNL     1       1.694 -30.235 -18.072  1.00  0.00     0.033 C 
HETATM   27  C10 UNL     1       0.919 -31.184 -17.181  1.00  0.00     0.004 C 
HETATM   28  C11 UNL     1       0.388 -32.364 -17.945  1.00  0.00     0.027 C 
HETATM   29  C12 UNL     1      -0.155 -31.975 -19.298  1.00  0.00     0.232 C 
HETATM   30  N3  UNL     1       0.725 -31.142 -20.053  1.00  0.00    -0.071 N 
ATOM     31  H32 UNL     1       0.289 -30.251 -20.290  1.00  0.00     0.277 HD
ATOM     32  H31 UNL     1       0.867 -31.500 -20.997  1.00  0.00     0.277 HD
ENDBRANCH  24  25
ENDBRANCH  23  24
ENDBRANCH  22  23
ENDBRANCH  21  22
ENDBRANCH   7  21
TORSDOF 5
ENDMDL
