MODEL 1
REMARK VINA RESULT: -8.173282828      0.000      0.000
REMARK  8 active torsions:
REMARK  status: ('A' for Active; 'I' for Inactive)
REMARK    1  A    between atoms: C3_3  and  C8_14 
REMARK    2  A    between atoms: N1_4  and  N2_6 
REMARK       I    between atoms: N2_6  and  C4_8 
REMARK    3  A    between atoms: C4_8  and  O2_10 
REMARK    4  A    between atoms: O2_10  and  C5_11 
REMARK    5  A    between atoms: C5_11  and  C6_12 
REMARK       I    between atoms: C8_14  and  N3_16 
REMARK    6  A    between atoms: N3_16  and  N4_18 
REMARK       I    between atoms: N4_18  and  C9_20 
REMARK       I    between atoms: C9_20  and  N5_22 
REMARK    7  A    between atoms: N5_22  and  C10_24 
REMARK    8  A    between atoms: C10_24  and  C11_26 
ROOT
HETATM    1  C1  UNL     1      -2.122 -34.172 -14.342  1.00  0.00     0.019 C 
HETATM    2  C2  UNL     1      -1.906 -32.998 -14.320  1.00  0.00    -0.053 C 
HETATM    3  C3  UNL     1      -1.672 -31.578 -14.283  1.00  0.00     0.170 C 
HETATM    4  N1  UNL     1      -1.026 -31.050 -15.258  1.00  0.00    -0.283 N 
ATOM      5  H1  UNL     1      -0.854 -30.045 -15.240  1.00  0.00     0.188 HD
ENDROOT
BRANCH   3   6
HETATM    6  C8  UNL     1      -2.188 -30.805 -13.169  1.00  0.00     0.296 C 
HETATM    7  O3  UNL     1      -3.322 -31.084 -12.722  1.00  0.00    -0.263 OA
HETATM    8  N3  UNL     1      -1.434 -29.761 -12.596  1.00  0.00    -0.260 N 
ATOM      9  H3  UNL     1      -0.512 -29.523 -12.961  1.00  0.00     0.190 HD
BRANCH   8  10
HETATM   10  N4  UNL     1      -1.979 -29.053 -11.511  1.00  0.00    -0.248 N 
HETATM   11  C9  UNL     1      -1.214 -28.219 -10.678  1.00  0.00     0.339 C 
HETATM   12  O4  UNL     1       0.008 -28.082 -10.915  1.00  0.00    -0.245 OA
HETATM   13  N5  UNL     1      -1.795 -27.538  -9.579  1.00  0.00    -0.301 N 
ATOM     14  H5  UNL     1      -2.792 -27.664  -9.402  1.00  0.00     0.171 HD
ATOM     15  H4  UNL     1      -2.977 -29.148 -11.319  1.00  0.00     0.192 HD
BRANCH  13  16
HETATM   16  C10 UNL     1      -1.064 -26.696  -8.719  1.00  0.00     0.085 C 
HETATM   17  S1  UNL     1      -0.471 -25.296  -9.276  1.00  0.00    -0.065 SA
BRANCH  16  18
HETATM   18  C11 UNL     1      -0.821 -27.084  -7.315  1.00  0.00     0.047 C 
HETATM   19  C12 UNL     1      -1.417 -28.439  -6.999  1.00  0.00     0.011 C 
HETATM   20  C13 UNL     1      -1.205 -28.659  -5.509  1.00  0.00     0.001 C 
HETATM   21  C14 UNL     1      -2.224 -27.804  -4.799  1.00  0.00     0.000 C 
HETATM   22  C15 UNL     1      -2.512 -26.522  -5.529  1.00  0.00     0.001 C 
HETATM   23  C16 UNL     1      -1.358 -26.041  -6.364  1.00  0.00     0.011 C 
ENDBRANCH  16  18
ENDBRANCH  13  16
ENDBRANCH   8  10
ENDBRANCH   3   6
BRANCH   4  24
HETATM   24  N2  UNL     1      -0.556 -31.772 -16.324  1.00  0.00    -0.244 N 
HETATM   25  C4  UNL     1       0.575 -31.340 -17.061  1.00  0.00     0.379 C 
HETATM   26  O1  UNL     1       1.172 -30.280 -16.738  1.00  0.00    -0.237 OA
ATOM     27  H2  UNL     1      -1.029 -32.636 -16.592  1.00  0.00     0.192 HD
BRANCH  25  28
HETATM   28  O2  UNL     1       1.066 -32.044 -18.145  1.00  0.00    -0.299 OA
BRANCH  28  29
HETATM   29  C5  UNL     1       1.069 -31.618 -19.483  1.00  0.00     0.207 C 
BRANCH  29  30
HETATM   30  C6  UNL     1       2.265 -30.772 -19.717  1.00  0.00    -0.011 C 
HETATM   31  C7  UNL     1       2.815 -30.693 -20.912  1.00  0.00     0.009 C 
ENDBRANCH  29  30
ENDBRANCH  28  29
ENDBRANCH  25  28
ENDBRANCH   4  24
TORSDOF 8
ENDMDL
MODEL 2
REMARK VINA RESULT: -7.868085408      5.525      6.518
REMARK  8 active torsions:
REMARK  status: ('A' for Active; 'I' for Inactive)
REMARK    1  A    between atoms: C3_3  and  C8_14 
REMARK    2  A    between atoms: N1_4  and  N2_6 
REMARK       I    between atoms: N2_6  and  C4_8 
REMARK    3  A    between atoms: C4_8  and  O2_10 
REMARK    4  A    between atoms: O2_10  and  C5_11 
REMARK    5  A    between atoms: C5_11  and  C6_12 
REMARK       I    between atoms: C8_14  and  N3_16 
REMARK    6  A    between atoms: N3_16  and  N4_18 
REMARK       I    between atoms: N4_18  and  C9_20 
REMARK       I    between atoms: C9_20  and  N5_22 
REMARK    7  A    between atoms: N5_22  and  C10_24 
REMARK    8  A    between atoms: C10_24  and  C11_26 
ROOT
HETATM    1  C1  UNL     1       3.706 -24.133 -14.427  1.00  0.00     0.019 C 
HETATM    2  C2  UNL     1       3.427 -25.152 -13.870  1.00  0.00    -0.053 C 
HETATM    3  C3  UNL     1       3.078 -26.366 -13.180  1.00  0.00     0.170 C 
HETATM    4  N1  UNL     1       3.943 -27.314 -13.157  1.00  0.00    -0.283 N 
ATOM      5  H1  UNL     1       3.703 -28.178 -12.671  1.00  0.00     0.188 HD
ENDROOT
BRANCH   3   6
HETATM    6  C8  UNL     1       1.786 -26.461 -12.527  1.00  0.00     0.296 C 
HETATM    7  O3  UNL     1       0.951 -25.550 -12.717  1.00  0.00    -0.263 OA
HETATM    8  N3  UNL     1       1.470 -27.554 -11.694  1.00  0.00    -0.260 N 
ATOM      9  H3  UNL     1       2.150 -28.296 -11.528  1.00  0.00     0.190 HD
BRANCH   8  10
HETATM   10  N4  UNL     1       0.199 -27.600 -11.095  1.00  0.00    -0.248 N 
HETATM   11  C9  UNL     1      -0.102 -26.952  -9.885  1.00  0.00     0.339 C 
HETATM   12  O4  UNL     1       0.793 -26.289  -9.314  1.00  0.00    -0.245 OA
HETATM   13  N5  UNL     1      -1.391 -27.040  -9.301  1.00  0.00    -0.301 N 
ATOM     14  H5  UNL     1      -2.105 -27.588  -9.781  1.00  0.00     0.171 HD
ATOM     15  H4  UNL     1      -0.540 -28.127 -11.562  1.00  0.00     0.192 HD
BRANCH  13  16
HETATM   16  C10 UNL     1      -1.732 -26.410  -8.089  1.00  0.00     0.085 C 
HETATM   17  S1  UNL     1      -2.574 -25.026  -8.111  1.00  0.00    -0.065 SA
BRANCH  16  18
HETATM   18  C11 UNL     1      -1.319 -26.992  -6.796  1.00  0.00     0.047 C 
HETATM   19  C12 UNL     1      -1.628 -28.472  -6.727  1.00  0.00     0.011 C 
HETATM   20  C13 UNL     1      -1.270 -28.915  -5.316  1.00  0.00     0.001 C 
HETATM   21  C14 UNL     1      -2.375 -28.420  -4.416  1.00  0.00     0.000 C 
HETATM   22  C15 UNL     1      -2.948 -27.107  -4.874  1.00  0.00     0.001 C 
HETATM   23  C16 UNL     1      -1.968 -26.266  -5.643  1.00  0.00     0.011 C 
ENDBRANCH  16  18
ENDBRANCH  13  16
ENDBRANCH   8  10
ENDBRANCH   3   6
BRANCH   4  24
HETATM   24  N2  UNL     1       5.173 -27.220 -13.752  1.00  0.00    -0.244 N 
HETATM   25  C4  UNL     1       6.344 -26.996 -12.985  1.00  0.00     0.379 C 
HETATM   26  O1  UNL     1       6.267 -26.884 -11.733  1.00  0.00    -0.237 OA
ATOM     27  H2  UNL     1       5.248 -27.314 -14.765  1.00  0.00     0.192 HD
BRANCH  25  28
HETATM   28  O2  UNL     1       7.597 -26.890 -13.560  1.00  0.00    -0.299 OA
BRANCH  28  29
HETATM   29  C5  UNL     1       8.824 -27.186 -12.942  1.00  0.00     0.207 C 
BRANCH  29  30
HETATM   30  C6  UNL     1       9.620 -25.939 -12.830  1.00  0.00    -0.011 C 
HETATM   31  C7  UNL     1       9.278 -24.855 -13.495  1.00  0.00     0.009 C 
ENDBRANCH  29  30
ENDBRANCH  28  29
ENDBRANCH  25  28
ENDBRANCH   4  24
TORSDOF 8
ENDMDL
MODEL 3
REMARK VINA RESULT: -7.839892748      4.084     10.885
REMARK  8 active torsions:
REMARK  status: ('A' for Active; 'I' for Inactive)
REMARK    1  A    between atoms: C3_3  and  C8_14 
REMARK    2  A    between atoms: N1_4  and  N2_6 
REMARK       I    between atoms: N2_6  and  C4_8 
REMARK    3  A    between atoms: C4_8  and  O2_10 
REMARK    4  A    between atoms: O2_10  and  C5_11 
REMARK    5  A    between atoms: C5_11  and  C6_12 
REMARK       I    between atoms: C8_14  and  N3_16 
REMARK    6  A    between atoms: N3_16  and  N4_18 
REMARK       I    between atoms: N4_18  and  C9_20 
REMARK       I    between atoms: C9_20  and  N5_22 
REMARK    7  A    between atoms: N5_22  and  C10_24 
REMARK    8  A    between atoms: C10_24  and  C11_26 
ROOT
HETATM    1  C1  UNL     1       3.511 -25.942 -10.518  1.00  0.00     0.019 C 
HETATM    2  C2  UNL     1       2.546 -26.524 -10.915  1.00  0.00    -0.053 C 
HETATM    3  C3  UNL     1       1.383 -27.208 -11.415  1.00  0.00     0.170 C 
HETATM    4  N1  UNL     1       0.510 -27.610 -10.563  1.00  0.00    -0.283 N 
ATOM      5  H1  UNL     1      -0.317 -28.097 -10.908  1.00  0.00     0.188 HD
ENDROOT
BRANCH   3   6
HETATM    6  C8  UNL     1       1.233 -27.396 -12.845  1.00  0.00     0.296 C 
HETATM    7  O3  UNL     1       0.600 -28.394 -13.255  1.00  0.00    -0.263 OA
HETATM    8  N3  UNL     1       1.784 -26.477 -13.762  1.00  0.00    -0.260 N 
ATOM      9  H3  UNL     1       2.307 -25.665 -13.434  1.00  0.00     0.190 HD
BRANCH   8  10
HETATM   10  N4  UNL     1       1.598 -26.702 -15.137  1.00  0.00    -0.248 N 
HETATM   11  C9  UNL     1       2.621 -27.163 -15.983  1.00  0.00     0.339 C 
HETATM   12  O4  UNL     1       3.748 -27.402 -15.495  1.00  0.00    -0.245 OA
HETATM   13  N5  UNL     1       2.401 -27.358 -17.370  1.00  0.00    -0.301 N 
ATOM     14  H5  UNL     1       1.475 -27.156 -17.748  1.00  0.00     0.171 HD
ATOM     15  H4  UNL     1       0.677 -26.523 -15.539  1.00  0.00     0.192 HD
BRANCH  13  16
HETATM   16  C10 UNL     1       3.398 -27.816 -18.252  1.00  0.00     0.085 C 
HETATM   17  S1  UNL     1       4.576 -26.810 -18.728  1.00  0.00    -0.065 SA
BRANCH  16  18
HETATM   18  C11 UNL     1       3.375 -29.203 -18.758  1.00  0.00     0.047 C 
HETATM   19  C12 UNL     1       3.052 -29.253 -20.236  1.00  0.00     0.011 C 
HETATM   20  C13 UNL     1       2.940 -30.726 -20.597  1.00  0.00     0.001 C 
HETATM   21  C14 UNL     1       1.609 -31.199 -20.068  1.00  0.00     0.000 C 
HETATM   22  C15 UNL     1       1.218 -30.511 -18.789  1.00  0.00     0.001 C 
HETATM   23  C16 UNL     1       2.397 -30.048 -17.979  1.00  0.00     0.011 C 
ENDBRANCH  16  18
ENDBRANCH  13  16
ENDBRANCH   8  10
ENDBRANCH   3   6
BRANCH   4  24
HETATM   24  N2  UNL     1       0.636 -27.415  -9.213  1.00  0.00    -0.244 N 
HETATM   25  C4  UNL     1      -0.278 -26.597  -8.502  1.00  0.00     0.379 C 
HETATM   26  O1  UNL     1      -1.230 -26.038  -9.108  1.00  0.00    -0.237 OA
ATOM     27  H2  UNL     1       1.400 -27.866  -8.710  1.00  0.00     0.192 HD
BRANCH  25  28
HETATM   28  O2  UNL     1      -0.172 -26.377  -7.141  1.00  0.00    -0.299 OA
BRANCH  28  29
HETATM   29  C5  UNL     1      -1.183 -26.570  -6.185  1.00  0.00     0.207 C 
BRANCH  29  30
HETATM   30  C6  UNL     1      -1.401 -28.027  -6.001  1.00  0.00    -0.011 C 
HETATM   31  C7  UNL     1      -1.869 -28.502  -4.866  1.00  0.00     0.009 C 
ENDBRANCH  29  30
ENDBRANCH  28  29
ENDBRANCH  25  28
ENDBRANCH   4  24
TORSDOF 8
ENDMDL
MODEL 4
REMARK VINA RESULT: -7.666645139      4.613      5.422
REMARK  8 active torsions:
REMARK  status: ('A' for Active; 'I' for Inactive)
REMARK    1  A    between atoms: C3_3  and  C8_14 
REMARK    2  A    between atoms: N1_4  and  N2_6 
REMARK       I    between atoms: N2_6  and  C4_8 
REMARK    3  A    between atoms: C4_8  and  O2_10 
REMARK    4  A    between atoms: O2_10  and  C5_11 
REMARK    5  A    between atoms: C5_11  and  C6_12 
REMARK       I    between atoms: C8_14  and  N3_16 
REMARK    6  A    between atoms: N3_16  and  N4_18 
REMARK       I    between atoms: N4_18  and  C9_20 
REMARK       I    between atoms: C9_20  and  N5_22 
REMARK    7  A    between atoms: N5_22  and  C10_24 
REMARK    8  A    between atoms: C10_24  and  C11_26 
ROOT
HETATM    1  C1  UNL     1       6.795 -27.438 -12.580  1.00  0.00     0.019 C 
HETATM    2  C2  UNL     1       5.658 -27.094 -12.709  1.00  0.00    -0.053 C 
HETATM    3  C3  UNL     1       4.283 -26.689 -12.838  1.00  0.00     0.170 C 
HETATM    4  N1  UNL     1       3.718 -26.837 -13.982  1.00  0.00    -0.283 N 
ATOM      5  H1  UNL     1       2.745 -26.551 -14.083  1.00  0.00     0.188 HD
ENDROOT
BRANCH   3   6
HETATM    6  C8  UNL     1       3.591 -26.156 -11.681  1.00  0.00     0.296 C 
HETATM    7  O3  UNL     1       4.257 -25.557 -10.808  1.00  0.00    -0.263 OA
HETATM    8  N3  UNL     1       2.197 -26.305 -11.533  1.00  0.00    -0.260 N 
ATOM      9  H3  UNL     1       1.649 -26.799 -12.237  1.00  0.00     0.190 HD
BRANCH   8  10
HETATM   10  N4  UNL     1       1.577 -25.759 -10.396  1.00  0.00    -0.248 N 
HETATM   11  C9  UNL     1       0.474 -26.357  -9.762  1.00  0.00     0.339 C 
HETATM   12  O4  UNL     1       0.027 -27.435 -10.215  1.00  0.00    -0.245 OA
HETATM   13  N5  UNL     1      -0.138 -25.764  -8.630  1.00  0.00    -0.301 N 
ATOM     14  H5  UNL     1       0.241 -24.884  -8.278  1.00  0.00     0.171 HD
ATOM     15  H4  UNL     1       1.944 -24.887 -10.012  1.00  0.00     0.192 HD
BRANCH  13  16
HETATM   16  C10 UNL     1      -1.245 -26.329  -7.968  1.00  0.00     0.085 C 
HETATM   17  S1  UNL     1      -2.717 -26.236  -8.636  1.00  0.00    -0.065 SA
BRANCH  16  18
HETATM   18  C11 UNL     1      -1.078 -26.997  -6.661  1.00  0.00     0.047 C 
HETATM   19  C12 UNL     1      -1.602 -28.418  -6.690  1.00  0.00     0.011 C 
HETATM   20  C13 UNL     1      -1.484 -28.943  -5.267  1.00  0.00     0.001 C 
HETATM   21  C14 UNL     1      -2.607 -28.314  -4.482  1.00  0.00     0.000 C 
HETATM   22  C15 UNL     1      -2.927 -26.920  -4.947  1.00  0.00     0.001 C 
HETATM   23  C16 UNL     1      -1.752 -26.213  -5.561  1.00  0.00     0.011 C 
ENDBRANCH  16  18
ENDBRANCH  13  16
ENDBRANCH   8  10
ENDBRANCH   3   6
BRANCH   4  24
HETATM   24  N2  UNL     1       4.361 -27.361 -15.072  1.00  0.00    -0.244 N 
HETATM   25  C4  UNL     1       4.634 -26.566 -16.214  1.00  0.00     0.379 C 
HETATM   26  O1  UNL     1       4.291 -25.355 -16.238  1.00  0.00    -0.237 OA
ATOM     27  H2  UNL     1       4.648 -28.340 -15.063  1.00  0.00     0.192 HD
BRANCH  25  28
HETATM   28  O2  UNL     1       5.274 -27.070 -17.331  1.00  0.00    -0.299 OA
BRANCH  28  29
HETATM   29  C5  UNL     1       4.734 -27.176 -18.624  1.00  0.00     0.207 C 
BRANCH  29  30
HETATM   30  C6  UNL     1       4.893 -28.572 -19.101  1.00  0.00    -0.011 C 
HETATM   31  C7  UNL     1       3.849 -29.281 -19.477  1.00  0.00     0.009 C 
ENDBRANCH  29  30
ENDBRANCH  28  29
ENDBRANCH  25  28
ENDBRANCH   4  24
TORSDOF 8
ENDMDL
MODEL 5
REMARK VINA RESULT: -7.645871358      4.060      5.106
REMARK  8 active torsions:
REMARK  status: ('A' for Active; 'I' for Inactive)
REMARK    1  A    between atoms: C3_3  and  C8_14 
REMARK    2  A    between atoms: N1_4  and  N2_6 
REMARK       I    between atoms: N2_6  and  C4_8 
REMARK    3  A    between atoms: C4_8  and  O2_10 
REMARK    4  A    between atoms: O2_10  and  C5_11 
REMARK    5  A    between atoms: C5_11  and  C6_12 
REMARK       I    between atoms: C8_14  and  N3_16 
REMARK    6  A    between atoms: N3_16  and  N4_18 
REMARK       I    between atoms: N4_18  and  C9_20 
REMARK       I    between atoms: C9_20  and  N5_22 
REMARK    7  A    between atoms: N5_22  and  C10_24 
REMARK    8  A    between atoms: C10_24  and  C11_26 
ROOT
HETATM    1  C1  UNL     1       6.819 -25.938 -14.646  1.00  0.00     0.019 C 
HETATM    2  C2  UNL     1       5.650 -26.133 -14.497  1.00  0.00    -0.053 C 
HETATM    3  C3  UNL     1       4.245 -26.371 -14.292  1.00  0.00     0.170 C 
HETATM    4  N1  UNL     1       3.603 -27.002 -15.207  1.00  0.00    -0.283 N 
ATOM      5  H1  UNL     1       2.607 -27.174 -15.071  1.00  0.00     0.188 HD
ENDROOT
BRANCH   3   6
HETATM    6  C8  UNL     1       3.623 -25.915 -13.064  1.00  0.00     0.296 C 
HETATM    7  O3  UNL     1       3.507 -24.684 -12.873  1.00  0.00    -0.263 OA
HETATM    8  N3  UNL     1       3.155 -26.831 -12.100  1.00  0.00    -0.260 N 
ATOM      9  H3  UNL     1       3.254 -27.836 -12.246  1.00  0.00     0.190 HD
BRANCH   8  10
HETATM   10  N4  UNL     1       2.550 -26.332 -10.933  1.00  0.00    -0.248 N 
HETATM   11  C9  UNL     1       1.363 -26.863 -10.399  1.00  0.00     0.339 C 
HETATM   12  O4  UNL     1       0.822 -27.835 -10.973  1.00  0.00    -0.245 OA
HETATM   13  N5  UNL     1       0.771 -26.318  -9.232  1.00  0.00    -0.301 N 
ATOM     14  H5  UNL     1       1.227 -25.525  -8.781  1.00  0.00     0.171 HD
ATOM     15  H4  UNL     1       2.993 -25.549 -10.452  1.00  0.00     0.192 HD
BRANCH  13  16
HETATM   16  C10 UNL     1      -0.417 -26.818  -8.666  1.00  0.00     0.085 C 
HETATM   17  S1  UNL     1      -1.745 -26.969  -9.582  1.00  0.00    -0.065 SA
BRANCH  16  18
HETATM   18  C11 UNL     1      -0.469 -27.197  -7.239  1.00  0.00     0.047 C 
HETATM   19  C12 UNL     1      -1.285 -28.454  -7.025  1.00  0.00     0.011 C 
HETATM   20  C13 UNL     1      -1.359 -28.661  -5.520  1.00  0.00     0.001 C 
HETATM   21  C14 UNL     1      -2.360 -27.661  -4.997  1.00  0.00     0.000 C 
HETATM   22  C15 UNL     1      -2.346 -26.372  -5.770  1.00  0.00     0.001 C 
HETATM   23  C16 UNL     1      -1.014 -26.069  -6.398  1.00  0.00     0.011 C 
ENDBRANCH  16  18
ENDBRANCH  13  16
ENDBRANCH   8  10
ENDBRANCH   3   6
BRANCH   4  24
HETATM   24  N2  UNL     1       4.191 -27.456 -16.358  1.00  0.00    -0.244 N 
HETATM   25  C4  UNL     1       3.566 -28.442 -17.161  1.00  0.00     0.379 C 
HETATM   26  O1  UNL     1       2.448 -28.914 -16.826  1.00  0.00    -0.237 OA
ATOM     27  H2  UNL     1       5.095 -27.077 -16.643  1.00  0.00     0.192 HD
BRANCH  25  28
HETATM   28  O2  UNL     1       4.139 -28.923 -18.324  1.00  0.00    -0.299 OA
BRANCH  28  29
HETATM   29  C5  UNL     1       3.650 -28.744 -19.629  1.00  0.00     0.207 C 
BRANCH  29  30
HETATM   30  C6  UNL     1       3.401 -30.075 -20.237  1.00  0.00    -0.011 C 
HETATM   31  C7  UNL     1       2.321 -30.765 -19.936  1.00  0.00     0.009 C 
ENDBRANCH  29  30
ENDBRANCH  28  29
ENDBRANCH  25  28
ENDBRANCH   4  24
TORSDOF 8
ENDMDL
