MODEL 1
REMARK VINA RESULT: -7.000919654      0.000      0.000
REMARK  4 active torsions:
REMARK  status: ('A' for Active; 'I' for Inactive)
REMARK    1  A    between atoms: N3_4  and  S1_6 
REMARK    2  A    between atoms: S1_6  and  C2_9 
REMARK    3  A    between atoms: C5_12  and  N4_13 
REMARK       I    between atoms: N4_13  and  C6_15 
REMARK    4  A    between atoms: C6_15  and  C7_17 
ROOT
HETATM    1  C2  UNL     1       7.241   0.551 -11.713  1.00  0.00     0.098 A 
HETATM    2  C3  UNL     1       8.342   1.322 -11.979  1.00  0.00     0.029 A 
HETATM    3  C4  UNL     1       9.104   1.914 -10.957  1.00  0.00     0.032 A 
HETATM    4  C5  UNL     1       8.774   1.743  -9.635  1.00  0.00     0.054 A 
HETATM    5  C11 UNL     1       7.641   0.951  -9.390  1.00  0.00     0.057 A 
HETATM    6  S2  UNL     1       7.146   0.680  -7.722  1.00  0.00    -0.049 SA
HETATM    7  C12 UNL     1       6.904   0.377 -10.392  1.00  0.00     0.054 A 
HETATM    8 BR1  UNL     1       5.361  -0.702 -10.014  1.00  0.00    -0.048 Br
ENDROOT
BRANCH   4   9
HETATM    9  N4  UNL     1       9.487   2.304  -8.543  1.00  0.00    -0.320 N 
HETATM   10  C6  UNL     1      10.852   2.240  -8.282  1.00  0.00     0.280 C 
HETATM   11  O3  UNL     1      11.698   1.664  -8.984  1.00  0.00    -0.265 OA
ATOM     12  H4  UNL     1       8.927   2.818  -7.863  1.00  0.00     0.169 HD
BRANCH  10  13
HETATM   13  C7  UNL     1      11.393   2.903  -7.071  1.00  0.00     0.142 A 
HETATM   14  C8  UNL     1      10.669   3.683  -6.197  1.00  0.00     0.045 A 
HETATM   15  C9  UNL     1      11.532   4.104  -5.218  1.00  0.00     0.027 A 
HETATM   16  C10 UNL     1      12.748   3.556  -5.548  1.00  0.00     0.143 A 
HETATM   17  O4  UNL     1      12.622   2.857  -6.643  1.00  0.00    -0.317 OA
ENDBRANCH  10  13
ENDBRANCH   4   9
BRANCH   1  18
HETATM   18  S1  UNL     1       6.323  -0.165 -13.017  1.00  0.00     0.266 S 
HETATM   19  O1  UNL     1       6.475  -1.665 -12.955  1.00  0.00    -0.200 OA
HETATM   20  O2  UNL     1       4.881   0.211 -12.844  1.00  0.00    -0.200 OA
BRANCH  18  21
HETATM   21  N3  UNL     1       6.836   0.387 -14.542  1.00  0.00    -0.256 N 
HETATM   22  C1  UNL     1       6.309  -0.097 -15.604  1.00  0.00     0.210 C 
HETATM   23  N1  UNL     1       5.303  -1.086 -15.515  1.00  0.00    -0.066 NA
HETATM   24  N2  UNL     1       6.731   0.356 -16.871  1.00  0.00    -0.066 NA
ATOM     25  H3  UNL     1       7.561   1.101 -14.611  1.00  0.00     0.181 HD
ENDBRANCH  18  21
ENDBRANCH   1  18
TORSDOF 4
ENDMDL
MODEL 2
REMARK VINA RESULT: -6.755541040      2.286      3.072
REMARK  4 active torsions:
REMARK  status: ('A' for Active; 'I' for Inactive)
REMARK    1  A    between atoms: N3_4  and  S1_6 
REMARK    2  A    between atoms: S1_6  and  C2_9 
REMARK    3  A    between atoms: C5_12  and  N4_13 
REMARK       I    between atoms: N4_13  and  C6_15 
REMARK    4  A    between atoms: C6_15  and  C7_17 
ROOT
HETATM    1  C2  UNL     1       6.182  -0.275 -14.146  1.00  0.00     0.098 A 
HETATM    2  C3  UNL     1       7.403   0.297 -14.394  1.00  0.00     0.029 A 
HETATM    3  C4  UNL     1       8.220   0.791 -13.362  1.00  0.00     0.032 A 
HETATM    4  C5  UNL     1       7.825   0.719 -12.048  1.00  0.00     0.054 A 
HETATM    5  C11 UNL     1       6.572   0.130 -11.823  1.00  0.00     0.057 A 
HETATM    6  S2  UNL     1       5.988  -0.002 -10.166  1.00  0.00    -0.049 SA
HETATM    7  C12 UNL     1       5.781  -0.349 -12.834  1.00  0.00     0.054 A 
HETATM    8 BR1  UNL     1       4.072  -1.149 -12.481  1.00  0.00    -0.048 Br
ENDROOT
BRANCH   4   9
HETATM    9  N4  UNL     1       8.587   1.192 -10.947  1.00  0.00    -0.320 N 
HETATM   10  C6  UNL     1       9.847   1.783 -10.962  1.00  0.00     0.280 C 
HETATM   11  O3  UNL     1      10.534   2.000 -11.971  1.00  0.00    -0.265 OA
ATOM     12  H4  UNL     1       8.155   1.085 -10.029  1.00  0.00     0.169 HD
BRANCH  10  13
HETATM   13  C7  UNL     1      10.465   2.207  -9.683  1.00  0.00     0.142 A 
HETATM   14  C8  UNL     1       9.975   1.926  -8.427  1.00  0.00     0.045 A 
HETATM   15  C9  UNL     1      10.834   2.493  -7.519  1.00  0.00     0.027 A 
HETATM   16  C10 UNL     1      11.810   3.097  -8.274  1.00  0.00     0.143 A 
HETATM   17  O4  UNL     1      11.556   2.904  -9.540  1.00  0.00    -0.317 OA
ENDBRANCH  10  13
ENDBRANCH   4   9
BRANCH   1  18
HETATM   18  S1  UNL     1       5.200  -0.875 -15.462  1.00  0.00     0.266 S 
HETATM   19  O1  UNL     1       5.966  -0.718 -16.753  1.00  0.00    -0.200 OA
HETATM   20  O2  UNL     1       4.907  -2.325 -15.213  1.00  0.00    -0.200 OA
BRANCH  18  21
HETATM   21  N3  UNL     1       3.719  -0.047 -15.586  1.00  0.00    -0.256 N 
HETATM   22  C1  UNL     1       3.691   1.139 -16.066  1.00  0.00     0.210 C 
HETATM   23  N1  UNL     1       4.885   1.765 -16.494  1.00  0.00    -0.066 NA
HETATM   24  N2  UNL     1       2.466   1.830 -16.171  1.00  0.00    -0.066 NA
ATOM     25  H3  UNL     1       2.855  -0.495 -15.279  1.00  0.00     0.181 HD
ENDBRANCH  18  21
ENDBRANCH   1  18
TORSDOF 4
ENDMDL
MODEL 3
REMARK VINA RESULT: -6.742287401      5.396      7.936
REMARK  4 active torsions:
REMARK  status: ('A' for Active; 'I' for Inactive)
REMARK    1  A    between atoms: N3_4  and  S1_6 
REMARK    2  A    between atoms: S1_6  and  C2_9 
REMARK    3  A    between atoms: C5_12  and  N4_13 
REMARK       I    between atoms: N4_13  and  C6_15 
REMARK    4  A    between atoms: C6_15  and  C7_17 
ROOT
HETATM    1  C2  UNL     1       4.525   1.769  -5.615  1.00  0.00     0.098 A 
HETATM    2  C3  UNL     1       5.717   2.407  -5.391  1.00  0.00     0.029 A 
HETATM    3  C4  UNL     1       6.709   2.509  -6.381  1.00  0.00     0.032 A 
HETATM    4  C5  UNL     1       6.523   1.968  -7.630  1.00  0.00     0.054 A 
HETATM    5  C11 UNL     1       5.295   1.319  -7.833  1.00  0.00     0.057 A 
HETATM    6  S2  UNL     1       4.973   0.596  -9.407  1.00  0.00    -0.049 SA
HETATM    7  C12 UNL     1       4.333   1.224  -6.862  1.00  0.00     0.054 A 
HETATM    8 BR1  UNL     1       2.665   0.328  -7.182  1.00  0.00    -0.048 Br
ENDROOT
BRANCH   4   9
HETATM    9  N4  UNL     1       7.469   2.025  -8.687  1.00  0.00    -0.320 N 
HETATM   10  C6  UNL     1       8.789   1.583  -8.686  1.00  0.00     0.280 C 
HETATM   11  O3  UNL     1       9.374   1.050  -7.731  1.00  0.00    -0.265 OA
ATOM     12  H4  UNL     1       7.139   2.443  -9.557  1.00  0.00     0.169 HD
BRANCH  10  13
HETATM   13  C7  UNL     1       9.609   1.742  -9.911  1.00  0.00     0.142 A 
HETATM   14  C8  UNL     1       9.196   1.452 -11.192  1.00  0.00     0.045 A 
HETATM   15  C9  UNL     1      10.244   1.735 -12.030  1.00  0.00     0.027 A 
HETATM   16  C10 UNL     1      11.251   2.187 -11.212  1.00  0.00     0.143 A 
HETATM   17  O4  UNL     1      10.836   2.176  -9.974  1.00  0.00    -0.317 OA
ENDBRANCH  10  13
ENDBRANCH   4   9
BRANCH   1  18
HETATM   18  S1  UNL     1       3.322   1.666  -4.352  1.00  0.00     0.266 S 
HETATM   19  O1  UNL     1       1.954   1.842  -4.965  1.00  0.00    -0.200 OA
HETATM   20  O2  UNL     1       3.424   0.316  -3.707  1.00  0.00    -0.200 OA
BRANCH  18  21
HETATM   21  N3  UNL     1       3.551   2.848  -3.149  1.00  0.00    -0.256 N 
HETATM   22  C1  UNL     1       2.760   2.892  -2.143  1.00  0.00     0.210 C 
HETATM   23  N1  UNL     1       1.698   1.967  -2.027  1.00  0.00    -0.066 NA
HETATM   24  N2  UNL     1       2.945   3.870  -1.144  1.00  0.00    -0.066 NA
ATOM     25  H3  UNL     1       4.316   3.517  -3.228  1.00  0.00     0.181 HD
ENDBRANCH  18  21
ENDBRANCH   1  18
TORSDOF 4
ENDMDL
MODEL 4
REMARK VINA RESULT: -6.671591769      2.298      8.421
REMARK  4 active torsions:
REMARK  status: ('A' for Active; 'I' for Inactive)
REMARK    1  A    between atoms: N3_4  and  S1_6 
REMARK    2  A    between atoms: S1_6  and  C2_9 
REMARK    3  A    between atoms: C5_12  and  N4_13 
REMARK       I    between atoms: N4_13  and  C6_15 
REMARK    4  A    between atoms: C6_15  and  C7_17 
ROOT
HETATM    1  C2  UNL     1       9.903   1.495 -10.120  1.00  0.00     0.098 A 
HETATM    2  C3  UNL     1       9.941   1.824 -11.450  1.00  0.00     0.029 A 
HETATM    3  C4  UNL     1       8.988   1.347 -12.366  1.00  0.00     0.032 A 
HETATM    4  C5  UNL     1       7.965   0.523 -11.962  1.00  0.00     0.054 A 
HETATM    5  C11 UNL     1       7.949   0.201 -10.596  1.00  0.00     0.057 A 
HETATM    6  S2  UNL     1       6.672  -0.851  -9.992  1.00  0.00    -0.049 SA
HETATM    7  C12 UNL     1       8.883   0.670  -9.710  1.00  0.00     0.054 A 
HETATM    8 BR1  UNL     1       8.823   0.206  -7.847  1.00  0.00    -0.048 Br
ENDROOT
BRANCH   4   9
HETATM    9  N4  UNL     1       6.963  -0.002 -12.818  1.00  0.00    -0.320 N 
HETATM   10  C6  UNL     1       6.785   0.229 -14.179  1.00  0.00     0.280 C 
HETATM   11  O3  UNL     1       7.496   0.954 -14.891  1.00  0.00    -0.265 OA
ATOM     12  H4  UNL     1       6.286  -0.628 -12.380  1.00  0.00     0.169 HD
BRANCH  10  13
HETATM   13  C7  UNL     1       5.659  -0.428 -14.887  1.00  0.00     0.142 A 
HETATM   14  C8  UNL     1       4.772   0.199 -15.732  1.00  0.00     0.045 A 
HETATM   15  C9  UNL     1       3.890  -0.753 -16.176  1.00  0.00     0.027 A 
HETATM   16  C10 UNL     1       4.287  -1.922 -15.573  1.00  0.00     0.143 A 
HETATM   17  O4  UNL     1       5.330  -1.687 -14.824  1.00  0.00    -0.317 OA
ENDBRANCH  10  13
ENDBRANCH   4   9
BRANCH   1  18
HETATM   18  S1  UNL     1      11.111   2.111  -9.018  1.00  0.00     0.266 S 
HETATM   19  O1  UNL     1      11.927   0.955  -8.492  1.00  0.00    -0.200 OA
HETATM   20  O2  UNL     1      11.996   3.063  -9.767  1.00  0.00    -0.200 OA
BRANCH  18  21
HETATM   21  N3  UNL     1      10.419   2.948  -7.709  1.00  0.00    -0.256 N 
HETATM   22  C1  UNL     1      11.147   3.279  -6.709  1.00  0.00     0.210 C 
HETATM   23  N1  UNL     1      12.523   2.953  -6.688  1.00  0.00    -0.066 NA
HETATM   24  N2  UNL     1      10.579   3.973  -5.621  1.00  0.00    -0.066 NA
ATOM     25  H3  UNL     1       9.427   3.186  -7.720  1.00  0.00     0.181 HD
ENDBRANCH  18  21
ENDBRANCH   1  18
TORSDOF 4
ENDMDL
MODEL 5
REMARK VINA RESULT: -6.656818660      1.869      2.144
REMARK  4 active torsions:
REMARK  status: ('A' for Active; 'I' for Inactive)
REMARK    1  A    between atoms: N3_4  and  S1_6 
REMARK    2  A    between atoms: S1_6  and  C2_9 
REMARK    3  A    between atoms: C5_12  and  N4_13 
REMARK       I    between atoms: N4_13  and  C6_15 
REMARK    4  A    between atoms: C6_15  and  C7_17 
ROOT
HETATM    1  C2  UNL     1       6.939  -0.964  -9.969  1.00  0.00     0.098 A 
HETATM    2  C3  UNL     1       8.178  -1.441  -9.630  1.00  0.00     0.029 A 
HETATM    3  C4  UNL     1       9.067  -0.709  -8.825  1.00  0.00     0.032 A 
HETATM    4  C5  UNL     1       8.727   0.530  -8.338  1.00  0.00     0.054 A 
HETATM    5  C11 UNL     1       7.454   0.996  -8.700  1.00  0.00     0.057 A 
HETATM    6  S2  UNL     1       6.937   2.576  -8.120  1.00  0.00    -0.049 SA
HETATM    7  C12 UNL     1       6.593   0.275  -9.486  1.00  0.00     0.054 A 
HETATM    8 BR1  UNL     1       4.858   0.949  -9.957  1.00  0.00    -0.048 Br
ENDROOT
BRANCH   4   9
HETATM    9  N4  UNL     1       9.562   1.336  -7.521  1.00  0.00    -0.320 N 
HETATM   10  C6  UNL     1      10.625   2.146  -7.909  1.00  0.00     0.280 C 
HETATM   11  O3  UNL     1      11.031   2.302  -9.071  1.00  0.00    -0.265 OA
ATOM     12  H4  UNL     1       9.357   1.319  -6.522  1.00  0.00     0.169 HD
BRANCH  10  13
HETATM   13  C7  UNL     1      11.371   2.910  -6.880  1.00  0.00     0.142 A 
HETATM   14  C8  UNL     1      10.813   3.788  -5.977  1.00  0.00     0.045 A 
HETATM   15  C9  UNL     1      11.835   4.281  -5.206  1.00  0.00     0.027 A 
HETATM   16  C10 UNL     1      12.972   3.675  -5.682  1.00  0.00     0.143 A 
HETATM   17  O4  UNL     1      12.655   2.877  -6.665  1.00  0.00    -0.317 OA
ENDBRANCH  10  13
ENDBRANCH   4   9
BRANCH   1  18
HETATM   18  S1  UNL     1       5.867  -1.911 -10.973  1.00  0.00     0.266 S 
HETATM   19  O1  UNL     1       6.577  -3.178 -11.385  1.00  0.00    -0.200 OA
HETATM   20  O2  UNL     1       4.642  -2.247 -10.176  1.00  0.00    -0.200 OA
BRANCH  18  21
HETATM   21  N3  UNL     1       5.379  -1.066 -12.367  1.00  0.00    -0.256 N 
HETATM   22  C1  UNL     1       6.260  -0.543 -13.134  1.00  0.00     0.210 C 
HETATM   23  N1  UNL     1       7.635  -0.664 -12.831  1.00  0.00    -0.066 NA
HETATM   24  N2  UNL     1       5.861   0.159 -14.290  1.00  0.00    -0.066 NA
ATOM     25  H3  UNL     1       4.388  -0.976 -12.590  1.00  0.00     0.181 HD
ENDBRANCH  18  21
ENDBRANCH   1  18
TORSDOF 4
ENDMDL
