MODEL 1
REMARK VINA RESULT: -7.160434995      0.000      0.000
REMARK  6 active torsions:
REMARK  status: ('A' for Active; 'I' for Inactive)
REMARK    1  A    between atoms: C2_2  and  C3_3 
REMARK       I    between atoms: C3_3  and  N1_5 
REMARK       I    between atoms: N1_5  and  C4_7 
REMARK    2  A    between atoms: C4_7  and  C5_9 
REMARK    3  A    between atoms: C5_9  and  C6_10 
REMARK    4  A    between atoms: C16_22  and  C17_23 
REMARK    5  A    between atoms: C18_26  and  C20_28 
REMARK    6  A    between atoms: C20_28  and  O6_29 
ROOT
HETATM    1  C6  UNL     1       6.180  -3.110  -3.812  1.00  0.00    -0.016 C 
HETATM    2  C7  UNL     1       7.201  -2.239  -3.186  1.00  0.00     0.092 C 
HETATM    3  C8  UNL     1       8.055  -2.762  -2.141  1.00  0.00     0.167 C 
HETATM    4  O3  UNL     1       8.652  -2.011  -1.410  1.00  0.00    -0.294 OA
HETATM    5  C9  UNL     1       8.082  -4.225  -2.105  1.00  0.00     0.163 C 
HETATM    6  F1  UNL     1       9.355  -4.586  -1.687  1.00  0.00    -0.235 F 
HETATM    7  C10 UNL     1       7.054  -4.541  -1.012  1.00  0.00     0.052 C 
HETATM    8  C11 UNL     1       6.003  -3.523  -0.799  1.00  0.00     0.013 C 
HETATM    9  C12 UNL     1       4.809  -3.534  -1.770  1.00  0.00    -0.042 C 
HETATM   10  C13 UNL     1       4.194  -2.147  -1.753  1.00  0.00     0.015 C 
HETATM   11  C14 UNL     1       3.786  -4.384  -1.048  1.00  0.00     0.015 C 
HETATM   12  C15 UNL     1       5.307  -4.031  -3.031  1.00  0.00     0.018 C 
HETATM   13  C16 UNL     1       4.579  -4.703  -4.122  1.00  0.00     0.103 C 
HETATM   14  C18 UNL     1       5.831  -5.086  -4.989  1.00  0.00    -0.004 C 
HETATM   15  C19 UNL     1       5.559  -4.865  -6.456  1.00  0.00     0.019 C 
HETATM   16  C21 UNL     1       6.968  -4.245  -4.457  1.00  0.00     0.010 C 
HETATM   17  C22 UNL     1       7.812  -4.891  -3.407  1.00  0.00     0.058 C 
ENDROOT
BRANCH   1  18
HETATM   18  C5  UNL     1       5.480  -2.175  -4.692  1.00  0.00     0.113 C 
BRANCH  18  19
HETATM   19  C4  UNL     1       6.221  -1.346  -5.663  1.00  0.00     0.225 C 
HETATM   20  N1  UNL     1       6.002   0.085  -5.691  1.00  0.00    -0.298 N 
HETATM   21  C3  UNL     1       6.676   0.937  -6.589  1.00  0.00     0.223 C 
ATOM     22  H1  UNL     1       5.335   0.492  -5.035  1.00  0.00     0.171 HD
HETATM   23  O1  UNL     1       7.497   0.438  -7.397  1.00  0.00    -0.273 OA
HETATM   24  O2  UNL     1       7.050  -1.726  -6.504  1.00  0.00    -0.273 OA
BRANCH  21  25
HETATM   25  C2  UNL     1       6.466   2.399  -6.629  1.00  0.00     0.099 C 
HETATM   26  C1  UNL     1       7.654   3.120  -6.047  1.00  0.00     0.014 C 
ENDBRANCH  21  25
ENDBRANCH  18  19
ENDBRANCH   1  18
BRANCH  13  27
HETATM   27  C17 UNL     1       3.833  -5.942  -3.859  1.00  0.00     0.178 C 
HETATM   28  O4  UNL     1       3.944  -6.812  -3.009  1.00  0.00    -0.648 OA
HETATM   29  O5  UNL     1       2.755  -6.258  -4.735  1.00  0.00    -0.648 OA
ENDBRANCH  13  27
BRANCH  14  30
HETATM   30  C20 UNL     1       6.085  -6.568  -4.874  1.00  0.00     0.174 C 
BRANCH  30  31
HETATM   31  O6  UNL     1       6.381  -7.016  -6.162  1.00  0.00    -0.400 OA
ATOM     32  H6  UNL     1       5.547  -7.124  -6.605  1.00  0.00     0.209 HD
ENDBRANCH  30  31
ENDBRANCH  14  30
TORSDOF 6
ENDMDL
MODEL 2
REMARK VINA RESULT: -6.947971392      2.448      4.071
REMARK  6 active torsions:
REMARK  status: ('A' for Active; 'I' for Inactive)
REMARK    1  A    between atoms: C2_2  and  C3_3 
REMARK       I    between atoms: C3_3  and  N1_5 
REMARK       I    between atoms: N1_5  and  C4_7 
REMARK    2  A    between atoms: C4_7  and  C5_9 
REMARK    3  A    between atoms: C5_9  and  C6_10 
REMARK    4  A    between atoms: C16_22  and  C17_23 
REMARK    5  A    between atoms: C18_26  and  C20_28 
REMARK    6  A    between atoms: C20_28  and  O6_29 
ROOT
HETATM    1  C6  UNL     1       5.827  -3.058  -3.782  1.00  0.00    -0.016 C 
HETATM    2  C7  UNL     1       4.700  -2.278  -4.342  1.00  0.00     0.092 C 
HETATM    3  C8  UNL     1       3.683  -1.742  -3.461  1.00  0.00     0.167 C 
HETATM    4  O3  UNL     1       2.616  -1.394  -3.904  1.00  0.00    -0.294 OA
HETATM    5  C9  UNL     1       4.110  -1.691  -2.062  1.00  0.00     0.163 C 
HETATM    6  F1  UNL     1       3.495  -0.580  -1.502  1.00  0.00    -0.235 F 
HETATM    7  C10 UNL     1       3.503  -2.978  -1.491  1.00  0.00     0.052 C 
HETATM    8  C11 UNL     1       3.274  -4.071  -2.461  1.00  0.00     0.013 C 
HETATM    9  C12 UNL     1       4.488  -4.941  -2.836  1.00  0.00    -0.042 C 
HETATM   10  C13 UNL     1       4.200  -5.568  -4.186  1.00  0.00     0.015 C 
HETATM   11  C14 UNL     1       4.387  -6.105  -1.874  1.00  0.00     0.015 C 
HETATM   12  C15 UNL     1       5.653  -4.094  -2.725  1.00  0.00     0.018 C 
HETATM   13  C16 UNL     1       7.056  -4.467  -2.479  1.00  0.00     0.103 C 
HETATM   14  C18 UNL     1       7.620  -3.012  -2.301  1.00  0.00    -0.004 C 
HETATM   15  C19 UNL     1       8.955  -2.864  -2.987  1.00  0.00     0.019 C 
HETATM   16  C21 UNL     1       6.556  -2.093  -2.854  1.00  0.00     0.010 C 
HETATM   17  C22 UNL     1       5.577  -1.566  -1.856  1.00  0.00     0.058 C 
ENDROOT
BRANCH   1  18
HETATM   18  C5  UNL     1       6.519  -3.503  -4.991  1.00  0.00     0.113 C 
BRANCH  18  19
HETATM   19  C4  UNL     1       6.647  -2.615  -6.164  1.00  0.00     0.225 C 
HETATM   20  N1  UNL     1       7.590  -1.519  -6.126  1.00  0.00    -0.298 N 
HETATM   21  C3  UNL     1       7.766  -0.634  -7.209  1.00  0.00     0.223 C 
ATOM     22  H1  UNL     1       8.150  -1.381  -5.284  1.00  0.00     0.171 HD
HETATM   23  O1  UNL     1       7.078  -0.802  -8.247  1.00  0.00    -0.273 OA
HETATM   24  O2  UNL     1       6.024  -2.684  -7.234  1.00  0.00    -0.273 OA
BRANCH  21  25
HETATM   25  C2  UNL     1       8.726   0.490  -7.189  1.00  0.00     0.099 C 
HETATM   26  C1  UNL     1       9.391   0.641  -8.532  1.00  0.00     0.014 C 
ENDBRANCH  21  25
ENDBRANCH  18  19
ENDBRANCH   1  18
BRANCH  13  27
HETATM   27  C17 UNL     1       7.420  -5.227  -1.273  1.00  0.00     0.178 C 
HETATM   28  O4  UNL     1       7.009  -5.201  -0.123  1.00  0.00    -0.648 OA
HETATM   29  O5  UNL     1       8.451  -6.201  -1.397  1.00  0.00    -0.648 OA
ENDBRANCH  13  27
BRANCH  14  30
HETATM   30  C20 UNL     1       7.919  -2.765  -0.843  1.00  0.00     0.174 C 
BRANCH  30  31
HETATM   31  O6  UNL     1       8.928  -1.803  -0.808  1.00  0.00    -0.400 OA
ATOM     32  H6  UNL     1       8.596  -1.088  -0.277  1.00  0.00     0.209 HD
ENDBRANCH  30  31
ENDBRANCH  14  30
TORSDOF 6
ENDMDL
MODEL 3
REMARK VINA RESULT: -6.809836139      2.701      4.692
REMARK  6 active torsions:
REMARK  status: ('A' for Active; 'I' for Inactive)
REMARK    1  A    between atoms: C2_2  and  C3_3 
REMARK       I    between atoms: C3_3  and  N1_5 
REMARK       I    between atoms: N1_5  and  C4_7 
REMARK    2  A    between atoms: C4_7  and  C5_9 
REMARK    3  A    between atoms: C5_9  and  C6_10 
REMARK    4  A    between atoms: C16_22  and  C17_23 
REMARK    5  A    between atoms: C18_26  and  C20_28 
REMARK    6  A    between atoms: C20_28  and  O6_29 
ROOT
HETATM    1  C6  UNL     1       5.409  -3.547  -3.028  1.00  0.00    -0.016 C 
HETATM    2  C7  UNL     1       3.942  -3.404  -3.173  1.00  0.00     0.092 C 
HETATM    3  C8  UNL     1       3.066  -4.475  -2.747  1.00  0.00     0.167 C 
HETATM    4  O3  UNL     1       1.926  -4.521  -3.140  1.00  0.00    -0.294 OA
HETATM    5  C9  UNL     1       3.719  -5.420  -1.840  1.00  0.00     0.163 C 
HETATM    6  F1  UNL     1       2.739  -5.870  -0.967  1.00  0.00    -0.235 F 
HETATM    7  C10 UNL     1       4.140  -6.545  -2.792  1.00  0.00     0.052 C 
HETATM    8  C11 UNL     1       4.353  -6.153  -4.202  1.00  0.00     0.013 C 
HETATM    9  C12 UNL     1       5.704  -5.502  -4.552  1.00  0.00    -0.042 C 
HETATM   10  C13 UNL     1       5.505  -4.692  -5.819  1.00  0.00     0.015 C 
HETATM   11  C14 UNL     1       6.543  -6.675  -5.009  1.00  0.00     0.015 C 
HETATM   12  C15 UNL     1       6.142  -4.799  -3.369  1.00  0.00     0.018 C 
HETATM   13  C16 UNL     1       7.507  -4.434  -2.954  1.00  0.00     0.103 C 
HETATM   14  C18 UNL     1       7.144  -3.906  -1.520  1.00  0.00    -0.004 C 
HETATM   15  C19 UNL     1       7.918  -2.653  -1.196  1.00  0.00     0.019 C 
HETATM   16  C21 UNL     1       5.647  -3.699  -1.530  1.00  0.00     0.010 C 
HETATM   17  C22 UNL     1       4.834  -4.852  -1.036  1.00  0.00     0.058 C 
ENDROOT
BRANCH   1  18
HETATM   18  C5  UNL     1       5.899  -2.333  -3.680  1.00  0.00     0.113 C 
BRANCH  18  19
HETATM   19  C4  UNL     1       5.312  -1.015  -3.372  1.00  0.00     0.225 C 
HETATM   20  N1  UNL     1       4.590  -0.299  -4.402  1.00  0.00    -0.298 N 
HETATM   21  C3  UNL     1       4.002   0.962  -4.177  1.00  0.00     0.223 C 
ATOM     22  H1  UNL     1       4.503  -0.723  -5.325  1.00  0.00     0.171 HD
HETATM   23  O1  UNL     1       4.109   1.487  -3.041  1.00  0.00    -0.273 OA
HETATM   24  O2  UNL     1       5.354  -0.403  -2.293  1.00  0.00    -0.273 OA
BRANCH  21  25
HETATM   25  C2  UNL     1       3.260   1.706  -5.216  1.00  0.00     0.099 C 
HETATM   26  C1  UNL     1       2.076   2.416  -4.614  1.00  0.00     0.014 C 
ENDBRANCH  21  25
ENDBRANCH  18  19
ENDBRANCH   1  18
BRANCH  13  27
HETATM   27  C17 UNL     1       8.533  -5.475  -2.789  1.00  0.00     0.178 C 
HETATM   28  O4  UNL     1       8.469  -6.670  -2.541  1.00  0.00    -0.648 OA
HETATM   29  O5  UNL     1       9.895  -5.082  -2.926  1.00  0.00    -0.648 OA
ENDBRANCH  13  27
BRANCH  14  30
HETATM   30  C20 UNL     1       7.599  -4.906  -0.487  1.00  0.00     0.174 C 
BRANCH  30  31
HETATM   31  O6  UNL     1       7.654  -4.219   0.726  1.00  0.00    -0.400 OA
ATOM     32  H6  UNL     1       7.060  -3.482   0.642  1.00  0.00     0.209 HD
ENDBRANCH  30  31
ENDBRANCH  14  30
TORSDOF 6
ENDMDL
MODEL 4
REMARK VINA RESULT: -6.772039238      2.788      5.041
REMARK  6 active torsions:
REMARK  status: ('A' for Active; 'I' for Inactive)
REMARK    1  A    between atoms: C2_2  and  C3_3 
REMARK       I    between atoms: C3_3  and  N1_5 
REMARK       I    between atoms: N1_5  and  C4_7 
REMARK    2  A    between atoms: C4_7  and  C5_9 
REMARK    3  A    between atoms: C5_9  and  C6_10 
REMARK    4  A    between atoms: C16_22  and  C17_23 
REMARK    5  A    between atoms: C18_26  and  C20_28 
REMARK    6  A    between atoms: C20_28  and  O6_29 
ROOT
HETATM    1  C6  UNL     1       4.721  -3.097  -3.306  1.00  0.00    -0.016 C 
HETATM    2  C7  UNL     1       3.379  -3.583  -3.699  1.00  0.00     0.092 C 
HETATM    3  C8  UNL     1       2.805  -4.734  -3.034  1.00  0.00     0.167 C 
HETATM    4  O3  UNL     1       1.885  -5.332  -3.539  1.00  0.00    -0.294 OA
HETATM    5  C9  UNL     1       3.455  -5.042  -1.760  1.00  0.00     0.163 C 
HETATM    6  F1  UNL     1       2.472  -5.560  -0.930  1.00  0.00    -0.235 F 
HETATM    7  C10 UNL     1       4.447  -6.141  -2.160  1.00  0.00     0.052 C 
HETATM    8  C11 UNL     1       4.893  -6.128  -3.570  1.00  0.00     0.013 C 
HETATM    9  C12 UNL     1       6.012  -5.137  -3.942  1.00  0.00    -0.042 C 
HETATM   10  C13 UNL     1       5.912  -4.877  -5.434  1.00  0.00     0.015 C 
HETATM   11  C14 UNL     1       7.267  -5.971  -3.810  1.00  0.00     0.015 C 
HETATM   12  C15 UNL     1       5.874  -4.006  -3.054  1.00  0.00     0.018 C 
HETATM   13  C16 UNL     1       6.893  -3.037  -2.615  1.00  0.00     0.103 C 
HETATM   14  C18 UNL     1       6.013  -2.297  -1.545  1.00  0.00    -0.004 C 
HETATM   15  C19 UNL     1       6.238  -0.806  -1.601  1.00  0.00     0.019 C 
HETATM   16  C21 UNL     1       4.587  -2.699  -1.841  1.00  0.00     0.010 C 
HETATM   17  C22 UNL     1       4.079  -3.878  -1.075  1.00  0.00     0.058 C 
ENDROOT
BRANCH   1  18
HETATM   18  C5  UNL     1       4.959  -2.037  -4.285  1.00  0.00     0.113 C 
BRANCH  18  19
HETATM   19  C4  UNL     1       3.931  -1.014  -4.563  1.00  0.00     0.225 C 
HETATM   20  N1  UNL     1       3.584  -0.057  -3.534  1.00  0.00    -0.298 N 
HETATM   21  C3  UNL     1       2.614   0.947  -3.731  1.00  0.00     0.223 C 
ATOM     22  H1  UNL     1       4.059  -0.111  -2.633  1.00  0.00     0.171 HD
HETATM   23  O1  UNL     1       2.027   1.014  -4.839  1.00  0.00    -0.273 OA
HETATM   24  O2  UNL     1       3.289  -0.854  -5.612  1.00  0.00    -0.273 OA
BRANCH  21  25
HETATM   25  C2  UNL     1       2.249   1.934  -2.693  1.00  0.00     0.099 C 
HETATM   26  C1  UNL     1       3.163   3.129  -2.755  1.00  0.00     0.014 C 
ENDBRANCH  21  25
ENDBRANCH  18  19
ENDBRANCH   1  18
BRANCH  13  27
HETATM   27  C17 UNL     1       8.111  -3.501  -1.935  1.00  0.00     0.178 C 
HETATM   28  O4  UNL     1       8.357  -4.487  -1.258  1.00  0.00    -0.648 OA
HETATM   29  O5  UNL     1       9.273  -2.684  -2.039  1.00  0.00    -0.648 OA
ENDBRANCH  13  27
BRANCH  14  30
HETATM   30  C20 UNL     1       6.468  -2.692  -0.162  1.00  0.00     0.174 C 
BRANCH  30  31
HETATM   31  O6  UNL     1       6.242  -1.586   0.656  1.00  0.00    -0.400 OA
ATOM     32  H6  UNL     1       5.909  -1.925   1.479  1.00  0.00     0.209 HD
ENDBRANCH  30  31
ENDBRANCH  14  30
TORSDOF 6
ENDMDL
MODEL 5
REMARK VINA RESULT: -6.691471905      1.697      1.778
REMARK  6 active torsions:
REMARK  status: ('A' for Active; 'I' for Inactive)
REMARK    1  A    between atoms: C2_2  and  C3_3 
REMARK       I    between atoms: C3_3  and  N1_5 
REMARK       I    between atoms: N1_5  and  C4_7 
REMARK    2  A    between atoms: C4_7  and  C5_9 
REMARK    3  A    between atoms: C5_9  and  C6_10 
REMARK    4  A    between atoms: C16_22  and  C17_23 
REMARK    5  A    between atoms: C18_26  and  C20_28 
REMARK    6  A    between atoms: C20_28  and  O6_29 
ROOT
HETATM    1  C6  UNL     1       5.572  -3.121  -3.753  1.00  0.00    -0.016 C 
HETATM    2  C7  UNL     1       6.550  -2.180  -3.160  1.00  0.00     0.092 C 
HETATM    3  C8  UNL     1       7.579  -2.675  -2.270  1.00  0.00     0.167 C 
HETATM    4  O3  UNL     1       8.167  -1.916  -1.538  1.00  0.00    -0.294 OA
HETATM    5  C9  UNL     1       7.784  -4.119  -2.381  1.00  0.00     0.163 C 
HETATM    6  F1  UNL     1       9.131  -4.347  -2.142  1.00  0.00    -0.235 F 
HETATM    7  C10 UNL     1       6.940  -4.656  -1.219  1.00  0.00     0.052 C 
HETATM    8  C11 UNL     1       5.808  -3.805  -0.793  1.00  0.00     0.013 C 
HETATM    9  C12 UNL     1       4.516  -3.888  -1.626  1.00  0.00    -0.042 C 
HETATM   10  C13 UNL     1       3.747  -2.598  -1.405  1.00  0.00     0.015 C 
HETATM   11  C14 UNL     1       3.696  -4.921  -0.884  1.00  0.00     0.015 C 
HETATM   12  C15 UNL     1       4.915  -4.208  -2.976  1.00  0.00     0.018 C 
HETATM   13  C16 UNL     1       4.145  -4.875  -4.041  1.00  0.00     0.103 C 
HETATM   14  C18 UNL     1       5.321  -5.020  -5.073  1.00  0.00    -0.004 C 
HETATM   15  C19 UNL     1       4.849  -4.713  -6.473  1.00  0.00     0.019 C 
HETATM   16  C21 UNL     1       6.405  -4.086  -4.588  1.00  0.00     0.010 C 
HETATM   17  C22 UNL     1       7.440  -4.704  -3.704  1.00  0.00     0.058 C 
ENDROOT
BRANCH   1  18
HETATM   18  C5  UNL     1       4.665  -2.213  -4.456  1.00  0.00     0.113 C 
BRANCH  18  19
HETATM   19  C4  UNL     1       5.009  -0.789  -4.643  1.00  0.00     0.225 C 
HETATM   20  N1  UNL     1       4.344   0.214  -3.840  1.00  0.00    -0.298 N 
HETATM   21  C3  UNL     1       4.624   1.590  -3.963  1.00  0.00     0.223 C 
ATOM     22  H1  UNL     1       3.647  -0.085  -3.158  1.00  0.00     0.171 HD
HETATM   23  O1  UNL     1       5.482   1.961  -4.802  1.00  0.00    -0.273 OA
HETATM   24  O2  UNL     1       5.833  -0.310  -5.436  1.00  0.00    -0.273 OA
BRANCH  21  25
HETATM   25  C2  UNL     1       3.957   2.628  -3.150  1.00  0.00     0.099 C 
HETATM   26  C1  UNL     1       2.569   2.897  -3.670  1.00  0.00     0.014 C 
ENDBRANCH  21  25
ENDBRANCH  18  19
ENDBRANCH   1  18
BRANCH  13  27
HETATM   27  C17 UNL     1       3.589  -6.218  -3.822  1.00  0.00     0.178 C 
HETATM   28  O4  UNL     1       3.930  -7.150  -3.110  1.00  0.00    -0.648 OA
HETATM   29  O5  UNL     1       2.422  -6.574  -4.558  1.00  0.00    -0.648 OA
ENDBRANCH  13  27
BRANCH  14  30
HETATM   30  C20 UNL     1       5.761  -6.461  -5.133  1.00  0.00     0.174 C 
BRANCH  30  31
HETATM   31  O6  UNL     1       6.198  -6.683  -6.439  1.00  0.00    -0.400 OA
ATOM     32  H6  UNL     1       5.735  -7.453  -6.748  1.00  0.00     0.209 HD
ENDBRANCH  30  31
ENDBRANCH  14  30
TORSDOF 6
ENDMDL
