MODEL 1
REMARK VINA RESULT: -6.725072237      0.000      0.000
REMARK  9 active torsions:
REMARK  status: ('A' for Active; 'I' for Inactive)
REMARK    1  A    between atoms: S1_2  and  C2_3 
REMARK    2  A    between atoms: C2_3  and  N1_5 
REMARK    3  A    between atoms: N1_5  and  C3_7 
REMARK    4  A    between atoms: C3_7  and  N2_8 
REMARK    5  A    between atoms: N2_8  and  N3_10 
REMARK    6  A    between atoms: N3_10  and  S3_12 
REMARK    7  A    between atoms: S3_12  and  C4_15 
REMARK    8  A    between atoms: C7_18  and  N4_19 
REMARK       I    between atoms: N4_19  and  C8_21 
REMARK       I    between atoms: C8_21  and  N5_23 
REMARK    9  A    between atoms: N5_23  and  C9_25 
ROOT
HETATM    1  C4  UNL     1       4.090   1.516  -5.047  1.00  0.00     0.081 A 
HETATM    2  C5  UNL     1       5.195   1.931  -4.379  1.00  0.00     0.027 A 
HETATM    3  C6  UNL     1       6.390   2.062  -5.033  1.00  0.00     0.031 A 
HETATM    4  C7  UNL     1       6.539   1.781  -6.404  1.00  0.00     0.036 A 
HETATM    5  C13 UNL     1       5.404   1.368  -7.035  1.00  0.00     0.031 A 
HETATM    6  C14 UNL     1       4.164   1.227  -6.377  1.00  0.00     0.027 A 
ENDROOT
BRANCH   1   7
HETATM    7  S3  UNL     1       2.521   1.330  -4.252  1.00  0.00     0.276 S 
HETATM    8  O1  UNL     1       1.708   2.538  -4.550  1.00  0.00    -0.199 OA
HETATM    9  O2  UNL     1       1.915   0.071  -4.834  1.00  0.00    -0.199 OA
BRANCH   7  10
HETATM   10  N3  UNL     1       2.767   1.100  -2.556  1.00  0.00    -0.215 N 
ATOM     11  H3  UNL     1       3.432   1.697  -2.066  1.00  0.00     0.201 HD
BRANCH  10  12
HETATM   12  N2  UNL     1       2.079   0.115  -1.839  1.00  0.00    -0.241 N 
ATOM     13  H2  UNL     1       1.079   0.184  -1.652  1.00  0.00     0.199 HD
BRANCH  12  14
HETATM   14  C3  UNL     1       2.776  -0.876  -1.431  1.00  0.00     0.070 C 
BRANCH  14  15
HETATM   15  N1  UNL     1       3.504  -1.830  -1.006  1.00  0.00    -0.292 N 
ATOM     16  H1  UNL     1       3.135  -2.547  -0.382  1.00  0.00     0.178 HD
BRANCH  15  17
HETATM   17  C2  UNL     1       4.857  -1.848  -1.445  1.00  0.00     0.146 C 
HETATM   18  S2  UNL     1       5.240  -1.671  -3.019  1.00  0.00    -0.052 SA
BRANCH  17  19
HETATM   19  S1  UNL     1       6.199  -2.066  -0.288  1.00  0.00    -0.104 SA
HETATM   20  C1  UNL     1       7.766  -2.309  -1.181  1.00  0.00     0.098 C 
ENDBRANCH  17  19
ENDBRANCH  15  17
ENDBRANCH  14  15
ENDBRANCH  12  14
ENDBRANCH  10  12
ENDBRANCH   7  10
ENDBRANCH   1   7
BRANCH   4  21
HETATM   21  N4  UNL     1       7.805   1.919  -7.007  1.00  0.00    -0.309 N 
HETATM   22  C8  UNL     1       8.780   0.923  -7.101  1.00  0.00     0.326 C 
HETATM   23  O3  UNL     1       8.638  -0.220  -6.665  1.00  0.00    -0.247 OA
HETATM   24  N5  UNL     1      10.030   1.261  -7.754  1.00  0.00    -0.293 N 
ATOM     25  H5  UNL     1      10.893   1.352  -7.219  1.00  0.00     0.172 HD
ATOM     26  H4  UNL     1       8.031   2.828  -7.410  1.00  0.00     0.170 HD
BRANCH  24  27
HETATM   27  C9  UNL     1      10.021   1.446  -9.052  1.00  0.00     0.132 A 
HETATM   28  C10 UNL     1       9.163   0.907  -9.987  1.00  0.00     0.084 A 
HETATM   29  C11 UNL     1       9.541   1.388 -11.224  1.00  0.00     0.076 A 
HETATM   30  C12 UNL     1       8.939   1.109 -12.554  1.00  0.00     0.079 C 
HETATM   31  O4  UNL     1      10.573   2.172 -11.016  1.00  0.00    -0.241 OA
HETATM   32  N6  UNL     1      10.870   2.220  -9.749  1.00  0.00    -0.245 N 
ATOM     33  H6  UNL     1      11.634   2.763  -9.346  1.00  0.00     0.196 HD
ENDBRANCH  24  27
ENDBRANCH   4  21
TORSDOF 9
ENDMDL
MODEL 2
REMARK VINA RESULT: -6.652762575      0.752      1.472
REMARK  9 active torsions:
REMARK  status: ('A' for Active; 'I' for Inactive)
REMARK    1  A    between atoms: S1_2  and  C2_3 
REMARK    2  A    between atoms: C2_3  and  N1_5 
REMARK    3  A    between atoms: N1_5  and  C3_7 
REMARK    4  A    between atoms: C3_7  and  N2_8 
REMARK    5  A    between atoms: N2_8  and  N3_10 
REMARK    6  A    between atoms: N3_10  and  S3_12 
REMARK    7  A    between atoms: S3_12  and  C4_15 
REMARK    8  A    between atoms: C7_18  and  N4_19 
REMARK       I    between atoms: N4_19  and  C8_21 
REMARK       I    between atoms: C8_21  and  N5_23 
REMARK    9  A    between atoms: N5_23  and  C9_25 
ROOT
HETATM    1  C4  UNL     1       3.984   1.525  -5.238  1.00  0.00     0.081 A 
HETATM    2  C5  UNL     1       4.198   1.222  -6.542  1.00  0.00     0.027 A 
HETATM    3  C6  UNL     1       5.450   1.333  -7.082  1.00  0.00     0.031 A 
HETATM    4  C7  UNL     1       6.564   1.759  -6.333  1.00  0.00     0.036 A 
HETATM    5  C13 UNL     1       6.303   2.053  -5.029  1.00  0.00     0.031 A 
HETATM    6  C14 UNL     1       5.019   1.944  -4.456  1.00  0.00     0.027 A 
ENDROOT
BRANCH   1   7
HETATM    7  S3  UNL     1       2.387   1.399  -4.488  1.00  0.00     0.276 S 
HETATM    8  O1  UNL     1       2.111   2.673  -3.774  1.00  0.00    -0.199 OA
HETATM    9  O2  UNL     1       1.420   1.155  -5.627  1.00  0.00    -0.199 OA
BRANCH   7  10
HETATM   10  N3  UNL     1       2.362   0.030  -3.432  1.00  0.00    -0.215 N 
ATOM     11  H3  UNL     1       2.195  -0.896  -3.824  1.00  0.00     0.201 HD
BRANCH  10  12
HETATM   12  N2  UNL     1       2.566   0.159  -2.054  1.00  0.00    -0.241 N 
ATOM     13  H2  UNL     1       2.343   1.020  -1.554  1.00  0.00     0.199 HD
BRANCH  12  14
HETATM   14  C3  UNL     1       3.047  -0.864  -1.457  1.00  0.00     0.070 C 
BRANCH  14  15
HETATM   15  N1  UNL     1       3.571  -1.861  -0.863  1.00  0.00    -0.292 N 
ATOM     16  H1  UNL     1       3.088  -2.346  -0.106  1.00  0.00     0.178 HD
BRANCH  15  17
HETATM   17  C2  UNL     1       4.861  -2.264  -1.304  1.00  0.00     0.146 C 
HETATM   18  S2  UNL     1       6.176  -2.079  -0.360  1.00  0.00    -0.052 SA
BRANCH  17  19
HETATM   19  S1  UNL     1       5.099  -2.993  -2.917  1.00  0.00    -0.104 SA
HETATM   20  C1  UNL     1       5.592  -1.717  -4.118  1.00  0.00     0.098 C 
ENDBRANCH  17  19
ENDBRANCH  15  17
ENDBRANCH  14  15
ENDBRANCH  12  14
ENDBRANCH  10  12
ENDBRANCH   7  10
ENDBRANCH   1   7
BRANCH   4  21
HETATM   21  N4  UNL     1       7.820   1.869  -6.962  1.00  0.00    -0.309 N 
HETATM   22  C8  UNL     1       8.760   0.845  -7.097  1.00  0.00     0.326 C 
HETATM   23  O3  UNL     1       8.591  -0.302  -6.679  1.00  0.00    -0.247 OA
HETATM   24  N5  UNL     1      10.005   1.156  -7.772  1.00  0.00    -0.293 N 
ATOM     25  H5  UNL     1      10.882   1.209  -7.255  1.00  0.00     0.172 HD
ATOM     26  H4  UNL     1       8.066   2.778  -7.352  1.00  0.00     0.170 HD
BRANCH  24  27
HETATM   27  C9  UNL     1       9.973   1.366  -9.065  1.00  0.00     0.132 A 
HETATM   28  C10 UNL     1       9.120   0.819 -10.001  1.00  0.00     0.084 A 
HETATM   29  C11 UNL     1       9.467   1.337 -11.232  1.00  0.00     0.076 A 
HETATM   30  C12 UNL     1       8.857   1.066 -12.560  1.00  0.00     0.079 C 
HETATM   31  O4  UNL     1      10.477   2.148 -11.021  1.00  0.00    -0.241 OA
HETATM   32  N6  UNL     1      10.789   2.180  -9.757  1.00  0.00    -0.245 N 
ATOM     33  H6  UNL     1      11.540   2.740  -9.353  1.00  0.00     0.196 HD
ENDBRANCH  24  27
ENDBRANCH   4  21
TORSDOF 9
ENDMDL
MODEL 3
REMARK VINA RESULT: -6.631626718      2.221      2.878
REMARK  9 active torsions:
REMARK  status: ('A' for Active; 'I' for Inactive)
REMARK    1  A    between atoms: S1_2  and  C2_3 
REMARK    2  A    between atoms: C2_3  and  N1_5 
REMARK    3  A    between atoms: N1_5  and  C3_7 
REMARK    4  A    between atoms: C3_7  and  N2_8 
REMARK    5  A    between atoms: N2_8  and  N3_10 
REMARK    6  A    between atoms: N3_10  and  S3_12 
REMARK    7  A    between atoms: S3_12  and  C4_15 
REMARK    8  A    between atoms: C7_18  and  N4_19 
REMARK       I    between atoms: N4_19  and  C8_21 
REMARK       I    between atoms: C8_21  and  N5_23 
REMARK    9  A    between atoms: N5_23  and  C9_25 
ROOT
HETATM    1  C4  UNL     1       5.105   1.436  -5.071  1.00  0.00     0.081 A 
HETATM    2  C5  UNL     1       4.731   0.782  -6.200  1.00  0.00     0.027 A 
HETATM    3  C6  UNL     1       5.472   0.898  -7.345  1.00  0.00     0.031 A 
HETATM    4  C7  UNL     1       6.637   1.684  -7.417  1.00  0.00     0.036 A 
HETATM    5  C13 UNL     1       6.976   2.322  -6.262  1.00  0.00     0.031 A 
HETATM    6  C14 UNL     1       6.225   2.214  -5.073  1.00  0.00     0.027 A 
ENDROOT
BRANCH   1   7
HETATM    7  S3  UNL     1       4.187   1.320  -3.565  1.00  0.00     0.276 S 
HETATM    8  O1  UNL     1       4.544   2.488  -2.717  1.00  0.00    -0.199 OA
HETATM    9  O2  UNL     1       2.729   1.329  -3.973  1.00  0.00    -0.199 OA
BRANCH   7  10
HETATM   10  N3  UNL     1       4.543  -0.187  -2.797  1.00  0.00    -0.215 N 
ATOM     11  H3  UNL     1       3.788  -0.708  -2.351  1.00  0.00     0.201 HD
BRANCH  10  12
HETATM   12  N2  UNL     1       5.839  -0.713  -2.771  1.00  0.00    -0.241 N 
ATOM     13  H2  UNL     1       6.421  -0.756  -3.607  1.00  0.00     0.199 HD
BRANCH  12  14
HETATM   14  C3  UNL     1       6.253  -1.136  -1.637  1.00  0.00     0.070 C 
BRANCH  14  15
HETATM   15  N1  UNL     1       6.705  -1.577  -0.532  1.00  0.00    -0.292 N 
ATOM     16  H1  UNL     1       6.265  -1.343   0.357  1.00  0.00     0.178 HD
BRANCH  15  17
HETATM   17  C2  UNL     1       7.855  -2.413  -0.598  1.00  0.00     0.146 C 
HETATM   18  S2  UNL     1       8.509  -3.060   0.747  1.00  0.00    -0.052 SA
BRANCH  17  19
HETATM   19  S1  UNL     1       8.633  -2.790  -2.160  1.00  0.00    -0.104 SA
HETATM   20  C1  UNL     1       9.536  -4.366  -2.049  1.00  0.00     0.098 C 
ENDBRANCH  17  19
ENDBRANCH  15  17
ENDBRANCH  14  15
ENDBRANCH  12  14
ENDBRANCH  10  12
ENDBRANCH   7  10
ENDBRANCH   1   7
BRANCH   4  21
HETATM   21  N4  UNL     1       7.338   1.773  -8.637  1.00  0.00    -0.309 N 
HETATM   22  C8  UNL     1       8.589   1.214  -8.904  1.00  0.00     0.326 C 
HETATM   23  O3  UNL     1       9.236   0.557  -8.087  1.00  0.00    -0.247 OA
HETATM   24  N5  UNL     1       9.154   1.421 -10.223  1.00  0.00    -0.293 N 
ATOM     25  H5  UNL     1       9.958   2.034 -10.359  1.00  0.00     0.172 HD
ATOM     26  H4  UNL     1       6.891   2.292  -9.392  1.00  0.00     0.170 HD
BRANCH  24  27
HETATM   27  C9  UNL     1       8.604   0.800 -11.237  1.00  0.00     0.132 A 
HETATM   28  C10 UNL     1       8.386   1.271 -12.515  1.00  0.00     0.084 A 
HETATM   29  C11 UNL     1       7.780   0.261 -13.233  1.00  0.00     0.076 A 
HETATM   30  C12 UNL     1       7.340   0.264 -14.653  1.00  0.00     0.079 C 
HETATM   31  O4  UNL     1       7.651  -0.752 -12.410  1.00  0.00    -0.241 OA
HETATM   32  N6  UNL     1       8.128  -0.458 -11.234  1.00  0.00    -0.245 N 
ATOM     33  H6  UNL     1       8.139  -1.086 -10.431  1.00  0.00     0.196 HD
ENDBRANCH  24  27
ENDBRANCH   4  21
TORSDOF 9
ENDMDL
MODEL 4
REMARK VINA RESULT: -6.618094027      1.893      2.342
REMARK  9 active torsions:
REMARK  status: ('A' for Active; 'I' for Inactive)
REMARK    1  A    between atoms: S1_2  and  C2_3 
REMARK    2  A    between atoms: C2_3  and  N1_5 
REMARK    3  A    between atoms: N1_5  and  C3_7 
REMARK    4  A    between atoms: C3_7  and  N2_8 
REMARK    5  A    between atoms: N2_8  and  N3_10 
REMARK    6  A    between atoms: N3_10  and  S3_12 
REMARK    7  A    between atoms: S3_12  and  C4_15 
REMARK    8  A    between atoms: C7_18  and  N4_19 
REMARK       I    between atoms: N4_19  and  C8_21 
REMARK       I    between atoms: C8_21  and  N5_23 
REMARK    9  A    between atoms: N5_23  and  C9_25 
ROOT
HETATM    1  C4  UNL     1       3.974   1.483  -5.290  1.00  0.00     0.081 A 
HETATM    2  C5  UNL     1       4.190   1.253  -6.609  1.00  0.00     0.027 A 
HETATM    3  C6  UNL     1       5.447   1.379  -7.137  1.00  0.00     0.031 A 
HETATM    4  C7  UNL     1       6.561   1.748  -6.360  1.00  0.00     0.036 A 
HETATM    5  C13 UNL     1       6.299   1.969  -5.042  1.00  0.00     0.031 A 
HETATM    6  C14 UNL     1       5.011   1.843  -4.481  1.00  0.00     0.027 A 
ENDROOT
BRANCH   1   7
HETATM    7  S3  UNL     1       2.372   1.333  -4.555  1.00  0.00     0.276 S 
HETATM    8  O1  UNL     1       2.013   2.648  -3.962  1.00  0.00    -0.199 OA
HETATM    9  O2  UNL     1       1.442   0.936  -5.681  1.00  0.00    -0.199 OA
BRANCH   7  10
HETATM   10  N3  UNL     1       2.403   0.064  -3.382  1.00  0.00    -0.215 N 
ATOM     11  H3  UNL     1       2.460  -0.904  -3.699  1.00  0.00     0.201 HD
BRANCH  10  12
HETATM   12  N2  UNL     1       2.351   0.328  -2.009  1.00  0.00    -0.241 N 
ATOM     13  H2  UNL     1       2.753   1.175  -1.607  1.00  0.00     0.199 HD
BRANCH  12  14
HETATM   14  C3  UNL     1       1.771  -0.553  -1.286  1.00  0.00     0.070 C 
BRANCH  14  15
HETATM   15  N1  UNL     1       1.195  -1.398  -0.529  1.00  0.00    -0.292 N 
ATOM     16  H1  UNL     1       1.214  -1.306   0.487  1.00  0.00     0.178 HD
BRANCH  15  17
HETATM   17  C2  UNL     1       0.522  -2.477  -1.167  1.00  0.00     0.146 C 
HETATM   18  S2  UNL     1      -0.829  -2.232  -2.046  1.00  0.00    -0.052 SA
BRANCH  17  19
HETATM   19  S1  UNL     1       1.129  -4.150  -1.034  1.00  0.00    -0.104 SA
HETATM   20  C1  UNL     1       2.943  -4.176  -1.175  1.00  0.00     0.098 C 
ENDBRANCH  17  19
ENDBRANCH  15  17
ENDBRANCH  14  15
ENDBRANCH  12  14
ENDBRANCH  10  12
ENDBRANCH   7  10
ENDBRANCH   1   7
BRANCH   4  21
HETATM   21  N4  UNL     1       7.822   1.878  -6.977  1.00  0.00    -0.309 N 
HETATM   22  C8  UNL     1       8.781   0.871  -7.100  1.00  0.00     0.326 C 
HETATM   23  O3  UNL     1       8.628  -0.277  -6.680  1.00  0.00    -0.247 OA
HETATM   24  N5  UNL     1      10.028   1.202  -7.763  1.00  0.00    -0.293 N 
ATOM     25  H5  UNL     1      10.898   1.272  -7.237  1.00  0.00     0.172 HD
ATOM     26  H4  UNL     1       8.055   2.791  -7.368  1.00  0.00     0.170 HD
BRANCH  24  27
HETATM   27  C9  UNL     1      10.005   1.408  -9.057  1.00  0.00     0.132 A 
HETATM   28  C10 UNL     1       9.152   0.865  -9.996  1.00  0.00     0.084 A 
HETATM   29  C11 UNL     1       9.511   1.375 -11.227  1.00  0.00     0.076 A 
HETATM   30  C12 UNL     1       8.905   1.105 -12.557  1.00  0.00     0.079 C 
HETATM   31  O4  UNL     1      10.526   2.179 -11.013  1.00  0.00    -0.241 OA
HETATM   32  N6  UNL     1      10.831   2.213  -9.748  1.00  0.00    -0.245 N 
ATOM     33  H6  UNL     1      11.585   2.767  -9.341  1.00  0.00     0.196 HD
ENDBRANCH  24  27
ENDBRANCH   4  21
TORSDOF 9
ENDMDL
MODEL 5
REMARK VINA RESULT: -6.503779819      1.747      2.518
REMARK  9 active torsions:
REMARK  status: ('A' for Active; 'I' for Inactive)
REMARK    1  A    between atoms: S1_2  and  C2_3 
REMARK    2  A    between atoms: C2_3  and  N1_5 
REMARK    3  A    between atoms: N1_5  and  C3_7 
REMARK    4  A    between atoms: C3_7  and  N2_8 
REMARK    5  A    between atoms: N2_8  and  N3_10 
REMARK    6  A    between atoms: N3_10  and  S3_12 
REMARK    7  A    between atoms: S3_12  and  C4_15 
REMARK    8  A    between atoms: C7_18  and  N4_19 
REMARK       I    between atoms: N4_19  and  C8_21 
REMARK       I    between atoms: C8_21  and  N5_23 
REMARK    9  A    between atoms: N5_23  and  C9_25 
ROOT
HETATM    1  C4  UNL     1       3.775   1.637  -5.078  1.00  0.00     0.081 A 
HETATM    2  C5  UNL     1       3.867   1.000  -6.272  1.00  0.00     0.027 A 
HETATM    3  C6  UNL     1       5.087   0.805  -6.861  1.00  0.00     0.031 A 
HETATM    4  C7  UNL     1       6.289   1.245  -6.277  1.00  0.00     0.036 A 
HETATM    5  C13 UNL     1       6.151   1.880  -5.080  1.00  0.00     0.031 A 
HETATM    6  C14 UNL     1       4.902   2.089  -4.458  1.00  0.00     0.027 A 
ENDROOT
BRANCH   1   7
HETATM    7  S3  UNL     1       2.226   1.914  -4.272  1.00  0.00     0.276 S 
HETATM    8  O1  UNL     1       2.361   3.123  -3.418  1.00  0.00    -0.199 OA
HETATM    9  O2  UNL     1       1.215   2.103  -5.383  1.00  0.00    -0.199 OA
BRANCH   7  10
HETATM   10  N3  UNL     1       1.799   0.507  -3.363  1.00  0.00    -0.215 N 
ATOM     11  H3  UNL     1       1.434  -0.309  -3.853  1.00  0.00     0.201 HD
BRANCH  10  12
HETATM   12  N2  UNL     1       1.943   0.457  -1.972  1.00  0.00    -0.241 N 
ATOM     13  H2  UNL     1       1.518   1.154  -1.360  1.00  0.00     0.199 HD
BRANCH  12  14
HETATM   14  C3  UNL     1       2.637  -0.513  -1.511  1.00  0.00     0.070 C 
BRANCH  14  15
HETATM   15  N1  UNL     1       3.316  -1.464  -1.006  1.00  0.00    -0.292 N 
ATOM     16  H1  UNL     1       2.918  -2.093  -0.308  1.00  0.00     0.178 HD
BRANCH  15  17
HETATM   17  C2  UNL     1       4.656  -1.607  -1.461  1.00  0.00     0.146 C 
HETATM   18  S2  UNL     1       5.035  -1.459  -3.040  1.00  0.00    -0.052 SA
BRANCH  17  19
HETATM   19  S1  UNL     1       5.985  -1.955  -0.322  1.00  0.00    -0.104 SA
HETATM   20  C1  UNL     1       7.524  -2.291  -1.234  1.00  0.00     0.098 C 
ENDBRANCH  17  19
ENDBRANCH  15  17
ENDBRANCH  14  15
ENDBRANCH  12  14
ENDBRANCH  10  12
ENDBRANCH   7  10
ENDBRANCH   1   7
BRANCH   4  21
HETATM   21  N4  UNL     1       7.507   1.028  -6.952  1.00  0.00    -0.309 N 
HETATM   22  C8  UNL     1       7.869   1.574  -8.185  1.00  0.00     0.326 C 
HETATM   23  O3  UNL     1       7.149   2.332  -8.837  1.00  0.00    -0.247 OA
HETATM   24  N5  UNL     1       9.169   1.224  -8.724  1.00  0.00    -0.293 N 
ATOM     25  H5  UNL     1       9.253   0.614  -9.536  1.00  0.00     0.172 HD
ATOM     26  H4  UNL     1       8.186   0.417  -6.499  1.00  0.00     0.170 HD
BRANCH  24  27
HETATM   27  C9  UNL     1      10.234   1.715  -8.138  1.00  0.00     0.132 A 
HETATM   28  C10 UNL     1      10.300   2.644  -7.121  1.00  0.00     0.084 A 
HETATM   29  C11 UNL     1      11.634   2.850  -6.833  1.00  0.00     0.076 A 
HETATM   30  C12 UNL     1      12.237   3.754  -5.819  1.00  0.00     0.079 C 
HETATM   31  O4  UNL     1      12.312   2.076  -7.647  1.00  0.00    -0.241 OA
HETATM   32  N6  UNL     1      11.510   1.401  -8.420  1.00  0.00    -0.245 N 
ATOM     33  H6  UNL     1      11.806   0.734  -9.133  1.00  0.00     0.196 HD
ENDBRANCH  24  27
ENDBRANCH   4  21
TORSDOF 9
ENDMDL
