MODEL 1
REMARK VINA RESULT: -6.641853536      0.000      0.000
REMARK  7 active torsions:
REMARK  status: ('A' for Active; 'I' for Inactive)
REMARK       I    between atoms: C2_2  and  N1_4 
REMARK    1  A    between atoms: N1_4  and  C3_6 
REMARK    2  A    between atoms: C5_8  and  C6_9 
REMARK    3  A    between atoms: C6_9  and  N2_10 
REMARK    4  A    between atoms: C8_14  and  N3_15 
REMARK    5  A    between atoms: N3_15  and  C9_17 
REMARK    6  A    between atoms: C9_17  and  N4_19 
REMARK    7  A    between atoms: N4_19  and  C10_21 
ROOT
HETATM    1  N2  UNL     1       5.811  -0.368  -7.301  1.00  0.00    -0.377 N 
ATOM      2  H2  UNL     1       6.118  -1.212  -7.783  1.00  0.00     0.160 HD
HETATM    3  C7  UNL     1       5.600  -0.460  -6.029  1.00  0.00     0.141 A 
HETATM    4  S1  UNL     1       5.826  -1.937  -5.194  1.00  0.00    -0.048 SA
HETATM    5  C8  UNL     1       5.485  -1.843  -3.480  1.00  0.00     0.094 A 
HETATM    6  C14 UNL     1       5.098  -0.596  -3.120  1.00  0.00     0.131 A 
HETATM    7  N5  UNL     1       4.964   0.486  -3.901  1.00  0.00    -0.324 N 
HETATM    8  C15 UNL     1       4.518   1.720  -3.203  1.00  0.00     0.159 C 
HETATM    9  C16 UNL     1       5.186   0.567  -5.219  1.00  0.00     0.280 A 
HETATM   10  O2  UNL     1       4.996   1.710  -5.785  1.00  0.00    -0.265 OA
ENDROOT
BRANCH   1  11
HETATM   11  C6  UNL     1       5.655   0.797  -8.082  1.00  0.00     0.152 C 
BRANCH  11  12
HETATM   12  C5  UNL     1       6.676   0.806  -9.248  1.00  0.00     0.143 C 
HETATM   13  C4  UNL     1       7.678   1.876  -8.910  1.00  0.00     0.062 C 
HETATM   14  C3  UNL     1       8.836   1.029  -8.382  1.00  0.00     0.130 C 
HETATM   15  C17 UNL     1       8.677  -0.192  -9.299  1.00  0.00     0.240 C 
HETATM   16  O3  UNL     1       7.312  -0.408  -9.212  1.00  0.00    -0.362 OA
HETATM   17 CL1  UNL     1       9.632  -1.546  -8.699  1.00  0.00    -0.093 Cl
BRANCH  14  18
HETATM   18  N1  UNL     1      10.095   1.668  -8.565  1.00  0.00    -0.353 N 
HETATM   19  C2  UNL     1      10.638   2.446  -7.526  1.00  0.00     0.214 C 
HETATM   20  C1  UNL     1      11.944   3.112  -7.709  1.00  0.00     0.117 C 
HETATM   21  O1  UNL     1      10.017   2.586  -6.426  1.00  0.00    -0.274 OA
ATOM     22  H1  UNL     1      10.601   1.563  -9.445  1.00  0.00     0.163 HD
ENDBRANCH  14  18
ENDBRANCH  11  12
ENDBRANCH   1  11
BRANCH   5  23
HETATM   23  N3  UNL     1       5.637  -3.001  -2.688  1.00  0.00    -0.326 N 
ATOM     24  H3  UNL     1       5.173  -2.938  -1.782  1.00  0.00     0.169 HD
BRANCH  23  25
HETATM   25  C9  UNL     1       6.281  -4.189  -2.890  1.00  0.00     0.173 C 
HETATM   26  S2  UNL     1       5.223  -5.536  -2.815  1.00  0.00    -0.041 SA
BRANCH  25  27
HETATM   27  N4  UNL     1       7.620  -4.504  -3.142  1.00  0.00    -0.359 N 
ATOM     28  H4  UNL     1       7.889  -4.905  -4.041  1.00  0.00     0.162 HD
BRANCH  27  29
HETATM   29  C10 UNL     1       8.652  -4.257  -2.101  1.00  0.00     0.021 C 
HETATM   30  C11 UNL     1       9.852  -5.111  -2.419  1.00  0.00     0.037 C 
HETATM   31  C12 UNL     1       9.056  -2.812  -2.106  1.00  0.00     0.037 C 
HETATM   32  C13 UNL     1       8.135  -4.622  -0.748  1.00  0.00     0.037 C 
ENDBRANCH  27  29
ENDBRANCH  25  27
ENDBRANCH  23  25
ENDBRANCH   5  23
TORSDOF 7
ENDMDL
MODEL 2
REMARK VINA RESULT: -6.547037290      5.323      8.176
REMARK  7 active torsions:
REMARK  status: ('A' for Active; 'I' for Inactive)
REMARK       I    between atoms: C2_2  and  N1_4 
REMARK    1  A    between atoms: N1_4  and  C3_6 
REMARK    2  A    between atoms: C5_8  and  C6_9 
REMARK    3  A    between atoms: C6_9  and  N2_10 
REMARK    4  A    between atoms: C8_14  and  N3_15 
REMARK    5  A    between atoms: N3_15  and  C9_17 
REMARK    6  A    between atoms: C9_17  and  N4_19 
REMARK    7  A    between atoms: N4_19  and  C10_21 
ROOT
HETATM    1  N2  UNL     1       5.284  -3.665  -1.047  1.00  0.00    -0.377 N 
ATOM      2  H2  UNL     1       6.079  -3.027  -1.070  1.00  0.00     0.160 HD
HETATM    3  C7  UNL     1       4.108  -3.147  -1.183  1.00  0.00     0.141 A 
HETATM    4  S1  UNL     1       3.897  -1.461  -1.392  1.00  0.00    -0.048 SA
HETATM    5  C8  UNL     1       2.225  -0.970  -1.556  1.00  0.00     0.094 A 
HETATM    6  C14 UNL     1       1.388  -2.033  -1.487  1.00  0.00     0.131 A 
HETATM    7  N5  UNL     1       1.705  -3.324  -1.318  1.00  0.00    -0.324 N 
HETATM    8  C15 UNL     1       0.550  -4.261  -1.284  1.00  0.00     0.159 C 
HETATM    9  C16 UNL     1       2.929  -3.848  -1.178  1.00  0.00     0.280 A 
HETATM   10  O2  UNL     1       3.016  -5.126  -1.024  1.00  0.00    -0.265 OA
ENDROOT
BRANCH   1  11
HETATM   11  C6  UNL     1       5.567  -5.036  -0.870  1.00  0.00     0.152 C 
BRANCH  11  12
HETATM   12  C5  UNL     1       6.898  -5.216  -0.094  1.00  0.00     0.143 C 
HETATM   13  C4  UNL     1       7.899  -5.711  -1.102  1.00  0.00     0.062 C 
HETATM   14  C3  UNL     1       8.667  -4.422  -1.398  1.00  0.00     0.130 C 
HETATM   15  C17 UNL     1       8.613  -3.785  -0.003  1.00  0.00     0.240 C 
HETATM   16  O3  UNL     1       7.277  -3.965   0.315  1.00  0.00    -0.362 OA
HETATM   17 CL1  UNL     1       9.086  -2.089  -0.077  1.00  0.00    -0.093 Cl
BRANCH  14  18
HETATM   18  N1  UNL     1      10.005  -4.679  -1.811  1.00  0.00    -0.353 N 
HETATM   19  C2  UNL     1      10.255  -5.659  -2.790  1.00  0.00     0.214 C 
HETATM   20  C1  UNL     1      11.641  -5.930  -3.224  1.00  0.00     0.117 C 
HETATM   21  O1  UNL     1       9.300  -6.318  -3.309  1.00  0.00    -0.274 OA
ATOM     22  H1  UNL     1      10.778  -4.156  -1.400  1.00  0.00     0.163 HD
ENDBRANCH  14  18
ENDBRANCH  11  12
ENDBRANCH   1  11
BRANCH   5  23
HETATM   23  N3  UNL     1       1.929   0.398  -1.734  1.00  0.00    -0.326 N 
ATOM     24  H3  UNL     1       1.486   0.827  -0.922  1.00  0.00     0.169 HD
BRANCH  23  25
HETATM   25  C9  UNL     1       2.117   1.265  -2.774  1.00  0.00     0.173 C 
HETATM   26  S2  UNL     1       2.794   2.759  -2.276  1.00  0.00    -0.041 SA
BRANCH  25  27
HETATM   27  N4  UNL     1       1.863   1.159  -4.146  1.00  0.00    -0.359 N 
ATOM     28  H4  UNL     1       1.010   1.557  -4.538  1.00  0.00     0.162 HD
BRANCH  27  29
HETATM   29  C10 UNL     1       2.836   0.468  -5.031  1.00  0.00     0.021 C 
HETATM   30  C11 UNL     1       2.723   1.068  -6.409  1.00  0.00     0.037 C 
HETATM   31  C12 UNL     1       4.232   0.660  -4.518  1.00  0.00     0.037 C 
HETATM   32  C13 UNL     1       2.534  -0.994  -5.108  1.00  0.00     0.037 C 
ENDBRANCH  27  29
ENDBRANCH  25  27
ENDBRANCH  23  25
ENDBRANCH   5  23
TORSDOF 7
ENDMDL
MODEL 3
REMARK VINA RESULT: -6.533891891      3.311      7.174
REMARK  7 active torsions:
REMARK  status: ('A' for Active; 'I' for Inactive)
REMARK       I    between atoms: C2_2  and  N1_4 
REMARK    1  A    between atoms: N1_4  and  C3_6 
REMARK    2  A    between atoms: C5_8  and  C6_9 
REMARK    3  A    between atoms: C6_9  and  N2_10 
REMARK    4  A    between atoms: C8_14  and  N3_15 
REMARK    5  A    between atoms: N3_15  and  C9_17 
REMARK    6  A    between atoms: C9_17  and  N4_19 
REMARK    7  A    between atoms: N4_19  and  C10_21 
ROOT
HETATM    1  N2  UNL     1       4.955  -2.604  -4.757  1.00  0.00    -0.377 N 
ATOM      2  H2  UNL     1       5.047  -3.273  -5.521  1.00  0.00     0.160 HD
HETATM    3  C7  UNL     1       5.062  -1.351  -5.054  1.00  0.00     0.141 A 
HETATM    4  S1  UNL     1       5.345  -0.839  -6.663  1.00  0.00    -0.048 SA
HETATM    5  C8  UNL     1       5.455   0.898  -6.846  1.00  0.00     0.094 A 
HETATM    6  C14 UNL     1       5.294   1.532  -5.660  1.00  0.00     0.131 A 
HETATM    7  N5  UNL     1       5.074   0.987  -4.455  1.00  0.00    -0.324 N 
HETATM    8  C15 UNL     1       4.939   1.957  -3.336  1.00  0.00     0.159 C 
HETATM    9  C16 UNL     1       4.966  -0.315  -4.161  1.00  0.00     0.280 A 
HETATM   10  O2  UNL     1       4.753  -0.631  -2.928  1.00  0.00    -0.265 OA
ENDROOT
BRANCH   1  11
HETATM   11  C6  UNL     1       4.724  -3.130  -3.468  1.00  0.00     0.152 C 
BRANCH  11  12
HETATM   12  C5  UNL     1       5.120  -4.628  -3.418  1.00  0.00     0.143 C 
HETATM   13  C4  UNL     1       6.436  -4.730  -4.139  1.00  0.00     0.062 C 
HETATM   14  C3  UNL     1       7.404  -4.808  -2.959  1.00  0.00     0.130 C 
HETATM   15  C17 UNL     1       6.529  -5.605  -1.982  1.00  0.00     0.240 C 
HETATM   16  O3  UNL     1       5.327  -4.928  -2.097  1.00  0.00    -0.362 OA
HETATM   17 CL1  UNL     1       7.206  -5.549  -0.356  1.00  0.00    -0.093 Cl
BRANCH  14  18
HETATM   18  N1  UNL     1       8.599  -5.508  -3.292  1.00  0.00    -0.353 N 
HETATM   19  C2  UNL     1       9.819  -5.119  -2.707  1.00  0.00     0.214 C 
HETATM   20  C1  UNL     1      11.062  -5.841  -3.048  1.00  0.00     0.117 C 
HETATM   21  O1  UNL     1       9.867  -4.150  -1.887  1.00  0.00    -0.274 OA
ATOM     22  H1  UNL     1       8.572  -6.287  -3.950  1.00  0.00     0.163 HD
ENDBRANCH  14  18
ENDBRANCH  11  12
ENDBRANCH   1  11
BRANCH   5  23
HETATM   23  N3  UNL     1       5.687   1.437  -8.129  1.00  0.00    -0.326 N 
ATOM     24  H3  UNL     1       4.972   2.101  -8.427  1.00  0.00     0.169 HD
BRANCH  23  25
HETATM   25  C9  UNL     1       6.675   1.249  -9.054  1.00  0.00     0.173 C 
HETATM   26  S2  UNL     1       6.200   0.201 -10.327  1.00  0.00    -0.041 SA
BRANCH  25  27
HETATM   27  N4  UNL     1       7.979   1.745  -9.154  1.00  0.00    -0.359 N 
ATOM     28  H4  UNL     1       8.215   2.414  -9.887  1.00  0.00     0.162 HD
BRANCH  27  29
HETATM   29  C10 UNL     1       9.021   1.298  -8.193  1.00  0.00     0.021 C 
HETATM   30  C11 UNL     1      10.369   1.519  -8.828  1.00  0.00     0.037 C 
HETATM   31  C12 UNL     1       8.933   2.093  -6.925  1.00  0.00     0.037 C 
HETATM   32  C13 UNL     1       8.861  -0.155  -7.880  1.00  0.00     0.037 C 
ENDBRANCH  27  29
ENDBRANCH  25  27
ENDBRANCH  23  25
ENDBRANCH   5  23
TORSDOF 7
ENDMDL
MODEL 4
REMARK VINA RESULT: -6.466923445      0.957      1.354
REMARK  7 active torsions:
REMARK  status: ('A' for Active; 'I' for Inactive)
REMARK       I    between atoms: C2_2  and  N1_4 
REMARK    1  A    between atoms: N1_4  and  C3_6 
REMARK    2  A    between atoms: C5_8  and  C6_9 
REMARK    3  A    between atoms: C6_9  and  N2_10 
REMARK    4  A    between atoms: C8_14  and  N3_15 
REMARK    5  A    between atoms: N3_15  and  C9_17 
REMARK    6  A    between atoms: C9_17  and  N4_19 
REMARK    7  A    between atoms: N4_19  and  C10_21 
ROOT
HETATM    1  N2  UNL     1       5.707  -0.353  -7.582  1.00  0.00    -0.377 N 
ATOM      2  H2  UNL     1       5.916  -1.210  -8.094  1.00  0.00     0.160 HD
HETATM    3  C7  UNL     1       5.530  -0.458  -6.306  1.00  0.00     0.141 A 
HETATM    4  S1  UNL     1       5.643  -1.971  -5.513  1.00  0.00    -0.048 SA
HETATM    5  C8  UNL     1       5.370  -1.890  -3.786  1.00  0.00     0.094 A 
HETATM    6  C14 UNL     1       5.115  -0.622  -3.385  1.00  0.00     0.131 A 
HETATM    7  N5  UNL     1       5.058   0.487  -4.135  1.00  0.00    -0.324 N 
HETATM    8  C15 UNL     1       4.754   1.740  -3.394  1.00  0.00     0.159 C 
HETATM    9  C16 UNL     1       5.243   0.581  -5.458  1.00  0.00     0.280 A 
HETATM   10  O2  UNL     1       5.144   1.752  -5.991  1.00  0.00    -0.265 OA
ENDROOT
BRANCH   1  11
HETATM   11  C6  UNL     1       5.636   0.841  -8.330  1.00  0.00     0.152 C 
BRANCH  11  12
HETATM   12  C5  UNL     1       6.735   0.859  -9.423  1.00  0.00     0.143 C 
HETATM   13  C4  UNL     1       7.731   1.900  -8.989  1.00  0.00     0.062 C 
HETATM   14  C3  UNL     1       8.834   1.015  -8.407  1.00  0.00     0.130 C 
HETATM   15  C17 UNL     1       8.715  -0.178  -9.365  1.00  0.00     0.240 C 
HETATM   16  O3  UNL     1       7.344  -0.368  -9.377  1.00  0.00    -0.362 OA
HETATM   17 CL1  UNL     1       9.602  -1.566  -8.739  1.00  0.00    -0.093 Cl
BRANCH  14  18
HETATM   18  N1  UNL     1      10.114   1.633  -8.487  1.00  0.00    -0.353 N 
HETATM   19  C2  UNL     1      10.570   2.430  -7.420  1.00  0.00     0.214 C 
HETATM   20  C1  UNL     1      11.898   3.074  -7.497  1.00  0.00     0.117 C 
HETATM   21  O1  UNL     1       9.852   2.606  -6.387  1.00  0.00    -0.274 OA
ATOM     22  H1  UNL     1      10.698   1.499  -9.312  1.00  0.00     0.163 HD
ENDBRANCH  14  18
ENDBRANCH  11  12
ENDBRANCH   1  11
BRANCH   5  23
HETATM   23  N3  UNL     1       5.438  -3.077  -3.027  1.00  0.00    -0.326 N 
ATOM     24  H3  UNL     1       5.465  -3.923  -3.597  1.00  0.00     0.169 HD
BRANCH  23  25
HETATM   25  C9  UNL     1       5.476  -3.324  -1.684  1.00  0.00     0.173 C 
HETATM   26  S2  UNL     1       4.201  -4.344  -1.161  1.00  0.00    -0.041 SA
BRANCH  25  27
HETATM   27  N4  UNL     1       6.348  -2.905  -0.673  1.00  0.00    -0.359 N 
ATOM     28  H4  UNL     1       6.022  -2.259   0.046  1.00  0.00     0.162 HD
BRANCH  27  29
HETATM   29  C10 UNL     1       7.749  -3.400  -0.647  1.00  0.00     0.021 C 
HETATM   30  C11 UNL     1       8.304  -3.161   0.734  1.00  0.00     0.037 C 
HETATM   31  C12 UNL     1       7.786  -4.868  -0.949  1.00  0.00     0.037 C 
HETATM   32  C13 UNL     1       8.587  -2.668  -1.644  1.00  0.00     0.037 C 
ENDBRANCH  27  29
ENDBRANCH  25  27
ENDBRANCH  23  25
ENDBRANCH   5  23
TORSDOF 7
ENDMDL
MODEL 5
REMARK VINA RESULT: -6.464587377      3.417      7.521
REMARK  7 active torsions:
REMARK  status: ('A' for Active; 'I' for Inactive)
REMARK       I    between atoms: C2_2  and  N1_4 
REMARK    1  A    between atoms: N1_4  and  C3_6 
REMARK    2  A    between atoms: C5_8  and  C6_9 
REMARK    3  A    between atoms: C6_9  and  N2_10 
REMARK    4  A    between atoms: C8_14  and  N3_15 
REMARK    5  A    between atoms: N3_15  and  C9_17 
REMARK    6  A    between atoms: C9_17  and  N4_19 
REMARK    7  A    between atoms: N4_19  and  C10_21 
ROOT
HETATM    1  N2  UNL     1       5.299  -2.486  -4.653  1.00  0.00    -0.377 N 
ATOM      2  H2  UNL     1       5.648  -3.099  -5.389  1.00  0.00     0.160 HD
HETATM    3  C7  UNL     1       5.326  -1.215  -4.883  1.00  0.00     0.141 A 
HETATM    4  S1  UNL     1       5.924  -0.590  -6.361  1.00  0.00    -0.048 SA
HETATM    5  C8  UNL     1       5.871   1.156  -6.466  1.00  0.00     0.094 A 
HETATM    6  C14 UNL     1       5.357   1.705  -5.340  1.00  0.00     0.131 A 
HETATM    7  N5  UNL     1       4.921   1.076  -4.239  1.00  0.00    -0.324 N 
HETATM    8  C15 UNL     1       4.409   1.965  -3.163  1.00  0.00     0.159 C 
HETATM    9  C16 UNL     1       4.898  -0.244  -4.014  1.00  0.00     0.280 A 
HETATM   10  O2  UNL     1       4.435  -0.646  -2.879  1.00  0.00    -0.265 OA
ENDROOT
BRANCH   1  11
HETATM   11  C6  UNL     1       4.828  -3.102  -3.473  1.00  0.00     0.152 C 
BRANCH  11  12
HETATM   12  C5  UNL     1       5.247  -4.595  -3.441  1.00  0.00     0.143 C 
HETATM   13  C4  UNL     1       6.598  -4.658  -4.098  1.00  0.00     0.062 C 
HETATM   14  C3  UNL     1       7.508  -4.752  -2.873  1.00  0.00     0.130 C 
HETATM   15  C17 UNL     1       6.598  -5.587  -1.961  1.00  0.00     0.240 C 
HETATM   16  O3  UNL     1       5.392  -4.925  -2.119  1.00  0.00    -0.362 OA
HETATM   17 CL1  UNL     1       7.191  -5.563  -0.302  1.00  0.00    -0.093 Cl
BRANCH  14  18
HETATM   18  N1  UNL     1       8.729  -5.425  -3.162  1.00  0.00    -0.353 N 
HETATM   19  C2  UNL     1       9.911  -5.032  -2.508  1.00  0.00     0.214 C 
HETATM   20  C1  UNL     1      11.182  -5.725  -2.803  1.00  0.00     0.117 C 
HETATM   21  O1  UNL     1       9.902  -4.083  -1.663  1.00  0.00    -0.274 OA
ATOM     22  H1  UNL     1       8.747  -6.187  -3.839  1.00  0.00     0.163 HD
ENDBRANCH  14  18
ENDBRANCH  11  12
ENDBRANCH   1  11
BRANCH   5  23
HETATM   23  N3  UNL     1       6.339   1.784  -7.640  1.00  0.00    -0.326 N 
ATOM     24  H3  UNL     1       5.591   2.140  -8.236  1.00  0.00     0.169 HD
BRANCH  23  25
HETATM   25  C9  UNL     1       7.590   2.011  -8.140  1.00  0.00     0.173 C 
HETATM   26  S2  UNL     1       8.779   2.149  -6.912  1.00  0.00    -0.041 SA
BRANCH  25  27
HETATM   27  N4  UNL     1       8.071   2.149  -9.446  1.00  0.00    -0.359 N 
ATOM     28  H4  UNL     1       8.327   3.071  -9.800  1.00  0.00     0.162 HD
BRANCH  27  29
HETATM   29  C10 UNL     1       8.210   0.954 -10.319  1.00  0.00     0.021 C 
HETATM   30  C11 UNL     1       9.152   1.302 -11.442  1.00  0.00     0.037 C 
HETATM   31  C12 UNL     1       8.772  -0.196  -9.537  1.00  0.00     0.037 C 
HETATM   32  C13 UNL     1       6.887   0.564 -10.893  1.00  0.00     0.037 C 
ENDBRANCH  27  29
ENDBRANCH  25  27
ENDBRANCH  23  25
ENDBRANCH   5  23
TORSDOF 7
ENDMDL
