MODEL 1
REMARK VINA RESULT: -8.291715519      0.000      0.000
REMARK  8 active torsions:
REMARK  status: ('A' for Active; 'I' for Inactive)
REMARK    1  A    between atoms: O1_2  and  C2_3 
REMARK       I    between atoms: C2_3  and  N1_5 
REMARK    2  A    between atoms: N1_5  and  C3_6 
REMARK    3  A    between atoms: C3_6  and  N2_7 
REMARK    4  A    between atoms: C3_6  and  C11_18 
REMARK       I    between atoms: N2_7  and  C4_9 
REMARK    5  A    between atoms: C4_9  and  C5_11 
REMARK       I    between atoms: C11_18  and  N3_20 
REMARK    6  A    between atoms: N3_20  and  N4_22 
REMARK       I    between atoms: N4_22  and  C12_24 
REMARK    7  A    between atoms: C12_24  and  C13_26 
REMARK    8  A    between atoms: C16_29  and  N5_30 
ROOT
HETATM    1  C3  UNL     1       9.194   0.538  -9.682  1.00  0.00     0.258 C 
ENDROOT
BRANCH   1   2
HETATM    2  N1  UNL     1      10.058   1.404  -9.795  1.00  0.00    -0.321 NA
HETATM    3  C2  UNL     1      11.072   2.185  -9.997  1.00  0.00     0.441 C 
HETATM    4  O2  UNL     1      11.443   2.642 -11.134  1.00  0.00    -0.221 OA
BRANCH   3   5
HETATM    5  O1  UNL     1      11.906   2.631  -8.943  1.00  0.00    -0.297 OA
HETATM    6  C1  UNL     1      11.557   2.521  -7.590  1.00  0.00     0.216 C 
ENDBRANCH   3   5
ENDBRANCH   1   2
BRANCH   1   7
HETATM    7  N2  UNL     1       8.114   0.565 -10.583  1.00  0.00    -0.293 N 
HETATM    8  C4  UNL     1       8.102   0.627 -11.962  1.00  0.00     0.258 C 
HETATM    9  O3  UNL     1       9.039   0.670 -12.788  1.00  0.00    -0.267 OA
ATOM     10  H2  UNL     1       7.192   0.533 -10.147  1.00  0.00     0.172 HD
BRANCH   8  11
HETATM   11  C5  UNL     1       6.768   0.648 -12.643  1.00  0.00     0.032 A 
HETATM   12  C6  UNL     1       5.643   0.286 -11.965  1.00  0.00     0.018 A 
HETATM   13  C7  UNL     1       4.386   0.292 -12.594  1.00  0.00     0.025 A 
HETATM   14  C8  UNL     1       4.280   0.665 -13.905  1.00  0.00     0.034 A 
HETATM   15 CL1  UNL     1       2.702   0.667 -14.677  1.00  0.00    -0.084 Cl
HETATM   16  C9  UNL     1       5.411   1.032 -14.597  1.00  0.00     0.025 A 
HETATM   17  C10 UNL     1       6.640   1.021 -13.967  1.00  0.00     0.018 A 
ENDBRANCH   8  11
ENDBRANCH   1   7
BRANCH   1  18
HETATM   18  C11 UNL     1       9.343  -0.456  -8.635  1.00  0.00     0.318 C 
HETATM   19  O4  UNL     1       9.913  -1.548  -8.684  1.00  0.00    -0.261 OA
HETATM   20  N3  UNL     1       8.751  -0.162  -7.335  1.00  0.00    -0.260 N 
ATOM     21  H3  UNL     1       8.252   0.710  -7.162  1.00  0.00     0.190 HD
BRANCH  20  22
HETATM   22  N4  UNL     1       8.897  -1.120  -6.342  1.00  0.00    -0.263 N 
HETATM   23  C12 UNL     1       7.753  -1.707  -5.760  1.00  0.00     0.270 C 
HETATM   24  O5  UNL     1       6.608  -1.342  -6.168  1.00  0.00    -0.266 OA
ATOM     25  H4  UNL     1       9.828  -1.400  -6.034  1.00  0.00     0.190 HD
BRANCH  23  26
HETATM   26  C13 UNL     1       7.829  -2.718  -4.706  1.00  0.00     0.033 A 
HETATM   27  C14 UNL     1       6.915  -3.734  -4.587  1.00  0.00     0.019 A 
HETATM   28  C15 UNL     1       7.035  -4.677  -3.558  1.00  0.00     0.037 A 
HETATM   29  C16 UNL     1       8.057  -4.624  -2.637  1.00  0.00     0.102 A 
HETATM   30  C17 UNL     1       8.972  -3.602  -2.761  1.00  0.00     0.037 A 
HETATM   31  C18 UNL     1       8.853  -2.672  -3.777  1.00  0.00     0.019 A 
BRANCH  29  32
HETATM   32  N5  UNL     1       8.157  -5.591  -1.604  1.00  0.00    -0.116 N 
HETATM   33  O6  UNL     1       7.465  -5.485  -0.590  1.00  0.00    -0.532 OA
HETATM   34  O7  UNL     1       9.014  -6.663  -1.694  1.00  0.00    -0.532 OA
ENDBRANCH  29  32
ENDBRANCH  23  26
ENDBRANCH  20  22
ENDBRANCH   1  18
TORSDOF 8
ENDMDL
MODEL 2
REMARK VINA RESULT: -8.068885202      3.972     10.126
REMARK  8 active torsions:
REMARK  status: ('A' for Active; 'I' for Inactive)
REMARK    1  A    between atoms: O1_2  and  C2_3 
REMARK       I    between atoms: C2_3  and  N1_5 
REMARK    2  A    between atoms: N1_5  and  C3_6 
REMARK    3  A    between atoms: C3_6  and  N2_7 
REMARK    4  A    between atoms: C3_6  and  C11_18 
REMARK       I    between atoms: N2_7  and  C4_9 
REMARK    5  A    between atoms: C4_9  and  C5_11 
REMARK       I    between atoms: C11_18  and  N3_20 
REMARK    6  A    between atoms: N3_20  and  N4_22 
REMARK       I    between atoms: N4_22  and  C12_24 
REMARK    7  A    between atoms: C12_24  and  C13_26 
REMARK    8  A    between atoms: C16_29  and  N5_30 
ROOT
HETATM    1  C3  UNL     1       7.056  -3.748  -2.655  1.00  0.00     0.258 C 
ENDROOT
BRANCH   1   2
HETATM    2  N1  UNL     1       7.523  -4.743  -2.108  1.00  0.00    -0.321 NA
HETATM    3  C2  UNL     1       8.103  -5.672  -1.416  1.00  0.00     0.441 C 
HETATM    4  O2  UNL     1       7.807  -6.000  -0.215  1.00  0.00    -0.221 OA
BRANCH   3   5
HETATM    5  O1  UNL     1       9.166  -6.452  -1.937  1.00  0.00    -0.297 OA
HETATM    6  C1  UNL     1      10.183  -5.922  -2.742  1.00  0.00     0.216 C 
ENDBRANCH   3   5
ENDBRANCH   1   2
BRANCH   1   7
HETATM    7  N2  UNL     1       5.697  -3.454  -2.436  1.00  0.00    -0.293 N 
HETATM    8  C4  UNL     1       5.093  -2.701  -1.449  1.00  0.00     0.258 C 
HETATM    9  O3  UNL     1       5.580  -2.070  -0.487  1.00  0.00    -0.267 OA
ATOM     10  H2  UNL     1       5.056  -3.864  -3.116  1.00  0.00     0.172 HD
BRANCH   8  11
HETATM   11  C5  UNL     1       3.600  -2.580  -1.485  1.00  0.00     0.032 A 
HETATM   12  C6  UNL     1       2.827  -3.675  -1.731  1.00  0.00     0.018 A 
HETATM   13  C7  UNL     1       1.426  -3.575  -1.777  1.00  0.00     0.025 A 
HETATM   14  C8  UNL     1       0.821  -2.366  -1.573  1.00  0.00     0.034 A 
HETATM   15 CL1  UNL     1      -0.932  -2.258  -1.632  1.00  0.00    -0.084 Cl
HETATM   16  C9  UNL     1       1.594  -1.256  -1.323  1.00  0.00     0.025 A 
HETATM   17  C10 UNL     1       2.970  -1.368  -1.281  1.00  0.00     0.018 A 
ENDBRANCH   8  11
ENDBRANCH   1   7
BRANCH   1  18
HETATM   18  C11 UNL     1       7.929  -2.939  -3.485  1.00  0.00     0.318 C 
HETATM   19  O4  UNL     1       9.122  -2.675  -3.319  1.00  0.00    -0.261 OA
HETATM   20  N3  UNL     1       7.357  -2.339  -4.685  1.00  0.00    -0.260 N 
ATOM     21  H3  UNL     1       6.379  -2.482  -4.937  1.00  0.00     0.190 HD
BRANCH  20  22
HETATM   22  N4  UNL     1       8.201  -1.566  -5.470  1.00  0.00    -0.263 N 
HETATM   23  C12 UNL     1       7.702  -0.948  -6.637  1.00  0.00     0.270 C 
HETATM   24  O5  UNL     1       6.481  -1.114  -6.938  1.00  0.00    -0.266 OA
ATOM     25  H4  UNL     1       9.178  -1.445  -5.204  1.00  0.00     0.190 HD
BRANCH  23  26
HETATM   26  C13 UNL     1       8.533  -0.125  -7.515  1.00  0.00     0.033 A 
HETATM   27  C14 UNL     1       9.185   1.000  -7.075  1.00  0.00     0.019 A 
HETATM   28  C15 UNL     1       9.969   1.752  -7.959  1.00  0.00     0.037 A 
HETATM   29  C16 UNL     1      10.114   1.403  -9.283  1.00  0.00     0.102 A 
HETATM   30  C17 UNL     1       9.458   0.274  -9.718  1.00  0.00     0.037 A 
HETATM   31  C18 UNL     1       8.684  -0.470  -8.845  1.00  0.00     0.019 A 
BRANCH  29  32
HETATM   32  N5  UNL     1      10.914   2.182 -10.158  1.00  0.00    -0.116 N 
HETATM   33  O6  UNL     1      11.844   2.855  -9.709  1.00  0.00    -0.532 OA
HETATM   34  O7  UNL     1      10.687   2.215 -11.514  1.00  0.00    -0.532 OA
ENDBRANCH  29  32
ENDBRANCH  23  26
ENDBRANCH  20  22
ENDBRANCH   1  18
TORSDOF 8
ENDMDL
MODEL 3
REMARK VINA RESULT: -7.796206468      1.664      2.091
REMARK  8 active torsions:
REMARK  status: ('A' for Active; 'I' for Inactive)
REMARK    1  A    between atoms: O1_2  and  C2_3 
REMARK       I    between atoms: C2_3  and  N1_5 
REMARK    2  A    between atoms: N1_5  and  C3_6 
REMARK    3  A    between atoms: C3_6  and  N2_7 
REMARK    4  A    between atoms: C3_6  and  C11_18 
REMARK       I    between atoms: N2_7  and  C4_9 
REMARK    5  A    between atoms: C4_9  and  C5_11 
REMARK       I    between atoms: C11_18  and  N3_20 
REMARK    6  A    between atoms: N3_20  and  N4_22 
REMARK       I    between atoms: N4_22  and  C12_24 
REMARK    7  A    between atoms: C12_24  and  C13_26 
REMARK    8  A    between atoms: C16_29  and  N5_30 
ROOT
HETATM    1  C3  UNL     1       9.450   1.344  -8.907  1.00  0.00     0.258 C 
ENDROOT
BRANCH   1   2
HETATM    2  N1  UNL     1      10.515   1.953  -8.977  1.00  0.00    -0.321 NA
HETATM    3  C2  UNL     1      11.716   2.427  -9.079  1.00  0.00     0.441 C 
HETATM    4  O2  UNL     1      12.396   2.503 -10.161  1.00  0.00    -0.221 OA
BRANCH   3   5
HETATM    5  O1  UNL     1      12.430   2.929  -7.962  1.00  0.00    -0.297 OA
HETATM    6  C1  UNL     1      11.827   3.198  -6.726  1.00  0.00     0.216 C 
ENDBRANCH   3   5
ENDBRANCH   1   2
BRANCH   1   7
HETATM    7  N2  UNL     1       8.707   1.184 -10.091  1.00  0.00    -0.293 N 
HETATM    8  C4  UNL     1       8.074   0.070 -10.605  1.00  0.00     0.258 C 
HETATM    9  O3  UNL     1       7.981  -1.096 -10.164  1.00  0.00    -0.267 OA
ATOM     10  H2  UNL     1       8.621   2.026 -10.660  1.00  0.00     0.172 HD
BRANCH   8  11
HETATM   11  C5  UNL     1       7.358   0.220 -11.913  1.00  0.00     0.032 A 
HETATM   12  C6  UNL     1       8.059   0.277 -13.079  1.00  0.00     0.018 A 
HETATM   13  C7  UNL     1       7.401   0.427 -14.311  1.00  0.00     0.025 A 
HETATM   14  C8  UNL     1       6.038   0.518 -14.352  1.00  0.00     0.034 A 
HETATM   15 CL1  UNL     1       5.230   0.705 -15.901  1.00  0.00    -0.084 Cl
HETATM   16  C9  UNL     1       5.322   0.461 -13.178  1.00  0.00     0.025 A 
HETATM   17  C10 UNL     1       5.980   0.314 -11.973  1.00  0.00     0.018 A 
ENDBRANCH   8  11
ENDBRANCH   1   7
BRANCH   1  18
HETATM   18  C11 UNL     1       9.029   0.828  -7.618  1.00  0.00     0.318 C 
HETATM   19  O4  UNL     1       8.552   1.442  -6.661  1.00  0.00    -0.261 OA
HETATM   20  N3  UNL     1       9.175  -0.603  -7.382  1.00  0.00    -0.260 N 
ATOM     21  H3  UNL     1       9.556  -1.224  -8.096  1.00  0.00     0.190 HD
BRANCH  20  22
HETATM   22  N4  UNL     1       8.771  -1.085  -6.145  1.00  0.00    -0.263 N 
HETATM   23  C12 UNL     1       7.546  -1.777  -6.028  1.00  0.00     0.270 C 
HETATM   24  O5  UNL     1       6.842  -1.947  -7.069  1.00  0.00    -0.266 OA
ATOM     25  H4  UNL     1       9.357  -0.939  -5.323  1.00  0.00     0.190 HD
BRANCH  23  26
HETATM   26  C13 UNL     1       7.054  -2.308  -4.757  1.00  0.00     0.033 A 
HETATM   27  C14 UNL     1       5.741  -2.203  -4.370  1.00  0.00     0.019 A 
HETATM   28  C15 UNL     1       5.323  -2.729  -3.141  1.00  0.00     0.037 A 
HETATM   29  C16 UNL     1       6.196  -3.361  -2.283  1.00  0.00     0.102 A 
HETATM   30  C17 UNL     1       7.511  -3.462  -2.677  1.00  0.00     0.037 A 
HETATM   31  C18 UNL     1       7.924  -2.943  -3.890  1.00  0.00     0.019 A 
BRANCH  29  32
HETATM   32  N5  UNL     1       5.747  -3.886  -1.044  1.00  0.00    -0.116 N 
HETATM   33  O6  UNL     1       4.587  -4.286  -0.928  1.00  0.00    -0.532 OA
HETATM   34  O7  UNL     1       6.573  -3.966   0.052  1.00  0.00    -0.532 OA
ENDBRANCH  29  32
ENDBRANCH  23  26
ENDBRANCH  20  22
ENDBRANCH   1  18
TORSDOF 8
ENDMDL
MODEL 4
REMARK VINA RESULT: -7.755204263      1.369      1.802
REMARK  8 active torsions:
REMARK  status: ('A' for Active; 'I' for Inactive)
REMARK    1  A    between atoms: O1_2  and  C2_3 
REMARK       I    between atoms: C2_3  and  N1_5 
REMARK    2  A    between atoms: N1_5  and  C3_6 
REMARK    3  A    between atoms: C3_6  and  N2_7 
REMARK    4  A    between atoms: C3_6  and  C11_18 
REMARK       I    between atoms: N2_7  and  C4_9 
REMARK    5  A    between atoms: C4_9  and  C5_11 
REMARK       I    between atoms: C11_18  and  N3_20 
REMARK    6  A    between atoms: N3_20  and  N4_22 
REMARK       I    between atoms: N4_22  and  C12_24 
REMARK    7  A    between atoms: C12_24  and  C13_26 
REMARK    8  A    between atoms: C16_29  and  N5_30 
ROOT
HETATM    1  C3  UNL     1       8.854   1.239  -8.954  1.00  0.00     0.258 C 
ENDROOT
BRANCH   1   2
HETATM    2  N1  UNL     1       9.877   1.807  -9.328  1.00  0.00    -0.321 NA
HETATM    3  C2  UNL     1      11.001   2.242  -9.804  1.00  0.00     0.441 C 
HETATM    4  O2  UNL     1      11.244   2.479 -11.038  1.00  0.00    -0.221 OA
BRANCH   3   5
HETATM    5  O1  UNL     1      12.120   2.512  -8.977  1.00  0.00    -0.297 OA
HETATM    6  C1  UNL     1      12.008   2.839  -7.619  1.00  0.00     0.216 C 
ENDBRANCH   3   5
ENDBRANCH   1   2
BRANCH   1   7
HETATM    7  N2  UNL     1       7.801   1.105  -9.877  1.00  0.00    -0.293 N 
HETATM    8  C4  UNL     1       7.291  -0.019 -10.494  1.00  0.00     0.258 C 
HETATM    9  O3  UNL     1       7.615  -1.223 -10.400  1.00  0.00    -0.267 OA
ATOM     10  H2  UNL     1       7.341   1.980 -10.132  1.00  0.00     0.172 HD
BRANCH   8  11
HETATM   11  C5  UNL     1       6.152   0.170 -11.449  1.00  0.00     0.032 A 
HETATM   12  C6  UNL     1       6.387   0.290 -12.785  1.00  0.00     0.018 A 
HETATM   13  C7  UNL     1       5.330   0.477 -13.691  1.00  0.00     0.025 A 
HETATM   14  C8  UNL     1       4.043   0.540 -13.235  1.00  0.00     0.034 A 
HETATM   15 CL1  UNL     1       2.731   0.774 -14.381  1.00  0.00    -0.084 Cl
HETATM   16  C9  UNL     1       3.796   0.419 -11.887  1.00  0.00     0.025 A 
HETATM   17  C10 UNL     1       4.844   0.236 -11.007  1.00  0.00     0.018 A 
ENDBRANCH   8  11
ENDBRANCH   1   7
BRANCH   1  18
HETATM   18  C11 UNL     1       8.796   0.742  -7.592  1.00  0.00     0.318 C 
HETATM   19  O4  UNL     1       8.722   1.382  -6.541  1.00  0.00    -0.261 OA
HETATM   20  N3  UNL     1       8.828  -0.703  -7.398  1.00  0.00    -0.260 N 
ATOM     21  H3  UNL     1       8.888  -1.345  -8.188  1.00  0.00     0.190 HD
BRANCH  20  22
HETATM   22  N4  UNL     1       8.775  -1.167  -6.091  1.00  0.00    -0.263 N 
HETATM   23  C12 UNL     1       7.681  -1.955  -5.671  1.00  0.00     0.270 C 
HETATM   24  O5  UNL     1       6.769  -2.225  -6.510  1.00  0.00    -0.266 OA
ATOM     25  H4  UNL     1       9.523  -0.940  -5.436  1.00  0.00     0.190 HD
BRANCH  23  26
HETATM   26  C13 UNL     1       7.554  -2.473  -4.310  1.00  0.00     0.033 A 
HETATM   27  C14 UNL     1       6.340  -2.745  -3.731  1.00  0.00     0.019 A 
HETATM   28  C15 UNL     1       6.275  -3.241  -2.423  1.00  0.00     0.037 A 
HETATM   29  C16 UNL     1       7.408  -3.471  -1.674  1.00  0.00     0.102 A 
HETATM   30  C17 UNL     1       8.623  -3.196  -2.259  1.00  0.00     0.037 A 
HETATM   31  C18 UNL     1       8.687  -2.707  -3.551  1.00  0.00     0.019 A 
BRANCH  29  32
HETATM   32  N5  UNL     1       7.315  -3.974  -0.351  1.00  0.00    -0.116 N 
HETATM   33  O6  UNL     1       7.083  -5.170  -0.160  1.00  0.00    -0.532 OA
HETATM   34  O7  UNL     1       7.479  -3.163   0.748  1.00  0.00    -0.532 OA
ENDBRANCH  29  32
ENDBRANCH  23  26
ENDBRANCH  20  22
ENDBRANCH   1  18
TORSDOF 8
ENDMDL
MODEL 5
REMARK VINA RESULT: -7.722140364      4.313      4.727
REMARK  8 active torsions:
REMARK  status: ('A' for Active; 'I' for Inactive)
REMARK    1  A    between atoms: O1_2  and  C2_3 
REMARK       I    between atoms: C2_3  and  N1_5 
REMARK    2  A    between atoms: N1_5  and  C3_6 
REMARK    3  A    between atoms: C3_6  and  N2_7 
REMARK    4  A    between atoms: C3_6  and  C11_18 
REMARK       I    between atoms: N2_7  and  C4_9 
REMARK    5  A    between atoms: C4_9  and  C5_11 
REMARK       I    between atoms: C11_18  and  N3_20 
REMARK    6  A    between atoms: N3_20  and  N4_22 
REMARK       I    between atoms: N4_22  and  C12_24 
REMARK    7  A    between atoms: C12_24  and  C13_26 
REMARK    8  A    between atoms: C16_29  and  N5_30 
ROOT
HETATM    1  C3  UNL     1       8.897   1.458 -10.648  1.00  0.00     0.258 C 
ENDROOT
BRANCH   1   2
HETATM    2  N1  UNL     1      10.047   1.868 -10.777  1.00  0.00    -0.321 NA
HETATM    3  C2  UNL     1      11.309   2.120 -10.927  1.00  0.00     0.441 C 
HETATM    4  O2  UNL     1      11.970   1.985 -12.015  1.00  0.00    -0.221 OA
BRANCH   3   5
HETATM    5  O1  UNL     1      12.120   2.588  -9.864  1.00  0.00    -0.297 OA
HETATM    6  C1  UNL     1      11.707   2.580  -8.524  1.00  0.00     0.216 C 
ENDBRANCH   3   5
ENDBRANCH   1   2
BRANCH   1   7
HETATM    7  N2  UNL     1       8.216   1.036 -11.804  1.00  0.00    -0.293 N 
HETATM    8  C4  UNL     1       7.614  -0.172 -12.096  1.00  0.00     0.258 C 
HETATM    9  O3  UNL     1       7.501  -1.216 -11.419  1.00  0.00    -0.267 OA
ATOM     10  H2  UNL     1       8.158   1.733 -12.546  1.00  0.00     0.172 HD
BRANCH   8  11
HETATM   11  C5  UNL     1       6.966  -0.317 -13.440  1.00  0.00     0.032 A 
HETATM   12  C6  UNL     1       7.501   0.297 -14.532  1.00  0.00     0.018 A 
HETATM   13  C7  UNL     1       6.899   0.177 -15.796  1.00  0.00     0.025 A 
HETATM   14  C8  UNL     1       5.761  -0.565 -15.943  1.00  0.00     0.034 A 
HETATM   15 CL1  UNL     1       5.021  -0.706 -17.530  1.00  0.00    -0.084 Cl
HETATM   16  C9  UNL     1       5.215  -1.189 -14.845  1.00  0.00     0.025 A 
HETATM   17  C10 UNL     1       5.816  -1.063 -13.608  1.00  0.00     0.018 A 
ENDBRANCH   8  11
ENDBRANCH   1   7
BRANCH   1  18
HETATM   18  C11 UNL     1       8.315   1.431  -9.319  1.00  0.00     0.318 C 
HETATM   19  O4  UNL     1       8.689   0.801  -8.327  1.00  0.00    -0.261 OA
HETATM   20  N3  UNL     1       7.128   2.244  -9.084  1.00  0.00    -0.260 N 
ATOM     21  H3  UNL     1       6.718   2.814  -9.823  1.00  0.00     0.190 HD
BRANCH  20  22
HETATM   22  N4  UNL     1       6.579   2.209  -7.809  1.00  0.00    -0.263 N 
HETATM   23  C12 UNL     1       5.369   1.517  -7.586  1.00  0.00     0.270 C 
HETATM   24  O5  UNL     1       4.812   0.936  -8.566  1.00  0.00    -0.266 OA
ATOM     25  H4  UNL     1       7.049   2.681  -7.037  1.00  0.00     0.190 HD
BRANCH  23  26
HETATM   26  C13 UNL     1       4.730   1.442  -6.273  1.00  0.00     0.033 A 
HETATM   27  C14 UNL     1       5.403   1.703  -5.106  1.00  0.00     0.019 A 
HETATM   28  C15 UNL     1       4.742   1.617  -3.874  1.00  0.00     0.037 A 
HETATM   29  C16 UNL     1       3.412   1.271  -3.783  1.00  0.00     0.102 A 
HETATM   30  C17 UNL     1       2.742   1.010  -4.957  1.00  0.00     0.037 A 
HETATM   31  C18 UNL     1       3.395   1.096  -6.173  1.00  0.00     0.019 A 
BRANCH  29  32
HETATM   32  N5  UNL     1       2.766   1.191  -2.523  1.00  0.00    -0.116 N 
HETATM   33  O6  UNL     1       2.789   0.138  -1.883  1.00  0.00    -0.532 OA
HETATM   34  O7  UNL     1       2.101   2.265  -1.978  1.00  0.00    -0.532 OA
ENDBRANCH  29  32
ENDBRANCH  23  26
ENDBRANCH  20  22
ENDBRANCH   1  18
TORSDOF 8
ENDMDL
