MODEL 1
REMARK VINA RESULT: -6.319489422      0.000      0.000
REMARK  8 active torsions:
REMARK  status: ('A' for Active; 'I' for Inactive)
REMARK    1  A    between atoms: C2_2  and  C3_3 
REMARK    2  A    between atoms: C3_3  and  C4_4 
REMARK    3  A    between atoms: C4_4  and  C5_5 
REMARK    4  A    between atoms: C6_8  and  N2_9 
REMARK    5  A    between atoms: C7_14  and  N4_15 
REMARK    6  A    between atoms: N4_15  and  C8_17 
REMARK    7  A    between atoms: C8_17  and  C9_18 
REMARK    8  A    between atoms: C9_18  and  N5_19 
ROOT
HETATM    1  C5  UNL     1      29.953   8.597 -33.009  1.00  0.00     0.113 A 
HETATM    2  N1  UNL     1      30.094   8.736 -31.688  1.00  0.00    -0.180 N 
ATOM      3  H1  UNL     1      29.323   9.090 -31.121  1.00  0.00     0.185 HD
HETATM    4  C6  UNL     1      31.263   8.405 -31.116  1.00  0.00     0.691 A 
HETATM    5  N3  UNL     1      32.292   7.932 -31.874  1.00  0.00    -0.023 N 
ATOM      6  H3  UNL     1      33.174   7.683 -31.427  1.00  0.00     0.203 HD
HETATM    7  C7  UNL     1      32.161   7.790 -33.196  1.00  0.00     0.694 A 
HETATM    8  N6  UNL     1      30.974   8.130 -33.750  1.00  0.00    -0.180 N 
ATOM      9  H6  UNL     1      30.851   8.029 -34.757  1.00  0.00     0.185 HD
ENDROOT
BRANCH   7  10
HETATM   10  N4  UNL     1      33.096   7.353 -33.938  1.00  0.00    -0.224 N 
ATOM     11  H4  UNL     1      33.116   6.358 -34.161  1.00  0.00     0.177 HD
BRANCH  10  12
HETATM   12  C8  UNL     1      34.129   8.199 -34.479  1.00  0.00     0.157 C 
BRANCH  12  13
HETATM   13  C9  UNL     1      33.865   8.332 -35.978  1.00  0.00     0.137 C 
BRANCH  13  14
HETATM   14  N5  UNL     1      33.496   9.681 -36.256  1.00  0.00    -0.411 N 
HETATM   15  C10 UNL     1      32.399   9.827 -37.149  1.00  0.00     0.117 C 
HETATM   16  C11 UNL     1      31.140  10.176 -36.397  1.00  0.00     0.019 C 
HETATM   17  C12 UNL     1      31.263  11.500 -35.677  1.00  0.00     0.003 C 
HETATM   18  C13 UNL     1      32.684  11.794 -35.271  1.00  0.00     0.019 C 
HETATM   19  C14 UNL     1      33.515  10.546 -35.129  1.00  0.00     0.117 C 
ENDBRANCH  13  14
ENDBRANCH  12  13
ENDBRANCH  10  12
ENDBRANCH   7  10
BRANCH   4  20
HETATM   20  N2  UNL     1      31.486   8.507 -29.851  1.00  0.00    -0.234 N 
ATOM     21  H22 UNL     1      31.658   9.448 -29.497  1.00  0.00     0.174 HD
ATOM     22  H21 UNL     1      31.497   7.707 -29.218  1.00  0.00     0.174 HD
ENDBRANCH   4  20
BRANCH   1  23
HETATM   23  C4  UNL     1      28.695   8.943 -33.708  1.00  0.00     0.077 C 
BRANCH  23  24
HETATM   24  C3  UNL     1      28.342  10.370 -33.270  1.00  0.00     0.007 C 
BRANCH  24  25
HETATM   25  C2  UNL     1      27.821  11.135 -34.466  1.00  0.00    -0.004 C 
HETATM   26  C1  UNL     1      27.434  10.090 -35.513  1.00  0.00     0.005 C 
ENDBRANCH  24  25
ENDBRANCH  23  24
ENDBRANCH   1  23
TORSDOF 8
ENDMDL
MODEL 2
REMARK VINA RESULT: -6.246019573      2.665      4.650
REMARK  8 active torsions:
REMARK  status: ('A' for Active; 'I' for Inactive)
REMARK    1  A    between atoms: C2_2  and  C3_3 
REMARK    2  A    between atoms: C3_3  and  C4_4 
REMARK    3  A    between atoms: C4_4  and  C5_5 
REMARK    4  A    between atoms: C6_8  and  N2_9 
REMARK    5  A    between atoms: C7_14  and  N4_15 
REMARK    6  A    between atoms: N4_15  and  C8_17 
REMARK    7  A    between atoms: C8_17  and  C9_18 
REMARK    8  A    between atoms: C9_18  and  N5_19 
ROOT
HETATM    1  C5  UNL     1      28.509  10.099 -35.234  1.00  0.00     0.113 A 
HETATM    2  N1  UNL     1      27.173  10.100 -35.214  1.00  0.00    -0.180 N 
ATOM      3  H1  UNL     1      26.661  10.922 -34.893  1.00  0.00     0.185 HD
HETATM    4  C6  UNL     1      26.512   9.004 -35.623  1.00  0.00     0.691 A 
HETATM    5  N3  UNL     1      27.196   7.907 -36.053  1.00  0.00    -0.023 N 
ATOM      6  H3  UNL     1      26.682   7.082 -36.362  1.00  0.00     0.203 HD
HETATM    7  C7  UNL     1      28.532   7.897 -36.076  1.00  0.00     0.694 A 
HETATM    8  N6  UNL     1      29.175   9.011 -35.659  1.00  0.00    -0.180 N 
ATOM      9  H6  UNL     1      30.195   9.027 -35.668  1.00  0.00     0.185 HD
ENDROOT
BRANCH   7  10
HETATM   10  N4  UNL     1      29.207   6.894 -36.469  1.00  0.00    -0.224 N 
ATOM     11  H4  UNL     1      28.905   5.962 -36.185  1.00  0.00     0.177 HD
BRANCH  10  12
HETATM   12  C8  UNL     1      30.379   7.013 -37.298  1.00  0.00     0.157 C 
BRANCH  12  13
HETATM   13  C9  UNL     1      31.549   6.424 -36.513  1.00  0.00     0.137 C 
BRANCH  13  14
HETATM   14  N5  UNL     1      32.327   7.496 -35.985  1.00  0.00    -0.411 N 
HETATM   15  C10 UNL     1      32.308   7.606 -34.567  1.00  0.00     0.117 C 
HETATM   16  C11 UNL     1      33.583   7.066 -33.971  1.00  0.00     0.019 C 
HETATM   17  C12 UNL     1      34.793   7.848 -34.427  1.00  0.00     0.003 C 
HETATM   18  C13 UNL     1      34.602   8.438 -35.801  1.00  0.00     0.019 C 
HETATM   19  C14 UNL     1      33.586   7.684 -36.617  1.00  0.00     0.117 C 
ENDBRANCH  13  14
ENDBRANCH  12  13
ENDBRANCH  10  12
ENDBRANCH   7  10
BRANCH   4  20
HETATM   20  N2  UNL     1      25.226   8.917 -35.638  1.00  0.00    -0.234 N 
ATOM     21  H22 UNL     1      24.715   9.792 -35.756  1.00  0.00     0.174 HD
ATOM     22  H21 UNL     1      24.723   8.035 -35.538  1.00  0.00     0.174 HD
ENDBRANCH   4  20
BRANCH   1  23
HETATM   23  C4  UNL     1      29.302  11.270 -34.797  1.00  0.00     0.077 C 
BRANCH  23  24
HETATM   24  C3  UNL     1      30.767  10.814 -34.791  1.00  0.00     0.007 C 
BRANCH  24  25
HETATM   25  C2  UNL     1      31.558  11.694 -35.733  1.00  0.00    -0.004 C 
HETATM   26  C1  UNL     1      33.003  11.671 -35.234  1.00  0.00     0.005 C 
ENDBRANCH  24  25
ENDBRANCH  23  24
ENDBRANCH   1  23
TORSDOF 8
ENDMDL
MODEL 3
REMARK VINA RESULT: -6.240955864      3.159      4.989
REMARK  8 active torsions:
REMARK  status: ('A' for Active; 'I' for Inactive)
REMARK    1  A    between atoms: C2_2  and  C3_3 
REMARK    2  A    between atoms: C3_3  and  C4_4 
REMARK    3  A    between atoms: C4_4  and  C5_5 
REMARK    4  A    between atoms: C6_8  and  N2_9 
REMARK    5  A    between atoms: C7_14  and  N4_15 
REMARK    6  A    between atoms: N4_15  and  C8_17 
REMARK    7  A    between atoms: C8_17  and  C9_18 
REMARK    8  A    between atoms: C9_18  and  N5_19 
ROOT
HETATM    1  C5  UNL     1      28.280   6.630 -36.109  1.00  0.00     0.113 A 
HETATM    2  N1  UNL     1      27.264   7.446 -36.403  1.00  0.00    -0.180 N 
ATOM      3  H1  UNL     1      26.738   7.325 -37.269  1.00  0.00     0.185 HD
HETATM    4  C6  UNL     1      26.945   8.429 -35.545  1.00  0.00     0.691 A 
HETATM    5  N3  UNL     1      27.647   8.589 -34.388  1.00  0.00    -0.023 N 
ATOM      6  H3  UNL     1      27.393   9.339 -33.745  1.00  0.00     0.203 HD
HETATM    7  C7  UNL     1      28.664   7.778 -34.086  1.00  0.00     0.694 A 
HETATM    8  N6  UNL     1      28.968   6.797 -34.966  1.00  0.00    -0.180 N 
ATOM      9  H6  UNL     1      29.741   6.165 -34.755  1.00  0.00     0.185 HD
ENDROOT
BRANCH   7  10
HETATM   10  N4  UNL     1      29.345   7.895 -33.018  1.00  0.00    -0.224 N 
ATOM     11  H4  UNL     1      29.226   7.195 -32.287  1.00  0.00     0.177 HD
BRANCH  10  12
HETATM   12  C8  UNL     1      30.276   8.971 -32.795  1.00  0.00     0.157 C 
BRANCH  12  13
HETATM   13  C9  UNL     1      31.623   8.338 -32.448  1.00  0.00     0.137 C 
BRANCH  13  14
HETATM   14  N5  UNL     1      32.529   8.582 -33.521  1.00  0.00    -0.411 N 
HETATM   15  C10 UNL     1      33.175   7.423 -34.032  1.00  0.00     0.117 C 
HETATM   16  C11 UNL     1      32.551   6.992 -35.334  1.00  0.00     0.019 C 
HETATM   17  C12 UNL     1      32.697   8.049 -36.405  1.00  0.00     0.003 C 
HETATM   18  C13 UNL     1      32.743   9.440 -35.826  1.00  0.00     0.019 C 
HETATM   19  C14 UNL     1      32.074   9.527 -34.480  1.00  0.00     0.117 C 
ENDBRANCH  13  14
ENDBRANCH  12  13
ENDBRANCH  10  12
ENDBRANCH   7  10
BRANCH   4  20
HETATM   20  N2  UNL     1      25.981   9.261 -35.748  1.00  0.00    -0.234 N 
ATOM     21  H22 UNL     1      25.445   9.541 -34.926  1.00  0.00     0.174 HD
ATOM     22  H21 UNL     1      25.747   9.632 -36.669  1.00  0.00     0.174 HD
ENDBRANCH   4  20
BRANCH   1  23
HETATM   23  C4  UNL     1      28.688   5.527 -37.008  1.00  0.00     0.077 C 
BRANCH  23  24
HETATM   24  C3  UNL     1      29.956   6.008 -37.725  1.00  0.00     0.007 C 
BRANCH  24  25
HETATM   25  C2  UNL     1      30.502   4.876 -38.566  1.00  0.00    -0.004 C 
HETATM   26  C1  UNL     1      32.026   4.994 -38.512  1.00  0.00     0.005 C 
ENDBRANCH  24  25
ENDBRANCH  23  24
ENDBRANCH   1  23
TORSDOF 8
ENDMDL
MODEL 4
REMARK VINA RESULT: -6.215656330      1.492      1.982
REMARK  8 active torsions:
REMARK  status: ('A' for Active; 'I' for Inactive)
REMARK    1  A    between atoms: C2_2  and  C3_3 
REMARK    2  A    between atoms: C3_3  and  C4_4 
REMARK    3  A    between atoms: C4_4  and  C5_5 
REMARK    4  A    between atoms: C6_8  and  N2_9 
REMARK    5  A    between atoms: C7_14  and  N4_15 
REMARK    6  A    between atoms: N4_15  and  C8_17 
REMARK    7  A    between atoms: C8_17  and  C9_18 
REMARK    8  A    between atoms: C9_18  and  N5_19 
ROOT
HETATM    1  C5  UNL     1      30.030   9.796 -33.991  1.00  0.00     0.113 A 
HETATM    2  N1  UNL     1      29.477   9.425 -32.833  1.00  0.00    -0.180 N 
ATOM      3  H1  UNL     1      28.526   9.710 -32.600  1.00  0.00     0.185 HD
HETATM    4  C6  UNL     1      30.190   8.670 -31.980  1.00  0.00     0.691 A 
HETATM    5  N3  UNL     1      31.459   8.288 -32.293  1.00  0.00    -0.023 N 
ATOM      6  H3  UNL     1      31.989   7.714 -31.636  1.00  0.00     0.203 HD
HETATM    7  C7  UNL     1      32.021   8.655 -33.448  1.00  0.00     0.694 A 
HETATM    8  N6  UNL     1      31.285   9.415 -34.291  1.00  0.00    -0.180 N 
ATOM      9  H6  UNL     1      31.693   9.707 -35.179  1.00  0.00     0.185 HD
ENDROOT
BRANCH   7  10
HETATM   10  N4  UNL     1      33.203   8.321 -33.777  1.00  0.00    -0.224 N 
ATOM     11  H4  UNL     1      33.619   7.504 -33.330  1.00  0.00     0.177 HD
BRANCH  10  12
HETATM   12  C8  UNL     1      33.980   9.043 -34.751  1.00  0.00     0.157 C 
BRANCH  12  13
HETATM   13  C9  UNL     1      34.417   8.037 -35.815  1.00  0.00     0.137 C 
BRANCH  13  14
HETATM   14  N5  UNL     1      33.753   8.351 -37.037  1.00  0.00    -0.411 N 
HETATM   15  C10 UNL     1      32.866   7.345 -37.510  1.00  0.00     0.117 C 
HETATM   16  C11 UNL     1      31.434   7.718 -37.229  1.00  0.00     0.019 C 
HETATM   17  C12 UNL     1      31.032   8.988 -37.945  1.00  0.00     0.003 C 
HETATM   18  C13 UNL     1      32.201   9.920 -38.143  1.00  0.00     0.019 C 
HETATM   19  C14 UNL     1      33.298   9.693 -37.137  1.00  0.00     0.117 C 
ENDBRANCH  13  14
ENDBRANCH  12  13
ENDBRANCH  10  12
ENDBRANCH   7  10
BRANCH   4  20
HETATM   20  N2  UNL     1      29.735   8.266 -30.843  1.00  0.00    -0.234 N 
ATOM     21  H22 UNL     1      30.217   7.473 -30.420  1.00  0.00     0.174 HD
ATOM     22  H21 UNL     1      28.940   8.698 -30.373  1.00  0.00     0.174 HD
ENDBRANCH   4  20
BRANCH   1  23
HETATM   23  C4  UNL     1      29.305  10.628 -34.978  1.00  0.00     0.077 C 
BRANCH  23  24
HETATM   24  C3  UNL     1      27.835  10.200 -34.899  1.00  0.00     0.007 C 
BRANCH  24  25
HETATM   25  C2  UNL     1      27.628   8.989 -35.781  1.00  0.00    -0.004 C 
HETATM   26  C1  UNL     1      26.120   8.746 -35.837  1.00  0.00     0.005 C 
ENDBRANCH  24  25
ENDBRANCH  23  24
ENDBRANCH   1  23
TORSDOF 8
ENDMDL
MODEL 5
REMARK VINA RESULT: -6.213908757      2.558      4.324
REMARK  8 active torsions:
REMARK  status: ('A' for Active; 'I' for Inactive)
REMARK    1  A    between atoms: C2_2  and  C3_3 
REMARK    2  A    between atoms: C3_3  and  C4_4 
REMARK    3  A    between atoms: C4_4  and  C5_5 
REMARK    4  A    between atoms: C6_8  and  N2_9 
REMARK    5  A    between atoms: C7_14  and  N4_15 
REMARK    6  A    between atoms: N4_15  and  C8_17 
REMARK    7  A    between atoms: C8_17  and  C9_18 
REMARK    8  A    between atoms: C9_18  and  N5_19 
ROOT
HETATM    1  C5  UNL     1      28.436   9.082 -34.037  1.00  0.00     0.113 A 
HETATM    2  N1  UNL     1      27.103   9.045 -34.104  1.00  0.00    -0.180 N 
ATOM      3  H1  UNL     1      26.536   9.505 -33.391  1.00  0.00     0.185 HD
HETATM    4  C6  UNL     1      26.517   8.392 -35.123  1.00  0.00     0.691 A 
HETATM    5  N3  UNL     1      27.275   7.779 -36.075  1.00  0.00    -0.023 N 
ATOM      6  H3  UNL     1      26.817   7.289 -36.843  1.00  0.00     0.203 HD
HETATM    7  C7  UNL     1      28.609   7.811 -36.016  1.00  0.00     0.694 A 
HETATM    8  N6  UNL     1      29.176   8.473 -34.981  1.00  0.00    -0.180 N 
ATOM      9  H6  UNL     1      30.193   8.512 -34.915  1.00  0.00     0.185 HD
ENDROOT
BRANCH   7  10
HETATM   10  N4  UNL     1      29.351   7.252 -36.883  1.00  0.00    -0.224 N 
ATOM     11  H4  UNL     1      29.013   7.187 -37.843  1.00  0.00     0.177 HD
BRANCH  10  12
HETATM   12  C8  UNL     1      30.647   6.705 -36.572  1.00  0.00     0.157 C 
BRANCH  12  13
HETATM   13  C9  UNL     1      31.676   7.497 -37.375  1.00  0.00     0.137 C 
BRANCH  13  14
HETATM   14  N5  UNL     1      32.841   7.674 -36.572  1.00  0.00    -0.411 N 
HETATM   15  C10 UNL     1      33.487   8.931 -36.727  1.00  0.00     0.117 C 
HETATM   16  C11 UNL     1      33.173   9.841 -35.568  1.00  0.00     0.019 C 
HETATM   17  C12 UNL     1      33.677   9.279 -34.258  1.00  0.00     0.003 C 
HETATM   18  C13 UNL     1      33.700   7.772 -34.260  1.00  0.00     0.019 C 
HETATM   19  C14 UNL     1      32.727   7.181 -35.244  1.00  0.00     0.117 C 
ENDBRANCH  13  14
ENDBRANCH  12  13
ENDBRANCH  10  12
ENDBRANCH   7  10
BRANCH   4  20
HETATM   20  N2  UNL     1      25.239   8.306 -35.266  1.00  0.00    -0.234 N 
ATOM     21  H22 UNL     1      24.794   7.480 -34.863  1.00  0.00     0.174 HD
ATOM     22  H21 UNL     1      24.681   9.008 -35.752  1.00  0.00     0.174 HD
ENDBRANCH   4  20
BRANCH   1  23
HETATM   23  C4  UNL     1      29.149   9.781 -32.944  1.00  0.00     0.077 C 
BRANCH  23  24
HETATM   24  C3  UNL     1      30.386   8.929 -32.629  1.00  0.00     0.007 C 
BRANCH  24  25
HETATM   25  C2  UNL     1      30.217   8.307 -31.260  1.00  0.00    -0.004 C 
HETATM   26  C1  UNL     1      31.601   8.305 -30.613  1.00  0.00     0.005 C 
ENDBRANCH  24  25
ENDBRANCH  23  24
ENDBRANCH   1  23
TORSDOF 8
ENDMDL
