MODEL 1
REMARK VINA RESULT: -6.826494573      0.000      0.000
REMARK  8 active torsions:
REMARK  status: ('A' for Active; 'I' for Inactive)
REMARK    1  A    between atoms: C3_3  and  C4_4 
REMARK    2  A    between atoms: C3_3  and  N2_12 
REMARK    3  A    between atoms: C4_4  and  C5_5 
REMARK    4  A    between atoms: C5_5  and  C6_6 
REMARK    5  A    between atoms: C6_6  and  C7_7 
REMARK    6  A    between atoms: C7_7  and  N1_8 
REMARK    7  A    between atoms: N2_12  and  C8_14 
REMARK    8  A    between atoms: C12_20  and  C13_21 
ROOT
HETATM    1  C1  UNL     1      25.224   8.675 -35.389  1.00  0.00     0.014 C 
HETATM    2  C2  UNL     1      26.415   8.463 -35.319  1.00  0.00    -0.091 C 
HETATM    3  C3  UNL     1      27.858   8.212 -35.260  1.00  0.00     0.178 C 
ENDROOT
BRANCH   3   4
HETATM    4  C4  UNL     1      28.558   9.459 -35.733  1.00  0.00     0.039 C 
BRANCH   4   5
HETATM    5  C5  UNL     1      29.414  10.087 -34.667  1.00  0.00     0.004 C 
BRANCH   5   6
HETATM    6  C6  UNL     1      29.035   9.515 -33.319  1.00  0.00     0.027 C 
BRANCH   6   7
HETATM    7  C7  UNL     1      30.162   8.794 -32.640  1.00  0.00     0.229 C 
BRANCH   7   8
HETATM    8  N1  UNL     1      29.805   8.522 -31.260  1.00  0.00    -0.079 N 
ATOM      9  H13 UNL     1      29.983   9.322 -30.651  1.00  0.00     0.274 HD
ATOM     10  H12 UNL     1      28.796   8.460 -31.129  1.00  0.00     0.274 HD
ATOM     11  H11 UNL     1      30.288   7.682 -30.941  1.00  0.00     0.274 HD
ENDBRANCH   7   8
ENDBRANCH   6   7
ENDBRANCH   5   6
ENDBRANCH   4   5
ENDBRANCH   3   4
BRANCH   3  12
HETATM   12  N2  UNL     1      28.137   7.072 -36.095  1.00  0.00    -0.211 N 
ATOM     13  H2  UNL     1      27.351   6.517 -36.431  1.00  0.00     0.179 HD
BRANCH  12  14
HETATM   14  C8  UNL     1      29.330   6.716 -36.441  1.00  0.00     0.679 A 
HETATM   15  N3  UNL     1      29.449   5.944 -37.529  1.00  0.00    -0.196 N 
HETATM   16  C9  UNL     1      30.658   5.545 -37.934  1.00  0.00     0.025 A 
ATOM     17  H3  UNL     1      28.618   5.662 -38.049  1.00  0.00     0.184 HD
HETATM   18  C10 UNL     1      30.766   4.686 -39.149  1.00  0.00     0.068 C 
HETATM   19  C11 UNL     1      31.774   5.930 -37.228  1.00  0.00     0.058 A 
HETATM   20  C12 UNL     1      31.663   6.724 -36.106  1.00  0.00     0.085 A 
HETATM   21  N4  UNL     1      30.425   7.086 -35.759  1.00  0.00    -0.189 N 
ATOM     22  H4  UNL     1      30.306   7.673 -34.934  1.00  0.00     0.184 HD
BRANCH  20  23
HETATM   23  C13 UNL     1      32.853   7.131 -35.360  1.00  0.00     0.102 A 
HETATM   24  C14 UNL     1      33.639   8.209 -35.646  1.00  0.00     0.041 A 
HETATM   25  C15 UNL     1      34.662   8.271 -34.730  1.00  0.00     0.027 A 
HETATM   26  C16 UNL     1      34.442   7.178 -33.891  1.00  0.00     0.142 A 
HETATM   27  O1  UNL     1      33.367   6.556 -34.319  1.00  0.00    -0.321 OA
ENDBRANCH  20  23
ENDBRANCH  12  14
ENDBRANCH   3  12
TORSDOF 8
ENDMDL
MODEL 2
REMARK VINA RESULT: -6.695797675      1.299      1.530
REMARK  8 active torsions:
REMARK  status: ('A' for Active; 'I' for Inactive)
REMARK    1  A    between atoms: C3_3  and  C4_4 
REMARK    2  A    between atoms: C3_3  and  N2_12 
REMARK    3  A    between atoms: C4_4  and  C5_5 
REMARK    4  A    between atoms: C5_5  and  C6_6 
REMARK    5  A    between atoms: C6_6  and  C7_7 
REMARK    6  A    between atoms: C7_7  and  N1_8 
REMARK    7  A    between atoms: N2_12  and  C8_14 
REMARK    8  A    between atoms: C12_20  and  C13_21 
ROOT
HETATM    1  C1  UNL     1      25.942   8.935 -36.003  1.00  0.00     0.014 C 
HETATM    2  C2  UNL     1      26.712   8.319 -35.298  1.00  0.00    -0.091 C 
HETATM    3  C3  UNL     1      27.662   7.579 -34.462  1.00  0.00     0.178 C 
ENDROOT
BRANCH   3   4
HETATM    4  C4  UNL     1      28.751   8.537 -34.052  1.00  0.00     0.039 C 
BRANCH   4   5
HETATM    5  C5  UNL     1      28.214   9.863 -33.583  1.00  0.00     0.004 C 
BRANCH   5   6
HETATM    6  C6  UNL     1      29.039  10.978 -34.186  1.00  0.00     0.027 C 
BRANCH   6   7
HETATM    7  C7  UNL     1      29.899  10.531 -35.331  1.00  0.00     0.229 C 
BRANCH   7   8
HETATM    8  N1  UNL     1      31.273  10.937 -35.097  1.00  0.00    -0.079 N 
ATOM      9  H13 UNL     1      31.455  11.130 -34.111  1.00  0.00     0.274 HD
ATOM     10  H12 UNL     1      31.928  10.165 -35.218  1.00  0.00     0.274 HD
ATOM     11  H11 UNL     1      31.501  11.733 -35.692  1.00  0.00     0.274 HD
ENDBRANCH   7   8
ENDBRANCH   6   7
ENDBRANCH   5   6
ENDBRANCH   4   5
ENDBRANCH   3   4
BRANCH   3  12
HETATM   12  N2  UNL     1      28.163   6.476 -35.240  1.00  0.00    -0.211 N 
ATOM     13  H2  UNL     1      27.606   5.623 -35.281  1.00  0.00     0.179 HD
BRANCH  12  14
HETATM   14  C8  UNL     1      29.279   6.509 -35.890  1.00  0.00     0.679 A 
HETATM   15  N3  UNL     1      29.241   6.197 -37.192  1.00  0.00    -0.196 N 
HETATM   16  C9  UNL     1      30.365   6.214 -37.914  1.00  0.00     0.025 A 
ATOM     17  H3  UNL     1      28.356   5.946 -37.632  1.00  0.00     0.184 HD
HETATM   18  C10 UNL     1      30.299   5.862 -39.362  1.00  0.00     0.068 C 
HETATM   19  C11 UNL     1      31.555   6.554 -37.314  1.00  0.00     0.058 A 
HETATM   20  C12 UNL     1      31.605   6.877 -35.974  1.00  0.00     0.085 A 
HETATM   21  N4  UNL     1      30.445   6.839 -35.314  1.00  0.00    -0.189 N 
ATOM     22  H4  UNL     1      30.446   7.073 -34.321  1.00  0.00     0.184 HD
BRANCH  20  23
HETATM   23  C13 UNL     1      32.874   7.238 -35.342  1.00  0.00     0.102 A 
HETATM   24  C14 UNL     1      33.687   8.264 -35.724  1.00  0.00     0.041 A 
HETATM   25  C15 UNL     1      34.786   8.294 -34.897  1.00  0.00     0.027 A 
HETATM   26  C16 UNL     1      34.581   7.237 -34.011  1.00  0.00     0.142 A 
HETATM   27  O1  UNL     1      33.443   6.662 -34.330  1.00  0.00    -0.321 OA
ENDBRANCH  20  23
ENDBRANCH  12  14
ENDBRANCH   3  12
TORSDOF 8
ENDMDL
MODEL 3
REMARK VINA RESULT: -6.598581145      2.616      3.984
REMARK  8 active torsions:
REMARK  status: ('A' for Active; 'I' for Inactive)
REMARK    1  A    between atoms: C3_3  and  C4_4 
REMARK    2  A    between atoms: C3_3  and  N2_12 
REMARK    3  A    between atoms: C4_4  and  C5_5 
REMARK    4  A    between atoms: C5_5  and  C6_6 
REMARK    5  A    between atoms: C6_6  and  C7_7 
REMARK    6  A    between atoms: C7_7  and  N1_8 
REMARK    7  A    between atoms: N2_12  and  C8_14 
REMARK    8  A    between atoms: C12_20  and  C13_21 
ROOT
HETATM    1  C1  UNL     1      30.809   8.344 -30.877  1.00  0.00     0.014 C 
HETATM    2  C2  UNL     1      30.493   8.680 -31.998  1.00  0.00    -0.091 C 
HETATM    3  C3  UNL     1      30.091   9.071 -33.352  1.00  0.00     0.178 C 
ENDROOT
BRANCH   3   4
HETATM    4  C4  UNL     1      28.692   9.626 -33.270  1.00  0.00     0.039 C 
BRANCH   4   5
HETATM    5  C5  UNL     1      28.513  10.875 -34.090  1.00  0.00     0.004 C 
BRANCH   5   6
HETATM    6  C6  UNL     1      27.984  10.505 -35.458  1.00  0.00     0.027 C 
BRANCH   6   7
HETATM    7  C7  UNL     1      27.098   9.295 -35.446  1.00  0.00     0.229 C 
BRANCH   7   8
HETATM    8  N1  UNL     1      25.724   9.693 -35.687  1.00  0.00    -0.079 N 
ATOM      9  H13 UNL     1      25.117   8.893 -35.868  1.00  0.00     0.274 HD
ATOM     10  H12 UNL     1      25.269  10.034 -34.841  1.00  0.00     0.274 HD
ATOM     11  H11 UNL     1      25.693  10.377 -36.443  1.00  0.00     0.274 HD
ENDBRANCH   7   8
ENDBRANCH   6   7
ENDBRANCH   5   6
ENDBRANCH   4   5
ENDBRANCH   3   4
BRANCH   3  12
HETATM   12  N2  UNL     1      30.171   7.900 -34.186  1.00  0.00    -0.211 N 
ATOM     13  H2  UNL     1      29.703   7.050 -33.871  1.00  0.00     0.179 HD
BRANCH  12  14
HETATM   14  C8  UNL     1      30.803   7.867 -35.312  1.00  0.00     0.679 A 
HETATM   15  N3  UNL     1      30.930   6.676 -35.911  1.00  0.00    -0.196 N 
HETATM   16  C9  UNL     1      31.575   6.582 -37.078  1.00  0.00     0.025 A 
ATOM     17  H3  UNL     1      30.536   5.841 -35.478  1.00  0.00     0.184 HD
HETATM   18  C10 UNL     1      31.704   5.245 -37.726  1.00  0.00     0.068 C 
HETATM   19  C11 UNL     1      32.103   7.712 -37.657  1.00  0.00     0.058 A 
HETATM   20  C12 UNL     1      31.978   8.943 -37.049  1.00  0.00     0.085 A 
HETATM   21  N4  UNL     1      31.323   8.964 -35.886  1.00  0.00    -0.189 N 
ATOM     22  H4  UNL     1      31.212   9.858 -35.409  1.00  0.00     0.184 HD
BRANCH  20  23
HETATM   23  C13 UNL     1      32.543  10.141 -37.670  1.00  0.00     0.102 A 
HETATM   24  C14 UNL     1      33.761  10.221 -38.277  1.00  0.00     0.041 A 
HETATM   25  C15 UNL     1      33.946  11.503 -38.740  1.00  0.00     0.027 A 
HETATM   26  C16 UNL     1      32.779  12.174 -38.375  1.00  0.00     0.142 A 
HETATM   27  O1  UNL     1      32.003  11.316 -37.752  1.00  0.00    -0.321 OA
ENDBRANCH  20  23
ENDBRANCH  12  14
ENDBRANCH   3  12
TORSDOF 8
ENDMDL
MODEL 4
REMARK VINA RESULT: -6.541263716      2.187      2.448
REMARK  8 active torsions:
REMARK  status: ('A' for Active; 'I' for Inactive)
REMARK    1  A    between atoms: C3_3  and  C4_4 
REMARK    2  A    between atoms: C3_3  and  N2_12 
REMARK    3  A    between atoms: C4_4  and  C5_5 
REMARK    4  A    between atoms: C5_5  and  C6_6 
REMARK    5  A    between atoms: C6_6  and  C7_7 
REMARK    6  A    between atoms: C7_7  and  N1_8 
REMARK    7  A    between atoms: N2_12  and  C8_14 
REMARK    8  A    between atoms: C12_20  and  C13_21 
ROOT
HETATM    1  C1  UNL     1      25.812   8.681 -35.851  1.00  0.00     0.014 C 
HETATM    2  C2  UNL     1      26.966   8.997 -35.651  1.00  0.00    -0.091 C 
HETATM    3  C3  UNL     1      28.355   9.401 -35.419  1.00  0.00     0.178 C 
ENDROOT
BRANCH   3   4
HETATM    4  C4  UNL     1      28.333  10.632 -34.551  1.00  0.00     0.039 C 
BRANCH   4   5
HETATM    5  C5  UNL     1      28.957  10.404 -33.200  1.00  0.00     0.004 C 
BRANCH   5   6
HETATM    6  C6  UNL     1      29.404   8.963 -33.092  1.00  0.00     0.027 C 
BRANCH   6   7
HETATM    7  C7  UNL     1      30.322   8.711 -31.933  1.00  0.00     0.229 C 
BRANCH   7   8
HETATM    8  N1  UNL     1      29.571   8.775 -30.692  1.00  0.00    -0.079 N 
ATOM      9  H13 UNL     1      30.167   8.994 -29.893  1.00  0.00     0.274 HD
ATOM     10  H12 UNL     1      28.965   9.594 -30.652  1.00  0.00     0.274 HD
ATOM     11  H11 UNL     1      29.054   7.907 -30.559  1.00  0.00     0.274 HD
ENDBRANCH   7   8
ENDBRANCH   6   7
ENDBRANCH   5   6
ENDBRANCH   4   5
ENDBRANCH   3   4
BRANCH   3  12
HETATM   12  N2  UNL     1      28.960   9.643 -36.703  1.00  0.00    -0.211 N 
ATOM     13  H2  UNL     1      28.368   9.992 -37.456  1.00  0.00     0.179 HD
BRANCH  12  14
HETATM   14  C8  UNL     1      30.211   9.441 -36.952  1.00  0.00     0.679 A 
HETATM   15  N3  UNL     1      30.667   9.818 -38.154  1.00  0.00    -0.196 N 
HETATM   16  C9  UNL     1      31.953   9.634 -38.467  1.00  0.00     0.025 A 
ATOM     17  H3  UNL     1      30.034  10.245 -38.829  1.00  0.00     0.184 HD
HETATM   18  C10 UNL     1      32.438  10.062 -39.811  1.00  0.00     0.068 C 
HETATM   19  C11 UNL     1      32.801   9.057 -37.550  1.00  0.00     0.058 A 
HETATM   20  C12 UNL     1      32.343   8.665 -36.311  1.00  0.00     0.085 A 
HETATM   21  N4  UNL     1      31.048   8.879 -36.065  1.00  0.00    -0.189 N 
ATOM     22  H4  UNL     1      30.675   8.601 -35.157  1.00  0.00     0.184 HD
BRANCH  20  23
HETATM   23  C13 UNL     1      33.249   8.053 -35.340  1.00  0.00     0.102 A 
HETATM   24  C14 UNL     1      32.874   7.273 -34.286  1.00  0.00     0.041 A 
HETATM   25  C15 UNL     1      33.999   6.881 -33.599  1.00  0.00     0.027 A 
HETATM   26  C16 UNL     1      35.054   7.467 -34.297  1.00  0.00     0.142 A 
HETATM   27  O1  UNL     1      34.542   8.139 -35.304  1.00  0.00    -0.321 OA
ENDBRANCH  20  23
ENDBRANCH  12  14
ENDBRANCH   3  12
TORSDOF 8
ENDMDL
MODEL 5
REMARK VINA RESULT: -6.452422524      2.459      3.668
REMARK  8 active torsions:
REMARK  status: ('A' for Active; 'I' for Inactive)
REMARK    1  A    between atoms: C3_3  and  C4_4 
REMARK    2  A    between atoms: C3_3  and  N2_12 
REMARK    3  A    between atoms: C4_4  and  C5_5 
REMARK    4  A    between atoms: C5_5  and  C6_6 
REMARK    5  A    between atoms: C6_6  and  C7_7 
REMARK    6  A    between atoms: C7_7  and  N1_8 
REMARK    7  A    between atoms: N2_12  and  C8_14 
REMARK    8  A    between atoms: C12_20  and  C13_21 
ROOT
HETATM    1  C1  UNL     1      30.124   8.569 -31.739  1.00  0.00     0.014 C 
HETATM    2  C2  UNL     1      30.540   8.652 -32.875  1.00  0.00    -0.091 C 
HETATM    3  C3  UNL     1      31.025   8.736 -34.255  1.00  0.00     0.178 C 
ENDROOT
BRANCH   3   4
HETATM    4  C4  UNL     1      29.872   9.181 -35.118  1.00  0.00     0.039 C 
BRANCH   4   5
HETATM    5  C5  UNL     1      29.440  10.593 -34.828  1.00  0.00     0.004 C 
BRANCH   5   6
HETATM    6  C6  UNL     1      27.930  10.672 -34.866  1.00  0.00     0.027 C 
BRANCH   6   7
HETATM    7  C7  UNL     1      27.280   9.419 -35.374  1.00  0.00     0.229 C 
BRANCH   7   8
HETATM    8  N1  UNL     1      25.895   9.689 -35.711  1.00  0.00    -0.079 N 
ATOM      9  H13 UNL     1      25.245   9.214 -35.084  1.00  0.00     0.274 HD
ATOM     10  H12 UNL     1      25.628  10.650 -35.497  1.00  0.00     0.274 HD
ATOM     11  H11 UNL     1      25.727   9.452 -36.689  1.00  0.00     0.274 HD
ENDBRANCH   7   8
ENDBRANCH   6   7
ENDBRANCH   5   6
ENDBRANCH   4   5
ENDBRANCH   3   4
BRANCH   3  12
HETATM   12  N2  UNL     1      31.519   7.434 -34.624  1.00  0.00    -0.211 N 
ATOM     13  H2  UNL     1      31.536   6.705 -33.911  1.00  0.00     0.179 HD
BRANCH  12  14
HETATM   14  C8  UNL     1      31.942   7.140 -35.808  1.00  0.00     0.679 A 
HETATM   15  N3  UNL     1      31.346   6.118 -36.437  1.00  0.00    -0.196 N 
HETATM   16  C9  UNL     1      31.742   5.770 -37.665  1.00  0.00     0.025 A 
ATOM     17  H3  UNL     1      30.592   5.607 -35.980  1.00  0.00     0.184 HD
HETATM   18  C10 UNL     1      31.065   4.628 -38.346  1.00  0.00     0.068 C 
HETATM   19  C11 UNL     1      32.760   6.465 -38.275  1.00  0.00     0.058 A 
HETATM   20  C12 UNL     1      33.380   7.518 -37.637  1.00  0.00     0.085 A 
HETATM   21  N4  UNL     1      32.934   7.812 -36.413  1.00  0.00    -0.189 N 
ATOM     22  H4  UNL     1      33.370   8.586 -35.912  1.00  0.00     0.184 HD
BRANCH  20  23
HETATM   23  C13 UNL     1      34.462   8.253 -38.291  1.00  0.00     0.102 A 
HETATM   24  C14 UNL     1      34.341   9.468 -38.899  1.00  0.00     0.041 A 
HETATM   25  C15 UNL     1      35.567   9.841 -39.399  1.00  0.00     0.027 A 
HETATM   26  C16 UNL     1      36.415   8.787 -39.058  1.00  0.00     0.142 A 
HETATM   27  O1  UNL     1      35.701   7.893 -38.412  1.00  0.00    -0.321 OA
ENDBRANCH  20  23
ENDBRANCH  12  14
ENDBRANCH   3  12
TORSDOF 8
ENDMDL
