MODEL 1
REMARK VINA RESULT: -6.592241767      0.000      0.000
REMARK  7 active torsions:
REMARK  status: ('A' for Active; 'I' for Inactive)
REMARK    1  A    between atoms: C4_7  and  N3_8 
REMARK    2  A    between atoms: N5_14  and  C6_16 
REMARK    3  A    between atoms: C6_16  and  C7_17 
REMARK    4  A    between atoms: C7_17  and  C8_18 
REMARK    5  A    between atoms: C8_18  and  C9_19 
REMARK    6  A    between atoms: C9_19  and  C10_20 
REMARK    7  A    between atoms: C10_20  and  N6_21 
ROOT
HETATM    1  N1  UNL     1      28.158  11.066 -33.094  1.00  0.00    -0.191 NA
HETATM    2  C1  UNL     1      28.204  10.099 -33.689  1.00  0.00     0.104 C 
HETATM    3  C2  UNL     1      28.238   8.884 -34.466  1.00  0.00     0.104 A 
HETATM    4  C3  UNL     1      27.450   8.791 -35.613  1.00  0.00     0.132 A 
HETATM    5  N2  UNL     1      27.446   7.681 -36.369  1.00  0.00    -0.201 N 
ATOM      6  H2  UNL     1      26.856   7.649 -37.201  1.00  0.00     0.183 HD
HETATM    7  C4  UNL     1      28.199   6.610 -36.060  1.00  0.00     0.677 A 
HETATM    8  N4  UNL     1      28.955   6.686 -34.969  1.00  0.00    -0.176 N 
ATOM      9  H4  UNL     1      29.529   5.878 -34.725  1.00  0.00     0.186 HD
HETATM   10  C5  UNL     1      29.008   7.791 -34.148  1.00  0.00     0.139 A 
HETATM   11  N5  UNL     1      29.754   7.762 -33.141  1.00  0.00    -0.375 N 
ATOM     12  H5  UNL     1      30.246   6.871 -33.070  1.00  0.00     0.161 HD
ENDROOT
BRANCH  11  13
HETATM   13  C6  UNL     1      30.094   8.612 -32.098  1.00  0.00     0.121 C 
BRANCH  13  14
HETATM   14  C7  UNL     1      31.617   8.601 -31.809  1.00  0.00     0.020 C 
BRANCH  14  15
HETATM   15  C8  UNL     1      32.300   7.919 -32.952  1.00  0.00     0.003 C 
BRANCH  15  16
HETATM   16  C9  UNL     1      32.976   8.854 -33.902  1.00  0.00     0.030 C 
BRANCH  16  17
HETATM   17  C10 UNL     1      32.661   8.572 -35.342  1.00  0.00     0.272 C 
BRANCH  17  18
HETATM   18  N6  UNL     1      31.618   9.443 -35.838  1.00  0.00     0.088 N 
HETATM   19  C11 UNL     1      31.644  10.679 -35.085  1.00  0.00     0.272 C 
HETATM   20  C12 UNL     1      31.974  11.841 -35.965  1.00  0.00     0.030 C 
HETATM   21  C13 UNL     1      33.157  11.612 -36.858  1.00  0.00     0.003 C 
HETATM   22  C14 UNL     1      32.933  10.365 -37.663  1.00  0.00     0.030 C 
HETATM   23  C15 UNL     1      31.663   9.687 -37.242  1.00  0.00     0.272 C 
ENDBRANCH  17  18
ENDBRANCH  16  17
ENDBRANCH  15  16
ENDBRANCH  14  15
ENDBRANCH  13  14
ENDBRANCH  11  13
BRANCH   7  24
HETATM   24  N3  UNL     1      28.191   5.540 -36.797  1.00  0.00    -0.234 N 
ATOM     25  H32 UNL     1      28.187   4.611 -36.376  1.00  0.00     0.174 HD
ATOM     26  H31 UNL     1      28.189   5.595 -37.816  1.00  0.00     0.174 HD
ENDBRANCH   7  24
TORSDOF 7
ENDMDL
MODEL 2
REMARK VINA RESULT: -6.537241561      1.968      4.307
REMARK  7 active torsions:
REMARK  status: ('A' for Active; 'I' for Inactive)
REMARK    1  A    between atoms: C4_7  and  N3_8 
REMARK    2  A    between atoms: N5_14  and  C6_16 
REMARK    3  A    between atoms: C6_16  and  C7_17 
REMARK    4  A    between atoms: C7_17  and  C8_18 
REMARK    5  A    between atoms: C8_18  and  C9_19 
REMARK    6  A    between atoms: C9_19  and  C10_20 
REMARK    7  A    between atoms: C10_20  and  N6_21 
ROOT
HETATM    1  N1  UNL     1      33.444  10.728 -34.857  1.00  0.00    -0.191 NA
HETATM    2  C1  UNL     1      33.101   9.729 -35.275  1.00  0.00     0.104 C 
HETATM    3  C2  UNL     1      32.676   8.471 -35.839  1.00  0.00     0.104 A 
HETATM    4  C3  UNL     1      32.910   8.220 -37.192  1.00  0.00     0.132 A 
HETATM    5  N2  UNL     1      32.533   7.065 -37.763  1.00  0.00    -0.201 N 
ATOM      6  H2  UNL     1      32.720   6.918 -38.755  1.00  0.00     0.183 HD
HETATM    7  C4  UNL     1      31.915   6.097 -37.064  1.00  0.00     0.677 A 
HETATM    8  N4  UNL     1      31.685   6.323 -35.774  1.00  0.00    -0.176 N 
ATOM      9  H4  UNL     1      31.216   5.595 -35.234  1.00  0.00     0.186 HD
HETATM   10  C5  UNL     1      32.044   7.483 -35.122  1.00  0.00     0.139 A 
HETATM   11  N5  UNL     1      31.783   7.598 -33.902  1.00  0.00    -0.375 N 
ATOM     12  H5  UNL     1      31.314   6.766 -33.543  1.00  0.00     0.161 HD
ENDROOT
BRANCH  11  13
HETATM   13  C6  UNL     1      31.958   8.549 -32.906  1.00  0.00     0.121 C 
BRANCH  13  14
HETATM   14  C7  UNL     1      30.900   8.416 -31.781  1.00  0.00     0.020 C 
BRANCH  14  15
HETATM   15  C8  UNL     1      29.558   8.718 -32.369  1.00  0.00     0.003 C 
BRANCH  15  16
HETATM   16  C9  UNL     1      29.466  10.062 -33.016  1.00  0.00     0.030 C 
BRANCH  16  17
HETATM   17  C10 UNL     1      28.078  10.411 -33.469  1.00  0.00     0.272 C 
BRANCH  17  18
HETATM   18  N6  UNL     1      28.019  10.595 -34.903  1.00  0.00     0.088 N 
HETATM   19  C11 UNL     1      29.301  10.237 -35.473  1.00  0.00     0.272 C 
HETATM   20  C12 UNL     1      29.175   9.063 -36.389  1.00  0.00     0.030 C 
HETATM   21  C13 UNL     1      28.392   7.922 -35.813  1.00  0.00     0.003 C 
HETATM   22  C14 UNL     1      27.044   8.418 -35.377  1.00  0.00     0.030 C 
HETATM   23  C15 UNL     1      26.951   9.907 -35.548  1.00  0.00     0.272 C 
ENDBRANCH  17  18
ENDBRANCH  16  17
ENDBRANCH  15  16
ENDBRANCH  14  15
ENDBRANCH  13  14
ENDBRANCH  11  13
BRANCH   7  24
HETATM   24  N3  UNL     1      31.554   4.982 -37.623  1.00  0.00    -0.234 N 
ATOM     25  H32 UNL     1      30.713   4.929 -38.198  1.00  0.00     0.174 HD
ATOM     26  H31 UNL     1      32.097   4.126 -37.506  1.00  0.00     0.174 HD
ENDBRANCH   7  24
TORSDOF 7
ENDMDL
MODEL 3
REMARK VINA RESULT: -6.449524387      2.098      3.342
REMARK  7 active torsions:
REMARK  status: ('A' for Active; 'I' for Inactive)
REMARK    1  A    between atoms: C4_7  and  N3_8 
REMARK    2  A    between atoms: N5_14  and  C6_16 
REMARK    3  A    between atoms: C6_16  and  C7_17 
REMARK    4  A    between atoms: C7_17  and  C8_18 
REMARK    5  A    between atoms: C8_18  and  C9_19 
REMARK    6  A    between atoms: C9_19  and  C10_20 
REMARK    7  A    between atoms: C10_20  and  N6_21 
ROOT
HETATM    1  N1  UNL     1      31.959  11.406 -35.127  1.00  0.00    -0.191 NA
HETATM    2  C1  UNL     1      31.013  10.811 -34.924  1.00  0.00     0.104 C 
HETATM    3  C2  UNL     1      29.792  10.082 -34.679  1.00  0.00     0.104 A 
HETATM    4  C3  UNL     1      28.581  10.620 -35.117  1.00  0.00     0.132 A 
HETATM    5  N2  UNL     1      27.419   9.980 -34.913  1.00  0.00    -0.201 N 
ATOM      6  H2  UNL     1      26.553  10.405 -35.247  1.00  0.00     0.183 HD
HETATM    7  C4  UNL     1      27.363   8.794 -34.281  1.00  0.00     0.677 A 
HETATM    8  N4  UNL     1      28.510   8.271 -33.859  1.00  0.00    -0.176 N 
ATOM      9  H4  UNL     1      28.479   7.371 -33.378  1.00  0.00     0.186 HD
HETATM   10  C5  UNL     1      29.738   8.871 -34.033  1.00  0.00     0.139 A 
HETATM   11  N5  UNL     1      30.761   8.293 -33.597  1.00  0.00    -0.375 N 
ATOM     12  H5  UNL     1      30.525   7.408 -33.150  1.00  0.00     0.161 HD
ENDROOT
BRANCH  11  13
HETATM   13  C6  UNL     1      32.129   8.530 -33.559  1.00  0.00     0.121 C 
BRANCH  13  14
HETATM   14  C7  UNL     1      32.925   7.486 -34.382  1.00  0.00     0.020 C 
BRANCH  14  15
HETATM   15  C8  UNL     1      34.161   8.152 -34.901  1.00  0.00     0.003 C 
BRANCH  15  16
HETATM   16  C9  UNL     1      34.339   8.035 -36.380  1.00  0.00     0.030 C 
BRANCH  16  17
HETATM   17  C10 UNL     1      33.400   8.907 -37.164  1.00  0.00     0.272 C 
BRANCH  17  18
HETATM   18  N6  UNL     1      32.903   8.228 -38.340  1.00  0.00     0.088 N 
HETATM   19  C11 UNL     1      33.165   6.810 -38.207  1.00  0.00     0.272 C 
HETATM   20  C12 UNL     1      31.894   6.027 -38.157  1.00  0.00     0.030 C 
HETATM   21  C13 UNL     1      30.876   6.580 -37.205  1.00  0.00     0.003 C 
HETATM   22  C14 UNL     1      30.616   8.019 -37.540  1.00  0.00     0.030 C 
HETATM   23  C15 UNL     1      31.532   8.478 -38.638  1.00  0.00     0.272 C 
ENDBRANCH  17  18
ENDBRANCH  16  17
ENDBRANCH  15  16
ENDBRANCH  14  15
ENDBRANCH  13  14
ENDBRANCH  11  13
BRANCH   7  24
HETATM   24  N3  UNL     1      26.235   8.181 -34.089  1.00  0.00    -0.234 N 
ATOM     25  H32 UNL     1      26.089   7.591 -33.269  1.00  0.00     0.174 HD
ATOM     26  H31 UNL     1      25.462   8.268 -34.748  1.00  0.00     0.174 HD
ENDBRANCH   7  24
TORSDOF 7
ENDMDL
MODEL 4
REMARK VINA RESULT: -6.421493146      2.007      4.326
REMARK  7 active torsions:
REMARK  status: ('A' for Active; 'I' for Inactive)
REMARK    1  A    between atoms: C4_7  and  N3_8 
REMARK    2  A    between atoms: N5_14  and  C6_16 
REMARK    3  A    between atoms: C6_16  and  C7_17 
REMARK    4  A    between atoms: C7_17  and  C8_18 
REMARK    5  A    between atoms: C8_18  and  C9_19 
REMARK    6  A    between atoms: C9_19  and  C10_20 
REMARK    7  A    between atoms: C10_20  and  N6_21 
ROOT
HETATM    1  N1  UNL     1      34.631   7.545 -37.505  1.00  0.00    -0.191 NA
HETATM    2  C1  UNL     1      33.539   7.255 -37.385  1.00  0.00     0.104 C 
HETATM    3  C2  UNL     1      32.149   6.886 -37.268  1.00  0.00     0.104 A 
HETATM    4  C3  UNL     1      31.420   6.611 -38.426  1.00  0.00     0.132 A 
HETATM    5  N2  UNL     1      30.124   6.264 -38.369  1.00  0.00    -0.201 N 
ATOM      6  H2  UNL     1      29.624   6.071 -39.237  1.00  0.00     0.183 HD
HETATM    7  C4  UNL     1      29.467   6.164 -37.200  1.00  0.00     0.677 A 
HETATM    8  N4  UNL     1      30.150   6.424 -36.089  1.00  0.00    -0.176 N 
ATOM      9  H4  UNL     1      29.661   6.353 -35.196  1.00  0.00     0.186 HD
HETATM   10  C5  UNL     1      31.480   6.786 -36.072  1.00  0.00     0.139 A 
HETATM   11  N5  UNL     1      32.032   7.009 -34.969  1.00  0.00    -0.375 N 
ATOM     12  H5  UNL     1      31.380   6.884 -34.195  1.00  0.00     0.161 HD
ENDROOT
BRANCH  11  13
HETATM   13  C6  UNL     1      33.291   7.381 -34.515  1.00  0.00     0.121 C 
BRANCH  13  14
HETATM   14  C7  UNL     1      33.280   8.779 -33.847  1.00  0.00     0.020 C 
BRANCH  14  15
HETATM   15  C8  UNL     1      33.583   9.798 -34.901  1.00  0.00     0.003 C 
BRANCH  15  16
HETATM   16  C9  UNL     1      32.404  10.618 -35.311  1.00  0.00     0.030 C 
BRANCH  16  17
HETATM   17  C10 UNL     1      31.165  10.317 -34.518  1.00  0.00     0.272 C 
BRANCH  17  18
HETATM   18  N6  UNL     1      29.985  10.864 -35.151  1.00  0.00     0.088 N 
HETATM   19  C11 UNL     1      29.476   9.898 -36.103  1.00  0.00     0.272 C 
HETATM   20  C12 UNL     1      28.113   9.424 -35.716  1.00  0.00     0.030 C 
HETATM   21  C13 UNL     1      27.993   9.024 -34.275  1.00  0.00     0.003 C 
HETATM   22  C14 UNL     1      28.440  10.165 -33.408  1.00  0.00     0.030 C 
HETATM   23  C15 UNL     1      28.968  11.291 -34.248  1.00  0.00     0.272 C 
ENDBRANCH  17  18
ENDBRANCH  16  17
ENDBRANCH  15  16
ENDBRANCH  14  15
ENDBRANCH  13  14
ENDBRANCH  11  13
BRANCH   7  24
HETATM   24  N3  UNL     1      28.214   5.827 -37.153  1.00  0.00    -0.234 N 
ATOM     25  H32 UNL     1      27.696   5.606 -38.003  1.00  0.00     0.174 HD
ATOM     26  H31 UNL     1      27.709   5.774 -36.268  1.00  0.00     0.174 HD
ENDBRANCH   7  24
TORSDOF 7
ENDMDL
MODEL 5
REMARK VINA RESULT: -6.375580902      2.262      4.290
REMARK  7 active torsions:
REMARK  status: ('A' for Active; 'I' for Inactive)
REMARK    1  A    between atoms: C4_7  and  N3_8 
REMARK    2  A    between atoms: N5_14  and  C6_16 
REMARK    3  A    between atoms: C6_16  and  C7_17 
REMARK    4  A    between atoms: C7_17  and  C8_18 
REMARK    5  A    between atoms: C8_18  and  C9_19 
REMARK    6  A    between atoms: C9_19  and  C10_20 
REMARK    7  A    between atoms: C10_20  and  N6_21 
ROOT
HETATM    1  N1  UNL     1      34.971   8.268 -36.516  1.00  0.00    -0.191 NA
HETATM    2  C1  UNL     1      34.000   7.789 -36.860  1.00  0.00     0.104 C 
HETATM    3  C2  UNL     1      32.777   7.185 -37.331  1.00  0.00     0.104 A 
HETATM    4  C3  UNL     1      32.568   7.060 -38.705  1.00  0.00     0.132 A 
HETATM    5  N2  UNL     1      31.445   6.507 -39.192  1.00  0.00    -0.201 N 
ATOM      6  H2  UNL     1      31.327   6.433 -40.203  1.00  0.00     0.183 HD
HETATM    7  C4  UNL     1      30.473   6.047 -38.385  1.00  0.00     0.677 A 
HETATM    8  N4  UNL     1      30.660   6.161 -37.073  1.00  0.00    -0.176 N 
ATOM      9  H4  UNL     1      29.928   5.816 -36.452  1.00  0.00     0.186 HD
HETATM   10  C5  UNL     1      31.785   6.717 -36.504  1.00  0.00     0.139 A 
HETATM   11  N5  UNL     1      31.864   6.777 -35.255  1.00  0.00    -0.375 N 
ATOM     12  H5  UNL     1      31.036   6.381 -34.811  1.00  0.00     0.161 HD
ENDROOT
BRANCH  11  13
HETATM   13  C6  UNL     1      32.773   7.235 -34.310  1.00  0.00     0.121 C 
BRANCH  13  14
HETATM   14  C7  UNL     1      32.327   8.576 -33.674  1.00  0.00     0.020 C 
BRANCH  14  15
HETATM   15  C8  UNL     1      31.619   8.267 -32.392  1.00  0.00     0.003 C 
BRANCH  15  16
HETATM   16  C9  UNL     1      30.191   8.706 -32.366  1.00  0.00     0.030 C 
BRANCH  16  17
HETATM   17  C10 UNL     1      29.380   8.166 -33.508  1.00  0.00     0.272 C 
BRANCH  17  18
HETATM   18  N6  UNL     1      28.363   9.106 -33.928  1.00  0.00     0.088 N 
HETATM   19  C11 UNL     1      28.541  10.343 -33.198  1.00  0.00     0.272 C 
HETATM   20  C12 UNL     1      28.877  11.471 -34.119  1.00  0.00     0.030 C 
HETATM   21  C13 UNL     1      29.960  11.150 -35.105  1.00  0.00     0.003 C 
HETATM   22  C14 UNL     1      29.581   9.916 -35.870  1.00  0.00     0.030 C 
HETATM   23  C15 UNL     1      28.306   9.334 -35.333  1.00  0.00     0.272 C 
ENDBRANCH  17  18
ENDBRANCH  16  17
ENDBRANCH  15  16
ENDBRANCH  14  15
ENDBRANCH  13  14
ENDBRANCH  11  13
BRANCH   7  24
HETATM   24  N3  UNL     1      29.391   5.512 -38.864  1.00  0.00    -0.234 N 
ATOM     25  H32 UNL     1      28.727   6.063 -39.409  1.00  0.00     0.174 HD
ATOM     26  H31 UNL     1      29.170   4.528 -38.710  1.00  0.00     0.174 HD
ENDBRANCH   7  24
TORSDOF 7
ENDMDL
