MODEL 1
REMARK VINA RESULT: -6.593212853      0.000      0.000
REMARK  9 active torsions:
REMARK  status: ('A' for Active; 'I' for Inactive)
REMARK    1  A    between atoms: N1_1  and  C1_4 
REMARK    2  A    between atoms: C4_7  and  C5_8 
REMARK    3  A    between atoms: C11_16  and  N3_17 
REMARK    4  A    between atoms: N3_17  and  C12_19 
REMARK    5  A    between atoms: C12_19  and  C13_20 
REMARK    6  A    between atoms: C13_20  and  O1_21 
REMARK    7  A    between atoms: O1_21  and  C14_22 
REMARK    8  A    between atoms: C14_22  and  C15_23 
REMARK    9  A    between atoms: C15_23  and  O2_24 
ROOT
HETATM    1  C1  UNL     1      27.086   8.270 -34.795  1.00  0.00     0.114 C 
HETATM    2  C2  UNL     1      27.344   9.616 -35.021  1.00  0.00     0.051 C 
HETATM    3  C3  UNL     1      28.393  10.130 -35.792  1.00  0.00     0.034 C 
HETATM    4  C4  UNL     1      29.528   9.483 -36.222  1.00  0.00     0.059 C 
HETATM    5  N2  UNL     1      29.575   8.161 -36.561  1.00  0.00    -0.191 N 
ATOM      6  H2  UNL     1      30.342   7.904 -37.183  1.00  0.00     0.184 HD
HETATM    7  C11 UNL     1      28.772   7.142 -36.204  1.00  0.00     0.680 C 
HETATM    8  N4  UNL     1      27.770   7.223 -35.312  1.00  0.00    -0.177 N 
ATOM      9  H4  UNL     1      27.465   6.318 -34.955  1.00  0.00     0.185 HD
ENDROOT
BRANCH   7  10
HETATM   10  N3  UNL     1      29.030   6.047 -36.792  1.00  0.00    -0.224 N 
ATOM     11  H3  UNL     1      28.792   5.200 -36.276  1.00  0.00     0.177 HD
BRANCH  10  12
HETATM   12  C12 UNL     1      29.610   5.844 -38.077  1.00  0.00     0.164 C 
BRANCH  12  13
HETATM   13  C13 UNL     1      30.617   4.726 -37.994  1.00  0.00     0.188 C 
BRANCH  13  14
HETATM   14  O1  UNL     1      31.698   5.016 -37.201  1.00  0.00    -0.387 OA
BRANCH  14  15
HETATM   15  C14 UNL     1      32.362   6.166 -37.523  1.00  0.00     0.193 C 
BRANCH  15  16
HETATM   16  C15 UNL     1      32.651   6.925 -36.237  1.00  0.00     0.190 C 
BRANCH  16  17
HETATM   17  O2  UNL     1      31.923   6.347 -35.192  1.00  0.00    -0.399 OA
ATOM     18  H2  UNL     1      31.756   7.006 -34.528  1.00  0.00     0.209 HD
ENDBRANCH  16  17
ENDBRANCH  15  16
ENDBRANCH  14  15
ENDBRANCH  13  14
ENDBRANCH  12  13
ENDBRANCH  10  12
ENDBRANCH   7  10
BRANCH   4  19
HETATM   19  C5  UNL     1      30.781  10.209 -36.348  1.00  0.00    -0.009 A 
HETATM   20  C6  UNL     1      31.542  10.154 -37.486  1.00  0.00     0.014 A 
HETATM   21  C7  UNL     1      32.751  10.856 -37.586  1.00  0.00     0.001 A 
HETATM   22  C8  UNL     1      33.195  11.620 -36.528  1.00  0.00     0.000 A 
HETATM   23  C9  UNL     1      32.420  11.667 -35.389  1.00  0.00     0.001 A 
HETATM   24  C10 UNL     1      31.233  10.986 -35.272  1.00  0.00     0.014 A 
ENDBRANCH   4  19
BRANCH   1  25
HETATM   25  N1  UNL     1      26.099   8.023 -34.017  1.00  0.00    -0.385 N 
ATOM     26  H12 UNL     1      25.190   8.421 -34.250  1.00  0.00     0.157 HD
ATOM     27  H11 UNL     1      26.314   7.434 -33.212  1.00  0.00     0.157 HD
ENDBRANCH   1  25
TORSDOF 9
ENDMDL
MODEL 2
REMARK VINA RESULT: -6.501691856      1.681      2.395
REMARK  9 active torsions:
REMARK  status: ('A' for Active; 'I' for Inactive)
REMARK    1  A    between atoms: N1_1  and  C1_4 
REMARK    2  A    between atoms: C4_7  and  C5_8 
REMARK    3  A    between atoms: C11_16  and  N3_17 
REMARK    4  A    between atoms: N3_17  and  C12_19 
REMARK    5  A    between atoms: C12_19  and  C13_20 
REMARK    6  A    between atoms: C13_20  and  O1_21 
REMARK    7  A    between atoms: O1_21  and  C14_22 
REMARK    8  A    between atoms: C14_22  and  C15_23 
REMARK    9  A    between atoms: C15_23  and  O2_24 
ROOT
HETATM    1  C1  UNL     1      27.342   8.143 -34.649  1.00  0.00     0.114 C 
HETATM    2  C2  UNL     1      28.174   9.226 -34.394  1.00  0.00     0.051 C 
HETATM    3  C3  UNL     1      29.507   9.348 -34.807  1.00  0.00     0.034 C 
HETATM    4  C4  UNL     1      30.351   8.359 -35.259  1.00  0.00     0.059 C 
HETATM    5  N2  UNL     1      29.946   7.281 -35.991  1.00  0.00    -0.191 N 
ATOM      6  H2  UNL     1      30.678   6.842 -36.550  1.00  0.00     0.184 HD
HETATM    7  C11 UNL     1      28.734   6.704 -36.094  1.00  0.00     0.680 C 
HETATM    8  N4  UNL     1      27.653   7.043 -35.372  1.00  0.00    -0.177 N 
ATOM      9  H4  UNL     1      26.923   6.330 -35.369  1.00  0.00     0.185 HD
ENDROOT
BRANCH   7  10
HETATM   10  N3  UNL     1      28.673   5.776 -36.960  1.00  0.00    -0.224 N 
ATOM     11  H3  UNL     1      27.928   5.093 -36.824  1.00  0.00     0.177 HD
BRANCH  10  12
HETATM   12  C12 UNL     1      29.507   5.564 -38.094  1.00  0.00     0.164 C 
BRANCH  12  13
HETATM   13  C13 UNL     1      30.121   4.191 -38.005  1.00  0.00     0.188 C 
BRANCH  13  14
HETATM   14  O1  UNL     1      31.452   4.203 -37.671  1.00  0.00    -0.387 OA
BRANCH  14  15
HETATM   15  C14 UNL     1      32.155   5.281 -38.130  1.00  0.00     0.193 C 
BRANCH  15  16
HETATM   16  C15 UNL     1      32.932   4.853 -39.366  1.00  0.00     0.190 C 
BRANCH  16  17
HETATM   17  O2  UNL     1      33.935   3.955 -38.986  1.00  0.00    -0.399 OA
ATOM     18  H2  UNL     1      33.713   3.088 -39.306  1.00  0.00     0.209 HD
ENDBRANCH  16  17
ENDBRANCH  15  16
ENDBRANCH  14  15
ENDBRANCH  13  14
ENDBRANCH  12  13
ENDBRANCH  10  12
ENDBRANCH   7  10
BRANCH   4  19
HETATM   19  C5  UNL     1      31.774   8.424 -34.969  1.00  0.00    -0.009 A 
HETATM   20  C6  UNL     1      32.519   7.299 -34.733  1.00  0.00     0.014 A 
HETATM   21  C7  UNL     1      33.889   7.382 -34.449  1.00  0.00     0.001 A 
HETATM   22  C8  UNL     1      34.512   8.611 -34.404  1.00  0.00     0.000 A 
HETATM   23  C9  UNL     1      33.751   9.734 -34.645  1.00  0.00     0.001 A 
HETATM   24  C10 UNL     1      32.408   9.674 -34.925  1.00  0.00     0.014 A 
ENDBRANCH   4  19
BRANCH   1  25
HETATM   25  N1  UNL     1      26.170   8.219 -34.136  1.00  0.00    -0.385 N 
ATOM     26  H12 UNL     1      25.875   9.110 -33.738  1.00  0.00     0.157 HD
ATOM     27  H11 UNL     1      25.622   7.360 -34.173  1.00  0.00     0.157 HD
ENDBRANCH   1  25
TORSDOF 9
ENDMDL
MODEL 3
REMARK VINA RESULT: -6.489138098      1.674      2.454
REMARK  9 active torsions:
REMARK  status: ('A' for Active; 'I' for Inactive)
REMARK    1  A    between atoms: N1_1  and  C1_4 
REMARK    2  A    between atoms: C4_7  and  C5_8 
REMARK    3  A    between atoms: C11_16  and  N3_17 
REMARK    4  A    between atoms: N3_17  and  C12_19 
REMARK    5  A    between atoms: C12_19  and  C13_20 
REMARK    6  A    between atoms: C13_20  and  O1_21 
REMARK    7  A    between atoms: O1_21  and  C14_22 
REMARK    8  A    between atoms: C14_22  and  C15_23 
REMARK    9  A    between atoms: C15_23  and  O2_24 
ROOT
HETATM    1  C1  UNL     1      27.330   8.146 -34.658  1.00  0.00     0.114 C 
HETATM    2  C2  UNL     1      28.152   9.240 -34.418  1.00  0.00     0.051 C 
HETATM    3  C3  UNL     1      29.483   9.369 -34.834  1.00  0.00     0.034 C 
HETATM    4  C4  UNL     1      30.336   8.384 -35.273  1.00  0.00     0.059 C 
HETATM    5  N2  UNL     1      29.941   7.292 -35.992  1.00  0.00    -0.191 N 
ATOM      6  H2  UNL     1      30.677   6.853 -36.545  1.00  0.00     0.184 HD
HETATM    7  C11 UNL     1      28.735   6.703 -36.087  1.00  0.00     0.680 C 
HETATM    8  N4  UNL     1      27.651   7.040 -35.368  1.00  0.00    -0.177 N 
ATOM      9  H4  UNL     1      26.928   6.320 -35.356  1.00  0.00     0.185 HD
ENDROOT
BRANCH   7  10
HETATM   10  N3  UNL     1      28.682   5.763 -36.940  1.00  0.00    -0.224 N 
ATOM     11  H3  UNL     1      27.964   5.056 -36.777  1.00  0.00     0.177 HD
BRANCH  10  12
HETATM   12  C12 UNL     1      29.491   5.566 -38.095  1.00  0.00     0.164 C 
BRANCH  12  13
HETATM   13  C13 UNL     1      30.132   4.204 -38.022  1.00  0.00     0.188 C 
BRANCH  13  14
HETATM   14  O1  UNL     1      31.445   4.232 -37.625  1.00  0.00    -0.387 OA
BRANCH  14  15
HETATM   15  C14 UNL     1      32.174   5.282 -38.107  1.00  0.00     0.193 C 
BRANCH  15  16
HETATM   16  C15 UNL     1      32.899   4.822 -39.363  1.00  0.00     0.190 C 
BRANCH  16  17
HETATM   17  O2  UNL     1      33.928   3.948 -39.001  1.00  0.00    -0.399 OA
ATOM     18  H2  UNL     1      34.483   3.792 -39.757  1.00  0.00     0.209 HD
ENDBRANCH  16  17
ENDBRANCH  15  16
ENDBRANCH  14  15
ENDBRANCH  13  14
ENDBRANCH  12  13
ENDBRANCH  10  12
ENDBRANCH   7  10
BRANCH   4  19
HETATM   19  C5  UNL     1      31.758   8.466 -34.986  1.00  0.00    -0.009 A 
HETATM   20  C6  UNL     1      32.414   9.666 -34.896  1.00  0.00     0.014 A 
HETATM   21  C7  UNL     1      33.787   9.725 -34.625  1.00  0.00     0.001 A 
HETATM   22  C8  UNL     1      34.505   8.562 -34.441  1.00  0.00     0.000 A 
HETATM   23  C9  UNL     1      33.834   7.362 -34.532  1.00  0.00     0.001 A 
HETATM   24  C10 UNL     1      32.488   7.284 -34.798  1.00  0.00     0.014 A 
ENDBRANCH   4  19
BRANCH   1  25
HETATM   25  N1  UNL     1      26.158   8.217 -34.146  1.00  0.00    -0.385 N 
ATOM     26  H12 UNL     1      25.848   9.115 -33.774  1.00  0.00     0.157 HD
ATOM     27  H11 UNL     1      25.623   7.348 -34.156  1.00  0.00     0.157 HD
ENDBRANCH   1  25
TORSDOF 9
ENDMDL
MODEL 4
REMARK VINA RESULT: -6.290014404      2.185      3.188
REMARK  9 active torsions:
REMARK  status: ('A' for Active; 'I' for Inactive)
REMARK    1  A    between atoms: N1_1  and  C1_4 
REMARK    2  A    between atoms: C4_7  and  C5_8 
REMARK    3  A    between atoms: C11_16  and  N3_17 
REMARK    4  A    between atoms: N3_17  and  C12_19 
REMARK    5  A    between atoms: C12_19  and  C13_20 
REMARK    6  A    between atoms: C13_20  and  O1_21 
REMARK    7  A    between atoms: O1_21  and  C14_22 
REMARK    8  A    between atoms: C14_22  and  C15_23 
REMARK    9  A    between atoms: C15_23  and  O2_24 
ROOT
HETATM    1  C1  UNL     1      27.329   8.154 -34.618  1.00  0.00     0.114 C 
HETATM    2  C2  UNL     1      28.161   9.235 -34.353  1.00  0.00     0.051 C 
HETATM    3  C3  UNL     1      29.491   9.364 -34.771  1.00  0.00     0.034 C 
HETATM    4  C4  UNL     1      30.334   8.384 -35.240  1.00  0.00     0.059 C 
HETATM    5  N2  UNL     1      29.927   7.314 -35.985  1.00  0.00    -0.191 N 
ATOM      6  H2  UNL     1      30.657   6.884 -36.553  1.00  0.00     0.184 HD
HETATM    7  C11 UNL     1      28.716   6.737 -36.090  1.00  0.00     0.680 C 
HETATM    8  N4  UNL     1      27.638   7.064 -35.358  1.00  0.00    -0.177 N 
ATOM      9  H4  UNL     1      26.909   6.350 -35.360  1.00  0.00     0.185 HD
ENDROOT
BRANCH   7  10
HETATM   10  N3  UNL     1      28.652   5.820 -36.967  1.00  0.00    -0.224 N 
ATOM     11  H3  UNL     1      27.955   5.095 -36.799  1.00  0.00     0.177 HD
BRANCH  10  12
HETATM   12  C12 UNL     1      29.424   5.672 -38.154  1.00  0.00     0.164 C 
BRANCH  12  13
HETATM   13  C13 UNL     1      30.077   4.314 -38.152  1.00  0.00     0.188 C 
BRANCH  13  14
HETATM   14  O1  UNL     1      30.030   3.677 -39.367  1.00  0.00    -0.387 OA
BRANCH  14  15
HETATM   15  C14 UNL     1      30.079   4.502 -40.455  1.00  0.00     0.193 C 
BRANCH  15  16
HETATM   16  C15 UNL     1      29.487   3.759 -41.643  1.00  0.00     0.190 C 
BRANCH  16  17
HETATM   17  O2  UNL     1      28.946   2.548 -41.200  1.00  0.00    -0.399 OA
ATOM     18  H2  UNL     1      29.495   1.833 -41.502  1.00  0.00     0.209 HD
ENDBRANCH  16  17
ENDBRANCH  15  16
ENDBRANCH  14  15
ENDBRANCH  13  14
ENDBRANCH  12  13
ENDBRANCH  10  12
ENDBRANCH   7  10
BRANCH   4  19
HETATM   19  C5  UNL     1      31.759   8.447 -34.957  1.00  0.00    -0.009 A 
HETATM   20  C6  UNL     1      32.507   7.320 -34.739  1.00  0.00     0.014 A 
HETATM   21  C7  UNL     1      33.878   7.401 -34.461  1.00  0.00     0.001 A 
HETATM   22  C8  UNL     1      34.499   8.631 -34.404  1.00  0.00     0.000 A 
HETATM   23  C9  UNL     1      33.736   9.756 -34.626  1.00  0.00     0.001 A 
HETATM   24  C10 UNL     1      32.391   9.697 -34.900  1.00  0.00     0.014 A 
ENDBRANCH   4  19
BRANCH   1  25
HETATM   25  N1  UNL     1      26.160   8.221 -34.099  1.00  0.00    -0.385 N 
ATOM     26  H12 UNL     1      25.386   7.782 -34.596  1.00  0.00     0.157 HD
ATOM     27  H11 UNL     1      26.104   8.720 -33.211  1.00  0.00     0.157 HD
ENDBRANCH   1  25
TORSDOF 9
ENDMDL
MODEL 5
REMARK VINA RESULT: -6.283980522      2.734      4.346
REMARK  9 active torsions:
REMARK  status: ('A' for Active; 'I' for Inactive)
REMARK    1  A    between atoms: N1_1  and  C1_4 
REMARK    2  A    between atoms: C4_7  and  C5_8 
REMARK    3  A    between atoms: C11_16  and  N3_17 
REMARK    4  A    between atoms: N3_17  and  C12_19 
REMARK    5  A    between atoms: C12_19  and  C13_20 
REMARK    6  A    between atoms: C13_20  and  O1_21 
REMARK    7  A    between atoms: O1_21  and  C14_22 
REMARK    8  A    between atoms: C14_22  and  C15_23 
REMARK    9  A    between atoms: C15_23  and  O2_24 
ROOT
HETATM    1  C1  UNL     1      33.646   7.576 -34.529  1.00  0.00     0.114 C 
HETATM    2  C2  UNL     1      33.020   8.278 -33.507  1.00  0.00     0.051 C 
HETATM    3  C3  UNL     1      31.644   8.512 -33.398  1.00  0.00     0.034 C 
HETATM    4  C4  UNL     1      30.681   8.384 -34.372  1.00  0.00     0.059 C 
HETATM    5  N2  UNL     1      30.711   7.444 -35.362  1.00  0.00    -0.191 N 
ATOM      6  H2  UNL     1      29.804   7.227 -35.775  1.00  0.00     0.184 HD
HETATM    7  C11 UNL     1      31.746   6.759 -35.880  1.00  0.00     0.680 C 
HETATM    8  N4  UNL     1      33.038   6.958 -35.569  1.00  0.00    -0.177 N 
ATOM      9  H4  UNL     1      33.689   6.567 -36.251  1.00  0.00     0.185 HD
ENDROOT
BRANCH   7  10
HETATM   10  N3  UNL     1      31.411   5.868 -36.721  1.00  0.00    -0.224 N 
ATOM     11  H3  UNL     1      31.225   4.942 -36.335  1.00  0.00     0.177 HD
BRANCH  10  12
HETATM   12  C12 UNL     1      31.259   5.991 -38.132  1.00  0.00     0.164 C 
BRANCH  12  13
HETATM   13  C13 UNL     1      32.300   5.143 -38.816  1.00  0.00     0.188 C 
BRANCH  13  14
HETATM   14  O1  UNL     1      33.584   5.592 -38.636  1.00  0.00    -0.387 OA
BRANCH  14  15
HETATM   15  C14 UNL     1      33.974   6.588 -39.486  1.00  0.00     0.193 C 
BRANCH  15  16
HETATM   16  C15 UNL     1      34.664   7.669 -38.668  1.00  0.00     0.190 C 
BRANCH  16  17
HETATM   17  O2  UNL     1      35.224   7.089 -37.525  1.00  0.00    -0.399 OA
ATOM     18  H2  UNL     1      35.505   7.778 -36.934  1.00  0.00     0.209 HD
ENDBRANCH  16  17
ENDBRANCH  15  16
ENDBRANCH  14  15
ENDBRANCH  13  14
ENDBRANCH  12  13
ENDBRANCH  10  12
ENDBRANCH   7  10
BRANCH   4  19
HETATM   19  C5  UNL     1      29.534   9.278 -34.388  1.00  0.00    -0.009 A 
HETATM   20  C6  UNL     1      28.693   9.361 -35.466  1.00  0.00     0.014 A 
HETATM   21  C7  UNL     1      27.596  10.234 -35.467  1.00  0.00     0.001 A 
HETATM   22  C8  UNL     1      27.346  11.028 -34.368  1.00  0.00     0.000 A 
HETATM   23  C9  UNL     1      28.199  10.934 -33.290  1.00  0.00     0.001 A 
HETATM   24  C10 UNL     1      29.279  10.085 -33.271  1.00  0.00     0.014 A 
ENDBRANCH   4  19
BRANCH   1  25
HETATM   25  N1  UNL     1      34.924   7.522 -34.457  1.00  0.00    -0.385 N 
ATOM     26  H12 UNL     1      35.345   7.258 -33.566  1.00  0.00     0.157 HD
ATOM     27  H11 UNL     1      35.420   7.753 -35.317  1.00  0.00     0.157 HD
ENDBRANCH   1  25
TORSDOF 9
ENDMDL
