MODEL 1
REMARK VINA RESULT: -6.712722300      0.000      0.000
REMARK  6 active torsions:
REMARK  status: ('A' for Active; 'I' for Inactive)
REMARK    1  A    between atoms: N3_6  and  C2_7 
REMARK    2  A    between atoms: C2_7  and  C3_8 
REMARK    3  A    between atoms: C3_8  and  C4_9 
REMARK    4  A    between atoms: C4_9  and  S1_10 
REMARK    5  A    between atoms: S1_10  and  C5_11 
REMARK    6  A    between atoms: C5_11  and  C6_12 
ROOT
HETATM    1  C2  UNL     1      27.739   9.858 -33.756  1.00  0.00     0.152 C 
ENDROOT
BRANCH   1   2
HETATM    2  N3  UNL     1      27.827   8.577 -34.414  1.00  0.00    -0.226 N 
HETATM    3  N2  UNL     1      28.694   7.606 -33.893  1.00  0.00    -0.012 NA
HETATM    4  N1  UNL     1      29.310   6.894 -34.927  1.00  0.00    -0.235 N 
HETATM    5  C1  UNL     1      28.599   6.565 -36.111  1.00  0.00     0.341 C 
ATOM      6  H1  UNL     1      30.283   6.606 -34.828  1.00  0.00     0.189 HD
HETATM    7  O1  UNL     1      28.968   5.642 -36.874  1.00  0.00    -0.245 OA
HETATM    8  N4  UNL     1      27.444   7.301 -36.436  1.00  0.00    -0.259 N 
HETATM    9  C12 UNL     1      27.033   8.347 -35.564  1.00  0.00     0.343 C 
ATOM     10  H4  UNL     1      26.912   7.088 -37.280  1.00  0.00     0.175 HD
HETATM   11  O2  UNL     1      26.020   9.042 -35.786  1.00  0.00    -0.245 OA
ENDBRANCH   1   2
BRANCH   1  12
HETATM   12  C3  UNL     1      29.070  10.524 -33.550  1.00  0.00     0.032 C 
BRANCH  12  13
HETATM   13  C4  UNL     1      29.495  11.349 -34.736  1.00  0.00     0.076 C 
BRANCH  13  14
HETATM   14  S1  UNL     1      30.599  10.283 -35.734  1.00  0.00    -0.164 SA
BRANCH  14  15
HETATM   15  C5  UNL     1      32.312  10.641 -35.233  1.00  0.00     0.112 C 
BRANCH  15  16
HETATM   16  C6  UNL     1      32.907   9.392 -34.700  1.00  0.00    -0.049 A 
HETATM   17  C7  UNL     1      32.222   8.644 -33.740  1.00  0.00     0.008 A 
HETATM   18  C8  UNL     1      32.829   7.491 -33.286  1.00  0.00     0.001 A 
HETATM   19  C9  UNL     1      34.056   7.092 -33.756  1.00  0.00     0.000 A 
HETATM   20  C10 UNL     1      34.750   7.814 -34.703  1.00  0.00     0.001 A 
HETATM   21  C11 UNL     1      34.136   8.982 -35.162  1.00  0.00     0.008 A 
ENDBRANCH  15  16
ENDBRANCH  14  15
ENDBRANCH  13  14
ENDBRANCH  12  13
ENDBRANCH   1  12
TORSDOF 6
ENDMDL
MODEL 2
REMARK VINA RESULT: -6.418376905      2.482      4.705
REMARK  6 active torsions:
REMARK  status: ('A' for Active; 'I' for Inactive)
REMARK    1  A    between atoms: N3_6  and  C2_7 
REMARK    2  A    between atoms: C2_7  and  C3_8 
REMARK    3  A    between atoms: C3_8  and  C4_9 
REMARK    4  A    between atoms: C4_9  and  S1_10 
REMARK    5  A    between atoms: S1_10  and  C5_11 
REMARK    6  A    between atoms: C5_11  and  C6_12 
ROOT
HETATM    1  C2  UNL     1      32.275   8.008 -37.099  1.00  0.00     0.152 C 
ENDROOT
BRANCH   1   2
HETATM    2  N3  UNL     1      31.580   6.746 -37.163  1.00  0.00    -0.226 N 
HETATM    3  N2  UNL     1      32.326   5.568 -37.311  1.00  0.00    -0.012 NA
HETATM    4  N1  UNL     1      31.664   4.671 -38.155  1.00  0.00    -0.235 N 
HETATM    5  C1  UNL     1      30.250   4.547 -38.123  1.00  0.00     0.341 C 
ATOM      6  H1  UNL     1      32.205   4.098 -38.802  1.00  0.00     0.189 HD
HETATM    7  O1  UNL     1      29.660   3.534 -38.567  1.00  0.00    -0.245 OA
HETATM    8  N4  UNL     1      29.488   5.596 -37.575  1.00  0.00    -0.259 N 
HETATM    9  C12 UNL     1      30.166   6.742 -37.073  1.00  0.00     0.343 C 
ATOM     10  H4  UNL     1      28.471   5.536 -37.537  1.00  0.00     0.175 HD
HETATM   11  O2  UNL     1      29.559   7.711 -36.572  1.00  0.00    -0.245 OA
ENDBRANCH   1   2
BRANCH   1  12
HETATM   12  C3  UNL     1      33.741   7.876 -36.801  1.00  0.00     0.032 C 
BRANCH  12  13
HETATM   13  C4  UNL     1      34.030   7.821 -35.324  1.00  0.00     0.076 C 
BRANCH  13  14
HETATM   14  S1  UNL     1      33.136   9.231 -34.572  1.00  0.00    -0.164 SA
BRANCH  14  15
HETATM   15  C5  UNL     1      31.726   8.555 -33.638  1.00  0.00     0.112 C 
BRANCH  15  16
HETATM   16  C6  UNL     1      30.586   9.491 -33.783  1.00  0.00    -0.049 A 
HETATM   17  C7  UNL     1      30.610  10.476 -34.773  1.00  0.00     0.008 A 
HETATM   18  C8  UNL     1      29.517  11.314 -34.857  1.00  0.00     0.001 A 
HETATM   19  C9  UNL     1      28.448  11.188 -34.004  1.00  0.00     0.000 A 
HETATM   20  C10 UNL     1      28.402  10.224 -33.021  1.00  0.00     0.001 A 
HETATM   21  C11 UNL     1      29.509   9.376 -32.936  1.00  0.00     0.008 A 
ENDBRANCH  15  16
ENDBRANCH  14  15
ENDBRANCH  13  14
ENDBRANCH  12  13
ENDBRANCH   1  12
TORSDOF 6
ENDMDL
MODEL 3
REMARK VINA RESULT: -6.322824684      2.708      4.901
REMARK  6 active torsions:
REMARK  status: ('A' for Active; 'I' for Inactive)
REMARK    1  A    between atoms: N3_6  and  C2_7 
REMARK    2  A    between atoms: C2_7  and  C3_8 
REMARK    3  A    between atoms: C3_8  and  C4_9 
REMARK    4  A    between atoms: C4_9  and  S1_10 
REMARK    5  A    between atoms: S1_10  and  C5_11 
REMARK    6  A    between atoms: C5_11  and  C6_12 
ROOT
HETATM    1  C2  UNL     1      33.094   7.836 -36.596  1.00  0.00     0.152 C 
ENDROOT
BRANCH   1   2
HETATM    2  N3  UNL     1      31.968   7.017 -36.972  1.00  0.00    -0.226 N 
HETATM    3  N2  UNL     1      31.881   5.712 -36.467  1.00  0.00    -0.012 NA
HETATM    4  N1  UNL     1      31.376   4.842 -37.438  1.00  0.00    -0.235 N 
HETATM    5  C1  UNL     1      30.360   5.262 -38.336  1.00  0.00     0.341 C 
ATOM      6  H1  UNL     1      31.743   3.893 -37.502  1.00  0.00     0.189 HD
HETATM    7  O1  UNL     1      29.635   4.445 -38.951  1.00  0.00    -0.245 OA
HETATM    8  N4  UNL     1      30.162   6.641 -38.541  1.00  0.00    -0.259 N 
HETATM    9  C12 UNL     1      30.990   7.561 -37.839  1.00  0.00     0.343 C 
ATOM     10  H4  UNL     1      29.439   6.974 -39.179  1.00  0.00     0.175 HD
HETATM   11  O2  UNL     1      30.873   8.797 -37.969  1.00  0.00    -0.245 OA
ENDBRANCH   1   2
BRANCH   1  12
HETATM   12  C3  UNL     1      33.562   7.610 -35.186  1.00  0.00     0.032 C 
BRANCH  12  13
HETATM   13  C4  UNL     1      33.310   8.798 -34.295  1.00  0.00     0.076 C 
BRANCH  13  14
HETATM   14  S1  UNL     1      31.577   8.651 -33.720  1.00  0.00    -0.164 SA
BRANCH  14  15
HETATM   15  C5  UNL     1      30.595   9.904 -34.602  1.00  0.00     0.112 C 
BRANCH  15  16
HETATM   16  C6  UNL     1      29.244   9.345 -34.843  1.00  0.00    -0.049 A 
HETATM   17  C7  UNL     1      28.968   8.014 -34.520  1.00  0.00     0.008 A 
HETATM   18  C8  UNL     1      27.691   7.555 -34.768  1.00  0.00     0.001 A 
HETATM   19  C9  UNL     1      26.728   8.370 -35.309  1.00  0.00     0.000 A 
HETATM   20  C10 UNL     1      26.975   9.685 -35.636  1.00  0.00     0.001 A 
HETATM   21  C11 UNL     1      28.269  10.150 -35.385  1.00  0.00     0.008 A 
ENDBRANCH  15  16
ENDBRANCH  14  15
ENDBRANCH  13  14
ENDBRANCH  12  13
ENDBRANCH   1  12
TORSDOF 6
ENDMDL
MODEL 4
REMARK VINA RESULT: -6.303546279      2.705      4.888
REMARK  6 active torsions:
REMARK  status: ('A' for Active; 'I' for Inactive)
REMARK    1  A    between atoms: N3_6  and  C2_7 
REMARK    2  A    between atoms: C2_7  and  C3_8 
REMARK    3  A    between atoms: C3_8  and  C4_9 
REMARK    4  A    between atoms: C4_9  and  S1_10 
REMARK    5  A    between atoms: S1_10  and  C5_11 
REMARK    6  A    between atoms: C5_11  and  C6_12 
ROOT
HETATM    1  C2  UNL     1      33.096   7.844 -36.614  1.00  0.00     0.152 C 
ENDROOT
BRANCH   1   2
HETATM    2  N3  UNL     1      31.972   7.024 -36.993  1.00  0.00    -0.226 N 
HETATM    3  N2  UNL     1      31.879   5.722 -36.479  1.00  0.00    -0.012 NA
HETATM    4  N1  UNL     1      31.378   4.848 -37.449  1.00  0.00    -0.235 N 
HETATM    5  C1  UNL     1      30.369   5.263 -38.357  1.00  0.00     0.341 C 
ATOM      6  H1  UNL     1      31.744   3.897 -37.504  1.00  0.00     0.189 HD
HETATM    7  O1  UNL     1      29.647   4.444 -38.971  1.00  0.00    -0.245 OA
HETATM    8  N4  UNL     1      30.175   6.642 -38.572  1.00  0.00    -0.259 N 
HETATM    9  C12 UNL     1      31.000   7.564 -37.870  1.00  0.00     0.343 C 
ATOM     10  H4  UNL     1      29.458   6.971 -39.218  1.00  0.00     0.175 HD
HETATM   11  O2  UNL     1      30.887   8.800 -38.009  1.00  0.00    -0.245 OA
ENDBRANCH   1   2
BRANCH   1  12
HETATM   12  C3  UNL     1      33.587   7.588 -35.218  1.00  0.00     0.032 C 
BRANCH  12  13
HETATM   13  C4  UNL     1      33.364   8.763 -34.301  1.00  0.00     0.076 C 
BRANCH  13  14
HETATM   14  S1  UNL     1      31.626   8.650 -33.735  1.00  0.00    -0.164 SA
BRANCH  14  15
HETATM   15  C5  UNL     1      30.670   9.912 -34.633  1.00  0.00     0.112 C 
BRANCH  15  16
HETATM   16  C6  UNL     1      29.315   9.369 -34.887  1.00  0.00    -0.049 A 
HETATM   17  C7  UNL     1      28.300  10.208 -35.353  1.00  0.00     0.008 A 
HETATM   18  C8  UNL     1      27.061   9.641 -35.571  1.00  0.00     0.001 A 
HETATM   19  C9  UNL     1      26.832   8.306 -35.342  1.00  0.00     0.000 A 
HETATM   20  C10 UNL     1      27.817   7.459 -34.883  1.00  0.00     0.001 A 
HETATM   21  C11 UNL     1      29.071   8.034 -34.661  1.00  0.00     0.008 A 
ENDBRANCH  15  16
ENDBRANCH  14  15
ENDBRANCH  13  14
ENDBRANCH  12  13
ENDBRANCH   1  12
TORSDOF 6
ENDMDL
MODEL 5
REMARK VINA RESULT: -6.300071972      3.373      5.683
REMARK  6 active torsions:
REMARK  status: ('A' for Active; 'I' for Inactive)
REMARK    1  A    between atoms: N3_6  and  C2_7 
REMARK    2  A    between atoms: C2_7  and  C3_8 
REMARK    3  A    between atoms: C3_8  and  C4_9 
REMARK    4  A    between atoms: C4_9  and  S1_10 
REMARK    5  A    between atoms: S1_10  and  C5_11 
REMARK    6  A    between atoms: C5_11  and  C6_12 
ROOT
HETATM    1  C2  UNL     1      32.633   7.066 -38.622  1.00  0.00     0.152 C 
ENDROOT
BRANCH   1   2
HETATM    2  N3  UNL     1      32.965   6.901 -37.228  1.00  0.00    -0.226 N 
HETATM    3  N2  UNL     1      32.178   6.049 -36.440  1.00  0.00    -0.012 NA
HETATM    4  N1  UNL     1      32.014   6.580 -35.157  1.00  0.00    -0.235 N 
HETATM    5  C1  UNL     1      33.073   7.270 -34.511  1.00  0.00     0.341 C 
ATOM      6  H1  UNL     1      31.120   6.469 -34.678  1.00  0.00     0.189 HD
HETATM    7  O1  UNL     1      33.105   7.429 -33.269  1.00  0.00    -0.245 OA
HETATM    8  N4  UNL     1      34.120   7.792 -35.295  1.00  0.00    -0.259 N 
HETATM    9  C12 UNL     1      34.075   7.608 -36.705  1.00  0.00     0.343 C 
ATOM     10  H4  UNL     1      34.895   8.293 -34.860  1.00  0.00     0.175 HD
HETATM   11  O2  UNL     1      34.967   8.041 -37.463  1.00  0.00    -0.245 OA
ENDBRANCH   1   2
BRANCH   1  12
HETATM   12  C3  UNL     1      31.393   7.882 -38.855  1.00  0.00     0.032 C 
BRANCH  12  13
HETATM   13  C4  UNL     1      31.674   9.361 -38.907  1.00  0.00     0.076 C 
BRANCH  13  14
HETATM   14  S1  UNL     1      31.149  10.041 -37.290  1.00  0.00    -0.164 SA
BRANCH  14  15
HETATM   15  C5  UNL     1      29.899   8.915 -36.597  1.00  0.00     0.112 C 
BRANCH  15  16
HETATM   16  C6  UNL     1      29.342   9.540 -35.374  1.00  0.00    -0.049 A 
HETATM   17  C7  UNL     1      28.382  10.549 -35.477  1.00  0.00     0.008 A 
HETATM   18  C8  UNL     1      27.903  11.089 -34.301  1.00  0.00     0.001 A 
HETATM   19  C9  UNL     1      28.349  10.654 -33.078  1.00  0.00     0.000 A 
HETATM   20  C10 UNL     1      29.295   9.660 -32.950  1.00  0.00     0.001 A 
HETATM   21  C11 UNL     1      29.780   9.114 -34.142  1.00  0.00     0.008 A 
ENDBRANCH  15  16
ENDBRANCH  14  15
ENDBRANCH  13  14
ENDBRANCH  12  13
ENDBRANCH   1  12
TORSDOF 6
ENDMDL
