MODEL 1
REMARK VINA RESULT: -8.744934004      0.000      0.000
REMARK  11 active torsions:
REMARK  status: ('A' for Active; 'I' for Inactive)
REMARK    1  A    between atoms: C2_2  and  C10_39 
REMARK    2  A    between atoms: N1_3  and  N2_5 
REMARK    3  A    between atoms: N3_7  and  C3_9 
REMARK    4  A    between atoms: C4_12  and  N5_13 
REMARK    5  A    between atoms: C6_15  and  C7_16 
REMARK    6  A    between atoms: C7_16  and  N6_17 
REMARK    7  A    between atoms: C7_16  and  N7_21 
REMARK    8  A    between atoms: C8_29  and  N10_30 
REMARK    9  A    between atoms: N10_30  and  O1_34 
REMARK   10  A    between atoms: C9_36  and  O2_37 
REMARK   11  A    between atoms: N13_44  and  N14_45 
ROOT
HETATM    1  C3  UNL     1       0.416 -42.728   3.939  1.00  0.00     0.159 A 
HETATM    2  N4  UNL     1       0.988 -43.001   2.768  1.00  0.00    -0.322 N 
ATOM      3  H4  UNL     1       1.265 -43.934   2.463  1.00  0.00     0.169 HD
HETATM    4  C4  UNL     1       1.149 -41.895   2.053  1.00  0.00     0.163 A 
HETATM    5  C8  UNL     1       0.652 -40.825   2.801  1.00  0.00     0.163 A 
HETATM    6  C9  UNL     1       0.195 -41.338   3.976  1.00  0.00     0.146 A 
ENDROOT
BRANCH   1   7
HETATM    7  N3  UNL     1       0.042 -43.567   5.013  1.00  0.00    -0.269 N 
HETATM    8  N2  UNL     1      -1.148 -43.806   5.201  1.00  0.00    -0.241 N 
ATOM      9  H2  UNL     1      -1.695 -43.320   4.491  1.00  0.00     0.208 HD
ATOM     10  H3  UNL     1       0.752 -43.969   5.625  1.00  0.00     0.190 HD
BRANCH   8  11
HETATM   11  N1  UNL     1      -1.961 -44.458   5.980  1.00  0.00    -0.287 N 
HETATM   12  C2  UNL     1      -3.119 -44.252   6.392  1.00  0.00     0.067 C 
HETATM   13  C1  UNL     1      -3.877 -43.061   6.011  1.00  0.00     0.074 C 
ATOM     14  H1  UNL     1      -1.562 -45.329   6.331  1.00  0.00     0.188 HD
BRANCH  12  15
HETATM   15  C10 UNL     1      -3.681 -45.297   7.275  1.00  0.00     0.137 A 
HETATM   16  N12 UNL     1      -2.872 -46.049   8.060  1.00  0.00    -0.291 N 
HETATM   17  C11 UNL     1      -3.363 -47.012   8.849  1.00  0.00     0.350 A 
ATOM     18  H12 UNL     1      -1.867 -45.877   8.050  1.00  0.00     0.172 HD
HETATM   19  O3  UNL     1      -2.639 -47.730   9.590  1.00  0.00    -0.244 OA
HETATM   20  N13 UNL     1      -4.692 -47.245   8.871  1.00  0.00    -0.159 N 
HETATM   21  C12 UNL     1      -5.467 -46.483   8.082  1.00  0.00     0.350 A 
HETATM   22  O4  UNL     1      -6.702 -46.699   8.099  1.00  0.00    -0.244 OA
HETATM   23  N15 UNL     1      -4.991 -45.506   7.277  1.00  0.00    -0.291 N 
ATOM     24  H15 UNL     1      -5.616 -44.950   6.693  1.00  0.00     0.172 HD
BRANCH  20  25
HETATM   25  N14 UNL     1      -5.220 -48.251   9.686  1.00  0.00    -0.330 N 
ATOM     26 2H14 UNL     1      -5.710 -49.059   9.303  1.00  0.00     0.177 HD
ATOM     27 1H14 UNL     1      -5.121 -48.199  10.700  1.00  0.00     0.177 HD
ENDBRANCH  20  25
ENDBRANCH  12  15
ENDBRANCH   8  11
ENDBRANCH   1   7
BRANCH   6  28
HETATM   28  O2  UNL     1      -0.381 -40.641   5.017  1.00  0.00    -0.355 OA
ATOM     29  H2  UNL     1      -1.123 -40.052   4.948  1.00  0.00     0.218 HD
ENDBRANCH   6  28
BRANCH   4  30
HETATM   30  N5  UNL     1       1.718 -41.779   0.755  1.00  0.00    -0.232 N 
HETATM   31  C5  UNL     1       2.929 -42.301   0.426  1.00  0.00     0.150 A 
HETATM   32  C6  UNL     1       3.180 -42.040  -0.897  1.00  0.00     0.102 A 
HETATM   33  N8  UNL     1       2.107 -41.358  -1.350  1.00  0.00    -0.285 N 
HETATM   34  N9  UNL     1       1.255 -41.217  -0.345  1.00  0.00    -0.234 N 
ATOM     35  H8  UNL     1       1.975 -41.011  -2.300  1.00  0.00     0.188 HD
ATOM     36  H9  UNL     1       0.358 -40.736  -0.413  1.00  0.00     0.209 HD
BRANCH  32  37
HETATM   37  C7  UNL     1       4.408 -42.460  -1.644  1.00  0.00     0.430 C 
BRANCH  37  38
HETATM   38  N6  UNL     1       5.500 -42.723  -0.732  1.00  0.00    -0.045 N 
ATOM     39  H63 UNL     1       5.324 -42.329   0.192  1.00  0.00     0.277 HD
ATOM     40  H62 UNL     1       5.546 -43.709  -0.473  1.00  0.00     0.277 HD
ATOM     41  H61 UNL     1       6.384 -42.393  -1.120  1.00  0.00     0.277 HD
ENDBRANCH  37  38
BRANCH  37  42
HETATM   42  N7  UNL     1       4.740 -41.403  -2.566  1.00  0.00    -0.045 N 
ATOM     43  H73 UNL     1       3.943 -41.100  -3.127  1.00  0.00     0.277 HD
ATOM     44  H72 UNL     1       4.923 -40.513  -2.102  1.00  0.00     0.277 HD
ATOM     45  H71 UNL     1       5.525 -41.724  -3.134  1.00  0.00     0.277 HD
ENDBRANCH  37  42
ENDBRANCH  32  37
ENDBRANCH   4  30
BRANCH   5  46
HETATM   46  N10 UNL     1       0.656 -39.480   2.353  1.00  0.00    -0.163 N 
HETATM   47  N11 UNL     1      -0.418 -38.788   2.438  1.00  0.00    -0.318 N 
ATOM     48 2H11 UNL     1      -1.251 -39.239   2.814  1.00  0.00     0.179 HD
ATOM     49 1H11 UNL     1      -0.416 -37.820   2.115  1.00  0.00     0.179 HD
BRANCH  46  50
HETATM   50  O1  UNL     1       1.775 -38.875   1.848  1.00  0.00    -0.268 OA
ATOM     51  H1  UNL     1       1.797 -38.481   0.983  1.00  0.00     0.247 HD
ENDBRANCH  46  50
ENDBRANCH   5  46
TORSDOF 11
ENDMDL
MODEL 2
REMARK VINA RESULT: -8.320384506      5.849     12.648
REMARK  11 active torsions:
REMARK  status: ('A' for Active; 'I' for Inactive)
REMARK    1  A    between atoms: C2_2  and  C10_39 
REMARK    2  A    between atoms: N1_3  and  N2_5 
REMARK    3  A    between atoms: N3_7  and  C3_9 
REMARK    4  A    between atoms: C4_12  and  N5_13 
REMARK    5  A    between atoms: C6_15  and  C7_16 
REMARK    6  A    between atoms: C7_16  and  N6_17 
REMARK    7  A    between atoms: C7_16  and  N7_21 
REMARK    8  A    between atoms: C8_29  and  N10_30 
REMARK    9  A    between atoms: N10_30  and  O1_34 
REMARK   10  A    between atoms: C9_36  and  O2_37 
REMARK   11  A    between atoms: N13_44  and  N14_45 
ROOT
HETATM    1  C3  UNL     1       0.414 -39.268  -1.045  1.00  0.00     0.159 A 
HETATM    2  N4  UNL     1       0.352 -40.341  -0.260  1.00  0.00    -0.322 N 
ATOM      3  H4  UNL     1       0.670 -41.273  -0.526  1.00  0.00     0.169 HD
HETATM    4  C4  UNL     1      -0.181 -40.035   0.917  1.00  0.00     0.163 A 
HETATM    5  C8  UNL     1      -0.490 -38.672   0.905  1.00  0.00     0.163 A 
HETATM    6  C9  UNL     1      -0.121 -38.190  -0.314  1.00  0.00     0.146 A 
ENDROOT
BRANCH   1   7
HETATM    7  N3  UNL     1       0.903 -39.101  -2.360  1.00  0.00    -0.269 N 
HETATM    8  N2  UNL     1       0.416 -38.231  -3.076  1.00  0.00    -0.241 N 
ATOM      9  H2  UNL     1      -0.310 -37.744  -2.550  1.00  0.00     0.208 HD
ATOM     10  H3  UNL     1       1.652 -39.698  -2.711  1.00  0.00     0.190 HD
BRANCH   8  11
HETATM   11  N1  UNL     1       0.493 -37.706  -4.263  1.00  0.00    -0.287 N 
HETATM   12  C2  UNL     1      -0.198 -37.790  -5.296  1.00  0.00     0.067 C 
HETATM   13  C1  UNL     1      -1.401 -38.621  -5.358  1.00  0.00     0.074 C 
ATOM     14  H1  UNL     1       1.298 -37.088  -4.373  1.00  0.00     0.188 HD
BRANCH  12  15
HETATM   15  C10 UNL     1       0.263 -36.984  -6.447  1.00  0.00     0.137 A 
HETATM   16  N12 UNL     1      -0.628 -36.441  -7.313  1.00  0.00    -0.291 N 
HETATM   17  C11 UNL     1      -0.226 -35.727  -8.371  1.00  0.00     0.350 A 
ATOM     18  H12 UNL     1      -1.626 -36.580  -7.155  1.00  0.00     0.172 HD
HETATM   19  O3  UNL     1      -1.027 -35.210  -9.196  1.00  0.00    -0.244 OA
HETATM   20  N13 UNL     1       1.092 -35.536  -8.587  1.00  0.00    -0.159 N 
HETATM   21  C12 UNL     1       1.949 -36.087  -7.712  1.00  0.00     0.350 A 
HETATM   22  O4  UNL     1       3.174 -35.913  -7.912  1.00  0.00    -0.244 OA
HETATM   23  N15 UNL     1       1.564 -36.813  -6.637  1.00  0.00    -0.291 N 
ATOM     24  H15 UNL     1       2.249 -37.214  -5.997  1.00  0.00     0.172 HD
BRANCH  20  25
HETATM   25  N14 UNL     1       1.528 -34.797  -9.691  1.00  0.00    -0.330 N 
ATOM     26 2H14 UNL     1       1.105 -33.906  -9.949  1.00  0.00     0.177 HD
ATOM     27 1H14 UNL     1       2.296 -35.138 -10.270  1.00  0.00     0.177 HD
ENDBRANCH  20  25
ENDBRANCH  12  15
ENDBRANCH   8  11
ENDBRANCH   1   7
BRANCH   6  28
HETATM   28  O2  UNL     1      -0.242 -36.892  -0.764  1.00  0.00    -0.355 OA
ATOM     29  H2  UNL     1       0.399 -36.202  -0.648  1.00  0.00     0.218 HD
ENDBRANCH   6  28
BRANCH   4  30
HETATM   30  N5  UNL     1      -0.410 -40.906   2.016  1.00  0.00    -0.232 N 
HETATM   31  C5  UNL     1       0.590 -41.553   2.672  1.00  0.00     0.150 A 
HETATM   32  C6  UNL     1       0.046 -42.293   3.691  1.00  0.00     0.102 A 
HETATM   33  N8  UNL     1      -1.285 -42.080   3.633  1.00  0.00    -0.285 N 
HETATM   34  N9  UNL     1      -1.527 -41.253   2.627  1.00  0.00    -0.234 N 
ATOM     35  H8  UNL     1      -1.985 -42.487   4.256  1.00  0.00     0.188 HD
ATOM     36  H9  UNL     1      -2.455 -40.926   2.359  1.00  0.00     0.209 HD
BRANCH  32  37
HETATM   37  C7  UNL     1       0.820 -43.140   4.652  1.00  0.00     0.430 C 
BRANCH  37  38
HETATM   38  N6  UNL     1       1.718 -44.030   3.948  1.00  0.00    -0.045 N 
ATOM     39  H63 UNL     1       2.494 -43.523   3.523  1.00  0.00     0.277 HD
ATOM     40  H62 UNL     1       2.250 -44.615   4.592  1.00  0.00     0.277 HD
ATOM     41  H61 UNL     1       1.211 -44.588   3.261  1.00  0.00     0.277 HD
ENDBRANCH  37  38
BRANCH  37  42
HETATM   42  N7  UNL     1      -0.131 -43.879   5.446  1.00  0.00    -0.045 N 
ATOM     43  H73 UNL     1       0.162 -43.990   6.416  1.00  0.00     0.277 HD
ATOM     44  H72 UNL     1      -0.990 -43.357   5.624  1.00  0.00     0.277 HD
ATOM     45  H71 UNL     1      -0.298 -44.769   4.977  1.00  0.00     0.277 HD
ENDBRANCH  37  42
ENDBRANCH  32  37
ENDBRANCH   4  30
BRANCH   5  46
HETATM   46  N10 UNL     1      -1.075 -37.987   1.998  1.00  0.00    -0.163 N 
HETATM   47  N11 UNL     1      -0.576 -36.871   2.379  1.00  0.00    -0.318 N 
ATOM     48 2H11 UNL     1       0.245 -36.519   1.887  1.00  0.00     0.179 HD
ATOM     49 1H11 UNL     1      -0.998 -36.377   3.166  1.00  0.00     0.179 HD
BRANCH  46  50
HETATM   50  O1  UNL     1      -2.177 -38.459   2.659  1.00  0.00    -0.268 OA
ATOM     51  H1  UNL     1      -2.288 -39.377   2.878  1.00  0.00     0.247 HD
ENDBRANCH  46  50
ENDBRANCH   5  46
TORSDOF 11
ENDMDL
MODEL 3
REMARK VINA RESULT: -8.316785018      5.852     12.583
REMARK  11 active torsions:
REMARK  status: ('A' for Active; 'I' for Inactive)
REMARK    1  A    between atoms: C2_2  and  C10_39 
REMARK    2  A    between atoms: N1_3  and  N2_5 
REMARK    3  A    between atoms: N3_7  and  C3_9 
REMARK    4  A    between atoms: C4_12  and  N5_13 
REMARK    5  A    between atoms: C6_15  and  C7_16 
REMARK    6  A    between atoms: C7_16  and  N6_17 
REMARK    7  A    between atoms: C7_16  and  N7_21 
REMARK    8  A    between atoms: C8_29  and  N10_30 
REMARK    9  A    between atoms: N10_30  and  O1_34 
REMARK   10  A    between atoms: C9_36  and  O2_37 
REMARK   11  A    between atoms: N13_44  and  N14_45 
ROOT
HETATM    1  C3  UNL     1       0.494 -39.258  -1.084  1.00  0.00     0.159 A 
HETATM    2  N4  UNL     1       0.411 -40.339  -0.311  1.00  0.00    -0.322 N 
ATOM      3  H4  UNL     1       0.705 -41.274  -0.591  1.00  0.00     0.169 HD
HETATM    4  C4  UNL     1      -0.105 -40.033   0.873  1.00  0.00     0.163 A 
HETATM    5  C8  UNL     1      -0.381 -38.664   0.880  1.00  0.00     0.163 A 
HETATM    6  C9  UNL     1      -0.010 -38.176  -0.337  1.00  0.00     0.146 A 
ENDROOT
BRANCH   1   7
HETATM    7  N3  UNL     1       0.977 -39.088  -2.401  1.00  0.00    -0.269 N 
HETATM    8  N2  UNL     1       0.467 -38.234  -3.122  1.00  0.00    -0.241 N 
ATOM      9  H2  UNL     1      -0.270 -37.762  -2.598  1.00  0.00     0.208 HD
ATOM     10  H3  UNL     1       1.740 -39.668  -2.749  1.00  0.00     0.190 HD
BRANCH   8  11
HETATM   11  N1  UNL     1       0.530 -37.715  -4.313  1.00  0.00    -0.287 N 
HETATM   12  C2  UNL     1      -0.171 -37.809  -5.338  1.00  0.00     0.067 C 
HETATM   13  C1  UNL     1      -1.368 -38.649  -5.385  1.00  0.00     0.074 C 
ATOM     14  H1  UNL     1       1.329 -37.093  -4.433  1.00  0.00     0.188 HD
BRANCH  12  15
HETATM   15  C10 UNL     1       0.274 -37.006  -6.498  1.00  0.00     0.137 A 
HETATM   16  N12 UNL     1       1.592 -36.785  -6.721  1.00  0.00    -0.291 N 
HETATM   17  C11 UNL     1       2.010 -36.043  -7.753  1.00  0.00     0.350 A 
ATOM     18  H12 UNL     1       2.280 -37.193  -6.089  1.00  0.00     0.172 HD
HETATM   19  O3  UNL     1       3.228 -35.817  -7.989  1.00  0.00    -0.244 OA
HETATM   20  N13 UNL     1       1.107 -35.500  -8.596  1.00  0.00    -0.159 N 
HETATM   21  C12 UNL     1      -0.191 -35.738  -8.348  1.00  0.00     0.350 A 
HETATM   22  O4  UNL     1      -1.033 -35.233  -9.128  1.00  0.00    -0.244 OA
HETATM   23  N15 UNL     1      -0.635 -36.484  -7.310  1.00  0.00    -0.291 N 
ATOM     24  H15 UNL     1      -1.632 -36.638  -7.157  1.00  0.00     0.172 HD
BRANCH  20  25
HETATM   25  N14 UNL     1       1.528 -34.718  -9.676  1.00  0.00    -0.330 N 
ATOM     26 2H14 UNL     1       1.614 -35.096 -10.619  1.00  0.00     0.177 HD
ATOM     27 1H14 UNL     1       1.756 -33.733  -9.541  1.00  0.00     0.177 HD
ENDBRANCH  20  25
ENDBRANCH  12  15
ENDBRANCH   8  11
ENDBRANCH   1   7
BRANCH   6  28
HETATM   28  O2  UNL     1      -0.103 -36.871  -0.770  1.00  0.00    -0.355 OA
ATOM     29  H2  UNL     1      -0.889 -36.337  -0.763  1.00  0.00     0.218 HD
ENDBRANCH   6  28
BRANCH   4  30
HETATM   30  N5  UNL     1      -0.346 -40.912   1.964  1.00  0.00    -0.232 N 
HETATM   31  C5  UNL     1       0.648 -41.525   2.658  1.00  0.00     0.150 A 
HETATM   32  C6  UNL     1       0.090 -42.283   3.657  1.00  0.00     0.102 A 
HETATM   33  N8  UNL     1      -1.244 -42.115   3.548  1.00  0.00    -0.285 N 
HETATM   34  N9  UNL     1      -1.474 -41.295   2.533  1.00  0.00    -0.234 N 
ATOM     35  H8  UNL     1      -1.952 -42.544   4.144  1.00  0.00     0.188 HD
ATOM     36  H9  UNL     1      -2.401 -40.999   2.230  1.00  0.00     0.209 HD
BRANCH  32  37
HETATM   37  C7  UNL     1       0.855 -43.105   4.648  1.00  0.00     0.430 C 
BRANCH  37  38
HETATM   38  N6  UNL     1       1.791 -43.981   3.978  1.00  0.00    -0.045 N 
ATOM     39  H63 UNL     1       1.321 -44.599   3.316  1.00  0.00     0.277 HD
ATOM     40  H62 UNL     1       2.381 -43.471   3.320  1.00  0.00     0.277 HD
ATOM     41  H61 UNL     1       2.345 -44.506   4.654  1.00  0.00     0.277 HD
ENDBRANCH  37  38
BRANCH  37  42
HETATM   42  N7  UNL     1      -0.102 -43.855   5.422  1.00  0.00    -0.045 N 
ATOM     43  H73 UNL     1      -0.664 -43.267   6.037  1.00  0.00     0.277 HD
ATOM     44  H72 UNL     1      -0.866 -44.227   4.857  1.00  0.00     0.277 HD
ATOM     45  H71 UNL     1       0.409 -44.581   5.925  1.00  0.00     0.277 HD
ENDBRANCH  37  42
ENDBRANCH  32  37
ENDBRANCH   4  30
BRANCH   5  46
HETATM   46  N10 UNL     1      -0.941 -37.977   1.985  1.00  0.00    -0.163 N 
HETATM   47  N11 UNL     1      -0.432 -36.862   2.355  1.00  0.00    -0.318 N 
ATOM     48 2H11 UNL     1       0.378 -36.511   1.844  1.00  0.00     0.179 HD
ATOM     49 1H11 UNL     1      -0.836 -36.368   3.151  1.00  0.00     0.179 HD
BRANCH  46  50
HETATM   50  O1  UNL     1      -2.029 -38.448   2.671  1.00  0.00    -0.268 OA
ATOM     51  H1  UNL     1      -2.005 -38.632   3.603  1.00  0.00     0.247 HD
ENDBRANCH  46  50
ENDBRANCH   5  46
TORSDOF 11
ENDMDL
MODEL 4
REMARK VINA RESULT: -8.290406434      5.928      8.672
REMARK  11 active torsions:
REMARK  status: ('A' for Active; 'I' for Inactive)
REMARK    1  A    between atoms: C2_2  and  C10_39 
REMARK    2  A    between atoms: N1_3  and  N2_5 
REMARK    3  A    between atoms: N3_7  and  C3_9 
REMARK    4  A    between atoms: C4_12  and  N5_13 
REMARK    5  A    between atoms: C6_15  and  C7_16 
REMARK    6  A    between atoms: C7_16  and  N6_17 
REMARK    7  A    between atoms: C7_16  and  N7_21 
REMARK    8  A    between atoms: C8_29  and  N10_30 
REMARK    9  A    between atoms: N10_30  and  O1_34 
REMARK   10  A    between atoms: C9_36  and  O2_37 
REMARK   11  A    between atoms: N13_44  and  N14_45 
ROOT
HETATM    1  C3  UNL     1      -0.391 -37.953  -3.172  1.00  0.00     0.159 A 
HETATM    2  N4  UNL     1      -0.244 -38.157  -4.480  1.00  0.00    -0.322 N 
ATOM      3  H4  UNL     1      -0.389 -39.052  -4.946  1.00  0.00     0.169 HD
HETATM    4  C4  UNL     1       0.118 -37.037  -5.094  1.00  0.00     0.163 A 
HETATM    5  C8  UNL     1       0.216 -36.032  -4.129  1.00  0.00     0.163 A 
HETATM    6  C9  UNL     1      -0.101 -36.597  -2.930  1.00  0.00     0.146 A 
ENDROOT
BRANCH   1   7
HETATM    7  N3  UNL     1      -0.769 -38.828  -2.129  1.00  0.00    -0.269 N 
HETATM    8  N2  UNL     1      -0.055 -38.919  -1.134  1.00  0.00    -0.241 N 
ATOM      9  H2  UNL     1       0.745 -38.295  -1.248  1.00  0.00     0.208 HD
ATOM     10  H3  UNL     1      -1.625 -39.377  -2.201  1.00  0.00     0.190 HD
BRANCH   8  11
HETATM   11  N1  UNL     1       0.048 -39.524   0.013  1.00  0.00    -0.287 N 
HETATM   12  C2  UNL     1      -0.088 -39.165   1.198  1.00  0.00     0.067 C 
HETATM   13  C1  UNL     1      -0.442 -37.792   1.558  1.00  0.00     0.074 C 
ATOM     14  H1  UNL     1       0.296 -40.509  -0.079  1.00  0.00     0.188 HD
BRANCH  12  15
HETATM   15  C10 UNL     1       0.114 -40.220   2.216  1.00  0.00     0.137 A 
HETATM   16  N12 UNL     1       0.756 -41.371   1.901  1.00  0.00    -0.291 N 
HETATM   17  C11 UNL     1       0.929 -42.343   2.805  1.00  0.00     0.350 A 
ATOM     18  H12 UNL     1       1.116 -41.499   0.956  1.00  0.00     0.172 HD
HETATM   19  O3  UNL     1       1.520 -43.427   2.545  1.00  0.00    -0.244 OA
HETATM   20  N13 UNL     1       0.458 -42.182   4.059  1.00  0.00    -0.159 N 
HETATM   21  C12 UNL     1      -0.173 -41.030   4.339  1.00  0.00     0.350 A 
HETATM   22  O4  UNL     1      -0.614 -40.878   5.503  1.00  0.00    -0.244 OA
HETATM   23  N15 UNL     1      -0.359 -40.036   3.441  1.00  0.00    -0.291 N 
ATOM     24  H15 UNL     1      -0.846 -39.176   3.696  1.00  0.00     0.172 HD
BRANCH  20  25
HETATM   25  N14 UNL     1       0.625 -43.191   5.012  1.00  0.00    -0.330 N 
ATOM     26 2H14 UNL     1       1.540 -43.585   5.230  1.00  0.00     0.177 HD
ATOM     27 1H14 UNL     1      -0.179 -43.556   5.523  1.00  0.00     0.177 HD
ENDBRANCH  20  25
ENDBRANCH  12  15
ENDBRANCH   8  11
ENDBRANCH   1   7
BRANCH   6  28
HETATM   28  O2  UNL     1      -0.135 -35.972  -1.702  1.00  0.00    -0.355 OA
ATOM     29  H2  UNL     1      -0.177 -35.034  -1.557  1.00  0.00     0.218 HD
ENDBRANCH   6  28
BRANCH   4  30
HETATM   30  N5  UNL     1       0.368 -36.853  -6.481  1.00  0.00    -0.232 N 
HETATM   31  C5  UNL     1       1.617 -36.858  -7.017  1.00  0.00     0.150 A 
HETATM   32  C6  UNL     1       1.518 -36.679  -8.374  1.00  0.00     0.102 A 
HETATM   33  N8  UNL     1       0.199 -36.567  -8.637  1.00  0.00    -0.285 N 
HETATM   34  N9  UNL     1      -0.459 -36.673  -7.493  1.00  0.00    -0.234 N 
ATOM     35  H8  UNL     1      -0.218 -36.425  -9.557  1.00  0.00     0.188 HD
ATOM     36  H9  UNL     1      -1.474 -36.623  -7.404  1.00  0.00     0.209 HD
BRANCH  32  37
HETATM   37  C7  UNL     1       2.672 -36.635  -9.327  1.00  0.00     0.430 C 
BRANCH  37  38
HETATM   38  N6  UNL     1       3.863 -37.186  -8.718  1.00  0.00    -0.045 N 
ATOM     39  H63 UNL     1       4.344 -36.497  -8.140  1.00  0.00     0.277 HD
ATOM     40  H62 UNL     1       3.636 -37.865  -7.992  1.00  0.00     0.277 HD
ATOM     41  H61 UNL     1       4.483 -37.582  -9.426  1.00  0.00     0.277 HD
ENDBRANCH  37  38
BRANCH  37  42
HETATM   42  N7  UNL     1       2.869 -35.259  -9.710  1.00  0.00    -0.045 N 
ATOM     43  H73 UNL     1       2.009 -34.711  -9.677  1.00  0.00     0.277 HD
ATOM     44  H72 UNL     1       3.395 -34.725  -9.017  1.00  0.00     0.277 HD
ATOM     45  H71 UNL     1       3.307 -35.255 -10.631  1.00  0.00     0.277 HD
ENDBRANCH  37  42
ENDBRANCH  32  37
ENDBRANCH   4  30
BRANCH   5  46
HETATM   46  N10 UNL     1       0.580 -34.693  -4.418  1.00  0.00    -0.163 N 
HETATM   47  N11 UNL     1      -0.268 -33.922  -4.989  1.00  0.00    -0.318 N 
ATOM     48 2H11 UNL     1      -1.179 -34.307  -5.233  1.00  0.00     0.179 HD
ATOM     49 1H11 UNL     1      -0.005 -32.958  -5.197  1.00  0.00     0.179 HD
BRANCH  46  50
HETATM   50  O1  UNL     1       1.804 -34.176  -4.090  1.00  0.00    -0.268 OA
ATOM     51  H1  UNL     1       2.147 -34.194  -3.204  1.00  0.00     0.247 HD
ENDBRANCH  46  50
ENDBRANCH   5  46
TORSDOF 11
ENDMDL
MODEL 5
REMARK VINA RESULT: -8.261905481      5.943      8.718
REMARK  11 active torsions:
REMARK  status: ('A' for Active; 'I' for Inactive)
REMARK    1  A    between atoms: C2_2  and  C10_39 
REMARK    2  A    between atoms: N1_3  and  N2_5 
REMARK    3  A    between atoms: N3_7  and  C3_9 
REMARK    4  A    between atoms: C4_12  and  N5_13 
REMARK    5  A    between atoms: C6_15  and  C7_16 
REMARK    6  A    between atoms: C7_16  and  N6_17 
REMARK    7  A    between atoms: C7_16  and  N7_21 
REMARK    8  A    between atoms: C8_29  and  N10_30 
REMARK    9  A    between atoms: N10_30  and  O1_34 
REMARK   10  A    between atoms: C9_36  and  O2_37 
REMARK   11  A    between atoms: N13_44  and  N14_45 
ROOT
HETATM    1  C3  UNL     1      -0.435 -37.906  -3.179  1.00  0.00     0.159 A 
HETATM    2  N4  UNL     1      -0.283 -38.121  -4.484  1.00  0.00    -0.322 N 
ATOM      3  H4  UNL     1      -0.439 -39.016  -4.946  1.00  0.00     0.169 HD
HETATM    4  C4  UNL     1       0.101 -37.010  -5.103  1.00  0.00     0.163 A 
HETATM    5  C8  UNL     1       0.208 -36.001  -4.144  1.00  0.00     0.163 A 
HETATM    6  C9  UNL     1      -0.125 -36.553  -2.944  1.00  0.00     0.146 A 
ENDROOT
BRANCH   1   7
HETATM    7  N3  UNL     1      -0.833 -38.768  -2.133  1.00  0.00    -0.269 N 
HETATM    8  N2  UNL     1      -0.104 -38.899  -1.153  1.00  0.00    -0.241 N 
ATOM      9  H2  UNL     1       0.722 -38.314  -1.280  1.00  0.00     0.208 HD
ATOM     10  H3  UNL     1      -1.716 -39.275  -2.190  1.00  0.00     0.190 HD
BRANCH   8  11
HETATM   11  N1  UNL     1      -0.007 -39.516  -0.012  1.00  0.00    -0.287 N 
HETATM   12  C2  UNL     1      -0.134 -39.166   1.177  1.00  0.00     0.067 C 
HETATM   13  C1  UNL     1      -0.467 -37.791   1.549  1.00  0.00     0.074 C 
ATOM     14  H1  UNL     1       0.225 -40.504  -0.113  1.00  0.00     0.188 HD
BRANCH  12  15
HETATM   15  C10 UNL     1       0.055 -40.232   2.185  1.00  0.00     0.137 A 
HETATM   16  N12 UNL     1      -0.408 -40.078   3.449  1.00  0.00    -0.291 N 
HETATM   17  C11 UNL     1      -0.227 -41.024   4.379  1.00  0.00     0.350 A 
ATOM     18  H12 UNL     1      -0.904 -39.223   3.699  1.00  0.00     0.172 HD
HETATM   19  O3  UNL     1      -0.642 -40.912   5.564  1.00  0.00    -0.244 OA
HETATM   20  N13 UNL     1       0.428 -42.159   4.058  1.00  0.00    -0.159 N 
HETATM   21  C12 UNL     1       0.874 -42.281   2.798  1.00  0.00     0.350 A 
HETATM   22  O4  UNL     1       1.484 -43.334   2.498  1.00  0.00    -0.244 OA
HETATM   23  N15 UNL     1       0.702 -41.337   1.844  1.00  0.00    -0.291 N 
ATOM     24  H15 UNL     1       1.058 -41.471   0.897  1.00  0.00     0.172 HD
BRANCH  20  25
HETATM   25  N14 UNL     1       0.630 -43.154   5.019  1.00  0.00    -0.330 N 
ATOM     26 2H14 UNL     1       0.391 -43.018   6.001  1.00  0.00     0.177 HD
ATOM     27 1H14 UNL     1       1.024 -44.057   4.753  1.00  0.00     0.177 HD
ENDBRANCH  20  25
ENDBRANCH  12  15
ENDBRANCH   8  11
ENDBRANCH   1   7
BRANCH   6  28
HETATM   28  O2  UNL     1      -0.157 -35.920  -1.720  1.00  0.00    -0.355 OA
ATOM     29  H2  UNL     1       0.351 -36.162  -0.955  1.00  0.00     0.218 HD
ENDBRANCH   6  28
BRANCH   4  30
HETATM   30  N5  UNL     1       0.363 -36.839  -6.490  1.00  0.00    -0.232 N 
HETATM   31  C5  UNL     1       1.615 -36.855  -7.016  1.00  0.00     0.150 A 
HETATM   32  C6  UNL     1       1.528 -36.686  -8.375  1.00  0.00     0.102 A 
HETATM   33  N8  UNL     1       0.212 -36.570  -8.649  1.00  0.00    -0.285 N 
HETATM   34  N9  UNL     1      -0.456 -36.664  -7.509  1.00  0.00    -0.234 N 
ATOM     35  H8  UNL     1      -0.198 -36.434  -9.574  1.00  0.00     0.188 HD
ATOM     36  H9  UNL     1      -1.471 -36.608  -7.429  1.00  0.00     0.209 HD
BRANCH  32  37
HETATM   37  C7  UNL     1       2.690 -36.657  -9.319  1.00  0.00     0.430 C 
BRANCH  37  38
HETATM   38  N6  UNL     1       3.880 -37.182  -8.687  1.00  0.00    -0.045 N 
ATOM     39  H63 UNL     1       3.814 -38.188  -8.535  1.00  0.00     0.277 HD
ATOM     40  H62 UNL     1       4.678 -37.175  -9.323  1.00  0.00     0.277 HD
ATOM     41  H61 UNL     1       4.083 -36.682  -7.821  1.00  0.00     0.277 HD
ENDBRANCH  37  38
BRANCH  37  42
HETATM   42  N7  UNL     1       2.878 -35.289  -9.734  1.00  0.00    -0.045 N 
ATOM     43  H73 UNL     1       3.319 -35.208 -10.650  1.00  0.00     0.277 HD
ATOM     44  H72 UNL     1       2.002 -34.819  -9.965  1.00  0.00     0.277 HD
ATOM     45  H71 UNL     1       3.401 -34.813  -8.999  1.00  0.00     0.277 HD
ENDBRANCH  37  42
ENDBRANCH  32  37
ENDBRANCH   4  30
BRANCH   5  46
HETATM   46  N10 UNL     1       0.595 -34.670  -4.439  1.00  0.00    -0.163 N 
HETATM   47  N11 UNL     1      -0.237 -33.888  -5.017  1.00  0.00    -0.318 N 
ATOM     48 2H11 UNL     1      -1.154 -34.260  -5.263  1.00  0.00     0.179 HD
ATOM     49 1H11 UNL     1       0.042 -32.930  -5.230  1.00  0.00     0.179 HD
BRANCH  46  50
HETATM   50  O1  UNL     1       1.826 -34.171  -4.109  1.00  0.00    -0.268 OA
ATOM     51  H1  UNL     1       1.936 -33.382  -3.591  1.00  0.00     0.247 HD
ENDBRANCH  46  50
ENDBRANCH   5  46
TORSDOF 11
ENDMDL
