MODEL 1
REMARK VINA RESULT: -7.819385587      0.000      0.000
REMARK  14 active torsions:
REMARK  status: ('A' for Active; 'I' for Inactive)
REMARK    1  A    between atoms: O1_2  and  C2_3 
REMARK    2  A    between atoms: C2_3  and  C3_5 
REMARK    3  A    between atoms: C4_8  and  C5_9 
REMARK    4  A    between atoms: C5_9  and  N2_10 
REMARK    5  A    between atoms: C5_9  and  C7_17 
REMARK    6  A    between atoms: N2_10  and  O3_11 
REMARK    7  A    between atoms: O3_11  and  C6_12 
REMARK    8  A    between atoms: C8_18  and  C9_19 
REMARK    9  A    between atoms: C9_19  and  O4_20 
REMARK   10  A    between atoms: C9_19  and  O5_22 
REMARK   11  A    between atoms: C11_30  and  O7_31 
REMARK   12  A    between atoms: C12_34  and  C13_35 
REMARK   13  A    between atoms: C13_35  and  O8_36 
REMARK   14  A    between atoms: C13_35  and  O9_38 
ROOT
HETATM    1  C5  UNL     1       0.587 -41.123   2.637  1.00  0.00     0.190 C 
ENDROOT
BRANCH   1   2
HETATM    2  C4  UNL     1       1.347 -41.553   1.430  1.00  0.00     0.120 A 
HETATM    3  N1  UNL     1       2.317 -42.312   1.145  1.00  0.00    -0.342 N 
HETATM    4  C3  UNL     1       2.813 -42.504  -0.049  1.00  0.00     0.127 A 
ATOM      5  H1  UNL     1       2.751 -42.821   1.916  1.00  0.00     0.167 HD
HETATM    6  C12 UNL     1       2.214 -41.821  -1.055  1.00  0.00     0.072 A 
HETATM    7  S1  UNL     1       0.978 -40.946  -0.177  1.00  0.00    -0.066 SA
BRANCH   4   8
HETATM    8  C2  UNL     1       3.974 -43.386  -0.206  1.00  0.00     0.310 C 
HETATM    9  O2  UNL     1       4.139 -44.379   0.584  1.00  0.00    -0.258 OA
BRANCH   8  10
HETATM   10  O1  UNL     1       4.920 -43.221  -1.151  1.00  0.00    -0.321 OA
HETATM   11  C1  UNL     1       6.003 -42.281  -1.042  1.00  0.00     0.213 C 
ENDBRANCH   8  10
ENDBRANCH   4   8
BRANCH   6  12
HETATM   12  C13 UNL     1       2.364 -41.773  -2.545  1.00  0.00     0.297 C 
BRANCH  12  13
HETATM   13  O8  UNL     1       2.521 -43.158  -2.934  1.00  0.00    -0.367 OA
ATOM     14  H8  UNL     1       1.664 -43.410  -3.257  1.00  0.00     0.213 HD
ENDBRANCH  12  13
BRANCH  12  15
HETATM   15  O9  UNL     1       3.551 -41.193  -2.890  1.00  0.00    -0.367 OA
ATOM     16  H9  UNL     1       4.272 -41.607  -2.431  1.00  0.00     0.213 HD
ENDBRANCH  12  15
ENDBRANCH   6  12
ENDBRANCH   1   2
BRANCH   1  17
HETATM   17  N2  UNL     1       0.286 -39.923   2.575  1.00  0.00    -0.269 NA
BRANCH  17  18
HETATM   18  O3  UNL     1      -0.020 -38.737   2.498  1.00  0.00    -0.131 OA
BRANCH  18  19
HETATM   19  C6  UNL     1      -0.815 -38.026   1.581  1.00  0.00     0.264 C 
HETATM   20  N3  UNL     1      -1.881 -38.622   1.206  1.00  0.00    -0.365 N 
ATOM     21  H32 UNL     1      -2.154 -39.547   1.537  1.00  0.00     0.159 HD
ATOM     22  H31 UNL     1      -2.458 -38.106   0.541  1.00  0.00     0.159 HD
HETATM   23  N4  UNL     1      -0.436 -36.740   1.120  1.00  0.00    -0.054 NA
ENDBRANCH  18  19
ENDBRANCH  17  18
ENDBRANCH   1  17
BRANCH   1  24
HETATM   24  C7  UNL     1       0.051 -41.953   3.638  1.00  0.00     0.089 A 
HETATM   25  C8  UNL     1       0.581 -43.053   4.216  1.00  0.00     0.086 A 
HETATM   26  N5  UNL     1      -0.138 -43.984   4.927  1.00  0.00    -0.307 N 
HETATM   27  C10 UNL     1      -1.448 -43.845   5.103  1.00  0.00     0.326 A 
ATOM     28  H5  UNL     1       0.340 -44.793   5.323  1.00  0.00     0.170 HD
HETATM   29  O6  UNL     1      -2.143 -44.685   5.751  1.00  0.00    -0.247 OA
HETATM   30  N6  UNL     1      -2.037 -42.776   4.571  1.00  0.00    -0.288 N 
HETATM   31  C11 UNL     1      -1.367 -41.855   3.870  1.00  0.00     0.160 A 
ATOM     32  H6  UNL     1      -3.042 -42.655   4.703  1.00  0.00     0.172 HD
BRANCH  25  33
HETATM   33  C9  UNL     1       2.032 -43.184   4.396  1.00  0.00     0.306 C 
BRANCH  33  34
HETATM   34  O4  UNL     1       2.344 -44.557   3.984  1.00  0.00    -0.366 OA
ATOM     35  H4  UNL     1       1.754 -44.736   3.260  1.00  0.00     0.213 HD
ENDBRANCH  33  34
BRANCH  33  36
HETATM   36  O5  UNL     1       2.450 -43.159   5.738  1.00  0.00    -0.366 OA
ATOM     37  H5  UNL     1       2.818 -43.979   6.046  1.00  0.00     0.213 HD
ENDBRANCH  33  36
ENDBRANCH  25  33
BRANCH  31  38
HETATM   38  O7  UNL     1      -2.008 -40.761   3.335  1.00  0.00    -0.345 OA
ATOM     39  H7  UNL     1      -2.924 -40.649   3.560  1.00  0.00     0.219 HD
ENDBRANCH  31  38
ENDBRANCH   1  24
TORSDOF 14
ENDMDL
MODEL 2
REMARK VINA RESULT: -7.732615936      2.592      6.576
REMARK  14 active torsions:
REMARK  status: ('A' for Active; 'I' for Inactive)
REMARK    1  A    between atoms: O1_2  and  C2_3 
REMARK    2  A    between atoms: C2_3  and  C3_5 
REMARK    3  A    between atoms: C4_8  and  C5_9 
REMARK    4  A    between atoms: C5_9  and  N2_10 
REMARK    5  A    between atoms: C5_9  and  C7_17 
REMARK    6  A    between atoms: N2_10  and  O3_11 
REMARK    7  A    between atoms: O3_11  and  C6_12 
REMARK    8  A    between atoms: C8_18  and  C9_19 
REMARK    9  A    between atoms: C9_19  and  O4_20 
REMARK   10  A    between atoms: C9_19  and  O5_22 
REMARK   11  A    between atoms: C11_30  and  O7_31 
REMARK   12  A    between atoms: C12_34  and  C13_35 
REMARK   13  A    between atoms: C13_35  and  O8_36 
REMARK   14  A    between atoms: C13_35  and  O9_38 
ROOT
HETATM    1  C5  UNL     1       2.151 -40.219   0.030  1.00  0.00     0.190 C 
ENDROOT
BRANCH   1   2
HETATM    2  C4  UNL     1       1.953 -41.357   0.971  1.00  0.00     0.120 A 
HETATM    3  N1  UNL     1       1.311 -41.607   2.031  1.00  0.00    -0.342 N 
HETATM    4  C3  UNL     1       1.329 -42.737   2.688  1.00  0.00     0.127 A 
ATOM      5  H1  UNL     1       0.726 -40.860   2.407  1.00  0.00     0.167 HD
HETATM    6  C12 UNL     1       2.110 -43.713   2.164  1.00  0.00     0.072 A 
HETATM    7  S1  UNL     1       2.761 -42.903   0.756  1.00  0.00    -0.066 SA
BRANCH   4   8
HETATM    8  C2  UNL     1       0.561 -42.851   3.931  1.00  0.00     0.310 C 
HETATM    9  O2  UNL     1       0.716 -41.990   4.866  1.00  0.00    -0.258 OA
BRANCH   8  10
HETATM   10  O1  UNL     1      -0.328 -43.834   4.178  1.00  0.00    -0.321 OA
HETATM   11  C1  UNL     1      -1.232 -43.831   5.297  1.00  0.00     0.213 C 
ENDBRANCH   8  10
ENDBRANCH   4   8
BRANCH   6  12
HETATM   12  C13 UNL     1       2.384 -45.148   2.496  1.00  0.00     0.297 C 
BRANCH  12  13
HETATM   13  O8  UNL     1       2.131 -45.242   3.918  1.00  0.00    -0.367 OA
ATOM     14  H8  UNL     1       2.988 -45.391   4.300  1.00  0.00     0.213 HD
ENDBRANCH  12  13
BRANCH  12  15
HETATM   15  O9  UNL     1       3.715 -45.424   2.374  1.00  0.00    -0.367 OA
ATOM     16  H9  UNL     1       4.164 -45.280   3.199  1.00  0.00     0.213 HD
ENDBRANCH  12  15
ENDBRANCH   6  12
ENDBRANCH   1   2
BRANCH   1  17
HETATM   17  N2  UNL     1       3.278 -40.249  -0.481  1.00  0.00    -0.269 NA
BRANCH  17  18
HETATM   18  O3  UNL     1       4.391 -40.293  -0.995  1.00  0.00    -0.131 OA
BRANCH  18  19
HETATM   19  C6  UNL     1       4.978 -41.200  -1.897  1.00  0.00     0.264 C 
HETATM   20  N3  UNL     1       5.692 -42.115  -1.362  1.00  0.00    -0.365 N 
ATOM     21  H32 UNL     1       5.836 -42.200  -0.355  1.00  0.00     0.159 HD
ATOM     22  H31 UNL     1       6.117 -42.773  -2.015  1.00  0.00     0.159 HD
HETATM   23  N4  UNL     1       4.778 -41.083  -3.295  1.00  0.00    -0.054 NA
ENDBRANCH  18  19
ENDBRANCH  17  18
ENDBRANCH   1  17
BRANCH   1  24
HETATM   24  C7  UNL     1       1.167 -39.328  -0.437  1.00  0.00     0.089 A 
HETATM   25  C8  UNL     1       0.190 -38.693   0.247  1.00  0.00     0.086 A 
HETATM   26  N5  UNL     1      -0.919 -38.120  -0.328  1.00  0.00    -0.307 N 
HETATM   27  C10 UNL     1      -1.096 -38.149  -1.644  1.00  0.00     0.326 A 
ATOM     28  H5  UNL     1      -1.615 -37.667   0.264  1.00  0.00     0.170 HD
HETATM   29  O6  UNL     1      -2.108 -37.632  -2.209  1.00  0.00    -0.247 OA
HETATM   30  N6  UNL     1      -0.166 -38.749  -2.384  1.00  0.00    -0.288 N 
HETATM   31  C11 UNL     1       0.921 -39.320  -1.855  1.00  0.00     0.160 A 
ATOM     32  H6  UNL     1      -0.288 -38.774  -3.397  1.00  0.00     0.172 HD
BRANCH  25  33
HETATM   33  C9  UNL     1       0.389 -38.289   1.645  1.00  0.00     0.306 C 
BRANCH  33  34
HETATM   34  O4  UNL     1      -0.466 -39.190   2.426  1.00  0.00    -0.366 OA
ATOM     35  H4  UNL     1      -0.268 -38.991   3.334  1.00  0.00     0.213 HD
ENDBRANCH  33  34
BRANCH  33  36
HETATM   36  O5  UNL     1      -0.128 -37.020   1.956  1.00  0.00    -0.366 OA
ATOM     37  H5  UNL     1      -0.493 -36.952   2.831  1.00  0.00     0.213 HD
ENDBRANCH  33  36
ENDBRANCH  25  33
BRANCH  31  38
HETATM   38  O7  UNL     1       1.864 -39.931  -2.650  1.00  0.00    -0.345 OA
ATOM     39  H7  UNL     1       1.543 -40.402  -3.410  1.00  0.00     0.219 HD
ENDBRANCH  31  38
ENDBRANCH   1  24
TORSDOF 14
ENDMDL
MODEL 3
REMARK VINA RESULT: -7.579877514      3.438      6.110
REMARK  14 active torsions:
REMARK  status: ('A' for Active; 'I' for Inactive)
REMARK    1  A    between atoms: O1_2  and  C2_3 
REMARK    2  A    between atoms: C2_3  and  C3_5 
REMARK    3  A    between atoms: C4_8  and  C5_9 
REMARK    4  A    between atoms: C5_9  and  N2_10 
REMARK    5  A    between atoms: C5_9  and  C7_17 
REMARK    6  A    between atoms: N2_10  and  O3_11 
REMARK    7  A    between atoms: O3_11  and  C6_12 
REMARK    8  A    between atoms: C8_18  and  C9_19 
REMARK    9  A    between atoms: C9_19  and  O4_20 
REMARK   10  A    between atoms: C9_19  and  O5_22 
REMARK   11  A    between atoms: C11_30  and  O7_31 
REMARK   12  A    between atoms: C12_34  and  C13_35 
REMARK   13  A    between atoms: C13_35  and  O8_36 
REMARK   14  A    between atoms: C13_35  and  O9_38 
ROOT
HETATM    1  C5  UNL     1       2.125 -40.710  -0.533  1.00  0.00     0.190 C 
ENDROOT
BRANCH   1   2
HETATM    2  C4  UNL     1       1.435 -39.738  -1.425  1.00  0.00     0.120 A 
HETATM    3  N1  UNL     1       0.255 -39.367  -1.687  1.00  0.00    -0.342 N 
HETATM    4  C3  UNL     1      -0.086 -38.462  -2.566  1.00  0.00     0.127 A 
ATOM      5  H1  UNL     1      -0.499 -39.815  -1.166  1.00  0.00     0.167 HD
HETATM    6  C12 UNL     1       0.936 -37.879  -3.241  1.00  0.00     0.072 A 
HETATM    7  S1  UNL     1       2.313 -38.704  -2.543  1.00  0.00    -0.066 SA
BRANCH   4   8
HETATM    8  C2  UNL     1      -1.507 -38.179  -2.784  1.00  0.00     0.310 C 
HETATM    9  O2  UNL     1      -2.089 -38.584  -3.850  1.00  0.00    -0.258 OA
BRANCH   8  10
HETATM   10  O1  UNL     1      -2.279 -37.494  -1.917  1.00  0.00    -0.321 OA
HETATM   11  C1  UNL     1      -1.997 -36.151  -1.485  1.00  0.00     0.213 C 
ENDBRANCH   8  10
ENDBRANCH   4   8
BRANCH   6  12
HETATM   12  C13 UNL     1       1.052 -36.775  -4.247  1.00  0.00     0.297 C 
BRANCH  12  13
HETATM   13  O8  UNL     1       2.354 -36.971  -4.846  1.00  0.00    -0.367 OA
ATOM     14  H8  UNL     1       2.966 -36.680  -4.181  1.00  0.00     0.213 HD
ENDBRANCH  12  13
BRANCH  12  15
HETATM   15  O9  UNL     1       1.149 -35.564  -3.624  1.00  0.00    -0.367 OA
ATOM     16  H9  UNL     1       1.226 -34.865  -4.262  1.00  0.00     0.213 HD
ENDBRANCH  12  15
ENDBRANCH   6  12
ENDBRANCH   1   2
BRANCH   1  17
HETATM   17  N2  UNL     1       3.351 -40.685  -0.703  1.00  0.00    -0.269 NA
BRANCH  17  18
HETATM   18  O3  UNL     1       4.566 -40.675  -0.879  1.00  0.00    -0.131 OA
BRANCH  18  19
HETATM   19  C6  UNL     1       5.430 -41.567  -1.541  1.00  0.00     0.264 C 
HETATM   20  N3  UNL     1       5.604 -42.691  -0.959  1.00  0.00    -0.365 N 
ATOM     21  H32 UNL     1       5.156 -42.943  -0.077  1.00  0.00     0.159 HD
ATOM     22  H31 UNL     1       6.230 -43.338  -1.439  1.00  0.00     0.159 HD
HETATM   23  N4  UNL     1       6.053 -41.217  -2.765  1.00  0.00    -0.054 NA
ENDBRANCH  18  19
ENDBRANCH  17  18
ENDBRANCH   1  17
BRANCH   1  24
HETATM   24  C7  UNL     1       1.557 -41.426   0.537  1.00  0.00     0.089 A 
HETATM   25  C8  UNL     1       0.967 -40.965   1.661  1.00  0.00     0.086 A 
HETATM   26  N5  UNL     1       0.750 -41.715   2.792  1.00  0.00    -0.307 N 
HETATM   27  C10 UNL     1       1.113 -42.992   2.844  1.00  0.00     0.326 A 
ATOM     28  H5  UNL     1       0.305 -41.285   3.603  1.00  0.00     0.170 HD
HETATM   29  O6  UNL     1       0.930 -43.713   3.871  1.00  0.00    -0.247 OA
HETATM   30  N6  UNL     1       1.691 -43.519   1.765  1.00  0.00    -0.288 N 
HETATM   31  C11 UNL     1       1.920 -42.815   0.651  1.00  0.00     0.160 A 
ATOM     32  H6  UNL     1       1.970 -44.500   1.790  1.00  0.00     0.172 HD
BRANCH  25  33
HETATM   33  C9  UNL     1       0.223 -39.699   1.657  1.00  0.00     0.306 C 
BRANCH  33  34
HETATM   34  O4  UNL     1      -0.058 -39.419   3.069  1.00  0.00    -0.366 OA
ATOM     35  H4  UNL     1      -0.919 -39.789   3.227  1.00  0.00     0.213 HD
ENDBRANCH  33  34
BRANCH  33  36
HETATM   36  O5  UNL     1      -1.061 -39.788   1.095  1.00  0.00    -0.366 OA
ATOM     37  H5  UNL     1      -1.709 -40.185   1.665  1.00  0.00     0.213 HD
ENDBRANCH  33  36
ENDBRANCH  25  33
BRANCH  31  38
HETATM   38  O7  UNL     1       2.518 -43.391  -0.446  1.00  0.00    -0.345 OA
ATOM     39  H7  UNL     1       1.941 -43.766  -1.099  1.00  0.00     0.219 HD
ENDBRANCH  31  38
ENDBRANCH   1  24
TORSDOF 14
ENDMDL
MODEL 4
REMARK VINA RESULT: -7.571845811      3.450      5.782
REMARK  14 active torsions:
REMARK  status: ('A' for Active; 'I' for Inactive)
REMARK    1  A    between atoms: O1_2  and  C2_3 
REMARK    2  A    between atoms: C2_3  and  C3_5 
REMARK    3  A    between atoms: C4_8  and  C5_9 
REMARK    4  A    between atoms: C5_9  and  N2_10 
REMARK    5  A    between atoms: C5_9  and  C7_17 
REMARK    6  A    between atoms: N2_10  and  O3_11 
REMARK    7  A    between atoms: O3_11  and  C6_12 
REMARK    8  A    between atoms: C8_18  and  C9_19 
REMARK    9  A    between atoms: C9_19  and  O4_20 
REMARK   10  A    between atoms: C9_19  and  O5_22 
REMARK   11  A    between atoms: C11_30  and  O7_31 
REMARK   12  A    between atoms: C12_34  and  C13_35 
REMARK   13  A    between atoms: C13_35  and  O8_36 
REMARK   14  A    between atoms: C13_35  and  O9_38 
ROOT
HETATM    1  C5  UNL     1       2.022 -40.286  -0.155  1.00  0.00     0.190 C 
ENDROOT
BRANCH   1   2
HETATM    2  C4  UNL     1       1.354 -39.434  -1.178  1.00  0.00     0.120 A 
HETATM    3  N1  UNL     1       0.180 -39.139  -1.543  1.00  0.00    -0.342 N 
HETATM    4  C3  UNL     1      -0.137 -38.338  -2.526  1.00  0.00     0.127 A 
ATOM      5  H1  UNL     1      -0.588 -39.564  -1.024  1.00  0.00     0.167 HD
HETATM    6  C12 UNL     1       0.903 -37.784  -3.196  1.00  0.00     0.072 A 
HETATM    7  S1  UNL     1       2.262 -38.480  -2.342  1.00  0.00    -0.066 SA
BRANCH   4   8
HETATM    8  C2  UNL     1      -1.552 -38.136  -2.852  1.00  0.00     0.310 C 
HETATM    9  O2  UNL     1      -2.040 -38.621  -3.931  1.00  0.00    -0.258 OA
BRANCH   8  10
HETATM   10  O1  UNL     1      -2.411 -37.447  -2.075  1.00  0.00    -0.321 OA
HETATM   11  C1  UNL     1      -2.095 -36.186  -1.457  1.00  0.00     0.213 C 
ENDBRANCH   8  10
ENDBRANCH   4   8
BRANCH   6  12
HETATM   12  C13 UNL     1       1.042 -36.780  -4.299  1.00  0.00     0.297 C 
BRANCH  12  13
HETATM   13  O8  UNL     1       2.334 -37.067  -4.885  1.00  0.00    -0.367 OA
ATOM     14  H8  UNL     1       2.929 -36.471  -4.447  1.00  0.00     0.213 HD
ENDBRANCH  12  13
BRANCH  12  15
HETATM   15  O9  UNL     1       1.179 -35.521  -3.790  1.00  0.00    -0.367 OA
ATOM     16  H9  UNL     1       2.044 -35.176  -3.977  1.00  0.00     0.213 HD
ENDBRANCH  12  15
ENDBRANCH   6  12
ENDBRANCH   1   2
BRANCH   1  17
HETATM   17  N2  UNL     1       3.206 -40.497  -0.448  1.00  0.00    -0.269 NA
BRANCH  17  18
HETATM   18  O3  UNL     1       4.382 -40.715  -0.724  1.00  0.00    -0.131 OA
BRANCH  18  19
HETATM   19  C6  UNL     1       4.986 -41.534  -1.696  1.00  0.00     0.264 C 
HETATM   20  N3  UNL     1       5.449 -42.643  -1.264  1.00  0.00    -0.365 N 
ATOM     21  H32 UNL     1       5.392 -42.934  -0.287  1.00  0.00     0.159 HD
ATOM     22  H31 UNL     1       5.887 -43.237  -1.968  1.00  0.00     0.159 HD
HETATM   23  N4  UNL     1       5.065 -41.130  -3.053  1.00  0.00    -0.054 NA
ENDBRANCH  18  19
ENDBRANCH  17  18
ENDBRANCH   1  17
BRANCH   1  24
HETATM   24  C7  UNL     1       1.512 -40.650   1.105  1.00  0.00     0.089 A 
HETATM   25  C8  UNL     1       1.066 -41.849   1.537  1.00  0.00     0.086 A 
HETATM   26  N5  UNL     1       0.281 -42.035   2.650  1.00  0.00    -0.307 N 
HETATM   27  C10 UNL     1      -0.089 -41.006   3.403  1.00  0.00     0.326 A 
ATOM     28  H5  UNL     1      -0.020 -42.977   2.901  1.00  0.00     0.170 HD
HETATM   29  O6  UNL     1      -0.814 -41.140   4.435  1.00  0.00    -0.247 OA
HETATM   30  N6  UNL     1       0.324 -39.791   3.043  1.00  0.00    -0.288 N 
HETATM   31  C11 UNL     1       1.083 -39.576   1.964  1.00  0.00     0.160 A 
ATOM     32  H6  UNL     1       0.049 -38.992   3.616  1.00  0.00     0.172 HD
BRANCH  25  33
HETATM   33  C9  UNL     1       1.644 -43.098   1.023  1.00  0.00     0.306 C 
BRANCH  33  34
HETATM   34  O4  UNL     1       1.493 -44.065   2.116  1.00  0.00    -0.366 OA
ATOM     35  H4  UNL     1       1.278 -43.541   2.880  1.00  0.00     0.213 HD
ENDBRANCH  33  34
BRANCH  33  36
HETATM   36  O5  UNL     1       3.036 -43.054   0.836  1.00  0.00    -0.366 OA
ATOM     37  H5  UNL     1       3.538 -43.399   1.566  1.00  0.00     0.213 HD
ENDBRANCH  33  36
ENDBRANCH  25  33
BRANCH  31  38
HETATM   38  O7  UNL     1       1.494 -38.308   1.622  1.00  0.00    -0.345 OA
ATOM     39  H7  UNL     1       2.302 -38.239   1.129  1.00  0.00     0.219 HD
ENDBRANCH  31  38
ENDBRANCH   1  24
TORSDOF 14
ENDMDL
MODEL 5
REMARK VINA RESULT: -7.424121687      3.235      5.803
REMARK  14 active torsions:
REMARK  status: ('A' for Active; 'I' for Inactive)
REMARK    1  A    between atoms: O1_2  and  C2_3 
REMARK    2  A    between atoms: C2_3  and  C3_5 
REMARK    3  A    between atoms: C4_8  and  C5_9 
REMARK    4  A    between atoms: C5_9  and  N2_10 
REMARK    5  A    between atoms: C5_9  and  C7_17 
REMARK    6  A    between atoms: N2_10  and  O3_11 
REMARK    7  A    between atoms: O3_11  and  C6_12 
REMARK    8  A    between atoms: C8_18  and  C9_19 
REMARK    9  A    between atoms: C9_19  and  O4_20 
REMARK   10  A    between atoms: C9_19  and  O5_22 
REMARK   11  A    between atoms: C11_30  and  O7_31 
REMARK   12  A    between atoms: C12_34  and  C13_35 
REMARK   13  A    between atoms: C13_35  and  O8_36 
REMARK   14  A    between atoms: C13_35  and  O9_38 
ROOT
HETATM    1  C5  UNL     1       1.746 -40.798   0.198  1.00  0.00     0.190 C 
ENDROOT
BRANCH   1   2
HETATM    2  C4  UNL     1       1.223 -39.872  -0.844  1.00  0.00     0.120 A 
HETATM    3  N1  UNL     1       0.108 -39.420  -1.235  1.00  0.00    -0.342 N 
HETATM    4  C3  UNL     1      -0.076 -38.593  -2.230  1.00  0.00     0.127 A 
ATOM      5  H1  UNL     1      -0.722 -39.728  -0.727  1.00  0.00     0.167 HD
HETATM    6  C12 UNL     1       1.043 -38.196  -2.883  1.00  0.00     0.072 A 
HETATM    7  S1  UNL     1       2.276 -39.066  -1.997  1.00  0.00    -0.066 SA
BRANCH   4   8
HETATM    8  C2  UNL     1      -1.443 -38.199  -2.585  1.00  0.00     0.310 C 
HETATM    9  O2  UNL     1      -1.937 -38.538  -3.716  1.00  0.00    -0.258 OA
BRANCH   8  10
HETATM   10  O1  UNL     1      -2.249 -37.475  -1.783  1.00  0.00    -0.321 OA
HETATM   11  C1  UNL     1      -1.824 -36.293  -1.081  1.00  0.00     0.213 C 
ENDBRANCH   8  10
ENDBRANCH   4   8
BRANCH   6  12
HETATM   12  C13 UNL     1       1.341 -37.233  -3.992  1.00  0.00     0.297 C 
BRANCH  12  13
HETATM   13  O8  UNL     1       0.955 -35.944  -3.461  1.00  0.00    -0.367 OA
ATOM     14  H8  UNL     1       0.501 -35.519  -4.179  1.00  0.00     0.213 HD
ENDBRANCH  12  13
BRANCH  12  15
HETATM   15  O9  UNL     1       0.491 -37.431  -5.042  1.00  0.00    -0.367 OA
ATOM     16  H9  UNL     1       0.603 -36.751  -5.696  1.00  0.00     0.213 HD
ENDBRANCH  12  15
ENDBRANCH   6  12
ENDBRANCH   1   2
BRANCH   1  17
HETATM   17  N2  UNL     1       2.968 -40.959   0.084  1.00  0.00    -0.269 NA
BRANCH  17  18
HETATM   18  O3  UNL     1       4.177 -41.136  -0.028  1.00  0.00    -0.131 OA
BRANCH  18  19
HETATM   19  C6  UNL     1       4.931 -42.036  -0.804  1.00  0.00     0.264 C 
HETATM   20  N3  UNL     1       4.740 -43.273  -0.545  1.00  0.00    -0.365 N 
ATOM     21  H32 UNL     1       4.092 -43.604   0.170  1.00  0.00     0.159 HD
ATOM     22  H31 UNL     1       5.286 -43.925  -1.107  1.00  0.00     0.159 HD
HETATM   23  N4  UNL     1       5.832 -41.576  -1.796  1.00  0.00    -0.054 NA
ENDBRANCH  18  19
ENDBRANCH  17  18
ENDBRANCH   1  17
BRANCH   1  24
HETATM   24  C7  UNL     1       1.054 -41.280   1.324  1.00  0.00     0.089 A 
HETATM   25  C8  UNL     1       0.385 -40.597   2.278  1.00  0.00     0.086 A 
HETATM   26  N5  UNL     1       0.036 -41.110   3.505  1.00  0.00    -0.307 N 
HETATM   27  C10 UNL     1       0.337 -42.362   3.832  1.00  0.00     0.326 A 
ATOM     28  H5  UNL     1      -0.462 -40.521   4.173  1.00  0.00     0.170 HD
HETATM   29  O6  UNL     1       0.032 -42.867   4.955  1.00  0.00    -0.247 OA
HETATM   30  N6  UNL     1       0.987 -43.100   2.934  1.00  0.00    -0.288 N 
HETATM   31  C11 UNL     1       1.346 -42.629   1.735  1.00  0.00     0.160 A 
ATOM     32  H6  UNL     1       1.221 -44.064   3.171  1.00  0.00     0.172 HD
BRANCH  25  33
HETATM   33  C9  UNL     1      -0.301 -39.337   1.963  1.00  0.00     0.306 C 
BRANCH  33  34
HETATM   34  O4  UNL     1       0.575 -38.285   2.491  1.00  0.00    -0.366 OA
ATOM     35  H4  UNL     1       0.069 -37.484   2.415  1.00  0.00     0.213 HD
ENDBRANCH  33  34
BRANCH  33  36
HETATM   36  O5  UNL     1      -1.494 -39.138   2.678  1.00  0.00    -0.366 OA
ATOM     37  H5  UNL     1      -2.278 -39.389   2.203  1.00  0.00     0.213 HD
ENDBRANCH  33  36
ENDBRANCH  25  33
BRANCH  31  38
HETATM   38  O7  UNL     1       2.015 -43.421   0.829  1.00  0.00    -0.345 OA
ATOM     39  H7  UNL     1       2.128 -43.068  -0.045  1.00  0.00     0.219 HD
ENDBRANCH  31  38
ENDBRANCH   1  24
TORSDOF 14
ENDMDL
