MODEL 1
REMARK VINA RESULT: -8.443600292      0.000      0.000
REMARK  11 active torsions:
REMARK  status: ('A' for Active; 'I' for Inactive)
REMARK    1  A    between atoms: C3_6  and  N3_7 
REMARK    2  A    between atoms: C4_12  and  C5_13 
REMARK    3  A    between atoms: C7_16  and  N5_17 
REMARK    4  A    between atoms: N5_17  and  C8_19 
REMARK    5  A    between atoms: C8_19  and  O2_20 
REMARK    6  A    between atoms: C8_19  and  C9_22 
REMARK    7  A    between atoms: C10_25  and  C11_26 
REMARK    8  A    between atoms: C12_32  and  N9_33 
REMARK    9  A    between atoms: C13_37  and  C14_38 
REMARK   10  A    between atoms: C14_38  and  O5_39 
REMARK   11  A    between atoms: C14_38  and  O6_41 
ROOT
HETATM    1  N1  UNL     1      -1.793 -38.225  -3.377  1.00  0.00    -0.188 NA
HETATM    2  C1  UNL     1      -1.245 -38.316  -2.350  1.00  0.00     0.137 C 
HETATM    3  C2  UNL     1      -0.553 -38.439  -1.101  1.00  0.00     0.204 A 
HETATM    4  N2  UNL     1      -0.772 -37.593  -0.072  1.00  0.00    -0.167 N 
ATOM      5  H2  UNL     1      -1.448 -36.836  -0.172  1.00  0.00     0.186 HD
HETATM    6  C3  UNL     1      -0.106 -37.743   1.076  1.00  0.00     0.679 A 
HETATM    7  N4  UNL     1       0.775 -38.743   1.185  1.00  0.00    -0.176 N 
ATOM      8  H4  UNL     1       1.279 -38.851   2.065  1.00  0.00     0.185 HD
HETATM    9  C4  UNL     1       1.030 -39.612   0.192  1.00  0.00     0.155 A 
HETATM   10  N10 UNL     1       0.350 -39.443  -0.954  1.00  0.00    -0.318 N 
ATOM     11  H10 UNL     1       0.514 -40.084  -1.731  1.00  0.00     0.169 HD
ENDROOT
BRANCH   6  12
HETATM   12  N3  UNL     1      -0.346 -36.911   2.046  1.00  0.00    -0.234 N 
ATOM     13  H32 UNL     1      -0.483 -35.912   1.892  1.00  0.00     0.174 HD
ATOM     14  H31 UNL     1      -0.395 -37.274   2.997  1.00  0.00     0.174 HD
ENDBRANCH   6  12
BRANCH   9  15
HETATM   15  C5  UNL     1       2.018 -40.730   0.299  1.00  0.00     0.331 C 
HETATM   16  O1  UNL     1       1.614 -41.823  -0.441  1.00  0.00    -0.350 OA
HETATM   17  C6  UNL     1       2.209 -42.903   0.164  1.00  0.00     0.225 C 
HETATM   18  C7  UNL     1       2.180 -42.536   1.631  1.00  0.00     0.246 C 
HETATM   19  O7  UNL     1       2.204 -41.131   1.598  1.00  0.00    -0.328 OA
BRANCH  18  20
HETATM   20  N5  UNL     1       0.915 -43.004   2.165  1.00  0.00    -0.364 N 
ATOM     21  H5  UNL     1       0.106 -43.189   1.572  1.00  0.00     0.158 HD
BRANCH  20  22
HETATM   22  C8  UNL     1       0.885 -43.187   3.577  1.00  0.00     0.269 C 
BRANCH  22  23
HETATM   23  O2  UNL     1       1.521 -44.371   3.944  1.00  0.00    -0.371 OA
ATOM     24  H2  UNL     1       0.928 -44.951   4.405  1.00  0.00     0.212 HD
ENDBRANCH  22  23
BRANCH  22  25
HETATM   25  C9  UNL     1      -0.419 -43.091   4.226  1.00  0.00     0.095 A 
HETATM   26  N6  UNL     1      -0.999 -43.994   5.006  1.00  0.00    -0.332 N 
HETATM   27  C10 UNL     1      -2.193 -43.527   5.390  1.00  0.00     0.181 A 
ATOM     28  H6  UNL     1      -0.602 -44.897   5.268  1.00  0.00     0.168 HD
HETATM   29  O4  UNL     1      -2.328 -42.347   4.845  1.00  0.00    -0.288 OA
HETATM   30  C13 UNL     1      -1.294 -42.015   4.125  1.00  0.00     0.136 A 
BRANCH  27  31
HETATM   31  C11 UNL     1      -3.176 -44.191   6.253  1.00  0.00     0.153 A 
HETATM   32  N7  UNL     1      -2.930 -45.180   7.123  1.00  0.00    -0.234 N 
HETATM   33  O3  UNL     1      -4.051 -45.495   7.703  1.00  0.00    -0.155 OA
ATOM     34  H7  UNL     1      -2.023 -45.610   7.299  1.00  0.00     0.197 HD
HETATM   35  N8  UNL     1      -5.042 -44.789   7.287  1.00  0.00    -0.224 N 
HETATM   36  C12 UNL     1      -4.526 -43.925   6.343  1.00  0.00     0.154 A 
ATOM     37  H8  UNL     1      -6.013 -44.854   7.593  1.00  0.00     0.198 HD
BRANCH  36  38
HETATM   38  N9  UNL     1      -5.201 -43.095   5.726  1.00  0.00    -0.382 N 
ATOM     39  H92 UNL     1      -5.401 -43.153   4.727  1.00  0.00     0.157 HD
ATOM     40  H91 UNL     1      -5.654 -42.247   6.069  1.00  0.00     0.157 HD
ENDBRANCH  36  38
ENDBRANCH  27  31
BRANCH  30  41
HETATM   41  C14 UNL     1      -1.070 -40.774   3.356  1.00  0.00     0.315 C 
BRANCH  41  42
HETATM   42  O5  UNL     1       0.128 -40.163   3.627  1.00  0.00    -0.365 OA
ATOM     43  H5  UNL     1       0.642 -39.967   2.852  1.00  0.00     0.213 HD
ENDBRANCH  41  42
BRANCH  41  44
HETATM   44  O6  UNL     1      -1.303 -40.946   1.991  1.00  0.00    -0.365 OA
ATOM     45  H6  UNL     1      -0.565 -41.344   1.545  1.00  0.00     0.213 HD
ENDBRANCH  41  44
ENDBRANCH  30  41
ENDBRANCH  22  25
ENDBRANCH  20  22
ENDBRANCH  18  20
ENDBRANCH   9  15
TORSDOF 11
ENDMDL
MODEL 2
REMARK VINA RESULT: -8.340078833      3.829      6.128
REMARK  11 active torsions:
REMARK  status: ('A' for Active; 'I' for Inactive)
REMARK    1  A    between atoms: C3_6  and  N3_7 
REMARK    2  A    between atoms: C4_12  and  C5_13 
REMARK    3  A    between atoms: C7_16  and  N5_17 
REMARK    4  A    between atoms: N5_17  and  C8_19 
REMARK    5  A    between atoms: C8_19  and  O2_20 
REMARK    6  A    between atoms: C8_19  and  C9_22 
REMARK    7  A    between atoms: C10_25  and  C11_26 
REMARK    8  A    between atoms: C12_32  and  N9_33 
REMARK    9  A    between atoms: C13_37  and  C14_38 
REMARK   10  A    between atoms: C14_38  and  O5_39 
REMARK   11  A    between atoms: C14_38  and  O6_41 
ROOT
HETATM    1  N1  UNL     1       0.392 -40.572   3.217  1.00  0.00    -0.188 NA
HETATM    2  C1  UNL     1       0.049 -39.635   2.612  1.00  0.00     0.137 C 
HETATM    3  C2  UNL     1      -0.369 -38.496   1.847  1.00  0.00     0.204 A 
HETATM    4  N2  UNL     1      -1.157 -37.531   2.369  1.00  0.00    -0.167 N 
ATOM      5  H2  UNL     1      -1.472 -37.601   3.336  1.00  0.00     0.186 HD
HETATM    6  C3  UNL     1      -1.523 -36.486   1.623  1.00  0.00     0.679 A 
HETATM    7  N4  UNL     1      -1.097 -36.414   0.357  1.00  0.00    -0.176 N 
ATOM      8  H4  UNL     1      -1.380 -35.613  -0.205  1.00  0.00     0.185 HD
HETATM    9  C4  UNL     1      -0.312 -37.347  -0.209  1.00  0.00     0.155 A 
HETATM   10  N10 UNL     1       0.045 -38.390   0.558  1.00  0.00    -0.318 N 
ATOM     11  H10 UNL     1       0.641 -39.120   0.165  1.00  0.00     0.169 HD
ENDROOT
BRANCH   6  12
HETATM   12  N3  UNL     1      -2.278 -35.574   2.160  1.00  0.00    -0.234 N 
ATOM     13  H32 UNL     1      -2.073 -35.155   3.067  1.00  0.00     0.174 HD
ATOM     14  H31 UNL     1      -3.110 -35.270   1.654  1.00  0.00     0.174 HD
ENDBRANCH   6  12
BRANCH   9  15
HETATM   15  C5  UNL     1       0.166 -37.283  -1.625  1.00  0.00     0.331 C 
HETATM   16  O1  UNL     1      -0.495 -38.203  -2.415  1.00  0.00    -0.350 OA
HETATM   17  C6  UNL     1       0.368 -38.470  -3.449  1.00  0.00     0.225 C 
HETATM   18  C7  UNL     1       1.727 -38.411  -2.789  1.00  0.00     0.246 C 
HETATM   19  O7  UNL     1       1.515 -37.517  -1.724  1.00  0.00    -0.328 OA
BRANCH  18  20
HETATM   20  N5  UNL     1       2.014 -39.738  -2.279  1.00  0.00    -0.364 N 
ATOM     21  H5  UNL     1       1.691 -40.585  -2.746  1.00  0.00     0.158 HD
BRANCH  20  22
HETATM   22  C8  UNL     1       2.781 -39.772  -1.079  1.00  0.00     0.269 C 
BRANCH  22  23
HETATM   23  O2  UNL     1       4.042 -39.214  -1.273  1.00  0.00    -0.371 OA
ATOM     24  H2  UNL     1       4.615 -39.812  -1.738  1.00  0.00     0.212 HD
ENDBRANCH  22  23
BRANCH  22  25
HETATM   25  C9  UNL     1       2.896 -41.064  -0.408  1.00  0.00     0.095 A 
HETATM   26  N6  UNL     1       2.241 -41.472   0.671  1.00  0.00    -0.332 N 
HETATM   27  C10 UNL     1       2.641 -42.714   0.972  1.00  0.00     0.181 A 
ATOM     28  H6  UNL     1       1.547 -40.930   1.187  1.00  0.00     0.168 HD
HETATM   29  O4  UNL     1       3.532 -43.049   0.078  1.00  0.00    -0.288 OA
HETATM   30  C13 UNL     1       3.740 -42.100  -0.792  1.00  0.00     0.136 A 
BRANCH  27  31
HETATM   31  C11 UNL     1       2.186 -43.553   2.086  1.00  0.00     0.153 A 
HETATM   32  N7  UNL     1       1.081 -43.367   2.821  1.00  0.00    -0.234 N 
HETATM   33  O3  UNL     1       1.017 -44.320   3.702  1.00  0.00    -0.155 OA
ATOM     34  H7  UNL     1       0.407 -42.610   2.708  1.00  0.00     0.197 HD
HETATM   35  N8  UNL     1       2.003 -45.142   3.619  1.00  0.00    -0.224 N 
HETATM   36  C12 UNL     1       2.792 -44.687   2.582  1.00  0.00     0.154 A 
ATOM     37  H8  UNL     1       2.169 -45.963   4.200  1.00  0.00     0.198 HD
BRANCH  36  38
HETATM   38  N9  UNL     1       3.837 -45.236   2.219  1.00  0.00    -0.382 N 
ATOM     39  H92 UNL     1       4.746 -45.075   2.654  1.00  0.00     0.157 HD
ATOM     40  H91 UNL     1       3.985 -45.906   1.463  1.00  0.00     0.157 HD
ENDBRANCH  36  38
ENDBRANCH  27  31
BRANCH  30  41
HETATM   41  C14 UNL     1       4.663 -42.096  -1.944  1.00  0.00     0.315 C 
BRANCH  41  42
HETATM   42  O5  UNL     1       4.089 -41.665  -3.113  1.00  0.00    -0.365 OA
ATOM     43  H5  UNL     1       4.314 -42.195  -3.869  1.00  0.00     0.213 HD
ENDBRANCH  41  42
BRANCH  41  44
HETATM   44  O6  UNL     1       5.869 -41.456  -1.656  1.00  0.00    -0.365 OA
ATOM     45  H6  UNL     1       6.572 -41.733  -2.231  1.00  0.00     0.213 HD
ENDBRANCH  41  44
ENDBRANCH  30  41
ENDBRANCH  22  25
ENDBRANCH  20  22
ENDBRANCH  18  20
ENDBRANCH   9  15
TORSDOF 11
ENDMDL
MODEL 3
REMARK VINA RESULT: -8.333949880      3.768      6.068
REMARK  11 active torsions:
REMARK  status: ('A' for Active; 'I' for Inactive)
REMARK    1  A    between atoms: C3_6  and  N3_7 
REMARK    2  A    between atoms: C4_12  and  C5_13 
REMARK    3  A    between atoms: C7_16  and  N5_17 
REMARK    4  A    between atoms: N5_17  and  C8_19 
REMARK    5  A    between atoms: C8_19  and  O2_20 
REMARK    6  A    between atoms: C8_19  and  C9_22 
REMARK    7  A    between atoms: C10_25  and  C11_26 
REMARK    8  A    between atoms: C12_32  and  N9_33 
REMARK    9  A    between atoms: C13_37  and  C14_38 
REMARK   10  A    between atoms: C14_38  and  O5_39 
REMARK   11  A    between atoms: C14_38  and  O6_41 
ROOT
HETATM    1  N1  UNL     1      -2.677 -34.699   3.105  1.00  0.00    -0.188 NA
HETATM    2  C1  UNL     1      -2.233 -35.635   2.568  1.00  0.00     0.137 C 
HETATM    3  C2  UNL     1      -1.673 -36.770   1.895  1.00  0.00     0.204 A 
HETATM    4  N2  UNL     1      -1.637 -37.995   2.460  1.00  0.00    -0.167 N 
ATOM      5  H2  UNL     1      -2.015 -38.133   3.397  1.00  0.00     0.186 HD
HETATM    6  C3  UNL     1      -1.107 -39.027   1.798  1.00  0.00     0.679 A 
HETATM    7  N4  UNL     1      -0.617 -38.823   0.571  1.00  0.00    -0.176 N 
ATOM      8  H4  UNL     1      -0.215 -39.616   0.071  1.00  0.00     0.185 HD
HETATM    9  C4  UNL     1      -0.629 -37.624  -0.038  1.00  0.00     0.155 A 
HETATM   10  N10 UNL     1      -1.167 -36.600   0.646  1.00  0.00    -0.318 N 
ATOM     11  H10 UNL     1      -1.195 -35.674   0.218  1.00  0.00     0.169 HD
ENDROOT
BRANCH   6  12
HETATM   12  N3  UNL     1      -1.093 -40.193   2.373  1.00  0.00    -0.234 N 
ATOM     13  H32 UNL     1      -0.728 -40.336   3.316  1.00  0.00     0.174 HD
ATOM     14  H31 UNL     1      -1.457 -40.994   1.859  1.00  0.00     0.174 HD
ENDBRANCH   6  12
BRANCH   9  15
HETATM   15  C5  UNL     1      -0.078 -37.381  -1.406  1.00  0.00     0.331 C 
HETATM   16  O1  UNL     1      -0.595 -38.281  -2.317  1.00  0.00    -0.350 OA
HETATM   17  C6  UNL     1       0.350 -38.366  -3.310  1.00  0.00     0.225 C 
HETATM   18  C7  UNL     1       1.655 -38.238  -2.557  1.00  0.00     0.246 C 
HETATM   19  O7  UNL     1       1.291 -37.473  -1.435  1.00  0.00    -0.328 OA
BRANCH  18  20
HETATM   20  N5  UNL     1       2.046 -39.574  -2.148  1.00  0.00    -0.364 N 
ATOM     21  H5  UNL     1       1.813 -40.404  -2.693  1.00  0.00     0.158 HD
BRANCH  20  22
HETATM   22  C8  UNL     1       2.779 -39.642  -0.929  1.00  0.00     0.269 C 
BRANCH  22  23
HETATM   23  O2  UNL     1       4.062 -39.123  -1.084  1.00  0.00    -0.371 OA
ATOM     24  H2  UNL     1       4.665 -39.502  -0.455  1.00  0.00     0.212 HD
ENDBRANCH  22  23
BRANCH  22  25
HETATM   25  C9  UNL     1       2.836 -40.943  -0.266  1.00  0.00     0.095 A 
HETATM   26  N6  UNL     1       2.180 -41.321   0.823  1.00  0.00    -0.332 N 
HETATM   27  C10 UNL     1       2.517 -42.585   1.110  1.00  0.00     0.181 A 
ATOM     28  H6  UNL     1       1.527 -40.745   1.354  1.00  0.00     0.168 HD
HETATM   29  O4  UNL     1       3.370 -42.963   0.196  1.00  0.00    -0.288 OA
HETATM   30  C13 UNL     1       3.614 -42.021  -0.672  1.00  0.00     0.136 A 
BRANCH  27  31
HETATM   31  C11 UNL     1       2.037 -43.405   2.227  1.00  0.00     0.153 A 
HETATM   32  N7  UNL     1       0.957 -43.164   2.983  1.00  0.00    -0.234 N 
HETATM   33  O3  UNL     1       0.858 -44.118   3.861  1.00  0.00    -0.155 OA
ATOM     34  H7  UNL     1       0.324 -42.371   2.887  1.00  0.00     0.197 HD
HETATM   35  N8  UNL     1       1.796 -44.991   3.755  1.00  0.00    -0.224 N 
HETATM   36  C12 UNL     1       2.589 -44.573   2.706  1.00  0.00     0.154 A 
ATOM     37  H8  UNL     1       1.927 -45.823   4.330  1.00  0.00     0.198 HD
BRANCH  36  38
HETATM   38  N9  UNL     1       3.597 -45.176   2.321  1.00  0.00    -0.382 N 
ATOM     39  H92 UNL     1       4.545 -44.806   2.397  1.00  0.00     0.157 HD
ATOM     40  H91 UNL     1       3.670 -46.092   1.880  1.00  0.00     0.157 HD
ENDBRANCH  36  38
ENDBRANCH  27  31
BRANCH  30  41
HETATM   41  C14 UNL     1       4.515 -42.060  -1.841  1.00  0.00     0.315 C 
BRANCH  41  42
HETATM   42  O5  UNL     1       3.934 -41.619  -3.004  1.00  0.00    -0.365 OA
ATOM     43  H5  UNL     1       3.539 -42.310  -3.521  1.00  0.00     0.213 HD
ENDBRANCH  41  42
BRANCH  41  44
HETATM   44  O6  UNL     1       5.748 -41.462  -1.582  1.00  0.00    -0.365 OA
ATOM     45  H6  UNL     1       5.919 -40.723  -2.154  1.00  0.00     0.213 HD
ENDBRANCH  41  44
ENDBRANCH  30  41
ENDBRANCH  22  25
ENDBRANCH  20  22
ENDBRANCH  18  20
ENDBRANCH   9  15
TORSDOF 11
ENDMDL
MODEL 4
REMARK VINA RESULT: -8.125106036      3.049      8.356
REMARK  11 active torsions:
REMARK  status: ('A' for Active; 'I' for Inactive)
REMARK    1  A    between atoms: C3_6  and  N3_7 
REMARK    2  A    between atoms: C4_12  and  C5_13 
REMARK    3  A    between atoms: C7_16  and  N5_17 
REMARK    4  A    between atoms: N5_17  and  C8_19 
REMARK    5  A    between atoms: C8_19  and  O2_20 
REMARK    6  A    between atoms: C8_19  and  C9_22 
REMARK    7  A    between atoms: C10_25  and  C11_26 
REMARK    8  A    between atoms: C12_32  and  N9_33 
REMARK    9  A    between atoms: C13_37  and  C14_38 
REMARK   10  A    between atoms: C14_38  and  O5_39 
REMARK   11  A    between atoms: C14_38  and  O6_41 
ROOT
HETATM    1  N1  UNL     1       3.239 -44.401   1.388  1.00  0.00    -0.188 NA
HETATM    2  C1  UNL     1       2.429 -43.942   2.093  1.00  0.00     0.137 C 
HETATM    3  C2  UNL     1       1.430 -43.362   2.941  1.00  0.00     0.204 A 
HETATM    4  N2  UNL     1       0.802 -44.074   3.902  1.00  0.00    -0.167 N 
ATOM      5  H2  UNL     1       1.036 -45.057   4.040  1.00  0.00     0.186 HD
HETATM    6  C3  UNL     1      -0.123 -43.495   4.672  1.00  0.00     0.679 A 
HETATM    7  N4  UNL     1      -0.413 -42.205   4.473  1.00  0.00    -0.176 N 
ATOM      8  H4  UNL     1      -1.120 -41.770   5.066  1.00  0.00     0.185 HD
HETATM    9  C4  UNL     1       0.183 -41.452   3.532  1.00  0.00     0.155 A 
HETATM   10  N10 UNL     1       1.110 -42.054   2.768  1.00  0.00    -0.318 N 
ATOM     11  H10 UNL     1       1.585 -41.516   2.043  1.00  0.00     0.169 HD
ENDROOT
BRANCH   6  12
HETATM   12  N3  UNL     1      -0.703 -44.211   5.589  1.00  0.00    -0.234 N 
ATOM     13  H32 UNL     1      -0.664 -45.230   5.598  1.00  0.00     0.174 HD
ATOM     14  H31 UNL     1      -1.221 -43.731   6.325  1.00  0.00     0.174 HD
ENDBRANCH   6  12
BRANCH   9  15
HETATM   15  C5  UNL     1      -0.137 -40.011   3.295  1.00  0.00     0.331 C 
HETATM   16  O1  UNL     1      -1.492 -39.827   3.101  1.00  0.00    -0.350 OA
HETATM   17  C6  UNL     1      -1.593 -38.683   2.348  1.00  0.00     0.225 C 
HETATM   18  C7  UNL     1      -0.385 -38.760   1.441  1.00  0.00     0.246 C 
HETATM   19  O7  UNL     1       0.529 -39.507   2.205  1.00  0.00    -0.328 OA
BRANCH  18  20
HETATM   20  N5  UNL     1      -0.780 -39.506   0.262  1.00  0.00    -0.364 N 
ATOM     21  H5  UNL     1      -1.339 -40.357   0.315  1.00  0.00     0.158 HD
BRANCH  20  22
HETATM   22  C8  UNL     1      -0.333 -38.961  -0.976  1.00  0.00     0.269 C 
BRANCH  22  23
HETATM   23  O2  UNL     1      -1.270 -39.170  -1.985  1.00  0.00    -0.371 OA
ATOM     24  H2  UNL     1      -1.173 -40.032  -2.371  1.00  0.00     0.212 HD
ENDBRANCH  22  23
BRANCH  22  25
HETATM   25  C9  UNL     1       0.996 -39.362  -1.429  1.00  0.00     0.095 A 
HETATM   26  N6  UNL     1       1.801 -40.258  -0.872  1.00  0.00    -0.332 N 
HETATM   27  C10 UNL     1       2.930 -40.325  -1.587  1.00  0.00     0.181 A 
ATOM     28  H6  UNL     1       1.594 -40.806  -0.036  1.00  0.00     0.168 HD
HETATM   29  O4  UNL     1       2.804 -39.473  -2.570  1.00  0.00    -0.288 OA
HETATM   30  C13 UNL     1       1.658 -38.852  -2.540  1.00  0.00     0.136 A 
BRANCH  27  31
HETATM   31  C11 UNL     1       4.098 -41.177  -1.336  1.00  0.00     0.153 A 
HETATM   32  N7  UNL     1       4.343 -41.880  -0.222  1.00  0.00    -0.234 N 
HETATM   33  O3  UNL     1       5.467 -42.513  -0.383  1.00  0.00    -0.155 OA
ATOM     34  H7  UNL     1       3.751 -41.913   0.607  1.00  0.00     0.197 HD
HETATM   35  N8  UNL     1       6.004 -42.289  -1.531  1.00  0.00    -0.224 N 
HETATM   36  C12 UNL     1       5.152 -41.426  -2.189  1.00  0.00     0.154 A 
ATOM     37  H8  UNL     1       6.882 -42.671  -1.882  1.00  0.00     0.198 HD
BRANCH  36  38
HETATM   38  N9  UNL     1       5.356 -40.990  -3.326  1.00  0.00    -0.382 N 
ATOM     39  H92 UNL     1       5.952 -40.188  -3.530  1.00  0.00     0.157 HD
ATOM     40  H91 UNL     1       4.989 -41.322  -4.219  1.00  0.00     0.157 HD
ENDBRANCH  36  38
ENDBRANCH  27  31
BRANCH  30  41
HETATM   41  C14 UNL     1       1.146 -37.824  -3.468  1.00  0.00     0.315 C 
BRANCH  41  42
HETATM   42  O5  UNL     1       2.124 -37.211  -4.211  1.00  0.00    -0.365 OA
ATOM     43  H5  UNL     1       2.728 -37.817  -4.624  1.00  0.00     0.213 HD
ENDBRANCH  41  42
BRANCH  41  44
HETATM   44  O6  UNL     1       0.081 -38.288  -4.240  1.00  0.00    -0.365 OA
ATOM     45  H6  UNL     1       0.263 -38.246  -5.171  1.00  0.00     0.213 HD
ENDBRANCH  41  44
ENDBRANCH  30  41
ENDBRANCH  22  25
ENDBRANCH  20  22
ENDBRANCH  18  20
ENDBRANCH   9  15
TORSDOF 11
ENDMDL
MODEL 5
REMARK VINA RESULT: -7.988050978      3.599      9.321
REMARK  11 active torsions:
REMARK  status: ('A' for Active; 'I' for Inactive)
REMARK    1  A    between atoms: C3_6  and  N3_7 
REMARK    2  A    between atoms: C4_12  and  C5_13 
REMARK    3  A    between atoms: C7_16  and  N5_17 
REMARK    4  A    between atoms: N5_17  and  C8_19 
REMARK    5  A    between atoms: C8_19  and  O2_20 
REMARK    6  A    between atoms: C8_19  and  C9_22 
REMARK    7  A    between atoms: C10_25  and  C11_26 
REMARK    8  A    between atoms: C12_32  and  N9_33 
REMARK    9  A    between atoms: C13_37  and  C14_38 
REMARK   10  A    between atoms: C14_38  and  O5_39 
REMARK   11  A    between atoms: C14_38  and  O6_41 
ROOT
HETATM    1  N1  UNL     1       3.038 -43.220  -1.502  1.00  0.00    -0.188 NA
HETATM    2  C1  UNL     1       2.544 -43.018  -0.465  1.00  0.00     0.137 C 
HETATM    3  C2  UNL     1       1.924 -42.752   0.800  1.00  0.00     0.204 A 
HETATM    4  N2  UNL     1       1.833 -43.689   1.767  1.00  0.00    -0.167 N 
ATOM      5  H2  UNL     1       2.213 -44.622   1.607  1.00  0.00     0.186 HD
HETATM    6  C3  UNL     1       1.248 -43.400   2.932  1.00  0.00     0.679 A 
HETATM    7  N4  UNL     1       0.757 -42.170   3.120  1.00  0.00    -0.176 N 
ATOM      8  H4  UNL     1       0.312 -41.956   4.012  1.00  0.00     0.185 HD
HETATM    9  C4  UNL     1       0.822 -41.201   2.190  1.00  0.00     0.155 A 
HETATM   10  N10 UNL     1       1.415 -41.513   1.026  1.00  0.00    -0.318 N 
ATOM     11  H10 UNL     1       1.484 -40.804   0.295  1.00  0.00     0.169 HD
ENDROOT
BRANCH   6  12
HETATM   12  N3  UNL     1       1.182 -44.327   3.841  1.00  0.00    -0.234 N 
ATOM     13  H32 UNL     1       0.657 -45.191   3.707  1.00  0.00     0.174 HD
ATOM     14  H31 UNL     1       1.672 -44.179   4.723  1.00  0.00     0.174 HD
ENDBRANCH   6  12
BRANCH   9  15
HETATM   15  C5  UNL     1       0.271 -39.824   2.385  1.00  0.00     0.331 C 
HETATM   16  O1  UNL     1      -1.109 -39.840   2.412  1.00  0.00    -0.350 OA
HETATM   17  C6  UNL     1      -1.488 -38.584   2.006  1.00  0.00     0.225 C 
HETATM   18  C7  UNL     1      -0.444 -38.224   0.973  1.00  0.00     0.246 C 
HETATM   19  O7  UNL     1       0.676 -38.963   1.396  1.00  0.00    -0.328 OA
BRANCH  18  20
HETATM   20  N5  UNL     1      -0.918 -38.719  -0.305  1.00  0.00    -0.364 N 
ATOM     21  H5  UNL     1      -1.064 -39.712  -0.487  1.00  0.00     0.158 HD
BRANCH  20  22
HETATM   22  C8  UNL     1      -1.165 -37.718  -1.287  1.00  0.00     0.269 C 
BRANCH  22  23
HETATM   23  O2  UNL     1      -2.521 -37.405  -1.356  1.00  0.00    -0.371 OA
ATOM     24  H2  UNL     1      -2.655 -36.465  -1.384  1.00  0.00     0.212 HD
ENDBRANCH  22  23
BRANCH  22  25
HETATM   25  C9  UNL     1      -0.633 -37.962  -2.625  1.00  0.00     0.095 A 
HETATM   26  N6  UNL     1      -1.285 -37.879  -3.778  1.00  0.00    -0.332 N 
HETATM   27  C10 UNL     1      -0.442 -38.189  -4.771  1.00  0.00     0.181 A 
ATOM     28  H6  UNL     1      -2.266 -37.620  -3.890  1.00  0.00     0.168 HD
HETATM   29  O4  UNL     1       0.710 -38.458  -4.216  1.00  0.00    -0.288 OA
HETATM   30  C13 UNL     1       0.672 -38.342  -2.918  1.00  0.00     0.136 A 
BRANCH  27  31
HETATM   31  C11 UNL     1      -0.733 -38.231  -6.208  1.00  0.00     0.153 A 
HETATM   32  N7  UNL     1      -1.740 -38.890  -6.796  1.00  0.00    -0.234 N 
HETATM   33  O3  UNL     1      -1.668 -38.677  -8.077  1.00  0.00    -0.155 OA
ATOM     34  H7  UNL     1      -2.441 -39.459  -6.322  1.00  0.00     0.197 HD
HETATM   35  N8  UNL     1      -0.681 -37.919  -8.401  1.00  0.00    -0.224 N 
HETATM   36  C12 UNL     1      -0.041 -37.601  -7.220  1.00  0.00     0.154 A 
ATOM     37  H8  UNL     1      -0.424 -37.614  -9.340  1.00  0.00     0.198 HD
BRANCH  36  38
HETATM   38  N9  UNL     1       0.963 -36.885  -7.152  1.00  0.00    -0.382 N 
ATOM     39  H92 UNL     1       1.582 -36.848  -6.342  1.00  0.00     0.157 HD
ATOM     40  H91 UNL     1       1.338 -36.233  -7.841  1.00  0.00     0.157 HD
ENDBRANCH  36  38
ENDBRANCH  27  31
BRANCH  30  41
HETATM   41  C14 UNL     1       1.759 -38.560  -1.944  1.00  0.00     0.315 C 
BRANCH  41  42
HETATM   42  O5  UNL     1       1.937 -37.519  -1.069  1.00  0.00    -0.365 OA
ATOM     43  H5  UNL     1       2.843 -37.377  -0.821  1.00  0.00     0.213 HD
ENDBRANCH  41  42
BRANCH  41  44
HETATM   44  O6  UNL     1       1.665 -39.800  -1.311  1.00  0.00    -0.365 OA
ATOM     45  H6  UNL     1       2.048 -40.500  -1.826  1.00  0.00     0.213 HD
ENDBRANCH  41  44
ENDBRANCH  30  41
ENDBRANCH  22  25
ENDBRANCH  20  22
ENDBRANCH  18  20
ENDBRANCH   9  15
TORSDOF 11
ENDMDL
