MODEL 1
REMARK VINA RESULT: -9.089510475      0.000      0.000
REMARK  14 active torsions:
REMARK  status: ('A' for Active; 'I' for Inactive)
REMARK    1  A    between atoms: O1_2  and  C2_3 
REMARK    2  A    between atoms: C2_3  and  C3_4 
REMARK    3  A    between atoms: C3_4  and  N1_5 
REMARK    4  A    between atoms: C3_4  and  C14_41 
REMARK    5  A    between atoms: N1_5  and  C4_7 
REMARK    6  A    between atoms: C5_8  and  N2_9 
REMARK    7  A    between atoms: N2_9  and  C6_11 
REMARK    8  A    between atoms: N5_19  and  N6_20 
REMARK    9  A    between atoms: N7_23  and  N8_24 
REMARK   10  A    between atoms: N9_27  and  N10_28 
REMARK   11  A    between atoms: N10_28  and  O2_30 
REMARK   12  A    between atoms: C12_36  and  O3_37 
REMARK   13  A    between atoms: C14_41  and  O5_42 
REMARK   14  A    between atoms: C14_41  and  O6_44 
ROOT
HETATM    1  N2  UNL     1       1.241 -41.351   1.339  1.00  0.00    -0.325 N 
ATOM      2  H2  UNL     1       0.566 -40.590   1.419  1.00  0.00     0.169 HD
ENDROOT
BRANCH   1   3
HETATM    3  C5  UNL     1       2.162 -41.331   0.243  1.00  0.00     0.138 A 
HETATM    4  C4  UNL     1       1.779 -40.562  -0.838  1.00  0.00     0.130 A 
HETATM    5  C13 UNL     1       2.625 -40.502  -1.924  1.00  0.00     0.237 A 
HETATM    6  C12 UNL     1       3.828 -41.220  -1.883  1.00  0.00     0.141 A 
HETATM    7  O4  UNL     1       2.387 -39.839  -2.964  1.00  0.00    -0.283 OA
HETATM    8  C10 UNL     1       4.158 -41.973  -0.773  1.00  0.00     0.044 A 
HETATM    9  N11 UNL     1       3.319 -42.016   0.274  1.00  0.00    -0.342 N 
HETATM   10  C11 UNL     1       5.459 -42.724  -0.778  1.00  0.00     0.071 C 
ATOM     11  H11 UNL     1       3.559 -42.571   1.095  1.00  0.00     0.167 HD
BRANCH   4  12
HETATM   12  N1  UNL     1       0.541 -39.831  -0.865  1.00  0.00    -0.351 N 
ATOM     13  H1  UNL     1      -0.326 -40.355  -0.986  1.00  0.00     0.166 HD
BRANCH  12  14
HETATM   14  C3  UNL     1       0.468 -38.570  -0.747  1.00  0.00     0.066 C 
BRANCH  14  15
HETATM   15  C2  UNL     1      -0.319 -37.827  -1.766  1.00  0.00     0.224 C 
BRANCH  15  16
HETATM   16  O1  UNL     1       0.519 -36.967  -2.496  1.00  0.00    -0.390 OA
HETATM   17  C1  UNL     1       0.346 -37.169  -3.859  1.00  0.00     0.201 C 
ENDBRANCH  15  16
ENDBRANCH  14  15
BRANCH  14  18
HETATM   18  C14 UNL     1       1.145 -37.891   0.369  1.00  0.00     0.303 C 
BRANCH  18  19
HETATM   19  O5  UNL     1       1.080 -36.503   0.266  1.00  0.00    -0.366 OA
ATOM     20  H5  UNL     1       1.238 -36.197  -0.620  1.00  0.00     0.213 HD
ENDBRANCH  18  19
BRANCH  18  21
HETATM   21  O6  UNL     1       0.609 -38.250   1.607  1.00  0.00    -0.366 OA
ATOM     22  H6  UNL     1       0.235 -37.506   2.064  1.00  0.00     0.213 HD
ENDBRANCH  18  21
ENDBRANCH  14  18
ENDBRANCH  12  14
ENDBRANCH   4  12
BRANCH   6  23
HETATM   23  O3  UNL     1       4.696 -41.178  -2.961  1.00  0.00    -0.355 OA
ATOM     24  H3  UNL     1       4.443 -40.708  -3.747  1.00  0.00     0.218 HD
ENDBRANCH   6  23
ENDBRANCH   1   3
BRANCH   1  25
HETATM   25  C6  UNL     1       1.222 -42.271   2.219  1.00  0.00     0.142 A 
HETATM   26  N3  UNL     1       2.117 -43.270   2.306  1.00  0.00    -0.336 N 
HETATM   27  C7  UNL     1       2.056 -44.217   3.253  1.00  0.00     0.183 A 
ATOM     28  H3  UNL     1       2.874 -43.308   1.624  1.00  0.00     0.168 HD
HETATM   29  N4  UNL     1       1.052 -44.178   4.168  1.00  0.00    -0.334 N 
HETATM   30  C8  UNL     1       0.116 -43.188   4.128  1.00  0.00     0.180 A 
ATOM     31  H4  UNL     1       0.998 -44.897   4.891  1.00  0.00     0.168 HD
HETATM   32  C9  UNL     1       0.180 -42.209   3.150  1.00  0.00     0.164 A 
HETATM   33  N9  UNL     1      -1.015 -42.907   4.937  1.00  0.00    -0.139 N 
HETATM   34  N5  UNL     1      -0.918 -41.363   3.400  1.00  0.00    -0.177 N 
HETATM   35  N7  UNL     1      -1.429 -41.601   4.678  1.00  0.00     0.000 NA
BRANCH  34  36
HETATM   36  N6  UNL     1      -1.432 -40.420   2.514  1.00  0.00    -0.325 N 
ATOM     37  H62 UNL     1      -1.940 -40.653   1.660  1.00  0.00     0.178 HD
ATOM     38  H61 UNL     1      -1.360 -39.408   2.617  1.00  0.00     0.178 HD
ENDBRANCH  34  36
BRANCH  35  39
HETATM   39  N8  UNL     1      -0.719 -40.765   5.569  1.00  0.00    -0.324 NA
ATOM     40  H82 UNL     1      -0.839 -41.160   6.502  1.00  0.00     0.174 HD
ATOM     41  H81 UNL     1       0.274 -40.912   5.389  1.00  0.00     0.174 HD
ENDBRANCH  35  39
BRANCH  33  42
HETATM   42  N10 UNL     1      -1.601 -43.792   5.830  1.00  0.00    -0.188 N 
ATOM     43  H10 UNL     1      -1.495 -44.791   5.653  1.00  0.00     0.217 HD
BRANCH  42  44
HETATM   44  O2  UNL     1      -2.247 -43.441   6.833  1.00  0.00    -0.273 OA
ATOM     45  H2  UNL     1      -2.752 -44.037   7.373  1.00  0.00     0.246 HD
ENDBRANCH  42  44
ENDBRANCH  33  42
ENDBRANCH   1  25
TORSDOF 14
ENDMDL
MODEL 2
REMARK VINA RESULT: -8.524480485      0.637      1.754
REMARK  14 active torsions:
REMARK  status: ('A' for Active; 'I' for Inactive)
REMARK    1  A    between atoms: O1_2  and  C2_3 
REMARK    2  A    between atoms: C2_3  and  C3_4 
REMARK    3  A    between atoms: C3_4  and  N1_5 
REMARK    4  A    between atoms: C3_4  and  C14_41 
REMARK    5  A    between atoms: N1_5  and  C4_7 
REMARK    6  A    between atoms: C5_8  and  N2_9 
REMARK    7  A    between atoms: N2_9  and  C6_11 
REMARK    8  A    between atoms: N5_19  and  N6_20 
REMARK    9  A    between atoms: N7_23  and  N8_24 
REMARK   10  A    between atoms: N9_27  and  N10_28 
REMARK   11  A    between atoms: N10_28  and  O2_30 
REMARK   12  A    between atoms: C12_36  and  O3_37 
REMARK   13  A    between atoms: C14_41  and  O5_42 
REMARK   14  A    between atoms: C14_41  and  O6_44 
ROOT
HETATM    1  N2  UNL     1       1.175 -41.464   1.143  1.00  0.00    -0.325 N 
ATOM      2  H2  UNL     1       0.363 -40.848   1.117  1.00  0.00     0.169 HD
ENDROOT
BRANCH   1   3
HETATM    3  C5  UNL     1       2.185 -41.302   0.141  1.00  0.00     0.138 A 
HETATM    4  C4  UNL     1       1.871 -40.427  -0.880  1.00  0.00     0.130 A 
HETATM    5  C13 UNL     1       2.804 -40.229  -1.875  1.00  0.00     0.237 A 
HETATM    6  C12 UNL     1       4.021 -40.919  -1.806  1.00  0.00     0.141 A 
HETATM    7  O4  UNL     1       2.634 -39.460  -2.853  1.00  0.00    -0.283 OA
HETATM    8  C10 UNL     1       4.280 -41.782  -0.759  1.00  0.00     0.044 A 
HETATM    9  N11 UNL     1       3.357 -41.960   0.199  1.00  0.00    -0.342 N 
HETATM   10  C11 UNL     1       5.600 -42.499  -0.730  1.00  0.00     0.071 C 
ATOM     11  H11 UNL     1       3.544 -42.597   0.974  1.00  0.00     0.167 HD
BRANCH   4  12
HETATM   12  N1  UNL     1       0.617 -39.726  -0.937  1.00  0.00    -0.351 N 
ATOM     13  H1  UNL     1      -0.231 -40.268  -1.108  1.00  0.00     0.166 HD
BRANCH  12  14
HETATM   14  C3  UNL     1       0.506 -38.472  -0.786  1.00  0.00     0.066 C 
BRANCH  14  15
HETATM   15  C2  UNL     1       0.990 -37.885   0.491  1.00  0.00     0.224 C 
BRANCH  15  16
HETATM   16  O1  UNL     1       0.108 -38.201   1.538  1.00  0.00    -0.390 OA
HETATM   17  C1  UNL     1      -0.783 -37.158   1.749  1.00  0.00     0.201 C 
ENDBRANCH  15  16
ENDBRANCH  14  15
BRANCH  14  18
HETATM   18  C14 UNL     1      -0.084 -37.648  -1.853  1.00  0.00     0.303 C 
BRANCH  18  19
HETATM   19  O5  UNL     1       0.873 -37.163  -2.742  1.00  0.00    -0.366 OA
ATOM     20  H5  UNL     1       0.887 -36.214  -2.778  1.00  0.00     0.213 HD
ENDBRANCH  18  19
BRANCH  18  21
HETATM   21  O6  UNL     1      -1.035 -38.351  -2.595  1.00  0.00    -0.366 OA
ATOM     22  H6  UNL     1      -1.259 -37.905  -3.404  1.00  0.00     0.213 HD
ENDBRANCH  18  21
ENDBRANCH  14  18
ENDBRANCH  12  14
ENDBRANCH   4  12
BRANCH   6  23
HETATM   23  O3  UNL     1       4.976 -40.738  -2.792  1.00  0.00    -0.355 OA
ATOM     24  H3  UNL     1       4.899 -41.215  -3.610  1.00  0.00     0.218 HD
ENDBRANCH   6  23
ENDBRANCH   1   3
BRANCH   1  25
HETATM   25  C6  UNL     1       1.240 -42.340   2.065  1.00  0.00     0.142 A 
HETATM   26  N3  UNL     1       2.183 -43.293   2.155  1.00  0.00    -0.336 N 
HETATM   27  C7  UNL     1       2.210 -44.195   3.147  1.00  0.00     0.183 A 
ATOM     28  H3  UNL     1       2.908 -43.332   1.439  1.00  0.00     0.168 HD
HETATM   29  N4  UNL     1       1.249 -44.155   4.107  1.00  0.00    -0.334 N 
HETATM   30  C8  UNL     1       0.268 -43.211   4.066  1.00  0.00     0.180 A 
ATOM     31  H4  UNL     1       1.262 -44.839   4.864  1.00  0.00     0.168 HD
HETATM   32  C9  UNL     1       0.240 -42.279   3.042  1.00  0.00     0.164 A 
HETATM   33  N9  UNL     1      -0.837 -42.940   4.915  1.00  0.00    -0.139 N 
HETATM   34  N5  UNL     1      -0.883 -41.471   3.304  1.00  0.00    -0.177 N 
HETATM   35  N7  UNL     1      -1.322 -41.668   4.616  1.00  0.00     0.000 NA
BRANCH  34  36
HETATM   36  N6  UNL     1      -1.481 -40.596   2.401  1.00  0.00    -0.325 N 
ATOM     37  H62 UNL     1      -0.966 -40.018   1.737  1.00  0.00     0.178 HD
ATOM     38  H61 UNL     1      -2.483 -40.439   2.303  1.00  0.00     0.178 HD
ENDBRANCH  34  36
BRANCH  35  39
HETATM   39  N8  UNL     1      -0.612 -40.759   5.431  1.00  0.00    -0.324 NA
ATOM     40  H82 UNL     1      -0.998 -39.833   5.245  1.00  0.00     0.174 HD
ATOM     41  H81 UNL     1      -0.900 -40.933   6.394  1.00  0.00     0.174 HD
ENDBRANCH  35  39
BRANCH  33  42
HETATM   42  N10 UNL     1      -1.339 -43.806   5.876  1.00  0.00    -0.188 N 
ATOM     43  H10 UNL     1      -1.085 -44.792   5.812  1.00  0.00     0.217 HD
BRANCH  42  44
HETATM   44  O2  UNL     1      -2.079 -43.452   6.810  1.00  0.00    -0.273 OA
ATOM     45  H2  UNL     1      -2.023 -42.607   7.240  1.00  0.00     0.246 HD
ENDBRANCH  42  44
ENDBRANCH  33  42
ENDBRANCH   1  25
TORSDOF 14
ENDMDL
MODEL 3
REMARK VINA RESULT: -8.183056412      2.269      5.144
REMARK  14 active torsions:
REMARK  status: ('A' for Active; 'I' for Inactive)
REMARK    1  A    between atoms: O1_2  and  C2_3 
REMARK    2  A    between atoms: C2_3  and  C3_4 
REMARK    3  A    between atoms: C3_4  and  N1_5 
REMARK    4  A    between atoms: C3_4  and  C14_41 
REMARK    5  A    between atoms: N1_5  and  C4_7 
REMARK    6  A    between atoms: C5_8  and  N2_9 
REMARK    7  A    between atoms: N2_9  and  C6_11 
REMARK    8  A    between atoms: N5_19  and  N6_20 
REMARK    9  A    between atoms: N7_23  and  N8_24 
REMARK   10  A    between atoms: N9_27  and  N10_28 
REMARK   11  A    between atoms: N10_28  and  O2_30 
REMARK   12  A    between atoms: C12_36  and  O3_37 
REMARK   13  A    between atoms: C14_41  and  O5_42 
REMARK   14  A    between atoms: C14_41  and  O6_44 
ROOT
HETATM    1  N2  UNL     1       0.295 -38.971   1.387  1.00  0.00    -0.325 N 
ATOM      2  H2  UNL     1       1.245 -38.603   1.436  1.00  0.00     0.169 HD
ENDROOT
BRANCH   1   3
HETATM    3  C5  UNL     1      -0.673 -38.256   0.610  1.00  0.00     0.138 A 
HETATM    4  C4  UNL     1      -0.762 -38.633  -0.715  1.00  0.00     0.130 A 
HETATM    5  C13 UNL     1      -1.677 -37.981  -1.515  1.00  0.00     0.237 A 
HETATM    6  C12 UNL     1      -2.468 -36.972  -0.950  1.00  0.00     0.141 A 
HETATM    7  O4  UNL     1      -1.850 -38.233  -2.732  1.00  0.00    -0.283 OA
HETATM    8  C10 UNL     1      -2.334 -36.638   0.384  1.00  0.00     0.044 A 
HETATM    9  N11 UNL     1      -1.437 -37.286   1.144  1.00  0.00    -0.342 N 
HETATM   10  C11 UNL     1      -3.206 -35.549   0.941  1.00  0.00     0.071 C 
ATOM     11  H11 UNL     1      -1.335 -37.043   2.129  1.00  0.00     0.167 HD
BRANCH   4  12
HETATM   12  N1  UNL     1       0.057 -39.670  -1.280  1.00  0.00    -0.351 N 
ATOM     13  H1  UNL     1      -0.266 -40.635  -1.204  1.00  0.00     0.166 HD
BRANCH  12  14
HETATM   14  C3  UNL     1       1.160 -39.453  -1.867  1.00  0.00     0.066 C 
BRANCH  14  15
HETATM   15  C2  UNL     1       1.882 -40.621  -2.435  1.00  0.00     0.224 C 
BRANCH  15  16
HETATM   16  O1  UNL     1       3.269 -40.394  -2.416  1.00  0.00    -0.390 OA
HETATM   17  C1  UNL     1       3.955 -41.595  -2.535  1.00  0.00     0.201 C 
ENDBRANCH  15  16
ENDBRANCH  14  15
BRANCH  14  18
HETATM   18  C14 UNL     1       1.686 -38.082  -1.969  1.00  0.00     0.303 C 
BRANCH  18  19
HETATM   19  O5  UNL     1       2.706 -37.833  -1.053  1.00  0.00    -0.366 OA
ATOM     20  H5  UNL     1       3.189 -38.618  -0.825  1.00  0.00     0.213 HD
ENDBRANCH  18  19
BRANCH  18  21
HETATM   21  O6  UNL     1       2.182 -37.802  -3.243  1.00  0.00    -0.366 OA
ATOM     22  H6  UNL     1       2.768 -37.054  -3.243  1.00  0.00     0.213 HD
ENDBRANCH  18  21
ENDBRANCH  14  18
ENDBRANCH  12  14
ENDBRANCH   4  12
BRANCH   6  23
HETATM   23  O3  UNL     1      -3.394 -36.300  -1.730  1.00  0.00    -0.355 OA
ATOM     24  H3  UNL     1      -3.985 -35.678  -1.323  1.00  0.00     0.218 HD
ENDBRANCH   6  23
ENDBRANCH   1   3
BRANCH   1  25
HETATM   25  C6  UNL     1       0.028 -40.044   2.019  1.00  0.00     0.142 A 
HETATM   26  N3  UNL     1      -1.079 -40.249   2.753  1.00  0.00    -0.336 N 
HETATM   27  C7  UNL     1      -1.316 -41.398   3.402  1.00  0.00     0.183 A 
ATOM     28  H3  UNL     1      -1.767 -39.499   2.819  1.00  0.00     0.168 HD
HETATM   29  N4  UNL     1      -0.407 -42.405   3.323  1.00  0.00    -0.334 N 
HETATM   30  C8  UNL     1       0.734 -42.253   2.593  1.00  0.00     0.180 A 
ATOM     31  H4  UNL     1      -0.579 -43.282   3.815  1.00  0.00     0.168 HD
HETATM   32  C9  UNL     1       0.979 -41.066   1.923  1.00  0.00     0.164 A 
HETATM   33  N9  UNL     1       1.832 -43.116   2.342  1.00  0.00    -0.139 N 
HETATM   34  N5  UNL     1       2.220 -41.249   1.284  1.00  0.00    -0.177 N 
HETATM   35  N7  UNL     1       2.558 -42.605   1.267  1.00  0.00     0.000 NA
BRANCH  34  36
HETATM   36  N6  UNL     1       3.009 -40.238   0.741  1.00  0.00    -0.325 N 
ATOM     37  H62 UNL     1       2.680 -39.290   0.560  1.00  0.00     0.178 HD
ATOM     38  H61 UNL     1       3.987 -40.331   0.469  1.00  0.00     0.178 HD
ENDBRANCH  34  36
BRANCH  35  39
HETATM   39  N8  UNL     1       1.995 -43.157   0.096  1.00  0.00    -0.324 NA
ATOM     40  H82 UNL     1       2.624 -42.921  -0.672  1.00  0.00     0.174 HD
ATOM     41  H81 UNL     1       2.095 -44.170   0.165  1.00  0.00     0.174 HD
ENDBRANCH  35  39
BRANCH  33  42
HETATM   42  N10 UNL     1       2.122 -44.270   3.054  1.00  0.00    -0.188 N 
ATOM     43  H10 UNL     1       1.854 -45.166   2.645  1.00  0.00     0.217 HD
BRANCH  42  44
HETATM   44  O2  UNL     1       2.689 -44.280   4.161  1.00  0.00    -0.273 OA
ATOM     45  H2  UNL     1       3.575 -43.969   4.305  1.00  0.00     0.246 HD
ENDBRANCH  42  44
ENDBRANCH  33  42
ENDBRANCH   1  25
TORSDOF 14
ENDMDL
MODEL 4
REMARK VINA RESULT: -8.160567224      3.290      6.256
REMARK  14 active torsions:
REMARK  status: ('A' for Active; 'I' for Inactive)
REMARK    1  A    between atoms: O1_2  and  C2_3 
REMARK    2  A    between atoms: C2_3  and  C3_4 
REMARK    3  A    between atoms: C3_4  and  N1_5 
REMARK    4  A    between atoms: C3_4  and  C14_41 
REMARK    5  A    between atoms: N1_5  and  C4_7 
REMARK    6  A    between atoms: C5_8  and  N2_9 
REMARK    7  A    between atoms: N2_9  and  C6_11 
REMARK    8  A    between atoms: N5_19  and  N6_20 
REMARK    9  A    between atoms: N7_23  and  N8_24 
REMARK   10  A    between atoms: N9_27  and  N10_28 
REMARK   11  A    between atoms: N10_28  and  O2_30 
REMARK   12  A    between atoms: C12_36  and  O3_37 
REMARK   13  A    between atoms: C14_41  and  O5_42 
REMARK   14  A    between atoms: C14_41  and  O6_44 
ROOT
HETATM    1  N2  UNL     1      -1.589 -39.379   0.270  1.00  0.00    -0.325 N 
ATOM      2  H2  UNL     1      -1.944 -39.596  -0.661  1.00  0.00     0.169 HD
ENDROOT
BRANCH   1   3
HETATM    3  C5  UNL     1      -0.717 -40.322   0.903  1.00  0.00     0.138 A 
HETATM    4  C4  UNL     1       0.475 -40.559   0.247  1.00  0.00     0.130 A 
HETATM    5  C13 UNL     1       1.357 -41.457   0.807  1.00  0.00     0.237 A 
HETATM    6  C12 UNL     1       1.007 -42.086   2.009  1.00  0.00     0.141 A 
HETATM    7  O4  UNL     1       2.469 -41.754   0.306  1.00  0.00    -0.283 OA
HETATM    8  C10 UNL     1      -0.200 -41.810   2.620  1.00  0.00     0.044 A 
HETATM    9  N11 UNL     1      -1.044 -40.931   2.057  1.00  0.00    -0.342 N 
HETATM   10  C11 UNL     1      -0.529 -42.510   3.908  1.00  0.00     0.071 C 
ATOM     11  H11 UNL     1      -1.937 -40.724   2.505  1.00  0.00     0.167 HD
BRANCH   4  12
HETATM   12  N1  UNL     1       0.820 -39.905  -0.987  1.00  0.00    -0.351 N 
ATOM     13  H1  UNL     1       0.487 -40.315  -1.859  1.00  0.00     0.166 HD
BRANCH  12  14
HETATM   14  C3  UNL     1       1.515 -38.846  -1.049  1.00  0.00     0.066 C 
BRANCH  14  15
HETATM   15  C2  UNL     1       1.979 -38.403  -2.391  1.00  0.00     0.224 C 
BRANCH  15  16
HETATM   16  O1  UNL     1       1.270 -37.261  -2.800  1.00  0.00    -0.390 OA
HETATM   17  C1  UNL     1       1.292 -37.150  -4.184  1.00  0.00     0.201 C 
ENDBRANCH  15  16
ENDBRANCH  14  15
BRANCH  14  18
HETATM   18  C14 UNL     1       1.837 -38.099   0.177  1.00  0.00     0.303 C 
BRANCH  18  19
HETATM   19  O5  UNL     1       3.205 -38.070   0.439  1.00  0.00    -0.366 OA
ATOM     20  H5  UNL     1       3.677 -37.493  -0.152  1.00  0.00     0.213 HD
ENDBRANCH  18  19
BRANCH  18  21
HETATM   21  O6  UNL     1       1.388 -36.778   0.122  1.00  0.00    -0.366 OA
ATOM     22  H6  UNL     1       2.062 -36.160   0.380  1.00  0.00     0.213 HD
ENDBRANCH  18  21
ENDBRANCH  14  18
ENDBRANCH  12  14
ENDBRANCH   4  12
BRANCH   6  23
HETATM   23  O3  UNL     1       1.875 -42.993   2.594  1.00  0.00    -0.355 OA
ATOM     24  H3  UNL     1       2.780 -43.023   2.310  1.00  0.00     0.218 HD
ENDBRANCH   6  23
ENDBRANCH   1   3
BRANCH   1  25
HETATM   25  C6  UNL     1      -1.943 -38.283   0.812  1.00  0.00     0.142 A 
HETATM   26  N3  UNL     1      -2.237 -38.129   2.114  1.00  0.00    -0.336 N 
HETATM   27  C7  UNL     1      -2.606 -36.952   2.640  1.00  0.00     0.183 A 
ATOM     28  H3  UNL     1      -2.175 -38.941   2.728  1.00  0.00     0.168 HD
HETATM   29  N4  UNL     1      -2.692 -35.861   1.833  1.00  0.00    -0.334 N 
HETATM   30  C8  UNL     1      -2.407 -35.959   0.504  1.00  0.00     0.180 A 
ATOM     31  H4  UNL     1      -2.974 -34.963   2.225  1.00  0.00     0.168 HD
HETATM   32  C9  UNL     1      -2.025 -37.175  -0.039  1.00  0.00     0.164 A 
HETATM   33  N9  UNL     1      -2.414 -35.009  -0.549  1.00  0.00    -0.139 N 
HETATM   34  N5  UNL     1      -1.811 -36.921  -1.407  1.00  0.00    -0.177 N 
HETATM   35  N7  UNL     1      -1.719 -35.545  -1.633  1.00  0.00     0.000 NA
BRANCH  34  36
HETATM   36  N6  UNL     1      -1.703 -37.886  -2.403  1.00  0.00    -0.325 N 
ATOM     37  H62 UNL     1      -2.434 -38.560  -2.631  1.00  0.00     0.178 HD
ATOM     38  H61 UNL     1      -0.894 -38.026  -3.009  1.00  0.00     0.178 HD
ENDBRANCH  34  36
BRANCH  35  39
HETATM   39  N8  UNL     1      -0.363 -35.188  -1.464  1.00  0.00    -0.324 NA
ATOM     40  H82 UNL     1      -0.157 -35.276  -0.468  1.00  0.00     0.174 HD
ATOM     41  H81 UNL     1       0.196 -35.936  -1.875  1.00  0.00     0.174 HD
ENDBRANCH  35  39
BRANCH  33  42
HETATM   42  N10 UNL     1      -3.014 -33.760  -0.496  1.00  0.00    -0.188 N 
ATOM     43  H10 UNL     1      -3.252 -33.304  -1.377  1.00  0.00     0.217 HD
BRANCH  42  44
HETATM   44  O2  UNL     1      -3.281 -33.161   0.561  1.00  0.00    -0.273 OA
ATOM     45  H2  UNL     1      -3.816 -32.378   0.607  1.00  0.00     0.246 HD
ENDBRANCH  42  44
ENDBRANCH  33  42
ENDBRANCH   1  25
TORSDOF 14
ENDMDL
MODEL 5
REMARK VINA RESULT: -8.055524166      3.001      5.476
REMARK  14 active torsions:
REMARK  status: ('A' for Active; 'I' for Inactive)
REMARK    1  A    between atoms: O1_2  and  C2_3 
REMARK    2  A    between atoms: C2_3  and  C3_4 
REMARK    3  A    between atoms: C3_4  and  N1_5 
REMARK    4  A    between atoms: C3_4  and  C14_41 
REMARK    5  A    between atoms: N1_5  and  C4_7 
REMARK    6  A    between atoms: C5_8  and  N2_9 
REMARK    7  A    between atoms: N2_9  and  C6_11 
REMARK    8  A    between atoms: N5_19  and  N6_20 
REMARK    9  A    between atoms: N7_23  and  N8_24 
REMARK   10  A    between atoms: N9_27  and  N10_28 
REMARK   11  A    between atoms: N10_28  and  O2_30 
REMARK   12  A    between atoms: C12_36  and  O3_37 
REMARK   13  A    between atoms: C14_41  and  O5_42 
REMARK   14  A    between atoms: C14_41  and  O6_44 
ROOT
HETATM    1  N2  UNL     1       0.643 -41.141   0.061  1.00  0.00    -0.325 N 
ATOM      2  H2  UNL     1       0.529 -41.013  -0.944  1.00  0.00     0.169 HD
ENDROOT
BRANCH   1   3
HETATM    3  C5  UNL     1       1.519 -42.177   0.520  1.00  0.00     0.138 A 
HETATM    4  C4  UNL     1       2.569 -42.481  -0.324  1.00  0.00     0.130 A 
HETATM    5  C13 UNL     1       3.447 -43.470   0.063  1.00  0.00     0.237 A 
HETATM    6  C12 UNL     1       3.236 -44.119   1.286  1.00  0.00     0.141 A 
HETATM    7  O4  UNL     1       4.437 -43.836  -0.618  1.00  0.00    -0.283 OA
HETATM    8  C10 UNL     1       2.167 -43.772   2.090  1.00  0.00     0.044 A 
HETATM    9  N11 UNL     1       1.325 -42.805   1.693  1.00  0.00    -0.342 N 
HETATM   10  C11 UNL     1       1.984 -44.497   3.393  1.00  0.00     0.071 C 
ATOM     11  H11 UNL     1       0.534 -42.545   2.283  1.00  0.00     0.167 HD
BRANCH   4  12
HETATM   12  N1  UNL     1       2.772 -41.806  -1.578  1.00  0.00    -0.351 N 
ATOM     13  H1  UNL     1       2.098 -41.967  -2.326  1.00  0.00     0.166 HD
BRANCH  12  14
HETATM   14  C3  UNL     1       3.742 -41.022  -1.804  1.00  0.00     0.066 C 
BRANCH  14  15
HETATM   15  C2  UNL     1       3.617 -39.616  -1.338  1.00  0.00     0.224 C 
BRANCH  15  16
HETATM   16  O1  UNL     1       4.413 -39.407  -0.199  1.00  0.00    -0.390 OA
HETATM   17  C1  UNL     1       3.625 -39.012   0.874  1.00  0.00     0.201 C 
ENDBRANCH  15  16
ENDBRANCH  14  15
BRANCH  14  18
HETATM   18  C14 UNL     1       4.940 -41.512  -2.504  1.00  0.00     0.303 C 
BRANCH  18  19
HETATM   19  O5  UNL     1       5.271 -40.726  -3.607  1.00  0.00    -0.366 OA
ATOM     20  H5  UNL     1       5.446 -39.823  -3.370  1.00  0.00     0.213 HD
ENDBRANCH  18  19
BRANCH  18  21
HETATM   21  O6  UNL     1       6.057 -41.559  -1.667  1.00  0.00    -0.366 OA
ATOM     22  H6  UNL     1       6.709 -40.910  -1.904  1.00  0.00     0.213 HD
ENDBRANCH  18  21
ENDBRANCH  14  18
ENDBRANCH  12  14
ENDBRANCH   4  12
BRANCH   6  23
HETATM   23  O3  UNL     1       4.102 -45.117   1.699  1.00  0.00    -0.355 OA
ATOM     24  H3  UNL     1       4.184 -45.311   2.626  1.00  0.00     0.218 HD
ENDBRANCH   6  23
ENDBRANCH   1   3
BRANCH   1  25
HETATM   25  C6  UNL     1       0.001 -40.371   0.846  1.00  0.00     0.142 A 
HETATM   26  N3  UNL     1      -0.495 -40.732   2.042  1.00  0.00    -0.336 N 
HETATM   27  C7  UNL     1      -1.166 -39.884   2.834  1.00  0.00     0.183 A 
ATOM     28  H3  UNL     1      -0.355 -41.691   2.359  1.00  0.00     0.168 HD
HETATM   29  N4  UNL     1      -1.360 -38.603   2.424  1.00  0.00    -0.334 N 
HETATM   30  C8  UNL     1      -0.879 -38.181   1.220  1.00  0.00     0.180 A 
ATOM     31  H4  UNL     1      -1.870 -37.952   3.021  1.00  0.00     0.168 HD
HETATM   32  C9  UNL     1      -0.186 -39.057   0.402  1.00  0.00     0.164 A 
HETATM   33  N9  UNL     1      -0.933 -36.930   0.553  1.00  0.00    -0.139 N 
HETATM   34  N5  UNL     1       0.160 -38.306  -0.739  1.00  0.00    -0.177 N 
HETATM   35  N7  UNL     1      -0.001 -36.942  -0.484  1.00  0.00     0.000 NA
BRANCH  34  36
HETATM   36  N6  UNL     1       0.600 -38.830  -1.951  1.00  0.00    -0.325 N 
ATOM     37  H62 UNL     1       1.576 -39.030  -2.169  1.00  0.00     0.178 HD
ATOM     38  H61 UNL     1       0.005 -39.069  -2.745  1.00  0.00     0.178 HD
ENDBRANCH  34  36
BRANCH  35  39
HETATM   39  N8  UNL     1       1.218 -36.477   0.060  1.00  0.00    -0.324 NA
ATOM     40  H82 UNL     1       1.470 -35.637  -0.461  1.00  0.00     0.174 HD
ATOM     41  H81 UNL     1       1.010 -36.112   0.989  1.00  0.00     0.174 HD
ENDBRANCH  35  39
BRANCH  33  42
HETATM   42  N10 UNL     1      -1.777 -35.882   0.886  1.00  0.00    -0.188 N 
ATOM     43  H10 UNL     1      -2.143 -35.302   0.130  1.00  0.00     0.217 HD
BRANCH  42  44
HETATM   44  O2  UNL     1      -2.116 -35.605   2.050  1.00  0.00    -0.273 OA
ATOM     45  H2  UNL     1      -2.185 -34.719   2.385  1.00  0.00     0.246 HD
ENDBRANCH  42  44
ENDBRANCH  33  42
ENDBRANCH   1  25
TORSDOF 14
ENDMDL
