MODEL 1
REMARK VINA RESULT: -6.226923700      0.000      0.000
REMARK  7 active torsions:
REMARK  status: ('A' for Active; 'I' for Inactive)
REMARK    1  A    between atoms: C3_5  and  C4_6 
REMARK    2  A    between atoms: C4_6  and  O1_7 
REMARK    3  A    between atoms: C5_9  and  C6_10 
REMARK    4  A    between atoms: C6_10  and  C7_11 
REMARK    5  A    between atoms: C7_11  and  O2_12 
REMARK    6  A    between atoms: C8_14  and  C9_15 
REMARK    7  A    between atoms: C9_15  and  C10_16 
ROOT
HETATM    1  C1  UNL     1     -19.415   1.240  17.471  1.00  0.00     0.044 C 
HETATM    2  C2  UNL     1     -18.342   0.593  17.825  1.00  0.00     0.034 A 
HETATM    3  N1  UNL     1     -17.300   0.357  16.956  1.00  0.00    -0.357 N 
ATOM      4  H1  UNL     1     -17.272   0.658  15.983  1.00  0.00     0.166 HD
HETATM    5  C3  UNL     1     -16.333  -0.323  17.575  1.00  0.00     0.040 A 
HETATM    6  C5  UNL     1     -16.758  -0.527  18.861  1.00  0.00    -0.019 A 
HETATM    7  C8  UNL     1     -18.033   0.042  19.057  1.00  0.00     0.002 A 
ENDROOT
BRANCH   7   8
HETATM    8  C9  UNL     1     -18.694   0.004  20.188  1.00  0.00     0.063 C 
BRANCH   8   9
HETATM    9  C10 UNL     1     -20.012  -0.507  20.468  1.00  0.00     0.109 A 
HETATM   10  N2  UNL     1     -20.371  -1.791  20.317  1.00  0.00    -0.334 N 
HETATM   11  C11 UNL     1     -21.637  -1.955  20.682  1.00  0.00     0.116 A 
ATOM     12  H2  UNL     1     -19.762  -2.532  19.972  1.00  0.00     0.168 HD
HETATM   13 BR1  UNL     1     -22.679  -3.563  20.680  1.00  0.00    -0.028 Br
HETATM   14  C12 UNL     1     -22.077  -0.723  21.074  1.00  0.00     0.117 A 
HETATM   15 BR2  UNL     1     -23.823  -0.278  21.715  1.00  0.00    -0.028 Br
HETATM   16  N3  UNL     1     -21.077   0.160  20.940  1.00  0.00    -0.329 N 
HETATM   17  C13 UNL     1     -21.160   1.587  21.259  1.00  0.00     0.158 C 
ENDBRANCH   8   9
ENDBRANCH   7   8
BRANCH   6  18
HETATM   18  C6  UNL     1     -16.006  -1.242  19.892  1.00  0.00     0.067 C 
BRANCH  18  19
HETATM   19  C7  UNL     1     -15.868  -2.731  19.640  1.00  0.00     0.168 C 
BRANCH  19  20
HETATM   20  O2  UNL     1     -17.105  -3.358  19.799  1.00  0.00    -0.401 OA
ATOM     21  H2  UNL     1     -17.041  -4.039  20.458  1.00  0.00     0.209 HD
ENDBRANCH  19  20
ENDBRANCH  18  19
ENDBRANCH   6  18
BRANCH   5  22
HETATM   22  C4  UNL     1     -15.066  -0.734  16.917  1.00  0.00     0.221 C 
BRANCH  22  23
HETATM   23  O1  UNL     1     -15.110  -2.072  16.517  1.00  0.00    -0.395 OA
ATOM     24  H1  UNL     1     -14.728  -2.642  17.175  1.00  0.00     0.209 HD
ENDBRANCH  22  23
ENDBRANCH   5  22
TORSDOF 7
ENDMDL
MODEL 2
REMARK VINA RESULT: -5.877727495      1.124      1.319
REMARK  7 active torsions:
REMARK  status: ('A' for Active; 'I' for Inactive)
REMARK    1  A    between atoms: C3_5  and  C4_6 
REMARK    2  A    between atoms: C4_6  and  O1_7 
REMARK    3  A    between atoms: C5_9  and  C6_10 
REMARK    4  A    between atoms: C6_10  and  C7_11 
REMARK    5  A    between atoms: C7_11  and  O2_12 
REMARK    6  A    between atoms: C8_14  and  C9_15 
REMARK    7  A    between atoms: C9_15  and  C10_16 
ROOT
HETATM    1  C1  UNL     1     -19.622   0.902  17.295  1.00  0.00     0.044 C 
HETATM    2  C2  UNL     1     -18.506   0.408  17.747  1.00  0.00     0.034 A 
HETATM    3  N1  UNL     1     -17.434   0.132  16.929  1.00  0.00    -0.357 N 
ATOM      4  H1  UNL     1     -17.414   0.284  15.921  1.00  0.00     0.166 HD
HETATM    5  C3  UNL     1     -16.424  -0.364  17.648  1.00  0.00     0.040 A 
HETATM    6  C5  UNL     1     -16.852  -0.405  18.949  1.00  0.00    -0.019 A 
HETATM    7  C8  UNL     1     -18.173   0.078  19.050  1.00  0.00     0.002 A 
ENDROOT
BRANCH   7   8
HETATM    8  C9  UNL     1     -18.848   0.157  20.172  1.00  0.00     0.063 C 
BRANCH   8   9
HETATM    9  C10 UNL     1     -20.126  -0.413  20.519  1.00  0.00     0.109 A 
HETATM   10  N2  UNL     1     -20.425  -1.716  20.413  1.00  0.00    -0.334 N 
HETATM   11  C11 UNL     1     -21.664  -1.934  20.836  1.00  0.00     0.116 A 
ATOM     12  H2  UNL     1     -19.793  -2.434  20.059  1.00  0.00     0.168 HD
HETATM   13 BR1  UNL     1     -22.622  -3.592  20.915  1.00  0.00    -0.028 Br
HETATM   14  C12 UNL     1     -22.149  -0.717  21.218  1.00  0.00     0.117 A 
HETATM   15 BR2  UNL     1     -23.887  -0.343  21.924  1.00  0.00    -0.028 Br
HETATM   16  N3  UNL     1     -21.202   0.212  21.021  1.00  0.00    -0.329 N 
HETATM   17  C13 UNL     1     -21.344   1.640  21.312  1.00  0.00     0.158 C 
ENDBRANCH   8   9
ENDBRANCH   7   8
BRANCH   6  18
HETATM   18  C6  UNL     1     -16.062  -0.890  20.079  1.00  0.00     0.067 C 
BRANCH  18  19
HETATM   19  C7  UNL     1     -15.303   0.194  20.817  1.00  0.00     0.168 C 
BRANCH  19  20
HETATM   20  O2  UNL     1     -14.061   0.402  20.215  1.00  0.00    -0.401 OA
ATOM     21  H2  UNL     1     -13.623   1.141  20.620  1.00  0.00     0.209 HD
ENDBRANCH  19  20
ENDBRANCH  18  19
ENDBRANCH   6  18
BRANCH   5  22
HETATM   22  C4  UNL     1     -15.116  -0.761  17.066  1.00  0.00     0.221 C 
BRANCH  22  23
HETATM   23  O1  UNL     1     -15.095  -2.120  16.742  1.00  0.00    -0.395 OA
ATOM     24  H1  UNL     1     -14.798  -2.646  17.475  1.00  0.00     0.209 HD
ENDBRANCH  22  23
ENDBRANCH   5  22
TORSDOF 7
ENDMDL
MODEL 3
REMARK VINA RESULT: -5.865044426      3.806      5.455
REMARK  7 active torsions:
REMARK  status: ('A' for Active; 'I' for Inactive)
REMARK    1  A    between atoms: C3_5  and  C4_6 
REMARK    2  A    between atoms: C4_6  and  O1_7 
REMARK    3  A    between atoms: C5_9  and  C6_10 
REMARK    4  A    between atoms: C6_10  and  C7_11 
REMARK    5  A    between atoms: C7_11  and  O2_12 
REMARK    6  A    between atoms: C8_14  and  C9_15 
REMARK    7  A    between atoms: C9_15  and  C10_16 
ROOT
HETATM    1  C1  UNL     1     -23.010  -1.304  20.968  1.00  0.00     0.044 C 
HETATM    2  C2  UNL     1     -22.442  -0.478  20.137  1.00  0.00     0.034 A 
HETATM    3  N1  UNL     1     -23.085   0.009  19.022  1.00  0.00    -0.357 N 
ATOM      4  H1  UNL     1     -24.040  -0.225  18.749  1.00  0.00     0.166 HD
HETATM    5  C3  UNL     1     -22.278   0.832  18.349  1.00  0.00     0.040 A 
HETATM    6  C5  UNL     1     -21.098   0.877  19.043  1.00  0.00    -0.019 A 
HETATM    7  C8  UNL     1     -21.165   0.056  20.187  1.00  0.00     0.002 A 
ENDROOT
BRANCH   7   8
HETATM    8  C9  UNL     1     -20.185  -0.102  21.044  1.00  0.00     0.063 C 
BRANCH   8   9
HETATM    9  C10 UNL     1     -18.766  -0.198  20.812  1.00  0.00     0.109 A 
HETATM   10  N2  UNL     1     -18.181  -1.176  20.104  1.00  0.00    -0.334 N 
HETATM   11  C11 UNL     1     -16.871  -0.972  20.044  1.00  0.00     0.116 A 
ATOM     12  H2  UNL     1     -18.671  -1.960  19.675  1.00  0.00     0.168 HD
HETATM   13 BR1  UNL     1     -15.539  -2.038  19.171  1.00  0.00    -0.028 Br
HETATM   14  C12 UNL     1     -16.638   0.177  20.742  1.00  0.00     0.117 A 
HETATM   15 BR2  UNL     1     -14.946   1.020  21.035  1.00  0.00    -0.028 Br
HETATM   16  N3  UNL     1     -17.802   0.647  21.211  1.00  0.00    -0.329 N 
HETATM   17  C13 UNL     1     -17.964   1.864  22.010  1.00  0.00     0.158 C 
ENDBRANCH   8   9
ENDBRANCH   7   8
BRANCH   6  18
HETATM   18  C6  UNL     1     -19.923   1.657  18.655  1.00  0.00     0.067 C 
BRANCH  18  19
HETATM   19  C7  UNL     1     -19.160   1.086  17.476  1.00  0.00     0.168 C 
BRANCH  19  20
HETATM   20  O2  UNL     1     -19.416  -0.281  17.359  1.00  0.00    -0.401 OA
ATOM     21  H2  UNL     1     -19.349  -0.547  16.449  1.00  0.00     0.209 HD
ENDBRANCH  19  20
ENDBRANCH  18  19
ENDBRANCH   6  18
BRANCH   5  22
HETATM   22  C4  UNL     1     -22.671   1.529  17.097  1.00  0.00     0.221 C 
BRANCH  22  23
HETATM   23  O1  UNL     1     -23.081   0.622  16.117  1.00  0.00    -0.395 OA
ATOM     24  H1  UNL     1     -23.452  -0.162  16.504  1.00  0.00     0.209 HD
ENDBRANCH  22  23
ENDBRANCH   5  22
TORSDOF 7
ENDMDL
MODEL 4
REMARK VINA RESULT: -5.574198258      4.545      6.770
REMARK  7 active torsions:
REMARK  status: ('A' for Active; 'I' for Inactive)
REMARK    1  A    between atoms: C3_5  and  C4_6 
REMARK    2  A    between atoms: C4_6  and  O1_7 
REMARK    3  A    between atoms: C5_9  and  C6_10 
REMARK    4  A    between atoms: C6_10  and  C7_11 
REMARK    5  A    between atoms: C7_11  and  O2_12 
REMARK    6  A    between atoms: C8_14  and  C9_15 
REMARK    7  A    between atoms: C9_15  and  C10_16 
ROOT
HETATM    1  C1  UNL     1     -22.069   1.087  22.321  1.00  0.00     0.044 C 
HETATM    2  C2  UNL     1     -22.335   1.607  21.158  1.00  0.00     0.034 A 
HETATM    3  N1  UNL     1     -23.131   2.721  21.010  1.00  0.00    -0.357 N 
ATOM      4  H1  UNL     1     -23.575   3.228  21.775  1.00  0.00     0.166 HD
HETATM    5  C3  UNL     1     -23.238   3.040  19.718  1.00  0.00     0.040 A 
HETATM    6  C5  UNL     1     -22.499   2.119  19.025  1.00  0.00    -0.019 A 
HETATM    7  C8  UNL     1     -21.909   1.191  19.908  1.00  0.00     0.002 A 
ENDROOT
BRANCH   7   8
HETATM    8  C9  UNL     1     -21.146   0.194  19.532  1.00  0.00     0.063 C 
BRANCH   8   9
HETATM    9  C10 UNL     1     -19.737   0.176  19.227  1.00  0.00     0.109 A 
HETATM   10  N2  UNL     1     -19.235   0.182  17.983  1.00  0.00    -0.334 N 
HETATM   11  C11 UNL     1     -17.908   0.192  18.029  1.00  0.00     0.116 A 
ATOM     12  H2  UNL     1     -19.790   0.181  17.128  1.00  0.00     0.168 HD
HETATM   13 BR1  UNL     1     -16.665   0.205  16.571  1.00  0.00    -0.028 Br
HETATM   14  C12 UNL     1     -17.579   0.191  19.354  1.00  0.00     0.117 A 
HETATM   15 BR2  UNL     1     -15.818   0.201  20.100  1.00  0.00    -0.028 Br
HETATM   16  N3  UNL     1     -18.704   0.180  20.083  1.00  0.00    -0.329 N 
HETATM   17  C13 UNL     1     -18.764   0.175  21.547  1.00  0.00     0.158 C 
ENDBRANCH   8   9
ENDBRANCH   7   8
BRANCH   6  18
HETATM   18  C6  UNL     1     -22.343   2.087  17.571  1.00  0.00     0.067 C 
BRANCH  18  19
HETATM   19  C7  UNL     1     -23.543   1.530  16.830  1.00  0.00     0.168 C 
BRANCH  19  20
HETATM   20  O2  UNL     1     -23.137   0.523  15.954  1.00  0.00    -0.401 OA
ATOM     21  H2  UNL     1     -23.195  -0.323  16.382  1.00  0.00     0.209 HD
ENDBRANCH  19  20
ENDBRANCH  18  19
ENDBRANCH   6  18
BRANCH   5  22
HETATM   22  C4  UNL     1     -24.026   4.196  19.218  1.00  0.00     0.221 C 
BRANCH  22  23
HETATM   23  O1  UNL     1     -25.367   3.854  19.027  1.00  0.00    -0.395 OA
ATOM     24  H1  UNL     1     -25.634   3.993  18.125  1.00  0.00     0.209 HD
ENDBRANCH  22  23
ENDBRANCH   5  22
TORSDOF 7
ENDMDL
MODEL 5
REMARK VINA RESULT: -5.539111531      1.745      2.675
REMARK  7 active torsions:
REMARK  status: ('A' for Active; 'I' for Inactive)
REMARK    1  A    between atoms: C3_5  and  C4_6 
REMARK    2  A    between atoms: C4_6  and  O1_7 
REMARK    3  A    between atoms: C5_9  and  C6_10 
REMARK    4  A    between atoms: C6_10  and  C7_11 
REMARK    5  A    between atoms: C7_11  and  O2_12 
REMARK    6  A    between atoms: C8_14  and  C9_15 
REMARK    7  A    between atoms: C9_15  and  C10_16 
ROOT
HETATM    1  C1  UNL     1     -17.337   0.176  21.908  1.00  0.00     0.044 C 
HETATM    2  C2  UNL     1     -16.948  -0.022  20.682  1.00  0.00     0.034 A 
HETATM    3  N1  UNL     1     -15.664  -0.404  20.365  1.00  0.00    -0.357 N 
ATOM      4  H1  UNL     1     -14.918  -0.564  21.042  1.00  0.00     0.166 HD
HETATM    5  C3  UNL     1     -15.537  -0.536  19.043  1.00  0.00     0.040 A 
HETATM    6  C5  UNL     1     -16.758  -0.236  18.500  1.00  0.00    -0.019 A 
HETATM    7  C8  UNL     1     -17.682   0.096  19.513  1.00  0.00     0.002 A 
ENDROOT
BRANCH   7   8
HETATM    8  C9  UNL     1     -18.931   0.429  19.295  1.00  0.00     0.063 C 
BRANCH   8   9
HETATM    9  C10 UNL     1     -20.144  -0.171  19.791  1.00  0.00     0.109 A 
HETATM   10  N2  UNL     1     -20.278  -1.473  20.081  1.00  0.00    -0.334 N 
HETATM   11  C11 UNL     1     -21.499  -1.713  20.543  1.00  0.00     0.116 A 
ATOM     12  H2  UNL     1     -19.548  -2.176  19.964  1.00  0.00     0.168 HD
HETATM   13 BR1  UNL     1     -22.251  -3.381  21.113  1.00  0.00    -0.028 Br
HETATM   14  C12 UNL     1     -22.144  -0.511  20.538  1.00  0.00     0.117 A 
HETATM   15 BR2  UNL     1     -23.944  -0.171  21.088  1.00  0.00    -0.028 Br
HETATM   16  N3  UNL     1     -21.309   0.431  20.075  1.00  0.00    -0.329 N 
HETATM   17  C13 UNL     1     -21.637   1.850  19.920  1.00  0.00     0.158 C 
ENDBRANCH   8   9
ENDBRANCH   7   8
BRANCH   6  18
HETATM   18  C6  UNL     1     -17.069  -0.245  17.071  1.00  0.00     0.067 C 
BRANCH  18  19
HETATM   19  C7  UNL     1     -16.486   0.923  16.301  1.00  0.00     0.168 C 
BRANCH  19  20
HETATM   20  O2  UNL     1     -15.656   0.455  15.282  1.00  0.00    -0.401 OA
ATOM     21  H2  UNL     1     -14.882   0.048  15.654  1.00  0.00     0.209 HD
ENDBRANCH  19  20
ENDBRANCH  18  19
ENDBRANCH   6  18
BRANCH   5  22
HETATM   22  C4  UNL     1     -14.274  -0.943  18.374  1.00  0.00     0.221 C 
BRANCH  22  23
HETATM   23  O1  UNL     1     -13.672  -2.017  19.032  1.00  0.00    -0.395 OA
ATOM     24  H1  UNL     1     -12.734  -2.036  18.880  1.00  0.00     0.209 HD
ENDBRANCH  22  23
ENDBRANCH   5  22
TORSDOF 7
ENDMDL
