MODEL 1
REMARK VINA RESULT: -5.622987329      0.000      0.000
REMARK  7 active torsions:
REMARK  status: ('A' for Active; 'I' for Inactive)
REMARK    1  A    between atoms: C4_6  and  C5_7 
REMARK    2  A    between atoms: C5_7  and  O1_8 
REMARK    3  A    between atoms: C6_10  and  C7_11 
REMARK    4  A    between atoms: C7_11  and  C8_12 
REMARK    5  A    between atoms: N2_14  and  C10_15 
REMARK    6  A    between atoms: C10_15  and  C11_16 
REMARK    7  A    between atoms: C12_18  and  N3_19 
ROOT
HETATM    1  C8  UNL     1     -20.341  -0.155  20.601  1.00  0.00     0.016 A 
HETATM    2  C9  UNL     1     -20.955  -1.371  20.347  1.00  0.00     0.123 A 
HETATM    3  N2  UNL     1     -22.290  -1.498  20.607  1.00  0.00    -0.192 N 
HETATM    4  C12 UNL     1     -22.999  -0.474  21.098  1.00  0.00     0.678 A 
HETATM    5  N4  UNL     1     -22.422   0.739  21.360  1.00  0.00    -0.184 N 
ATOM      6  H4  UNL     1     -22.968   1.514  21.734  1.00  0.00     0.185 HD
HETATM    7  C13 UNL     1     -21.113   0.868  21.107  1.00  0.00     0.107 A 
HETATM    8 BR2  UNL     1     -20.263   2.534  21.454  1.00  0.00    -0.030 Br
ENDROOT
BRANCH   1   9
HETATM    9  C7  UNL     1     -18.949   0.084  20.333  1.00  0.00     0.030 C 
BRANCH   9  10
HETATM   10  C6  UNL     1     -18.283   0.073  19.230  1.00  0.00     0.000 A 
HETATM   11  C2  UNL     1     -17.077  -0.619  19.049  1.00  0.00     0.033 A 
HETATM   12  C1  UNL     1     -16.420  -1.361  19.943  1.00  0.00     0.044 C 
HETATM   13  N1  UNL     1     -16.660  -0.415  17.785  1.00  0.00    -0.365 N 
HETATM   14  C3  UNL     1     -17.533   0.365  17.157  1.00  0.00     0.098 A 
ATOM     15  H1  UNL     1     -15.808  -0.798  17.375  1.00  0.00     0.165 HD
HETATM   16  C4  UNL     1     -18.569   0.692  18.040  1.00  0.00    -0.007 A 
BRANCH  16  17
HETATM   17  C5  UNL     1     -19.720   1.561  17.660  1.00  0.00     0.205 C 
BRANCH  17  18
HETATM   18  O1  UNL     1     -20.768   0.724  17.207  1.00  0.00    -0.396 OA
ATOM     19  H1  UNL     1     -21.339   1.243  16.655  1.00  0.00     0.209 HD
ENDBRANCH  17  18
ENDBRANCH  16  17
ENDBRANCH   9  10
ENDBRANCH   1   9
BRANCH   3  20
HETATM   20  C10 UNL     1     -22.913  -2.752  20.348  1.00  0.00     0.157 C 
BRANCH  20  21
HETATM   21  C11 UNL     1     -22.356  -3.882  21.181  1.00  0.00     0.106 C 
HETATM   22 BR1  UNL     1     -23.155  -5.524  20.489  1.00  0.00    -0.095 Br
ENDBRANCH  20  21
ENDBRANCH   3  20
BRANCH   4  23
HETATM   23  N3  UNL     1     -24.247  -0.631  21.322  1.00  0.00    -0.234 N 
ATOM     24  H32 UNL     1     -24.908   0.055  20.957  1.00  0.00     0.174 HD
ATOM     25  H31 UNL     1     -24.558  -1.442  21.855  1.00  0.00     0.174 HD
ENDBRANCH   4  23
TORSDOF 7
ENDMDL
MODEL 2
REMARK VINA RESULT: -5.578752350      3.393      5.748
REMARK  7 active torsions:
REMARK  status: ('A' for Active; 'I' for Inactive)
REMARK    1  A    between atoms: C4_6  and  C5_7 
REMARK    2  A    between atoms: C5_7  and  O1_8 
REMARK    3  A    between atoms: C6_10  and  C7_11 
REMARK    4  A    between atoms: C7_11  and  C8_12 
REMARK    5  A    between atoms: N2_14  and  C10_15 
REMARK    6  A    between atoms: C10_15  and  C11_16 
REMARK    7  A    between atoms: C12_18  and  N3_19 
ROOT
HETATM    1  C8  UNL     1     -21.689   0.606  19.542  1.00  0.00     0.016 A 
HETATM    2  C9  UNL     1     -20.500   1.096  19.027  1.00  0.00     0.123 A 
HETATM    3  N2  UNL     1     -19.378   0.323  19.116  1.00  0.00    -0.192 N 
HETATM    4  C12 UNL     1     -19.416  -0.887  19.690  1.00  0.00     0.678 A 
HETATM    5  N4  UNL     1     -20.574  -1.399  20.208  1.00  0.00    -0.184 N 
ATOM      6  H4  UNL     1     -20.597  -2.321  20.643  1.00  0.00     0.185 HD
HETATM    7  C13 UNL     1     -21.677  -0.645  20.122  1.00  0.00     0.107 A 
HETATM    8 BR2  UNL     1     -23.313  -1.311  20.828  1.00  0.00    -0.030 Br
ENDROOT
BRANCH   1   9
HETATM    9  C7  UNL     1     -22.927   1.332  19.469  1.00  0.00     0.030 C 
BRANCH   9  10
HETATM   10  C6  UNL     1     -23.248   2.398  18.820  1.00  0.00     0.000 A 
HETATM   11  C2  UNL     1     -23.111   3.698  19.328  1.00  0.00     0.033 A 
HETATM   12  C1  UNL     1     -22.644   4.061  20.524  1.00  0.00     0.044 C 
HETATM   13  N1  UNL     1     -23.539   4.564  18.390  1.00  0.00    -0.365 N 
HETATM   14  C3  UNL     1     -23.937   3.887  17.318  1.00  0.00     0.098 A 
ATOM     15  H1  UNL     1     -23.555   5.580  18.488  1.00  0.00     0.165 HD
HETATM   16  C4  UNL     1     -23.769   2.518  17.556  1.00  0.00    -0.007 A 
BRANCH  16  17
HETATM   17  C5  UNL     1     -24.123   1.468  16.558  1.00  0.00     0.205 C 
BRANCH  17  18
HETATM   18  O1  UNL     1     -22.939   0.769  16.222  1.00  0.00    -0.396 OA
ATOM     19  H1  UNL     1     -23.175  -0.131  16.031  1.00  0.00     0.209 HD
ENDBRANCH  17  18
ENDBRANCH  16  17
ENDBRANCH   9  10
ENDBRANCH   1   9
BRANCH   3  20
HETATM   20  C10 UNL     1     -18.158   0.836  18.589  1.00  0.00     0.157 C 
BRANCH  20  21
HETATM   21  C11 UNL     1     -18.091   0.788  17.081  1.00  0.00     0.106 C 
HETATM   22 BR1  UNL     1     -16.290   0.181  16.628  1.00  0.00    -0.095 Br
ENDBRANCH  20  21
ENDBRANCH   3  20
BRANCH   4  23
HETATM   23  N3  UNL     1     -18.347  -1.583  19.748  1.00  0.00    -0.234 N 
ATOM     24  H32 UNL     1     -17.539  -1.212  20.248  1.00  0.00     0.174 HD
ATOM     25  H31 UNL     1     -18.323  -2.498  19.299  1.00  0.00     0.174 HD
ENDBRANCH   4  23
TORSDOF 7
ENDMDL
MODEL 3
REMARK VINA RESULT: -5.538615152      1.262      1.537
REMARK  7 active torsions:
REMARK  status: ('A' for Active; 'I' for Inactive)
REMARK    1  A    between atoms: C4_6  and  C5_7 
REMARK    2  A    between atoms: C5_7  and  O1_8 
REMARK    3  A    between atoms: C6_10  and  C7_11 
REMARK    4  A    between atoms: C7_11  and  C8_12 
REMARK    5  A    between atoms: N2_14  and  C10_15 
REMARK    6  A    between atoms: C10_15  and  C11_16 
REMARK    7  A    between atoms: C12_18  and  N3_19 
ROOT
HETATM    1  C8  UNL     1     -20.769   0.913  20.436  1.00  0.00     0.016 A 
HETATM    2  C9  UNL     1     -21.180  -0.397  20.252  1.00  0.00     0.123 A 
HETATM    3  N2  UNL     1     -22.487  -0.714  20.489  1.00  0.00    -0.192 N 
HETATM    4  C12 UNL     1     -23.362   0.216  20.892  1.00  0.00     0.678 A 
HETATM    5  N4  UNL     1     -22.987   1.518  21.083  1.00  0.00    -0.184 N 
ATOM      6  H4  UNL     1     -23.658   2.222  21.391  1.00  0.00     0.185 HD
HETATM    7  C13 UNL     1     -21.706   1.834  20.852  1.00  0.00     0.107 A 
HETATM    8 BR2  UNL     1     -21.134   3.631  21.104  1.00  0.00    -0.030 Br
ENDROOT
BRANCH   1   9
HETATM    9  C7  UNL     1     -19.423   1.349  20.184  1.00  0.00     0.030 C 
BRANCH   9  10
HETATM   10  C6  UNL     1     -18.343   0.682  19.959  1.00  0.00     0.000 A 
HETATM   11  C2  UNL     1     -17.485   0.215  20.964  1.00  0.00     0.033 A 
HETATM   12  C1  UNL     1     -17.616   0.365  22.284  1.00  0.00     0.044 C 
HETATM   13  N1  UNL     1     -16.463  -0.436  20.377  1.00  0.00    -0.365 N 
HETATM   14  C3  UNL     1     -16.626  -0.408  19.058  1.00  0.00     0.098 A 
ATOM     15  H1  UNL     1     -15.686  -0.881  20.866  1.00  0.00     0.165 HD
HETATM   16  C4  UNL     1     -17.802   0.291  18.761  1.00  0.00    -0.007 A 
BRANCH  16  17
HETATM   17  C5  UNL     1     -18.286   0.516  17.368  1.00  0.00     0.205 C 
BRANCH  17  18
HETATM   18  O1  UNL     1     -19.340  -0.397  17.119  1.00  0.00    -0.396 OA
ATOM     19  H1  UNL     1     -20.157   0.036  17.332  1.00  0.00     0.209 HD
ENDBRANCH  17  18
ENDBRANCH  16  17
ENDBRANCH   9  10
ENDBRANCH   1   9
BRANCH   3  20
HETATM   20  C10 UNL     1     -22.901  -2.064  20.301  1.00  0.00     0.157 C 
BRANCH  20  21
HETATM   21  C11 UNL     1     -22.315  -3.016  21.316  1.00  0.00     0.106 C 
HETATM   22 BR1  UNL     1     -22.818  -4.814  20.741  1.00  0.00    -0.095 Br
ENDBRANCH  20  21
ENDBRANCH   3  20
BRANCH   4  23
HETATM   23  N3  UNL     1     -24.577  -0.118  21.097  1.00  0.00    -0.234 N 
ATOM     24  H32 UNL     1     -25.210  -0.205  20.302  1.00  0.00     0.174 HD
ATOM     25  H31 UNL     1     -24.889  -0.298  22.051  1.00  0.00     0.174 HD
ENDBRANCH   4  23
TORSDOF 7
ENDMDL
MODEL 4
REMARK VINA RESULT: -5.427001228      1.440      2.241
REMARK  7 active torsions:
REMARK  status: ('A' for Active; 'I' for Inactive)
REMARK    1  A    between atoms: C4_6  and  C5_7 
REMARK    2  A    between atoms: C5_7  and  O1_8 
REMARK    3  A    between atoms: C6_10  and  C7_11 
REMARK    4  A    between atoms: C7_11  and  C8_12 
REMARK    5  A    between atoms: N2_14  and  C10_15 
REMARK    6  A    between atoms: C10_15  and  C11_16 
REMARK    7  A    between atoms: C12_18  and  N3_19 
ROOT
HETATM    1  C8  UNL     1     -20.378  -0.158  20.450  1.00  0.00     0.016 A 
HETATM    2  C9  UNL     1     -20.979  -1.391  20.254  1.00  0.00     0.123 A 
HETATM    3  N2  UNL     1     -22.318  -1.512  20.494  1.00  0.00    -0.192 N 
HETATM    4  C12 UNL     1     -23.044  -0.467  20.912  1.00  0.00     0.678 A 
HETATM    5  N4  UNL     1     -22.479   0.763  21.114  1.00  0.00    -0.184 N 
ATOM      6  H4  UNL     1     -23.037   1.555  21.431  1.00  0.00     0.185 HD
HETATM    7  C13 UNL     1     -21.167   0.888  20.879  1.00  0.00     0.107 A 
HETATM    8 BR2  UNL     1     -20.333   2.577  21.146  1.00  0.00    -0.030 Br
ENDROOT
BRANCH   1   9
HETATM    9  C7  UNL     1     -18.983   0.076  20.196  1.00  0.00     0.030 C 
BRANCH   9  10
HETATM   10  C6  UNL     1     -18.282  -0.054  19.122  1.00  0.00     0.000 A 
HETATM   11  C2  UNL     1     -18.655   0.464  17.874  1.00  0.00     0.033 A 
HETATM   12  C1  UNL     1     -19.756   1.156  17.574  1.00  0.00     0.044 C 
HETATM   13  N1  UNL     1     -17.698   0.146  16.982  1.00  0.00    -0.365 N 
HETATM   14  C3  UNL     1     -16.740  -0.542  17.595  1.00  0.00     0.098 A 
ATOM     15  H1  UNL     1     -17.707   0.394  15.992  1.00  0.00     0.165 HD
HETATM   16  C4  UNL     1     -17.078  -0.687  18.946  1.00  0.00    -0.007 A 
BRANCH  16  17
HETATM   17  C5  UNL     1     -16.221  -1.415  19.926  1.00  0.00     0.205 C 
BRANCH  17  18
HETATM   18  O1  UNL     1     -16.572  -2.786  19.877  1.00  0.00    -0.396 OA
ATOM     19  H1  UNL     1     -15.998  -3.212  19.253  1.00  0.00     0.209 HD
ENDBRANCH  17  18
ENDBRANCH  16  17
ENDBRANCH   9  10
ENDBRANCH   1   9
BRANCH   3  20
HETATM   20  C10 UNL     1     -22.929  -2.784  20.296  1.00  0.00     0.157 C 
BRANCH  20  21
HETATM   21  C11 UNL     1     -22.316  -3.880  21.135  1.00  0.00     0.106 C 
HETATM   22 BR1  UNL     1     -23.144  -5.550  20.552  1.00  0.00    -0.095 Br
ENDBRANCH  20  21
ENDBRANCH   3  20
BRANCH   4  23
HETATM   23  N3  UNL     1     -24.294  -0.619  21.119  1.00  0.00    -0.234 N 
ATOM     24  H32 UNL     1     -24.651  -1.547  21.348  1.00  0.00     0.174 HD
ATOM     25  H31 UNL     1     -24.912   0.190  21.058  1.00  0.00     0.174 HD
ENDBRANCH   4  23
TORSDOF 7
ENDMDL
MODEL 5
REMARK VINA RESULT: -5.358161865      2.848      5.938
REMARK  7 active torsions:
REMARK  status: ('A' for Active; 'I' for Inactive)
REMARK    1  A    between atoms: C4_6  and  C5_7 
REMARK    2  A    between atoms: C5_7  and  O1_8 
REMARK    3  A    between atoms: C6_10  and  C7_11 
REMARK    4  A    between atoms: C7_11  and  C8_12 
REMARK    5  A    between atoms: N2_14  and  C10_15 
REMARK    6  A    between atoms: C10_15  and  C11_16 
REMARK    7  A    between atoms: C12_18  and  N3_19 
ROOT
HETATM    1  C8  UNL     1     -20.643   1.141  19.505  1.00  0.00     0.016 A 
HETATM    2  C9  UNL     1     -19.518   0.502  19.999  1.00  0.00     0.123 A 
HETATM    3  N2  UNL     1     -18.590   0.030  19.114  1.00  0.00    -0.192 N 
HETATM    4  C12 UNL     1     -18.757   0.177  17.793  1.00  0.00     0.678 A 
HETATM    5  N4  UNL     1     -19.857   0.803  17.275  1.00  0.00    -0.184 N 
ATOM      6  H4  UNL     1     -19.978   0.912  16.268  1.00  0.00     0.185 HD
HETATM    7  C13 UNL     1     -20.769   1.268  18.138  1.00  0.00     0.107 A 
HETATM    8 BR2  UNL     1     -22.318   2.147  17.467  1.00  0.00    -0.030 Br
ENDROOT
BRANCH   1   9
HETATM    9  C7  UNL     1     -21.659   1.697  20.356  1.00  0.00     0.030 C 
BRANCH   9  10
HETATM   10  C6  UNL     1     -22.480   1.136  21.176  1.00  0.00     0.000 A 
HETATM   11  C2  UNL     1     -22.758   1.619  22.462  1.00  0.00     0.033 A 
HETATM   12  C1  UNL     1     -22.249   2.701  23.055  1.00  0.00     0.044 C 
HETATM   13  N1  UNL     1     -23.654   0.795  23.037  1.00  0.00    -0.365 N 
HETATM   14  C3  UNL     1     -23.959  -0.181  22.188  1.00  0.00     0.098 A 
ATOM     15  H1  UNL     1     -24.038   0.903  23.976  1.00  0.00     0.165 HD
HETATM   16  C4  UNL     1     -23.235   0.004  21.004  1.00  0.00    -0.007 A 
BRANCH  16  17
HETATM   17  C5  UNL     1     -23.335  -0.918  19.836  1.00  0.00     0.205 C 
BRANCH  17  18
HETATM   18  O1  UNL     1     -22.272  -1.849  19.924  1.00  0.00    -0.396 OA
ATOM     19  H1  UNL     1     -22.592  -2.688  19.614  1.00  0.00     0.209 HD
ENDBRANCH  17  18
ENDBRANCH  16  17
ENDBRANCH   9  10
ENDBRANCH   1   9
BRANCH   3  20
HETATM   20  C10 UNL     1     -17.438  -0.631  19.629  1.00  0.00     0.157 C 
BRANCH  20  21
HETATM   21  C11 UNL     1     -16.998  -0.106  20.975  1.00  0.00     0.106 C 
HETATM   22 BR1  UNL     1     -15.212   0.640  20.719  1.00  0.00    -0.095 Br
ENDBRANCH  20  21
ENDBRANCH   3  20
BRANCH   4  23
HETATM   23  N3  UNL     1     -17.864  -0.273  16.999  1.00  0.00    -0.234 N 
ATOM     24  H32 UNL     1     -17.985  -1.197  16.586  1.00  0.00     0.174 HD
ATOM     25  H31 UNL     1     -17.050   0.304  16.788  1.00  0.00     0.174 HD
ENDBRANCH   4  23
TORSDOF 7
ENDMDL
