MODEL 1
REMARK VINA RESULT: -7.245823162      0.000      0.000
REMARK  7 active torsions:
REMARK  status: ('A' for Active; 'I' for Inactive)
REMARK    1  A    between atoms: N1_2  and  C2_3 
REMARK    2  A    between atoms: C4_9  and  N4_10 
REMARK    3  A    between atoms: N4_10  and  C5_12 
REMARK    4  A    between atoms: C5_12  and  C6_13 
REMARK    5  A    between atoms: C6_13  and  N5_14 
REMARK    6  A    between atoms: C11_19  and  O1_20 
REMARK    7  A    between atoms: C12_22  and  O2_23 
ROOT
HETATM    1  C2  UNL     1     -22.361  -0.409  20.435  1.00  0.00     0.201 A 
HETATM    2  C3  UNL     1     -23.166   0.531  21.085  1.00  0.00     0.148 A 
HETATM    3  N2  UNL     1     -24.324  -0.040  21.402  1.00  0.00    -0.308 N 
ATOM      4  H2  UNL     1     -25.105   0.406  21.883  1.00  0.00     0.186 HD
HETATM    5  N3  UNL     1     -24.277  -1.291  20.979  1.00  0.00    -0.284 N 
ATOM      6  H3  UNL     1     -25.031  -1.968  21.088  1.00  0.00     0.188 HD
HETATM    7  C4  UNL     1     -23.097  -1.549  20.387  1.00  0.00     0.152 A 
ENDROOT
BRANCH   7   8
HETATM    8  N4  UNL     1     -22.689  -2.652  19.857  1.00  0.00    -0.372 N 
ATOM      9  H4  UNL     1     -22.102  -2.620  19.023  1.00  0.00     0.161 HD
BRANCH   8  10
HETATM   10  C5  UNL     1     -23.050  -3.934  20.428  1.00  0.00     0.149 C 
BRANCH  10  11
HETATM   11  C6  UNL     1     -23.101  -5.008  19.362  1.00  0.00     0.257 C 
BRANCH  11  12
HETATM   12  N5  UNL     1     -23.968  -6.089  19.709  1.00  0.00    -0.063 N 
HETATM   13  C7  UNL     1     -25.363  -5.781  19.600  1.00  0.00     0.238 C 
HETATM   14  C8  UNL     1     -26.011  -7.145  19.503  1.00  0.00     0.037 C 
HETATM   15  C9  UNL     1     -24.920  -8.094  19.084  1.00  0.00     0.044 C 
HETATM   16  C10 UNL     1     -23.778  -7.151  18.740  1.00  0.00     0.245 C 
HETATM   17  C11 UNL     1     -24.494  -8.880  20.295  1.00  0.00     0.154 C 
HETATM   18  C12 UNL     1     -23.508  -8.080  21.082  1.00  0.00     0.173 C 
HETATM   19  C13 UNL     1     -23.728  -6.607  21.039  1.00  0.00     0.271 C 
BRANCH  17  20
HETATM   20  O1  UNL     1     -23.934 -10.077  19.833  1.00  0.00    -0.393 OA
ATOM     21  H1  UNL     1     -24.565 -10.474  19.245  1.00  0.00     0.210 HD
ENDBRANCH  17  20
BRANCH  18  22
HETATM   22  O2  UNL     1     -23.641  -8.480  22.432  1.00  0.00    -0.391 OA
ATOM     23  H2  UNL     1     -23.315  -9.371  22.488  1.00  0.00     0.210 HD
ENDBRANCH  18  22
ENDBRANCH  11  12
ENDBRANCH  10  11
ENDBRANCH   8  10
ENDBRANCH   7   8
BRANCH   1  24
HETATM   24  N1  UNL     1     -21.063  -0.087  19.978  1.00  0.00    -0.005 N 
HETATM   25  C1  UNL     1     -20.588   1.014  20.796  1.00  0.00     0.283 C 
HETATM   26  C14 UNL     1     -20.168  -1.195  19.923  1.00  0.00     0.249 C 
HETATM   27  C15 UNL     1     -18.773  -0.736  19.585  1.00  0.00     0.048 C 
HETATM   28  C16 UNL     1     -18.713   0.161  18.389  1.00  0.00     0.088 C 
HETATM   29 CL1  UNL     1     -17.264   1.186  18.535  1.00  0.00    -0.125 Cl
HETATM   30  C17 UNL     1     -19.893   1.033  18.192  1.00  0.00     0.088 C 
HETATM   31  C18 UNL     1     -21.199   0.418  18.615  1.00  0.00     0.379 C 
HETATM   32  F1  UNL     1     -22.183   1.375  18.497  1.00  0.00    -0.218 F 
ENDBRANCH   1  24
TORSDOF 7
ENDMDL
MODEL 2
REMARK VINA RESULT: -7.210433664      5.283      7.734
REMARK  7 active torsions:
REMARK  status: ('A' for Active; 'I' for Inactive)
REMARK    1  A    between atoms: N1_2  and  C2_3 
REMARK    2  A    between atoms: C4_9  and  N4_10 
REMARK    3  A    between atoms: N4_10  and  C5_12 
REMARK    4  A    between atoms: C5_12  and  C6_13 
REMARK    5  A    between atoms: C6_13  and  N5_14 
REMARK    6  A    between atoms: C11_19  and  O1_20 
REMARK    7  A    between atoms: C12_22  and  O2_23 
ROOT
HETATM    1  C2  UNL     1     -22.371  -0.486  21.286  1.00  0.00     0.201 A 
HETATM    2  C3  UNL     1     -23.684  -0.802  20.925  1.00  0.00     0.148 A 
HETATM    3  N2  UNL     1     -23.660  -1.788  20.033  1.00  0.00    -0.308 N 
ATOM      4  H2  UNL     1     -24.470  -2.223  19.593  1.00  0.00     0.186 HD
HETATM    5  N3  UNL     1     -22.393  -2.099  19.822  1.00  0.00    -0.284 N 
ATOM      6  H3  UNL     1     -22.074  -2.826  19.182  1.00  0.00     0.188 HD
HETATM    7  C4  UNL     1     -21.583  -1.327  20.568  1.00  0.00     0.152 A 
ENDROOT
BRANCH   7   8
HETATM    8  N4  UNL     1     -20.294  -1.340  20.630  1.00  0.00    -0.372 N 
ATOM      9  H4  UNL     1     -19.833  -1.841  21.390  1.00  0.00     0.161 HD
BRANCH   8  10
HETATM   10  C5  UNL     1     -19.492  -0.652  19.638  1.00  0.00     0.149 C 
BRANCH  10  11
HETATM   11  C6  UNL     1     -18.449   0.225  20.296  1.00  0.00     0.257 C 
BRANCH  11  12
HETATM   12  N5  UNL     1     -17.167   0.124  19.671  1.00  0.00    -0.063 N 
HETATM   13  C7  UNL     1     -16.095   0.680  20.441  1.00  0.00     0.238 C 
HETATM   14  C8  UNL     1     -14.869   0.014  19.854  1.00  0.00     0.037 C 
HETATM   15  C9  UNL     1     -15.367  -1.211  19.134  1.00  0.00     0.044 C 
HETATM   16  C10 UNL     1     -16.822  -1.280  19.570  1.00  0.00     0.245 C 
HETATM   17  C11 UNL     1     -15.361  -0.920  17.658  1.00  0.00     0.154 C 
HETATM   18  C12 UNL     1     -16.611  -0.187  17.294  1.00  0.00     0.173 C 
HETATM   19  C13 UNL     1     -17.129   0.722  18.354  1.00  0.00     0.271 C 
BRANCH  17  20
HETATM   20  O1  UNL     1     -15.275  -2.151  16.995  1.00  0.00    -0.393 OA
ATOM     21  H1  UNL     1     -15.796  -2.080  16.204  1.00  0.00     0.210 HD
ENDBRANCH  17  20
BRANCH  18  22
HETATM   22  O2  UNL     1     -16.302   0.617  16.172  1.00  0.00    -0.391 OA
ATOM     23  H2  UNL     1     -15.785   0.080  15.583  1.00  0.00     0.210 HD
ENDBRANCH  18  22
ENDBRANCH  11  12
ENDBRANCH  10  11
ENDBRANCH   8  10
ENDBRANCH   7   8
BRANCH   1  24
HETATM   24  N1  UNL     1     -22.082   0.531  22.225  1.00  0.00    -0.005 N 
HETATM   25  C1  UNL     1     -23.339   0.894  22.854  1.00  0.00     0.283 C 
HETATM   26  C14 UNL     1     -21.047   0.201  23.148  1.00  0.00     0.249 C 
HETATM   27  C15 UNL     1     -20.919   1.266  24.206  1.00  0.00     0.048 C 
HETATM   28  C16 UNL     1     -20.826   2.652  23.649  1.00  0.00     0.088 C 
HETATM   29 CL1  UNL     1     -21.419   3.789  24.885  1.00  0.00    -0.125 Cl
HETATM   30  C17 UNL     1     -21.577   2.882  22.395  1.00  0.00     0.088 C 
HETATM   31  C18 UNL     1     -21.626   1.694  21.472  1.00  0.00     0.379 C 
HETATM   32  F1  UNL     1     -22.454   2.005  20.416  1.00  0.00    -0.218 F 
ENDBRANCH   1  24
TORSDOF 7
ENDMDL
MODEL 3
REMARK VINA RESULT: -7.060955830      4.936      7.433
REMARK  7 active torsions:
REMARK  status: ('A' for Active; 'I' for Inactive)
REMARK    1  A    between atoms: N1_2  and  C2_3 
REMARK    2  A    between atoms: C4_9  and  N4_10 
REMARK    3  A    between atoms: N4_10  and  C5_12 
REMARK    4  A    between atoms: C5_12  and  C6_13 
REMARK    5  A    between atoms: C6_13  and  N5_14 
REMARK    6  A    between atoms: C11_19  and  O1_20 
REMARK    7  A    between atoms: C12_22  and  O2_23 
ROOT
HETATM    1  C2  UNL     1     -21.940   0.229  20.146  1.00  0.00     0.201 A 
HETATM    2  C3  UNL     1     -22.672  -0.920  19.830  1.00  0.00     0.148 A 
HETATM    3  N2  UNL     1     -22.110  -1.966  20.429  1.00  0.00    -0.308 N 
ATOM      4  H2  UNL     1     -22.430  -2.933  20.378  1.00  0.00     0.186 HD
HETATM    5  N3  UNL     1     -21.064  -1.521  21.102  1.00  0.00    -0.284 N 
ATOM      6  H3  UNL     1     -20.442  -2.107  21.659  1.00  0.00     0.188 HD
HETATM    7  C4  UNL     1     -20.931  -0.192  20.952  1.00  0.00     0.152 A 
ENDROOT
BRANCH   7   8
HETATM    8  N4  UNL     1     -20.035   0.588  21.455  1.00  0.00    -0.372 N 
ATOM      9  H4  UNL     1     -20.320   1.467  21.887  1.00  0.00     0.161 HD
BRANCH   8  10
HETATM   10  C5  UNL     1     -18.630   0.235  21.416  1.00  0.00     0.149 C 
BRANCH  10  11
HETATM   11  C6  UNL     1     -17.902   1.019  20.345  1.00  0.00     0.257 C 
BRANCH  11  12
HETATM   12  N5  UNL     1     -17.202   0.180  19.424  1.00  0.00    -0.063 N 
HETATM   13  C7  UNL     1     -17.477   0.464  18.048  1.00  0.00     0.238 C 
HETATM   14  C8  UNL     1     -16.295  -0.149  17.327  1.00  0.00     0.037 C 
HETATM   15  C9  UNL     1     -15.215  -0.309  18.364  1.00  0.00     0.044 C 
HETATM   16  C10 UNL     1     -15.784   0.450  19.552  1.00  0.00     0.245 C 
HETATM   17  C11 UNL     1     -15.154  -1.761  18.755  1.00  0.00     0.154 C 
HETATM   18  C12 UNL     1     -16.199  -2.039  19.787  1.00  0.00     0.173 C 
HETATM   19  C13 UNL     1     -17.442  -1.231  19.646  1.00  0.00     0.271 C 
BRANCH  17  20
HETATM   20  O1  UNL     1     -13.866  -2.002  19.249  1.00  0.00    -0.393 OA
ATOM     21  H1  UNL     1     -13.920  -1.980  20.197  1.00  0.00     0.210 HD
ENDBRANCH  17  20
BRANCH  18  22
HETATM   22  O2  UNL     1     -16.567  -3.397  19.642  1.00  0.00    -0.391 OA
ATOM     23  H2  UNL     1     -17.430  -3.406  19.246  1.00  0.00     0.210 HD
ENDBRANCH  18  22
ENDBRANCH  11  12
ENDBRANCH  10  11
ENDBRANCH   8  10
ENDBRANCH   7   8
BRANCH   1  24
HETATM   24  N1  UNL     1     -22.303   1.502  19.649  1.00  0.00    -0.005 N 
HETATM   25  C1  UNL     1     -23.439   1.303  18.769  1.00  0.00     0.283 C 
HETATM   26  C14 UNL     1     -22.517   2.486  20.658  1.00  0.00     0.249 C 
HETATM   27  C15 UNL     1     -23.055   3.757  20.055  1.00  0.00     0.048 C 
HETATM   28  C16 UNL     1     -22.263   4.243  18.880  1.00  0.00     0.088 C 
HETATM   29 CL1  UNL     1     -23.338   5.219  17.850  1.00  0.00    -0.125 Cl
HETATM   30  C17 UNL     1     -21.647   3.184  18.052  1.00  0.00     0.088 C 
HETATM   31  C18 UNL     1     -21.196   1.973  18.823  1.00  0.00     0.379 C 
HETATM   32  F1  UNL     1     -20.763   1.025  17.922  1.00  0.00    -0.218 F 
ENDBRANCH   1  24
TORSDOF 7
ENDMDL
MODEL 4
REMARK VINA RESULT: -7.036196885      5.453      8.019
REMARK  7 active torsions:
REMARK  status: ('A' for Active; 'I' for Inactive)
REMARK    1  A    between atoms: N1_2  and  C2_3 
REMARK    2  A    between atoms: C4_9  and  N4_10 
REMARK    3  A    between atoms: N4_10  and  C5_12 
REMARK    4  A    between atoms: C5_12  and  C6_13 
REMARK    5  A    between atoms: C6_13  and  N5_14 
REMARK    6  A    between atoms: C11_19  and  O1_20 
REMARK    7  A    between atoms: C12_22  and  O2_23 
ROOT
HETATM    1  C2  UNL     1     -22.160   0.304  19.747  1.00  0.00     0.201 A 
HETATM    2  C3  UNL     1     -23.232  -0.592  19.699  1.00  0.00     0.148 A 
HETATM    3  N2  UNL     1     -22.767  -1.828  19.849  1.00  0.00    -0.308 N 
ATOM      4  H2  UNL     1     -23.320  -2.685  19.856  1.00  0.00     0.186 HD
HETATM    5  N3  UNL     1     -21.456  -1.743  19.989  1.00  0.00    -0.284 N 
ATOM      6  H3  UNL     1     -20.834  -2.540  20.123  1.00  0.00     0.188 HD
HETATM    7  C4  UNL     1     -21.054  -0.460  19.932  1.00  0.00     0.152 A 
ENDROOT
BRANCH   7   8
HETATM    8  N4  UNL     1     -19.857   0.012  20.029  1.00  0.00    -0.372 N 
ATOM      9  H4  UNL     1     -19.694   0.859  20.574  1.00  0.00     0.161 HD
BRANCH   8  10
HETATM   10  C5  UNL     1     -18.741  -0.642  19.376  1.00  0.00     0.149 C 
BRANCH  10  11
HETATM   11  C6  UNL     1     -18.128   0.254  18.321  1.00  0.00     0.257 C 
BRANCH  11  12
HETATM   12  N5  UNL     1     -16.699   0.229  18.337  1.00  0.00    -0.063 N 
HETATM   13  C7  UNL     1     -16.092   1.517  18.488  1.00  0.00     0.238 C 
HETATM   14  C8  UNL     1     -14.700   1.186  18.983  1.00  0.00     0.037 C 
HETATM   15  C9  UNL     1     -14.776  -0.215  19.529  1.00  0.00     0.044 C 
HETATM   16  C10 UNL     1     -16.271  -0.491  19.522  1.00  0.00     0.245 C 
HETATM   17  C11 UNL     1     -14.151  -1.143  18.523  1.00  0.00     0.154 C 
HETATM   18  C12 UNL     1     -15.158  -1.487  17.475  1.00  0.00     0.173 C 
HETATM   19  C13 UNL     1     -16.128  -0.400  17.165  1.00  0.00     0.271 C 
BRANCH  17  20
HETATM   20  O1  UNL     1     -13.724  -2.280  19.220  1.00  0.00    -0.393 OA
ATOM     21  H1  UNL     1     -14.293  -2.996  18.963  1.00  0.00     0.210 HD
ENDBRANCH  17  20
BRANCH  18  22
HETATM   22  O2  UNL     1     -14.439  -1.753  16.287  1.00  0.00    -0.391 OA
ATOM     23  H2  UNL     1     -14.405  -2.698  16.192  1.00  0.00     0.210 HD
ENDBRANCH  18  22
ENDBRANCH  11  12
ENDBRANCH  10  11
ENDBRANCH   8  10
ENDBRANCH   7   8
BRANCH   1  24
HETATM   24  N1  UNL     1     -22.351   1.699  19.615  1.00  0.00    -0.005 N 
HETATM   25  C1  UNL     1     -23.727   1.900  19.199  1.00  0.00     0.283 C 
HETATM   26  C14 UNL     1     -21.978   2.454  20.765  1.00  0.00     0.249 C 
HETATM   27  C15 UNL     1     -22.364   3.900  20.600  1.00  0.00     0.048 C 
HETATM   28  C16 UNL     1     -21.913   4.495  19.302  1.00  0.00     0.088 C 
HETATM   29 CL1  UNL     1     -23.001   5.846  18.901  1.00  0.00    -0.125 Cl
HETATM   30  C17 UNL     1     -21.877   3.559  18.157  1.00  0.00     0.088 C 
HETATM   31  C18 UNL     1     -21.500   2.147  18.517  1.00  0.00     0.379 C 
HETATM   32  F1  UNL     1     -21.629   1.367  17.390  1.00  0.00    -0.218 F 
ENDBRANCH   1  24
TORSDOF 7
ENDMDL
MODEL 5
REMARK VINA RESULT: -6.988675479      4.904      7.169
REMARK  7 active torsions:
REMARK  status: ('A' for Active; 'I' for Inactive)
REMARK    1  A    between atoms: N1_2  and  C2_3 
REMARK    2  A    between atoms: C4_9  and  N4_10 
REMARK    3  A    between atoms: N4_10  and  C5_12 
REMARK    4  A    between atoms: C5_12  and  C6_13 
REMARK    5  A    between atoms: C6_13  and  N5_14 
REMARK    6  A    between atoms: C11_19  and  O1_20 
REMARK    7  A    between atoms: C12_22  and  O2_23 
ROOT
HETATM    1  C2  UNL     1     -16.317   0.331  18.577  1.00  0.00     0.201 A 
HETATM    2  C3  UNL     1     -15.410  -0.542  17.969  1.00  0.00     0.148 A 
HETATM    3  N2  UNL     1     -15.903  -0.926  16.796  1.00  0.00    -0.308 N 
ATOM      4  H2  UNL     1     -15.459  -1.562  16.134  1.00  0.00     0.186 HD
HETATM    5  N3  UNL     1     -17.074  -0.333  16.646  1.00  0.00    -0.284 N 
ATOM      6  H3  UNL     1     -17.681  -0.445  15.834  1.00  0.00     0.188 HD
HETATM    7  C4  UNL     1     -17.356   0.439  17.711  1.00  0.00     0.152 A 
ENDROOT
BRANCH   7   8
HETATM    8  N4  UNL     1     -18.401   1.166  17.922  1.00  0.00    -0.372 N 
ATOM      9  H4  UNL     1     -18.365   2.166  17.723  1.00  0.00     0.161 HD
BRANCH   8  10
HETATM   10  C5  UNL     1     -19.624   0.585  18.437  1.00  0.00     0.149 C 
BRANCH  10  11
HETATM   11  C6  UNL     1     -20.175   1.405  19.584  1.00  0.00     0.257 C 
BRANCH  11  12
HETATM   12  N5  UNL     1     -20.969   0.632  20.486  1.00  0.00    -0.063 N 
HETATM   13  C7  UNL     1     -20.344   0.384  21.751  1.00  0.00     0.238 C 
HETATM   14  C8  UNL     1     -21.512   0.040  22.650  1.00  0.00     0.037 C 
HETATM   15  C9  UNL     1     -22.738   0.580  21.963  1.00  0.00     0.044 C 
HETATM   16  C10 UNL     1     -22.145   1.406  20.833  1.00  0.00     0.245 C 
HETATM   17  C11 UNL     1     -23.466  -0.575  21.331  1.00  0.00     0.154 C 
HETATM   18  C12 UNL     1     -22.848  -0.883  20.006  1.00  0.00     0.173 C 
HETATM   19  C13 UNL     1     -21.380  -0.641  19.934  1.00  0.00     0.271 C 
BRANCH  17  20
HETATM   20  O1  UNL     1     -24.807  -0.194  21.197  1.00  0.00    -0.393 OA
ATOM     21  H1  UNL     1     -25.259  -0.907  20.762  1.00  0.00     0.210 HD
ENDBRANCH  17  20
BRANCH  18  22
HETATM   22  O2  UNL     1     -23.054  -2.263  19.769  1.00  0.00    -0.391 OA
ATOM     23  H2  UNL     1     -23.959  -2.363  19.500  1.00  0.00     0.210 HD
ENDBRANCH  18  22
ENDBRANCH  11  12
ENDBRANCH  10  11
ENDBRANCH   8  10
ENDBRANCH   7   8
BRANCH   1  24
HETATM   24  N1  UNL     1     -16.060   0.906  19.843  1.00  0.00    -0.005 N 
HETATM   25  C1  UNL     1     -14.716   0.512  20.222  1.00  0.00     0.283 C 
HETATM   26  C14 UNL     1     -16.290   2.312  19.907  1.00  0.00     0.249 C 
HETATM   27  C15 UNL     1     -15.839   2.865  21.233  1.00  0.00     0.048 C 
HETATM   28  C16 UNL     1     -16.366   2.102  22.409  1.00  0.00     0.088 C 
HETATM   29 CL1  UNL     1     -15.243   2.333  23.771  1.00  0.00    -0.125 Cl
HETATM   30  C17 UNL     1     -16.553   0.651  22.189  1.00  0.00     0.088 C 
HETATM   31  C18 UNL     1     -16.975   0.281  20.793  1.00  0.00     0.379 C 
HETATM   32  F1  UNL     1     -16.987  -1.092  20.696  1.00  0.00    -0.218 F 
ENDBRANCH   1  24
TORSDOF 7
ENDMDL
