MODEL 1
REMARK VINA RESULT: -6.824149913      0.000      0.000
REMARK  6 active torsions:
REMARK  status: ('A' for Active; 'I' for Inactive)
REMARK    1  A    between atoms: C3_3  and  C4_4 
REMARK    2  A    between atoms: C4_4  and  O1_5 
REMARK    3  A    between atoms: C6_10  and  C7_11 
REMARK    4  A    between atoms: C8_12  and  C9_13 
REMARK    5  A    between atoms: C9_13  and  C10_14 
REMARK    6  A    between atoms: C11_15  and  C12_16 
ROOT
HETATM    1  C7  UNL     1     -18.001  -0.143  20.110  1.00  0.00     0.057 A 
HETATM    2  C8  UNL     1     -17.594   0.497  18.983  1.00  0.00    -0.013 A 
HETATM    3  C13 UNL     1     -16.328   0.162  18.333  1.00  0.00     0.021 A 
HETATM    4  C14 UNL     1     -15.696   0.656  17.215  1.00  0.00     0.105 A 
HETATM    5  N2  UNL     1     -14.535  -0.027  17.083  1.00  0.00    -0.340 N 
ATOM      6  H2  UNL     1     -13.855   0.124  16.338  1.00  0.00     0.167 HD
HETATM    7  C15 UNL     1     -14.403  -0.922  18.059  1.00  0.00     0.217 A 
HETATM    8  F1  UNL     1     -13.386  -1.809  18.294  1.00  0.00    -0.184 F 
HETATM    9  C16 UNL     1     -15.518  -0.822  18.859  1.00  0.00     0.116 A 
HETATM   10  N3  UNL     1     -15.907  -1.506  20.021  1.00  0.00    -0.295 N 
ATOM     11  H3  UNL     1     -15.323  -2.238  20.424  1.00  0.00     0.187 HD
HETATM   12  N4  UNL     1     -17.152  -1.142  20.619  1.00  0.00    -0.300 N 
ATOM     13  H4  UNL     1     -17.441  -1.635  21.463  1.00  0.00     0.187 HD
ENDROOT
BRANCH   1  14
HETATM   14  C6  UNL     1     -19.254   0.231  20.693  1.00  0.00     0.061 C 
HETATM   15  C5  UNL     1     -20.385  -0.415  20.893  1.00  0.00     0.045 A 
HETATM   16  N1  UNL     1     -20.749  -1.669  20.615  1.00  0.00    -0.353 N 
HETATM   17  C17 UNL     1     -21.506   0.196  21.500  1.00  0.00    -0.007 A 
HETATM   18  C3  UNL     1     -22.040  -1.937  20.993  1.00  0.00     0.065 A 
ATOM     19  H1  UNL     1     -20.135  -2.352  20.169  1.00  0.00     0.166 HD
HETATM   20  C2  UNL     1     -22.489  -0.781  21.536  1.00  0.00    -0.005 A 
HETATM   21  C1  UNL     1     -23.692  -0.551  22.047  1.00  0.00     0.026 C 
HETATM   22  C18 UNL     1     -21.602   1.430  21.941  1.00  0.00     0.026 C 
BRANCH  18  23
HETATM   23  C4  UNL     1     -22.633  -3.107  20.825  1.00  0.00     0.161 C 
BRANCH  23  24
HETATM   24  O1  UNL     1     -22.964  -3.652  19.613  1.00  0.00    -0.370 OA
ATOM     25  H1  UNL     1     -23.180  -4.566  19.469  1.00  0.00     0.216 HD
ENDBRANCH  23  24
ENDBRANCH  18  23
ENDBRANCH   1  14
BRANCH   2  26
HETATM   26  C9  UNL     1     -18.467   1.553  18.424  1.00  0.00     0.068 C 
BRANCH  26  27
HETATM   27  C10 UNL     1     -19.530   1.004  17.571  1.00  0.00    -0.025 C 
HETATM   28  C11 UNL     1     -20.779   1.325  17.519  1.00  0.00    -0.020 C 
BRANCH  28  29
HETATM   29  C12 UNL     1     -21.487   2.331  18.314  1.00  0.00     0.112 C 
HETATM   30 BR1  UNL     1     -23.351   1.795  18.517  1.00  0.00    -0.092 Br
ENDBRANCH  28  29
ENDBRANCH  26  27
ENDBRANCH   2  26
TORSDOF 6
ENDMDL
MODEL 2
REMARK VINA RESULT: -6.818564268      2.128      3.007
REMARK  6 active torsions:
REMARK  status: ('A' for Active; 'I' for Inactive)
REMARK    1  A    between atoms: C3_3  and  C4_4 
REMARK    2  A    between atoms: C4_4  and  O1_5 
REMARK    3  A    between atoms: C6_10  and  C7_11 
REMARK    4  A    between atoms: C8_12  and  C9_13 
REMARK    5  A    between atoms: C9_13  and  C10_14 
REMARK    6  A    between atoms: C11_15  and  C12_16 
ROOT
HETATM    1  C7  UNL     1     -18.355  -0.021  18.759  1.00  0.00     0.057 A 
HETATM    2  C8  UNL     1     -17.271  -0.351  19.509  1.00  0.00    -0.013 A 
HETATM    3  C13 UNL     1     -15.999  -0.715  18.887  1.00  0.00     0.021 A 
HETATM    4  C14 UNL     1     -14.782  -1.090  19.409  1.00  0.00     0.105 A 
HETATM    5  N2  UNL     1     -13.957  -1.319  18.360  1.00  0.00    -0.340 N 
ATOM      6  H2  UNL     1     -12.983  -1.612  18.442  1.00  0.00     0.167 HD
HETATM    7  C15 UNL     1     -14.590  -1.109  17.209  1.00  0.00     0.217 A 
HETATM    8  F1  UNL     1     -14.124  -1.226  15.927  1.00  0.00    -0.184 F 
HETATM    9  C16 UNL     1     -15.876  -0.729  17.514  1.00  0.00     0.116 A 
HETATM   10  N3  UNL     1     -16.975  -0.392  16.708  1.00  0.00    -0.295 N 
ATOM     11  H3  UNL     1     -16.904  -0.395  15.690  1.00  0.00     0.187 HD
HETATM   12  N4  UNL     1     -18.195  -0.044  17.362  1.00  0.00    -0.300 N 
ATOM     13  H4  UNL     1     -18.998   0.201  16.783  1.00  0.00     0.187 HD
ENDROOT
BRANCH   1  14
HETATM   14  C6  UNL     1     -19.569   0.330  19.432  1.00  0.00     0.061 C 
HETATM   15  C5  UNL     1     -20.578  -0.376  19.899  1.00  0.00     0.045 A 
HETATM   16  N1  UNL     1     -20.812  -1.691  19.903  1.00  0.00    -0.353 N 
HETATM   17  C17 UNL     1     -21.689   0.224  20.534  1.00  0.00    -0.007 A 
HETATM   18  C3  UNL     1     -22.006  -2.010  20.498  1.00  0.00     0.065 A 
ATOM     19  H1  UNL     1     -20.173  -2.381  19.508  1.00  0.00     0.166 HD
HETATM   20  C2  UNL     1     -22.531  -0.822  20.879  1.00  0.00    -0.005 A 
HETATM   21  C1  UNL     1     -23.686  -0.621  21.501  1.00  0.00     0.026 C 
HETATM   22  C18 UNL     1     -21.888   1.504  20.754  1.00  0.00     0.026 C 
BRANCH  18  23
HETATM   23  C4  UNL     1     -22.463  -3.245  20.626  1.00  0.00     0.161 C 
BRANCH  23  24
HETATM   24  O1  UNL     1     -23.038  -3.977  19.622  1.00  0.00    -0.370 OA
ATOM     25  H1  UNL     1     -22.694  -4.793  19.278  1.00  0.00     0.216 HD
ENDBRANCH  23  24
ENDBRANCH  18  23
ENDBRANCH   1  14
BRANCH   2  26
HETATM   26  C9  UNL     1     -17.408  -0.336  20.982  1.00  0.00     0.068 C 
BRANCH  26  27
HETATM   27  C10 UNL     1     -16.939   0.926  21.573  1.00  0.00    -0.025 C 
HETATM   28  C11 UNL     1     -17.046   1.344  22.790  1.00  0.00    -0.020 C 
BRANCH  28  29
HETATM   29  C12 UNL     1     -17.680   0.669  23.925  1.00  0.00     0.112 C 
HETATM   30 BR1  UNL     1     -19.615   0.869  23.793  1.00  0.00    -0.092 Br
ENDBRANCH  28  29
ENDBRANCH  26  27
ENDBRANCH   2  26
TORSDOF 6
ENDMDL
MODEL 3
REMARK VINA RESULT: -6.652254574      1.938      2.686
REMARK  6 active torsions:
REMARK  status: ('A' for Active; 'I' for Inactive)
REMARK    1  A    between atoms: C3_3  and  C4_4 
REMARK    2  A    between atoms: C4_4  and  O1_5 
REMARK    3  A    between atoms: C6_10  and  C7_11 
REMARK    4  A    between atoms: C8_12  and  C9_13 
REMARK    5  A    between atoms: C9_13  and  C10_14 
REMARK    6  A    between atoms: C11_15  and  C12_16 
ROOT
HETATM    1  C7  UNL     1     -18.397  -0.045  18.807  1.00  0.00     0.057 A 
HETATM    2  C8  UNL     1     -17.294  -0.308  19.555  1.00  0.00    -0.013 A 
HETATM    3  C13 UNL     1     -16.023  -0.674  18.932  1.00  0.00     0.021 A 
HETATM    4  C14 UNL     1     -14.789  -0.991  19.452  1.00  0.00     0.105 A 
HETATM    5  N2  UNL     1     -13.975  -1.256  18.403  1.00  0.00    -0.340 N 
ATOM      6  H2  UNL     1     -12.993  -1.520  18.484  1.00  0.00     0.167 HD
HETATM    7  C15 UNL     1     -14.631  -1.122  17.253  1.00  0.00     0.217 A 
HETATM    8  F1  UNL     1     -14.182  -1.295  15.971  1.00  0.00    -0.184 F 
HETATM    9  C16 UNL     1     -15.921  -0.757  17.559  1.00  0.00     0.116 A 
HETATM   10  N3  UNL     1     -17.040  -0.490  16.755  1.00  0.00    -0.295 N 
ATOM     11  H3  UNL     1     -16.985  -0.545  15.738  1.00  0.00     0.187 HD
HETATM   12  N4  UNL     1     -18.259  -0.138  17.410  1.00  0.00    -0.300 N 
ATOM     13  H4  UNL     1     -19.076   0.058  16.833  1.00  0.00     0.187 HD
ENDROOT
BRANCH   1  14
HETATM   14  C6  UNL     1     -19.609   0.312  19.481  1.00  0.00     0.061 C 
HETATM   15  C5  UNL     1     -20.628  -0.387  19.936  1.00  0.00     0.045 A 
HETATM   16  N1  UNL     1     -20.877  -1.699  19.923  1.00  0.00    -0.353 N 
HETATM   17  C17 UNL     1     -21.734   0.217  20.575  1.00  0.00    -0.007 A 
HETATM   18  C3  UNL     1     -22.076  -2.011  20.511  1.00  0.00     0.065 A 
ATOM     19  H1  UNL     1     -20.245  -2.392  19.522  1.00  0.00     0.166 HD
HETATM   20  C2  UNL     1     -22.589  -0.822  20.906  1.00  0.00    -0.005 A 
HETATM   21  C1  UNL     1     -23.743  -0.616  21.527  1.00  0.00     0.026 C 
HETATM   22  C18 UNL     1     -21.919   1.497  20.811  1.00  0.00     0.026 C 
BRANCH  18  23
HETATM   23  C4  UNL     1     -22.548  -3.242  20.623  1.00  0.00     0.161 C 
BRANCH  23  24
HETATM   24  O1  UNL     1     -23.045  -3.989  19.588  1.00  0.00    -0.370 OA
ATOM     25  H1  UNL     1     -22.869  -4.912  19.449  1.00  0.00     0.216 HD
ENDBRANCH  23  24
ENDBRANCH  18  23
ENDBRANCH   1  14
BRANCH   2  26
HETATM   26  C9  UNL     1     -17.409  -0.218  21.028  1.00  0.00     0.068 C 
BRANCH  26  27
HETATM   27  C10 UNL     1     -16.651   0.915  21.578  1.00  0.00    -0.025 C 
HETATM   28  C11 UNL     1     -17.088   2.038  22.041  1.00  0.00    -0.020 C 
BRANCH  28  29
HETATM   29  C12 UNL     1     -18.475   2.497  22.137  1.00  0.00     0.112 C 
HETATM   30 BR1  UNL     1     -18.815   3.814  20.740  1.00  0.00    -0.092 Br
ENDBRANCH  28  29
ENDBRANCH  26  27
ENDBRANCH   2  26
TORSDOF 6
ENDMDL
MODEL 4
REMARK VINA RESULT: -6.533711223      2.719      3.378
REMARK  6 active torsions:
REMARK  status: ('A' for Active; 'I' for Inactive)
REMARK    1  A    between atoms: C3_3  and  C4_4 
REMARK    2  A    between atoms: C4_4  and  O1_5 
REMARK    3  A    between atoms: C6_10  and  C7_11 
REMARK    4  A    between atoms: C8_12  and  C9_13 
REMARK    5  A    between atoms: C9_13  and  C10_14 
REMARK    6  A    between atoms: C11_15  and  C12_16 
ROOT
HETATM    1  C7  UNL     1     -19.275   0.345  20.202  1.00  0.00     0.057 A 
HETATM    2  C8  UNL     1     -18.034   0.886  20.319  1.00  0.00    -0.013 A 
HETATM    3  C13 UNL     1     -16.831   0.078  20.128  1.00  0.00     0.021 A 
HETATM    4  C14 UNL     1     -15.489   0.374  20.197  1.00  0.00     0.105 A 
HETATM    5  N2  UNL     1     -14.817  -0.771  19.935  1.00  0.00    -0.340 N 
ATOM      6  H2  UNL     1     -13.801  -0.855  19.915  1.00  0.00     0.167 HD
HETATM    7  C15 UNL     1     -15.665  -1.772  19.705  1.00  0.00     0.217 A 
HETATM    8  F1  UNL     1     -15.402  -3.081  19.405  1.00  0.00    -0.184 F 
HETATM    9  C16 UNL     1     -16.938  -1.263  19.821  1.00  0.00     0.116 A 
HETATM   10  N3  UNL     1     -18.204  -1.855  19.691  1.00  0.00    -0.295 N 
ATOM     11  H3  UNL     1     -18.303  -2.844  19.463  1.00  0.00     0.187 HD
HETATM   12  N4  UNL     1     -19.348  -1.024  19.888  1.00  0.00    -0.300 N 
ATOM     13  H4  UNL     1     -20.271  -1.447  19.795  1.00  0.00     0.187 HD
ENDROOT
BRANCH   1  14
HETATM   14  C6  UNL     1     -20.411   1.195  20.398  1.00  0.00     0.061 C 
HETATM   15  C5  UNL     1     -21.438   1.516  19.638  1.00  0.00     0.045 A 
HETATM   16  N1  UNL     1     -21.774   1.145  18.400  1.00  0.00    -0.353 N 
HETATM   17  C17 UNL     1     -22.450   2.403  20.072  1.00  0.00    -0.007 A 
HETATM   18  C3  UNL     1     -22.942   1.727  17.977  1.00  0.00     0.065 A 
ATOM     19  H1  UNL     1     -21.223   0.501  17.832  1.00  0.00     0.166 HD
HETATM   20  C2  UNL     1     -23.343   2.496  19.017  1.00  0.00    -0.005 A 
HETATM   21  C1  UNL     1     -24.430   3.254  19.077  1.00  0.00     0.026 C 
HETATM   22  C18 UNL     1     -22.531   3.015  21.232  1.00  0.00     0.026 C 
BRANCH  18  23
HETATM   23  C4  UNL     1     -23.485   1.519  16.788  1.00  0.00     0.161 C 
BRANCH  23  24
HETATM   24  O1  UNL     1     -23.133   0.512  15.930  1.00  0.00    -0.370 OA
ATOM     25  H1  UNL     1     -23.296   0.512  14.994  1.00  0.00     0.216 HD
ENDBRANCH  23  24
ENDBRANCH  18  23
ENDBRANCH   1  14
BRANCH   2  26
HETATM   26  C9  UNL     1     -17.926   2.325  20.649  1.00  0.00     0.068 C 
BRANCH  26  27
HETATM   27  C10 UNL     1     -17.832   3.167  19.448  1.00  0.00    -0.025 C 
HETATM   28  C11 UNL     1     -18.518   4.214  19.132  1.00  0.00    -0.020 C 
BRANCH  28  29
HETATM   29  C12 UNL     1     -19.597   4.850  19.892  1.00  0.00     0.112 C 
HETATM   30 BR1  UNL     1     -20.928   5.552  18.653  1.00  0.00    -0.092 Br
ENDBRANCH  28  29
ENDBRANCH  26  27
ENDBRANCH   2  26
TORSDOF 6
ENDMDL
MODEL 5
REMARK VINA RESULT: -6.512803931      1.611      1.850
REMARK  6 active torsions:
REMARK  status: ('A' for Active; 'I' for Inactive)
REMARK    1  A    between atoms: C3_3  and  C4_4 
REMARK    2  A    between atoms: C4_4  and  O1_5 
REMARK    3  A    between atoms: C6_10  and  C7_11 
REMARK    4  A    between atoms: C8_12  and  C9_13 
REMARK    5  A    between atoms: C9_13  and  C10_14 
REMARK    6  A    between atoms: C11_15  and  C12_16 
ROOT
HETATM    1  C7  UNL     1     -18.193  -0.382  19.421  1.00  0.00     0.057 A 
HETATM    2  C8  UNL     1     -17.434   0.430  18.640  1.00  0.00    -0.013 A 
HETATM    3  C13 UNL     1     -16.060   0.077  18.287  1.00  0.00     0.021 A 
HETATM    4  C14 UNL     1     -15.098   0.714  17.536  1.00  0.00     0.105 A 
HETATM    5  N2  UNL     1     -13.998  -0.075  17.551  1.00  0.00    -0.340 N 
ATOM      6  H2  UNL     1     -13.123   0.142  17.075  1.00  0.00     0.167 HD
HETATM    7  C15 UNL     1     -14.216  -1.172  18.272  1.00  0.00     0.217 A 
HETATM    8  F1  UNL     1     -13.374  -2.218  18.539  1.00  0.00    -0.184 F 
HETATM    9  C16 UNL     1     -15.506  -1.100  18.746  1.00  0.00     0.116 A 
HETATM   10  N3  UNL     1     -16.262  -1.964  19.554  1.00  0.00    -0.295 N 
ATOM     11  H3  UNL     1     -15.871  -2.839  19.902  1.00  0.00     0.187 HD
HETATM   12  N4  UNL     1     -17.598  -1.574  19.871  1.00  0.00    -0.300 N 
ATOM     13  H4  UNL     1     -18.153  -2.196  20.458  1.00  0.00     0.187 HD
ENDROOT
BRANCH   1  14
HETATM   14  C6  UNL     1     -19.533   0.022  19.725  1.00  0.00     0.061 C 
HETATM   15  C5  UNL     1     -20.635  -0.645  19.999  1.00  0.00     0.045 A 
HETATM   16  N1  UNL     1     -20.878  -1.955  20.091  1.00  0.00    -0.353 N 
HETATM   17  C17 UNL     1     -21.863   0.004  20.266  1.00  0.00    -0.007 A 
HETATM   18  C3  UNL     1     -22.187  -2.225  20.399  1.00  0.00     0.065 A 
ATOM     19  H1  UNL     1     -20.169  -2.674  19.948  1.00  0.00     0.166 HD
HETATM   20  C2  UNL     1     -22.777  -1.011  20.503  1.00  0.00    -0.005 A 
HETATM   21  C1  UNL     1     -24.048  -0.762  20.790  1.00  0.00     0.026 C 
HETATM   22  C18 UNL     1     -22.095   1.297  20.286  1.00  0.00     0.026 C 
BRANCH  18  23
HETATM   23  C4  UNL     1     -22.677  -3.445  20.545  1.00  0.00     0.161 C 
BRANCH  23  24
HETATM   24  O1  UNL     1     -23.131  -4.236  19.523  1.00  0.00    -0.370 OA
ATOM     25  H1  UNL     1     -23.737  -4.960  19.623  1.00  0.00     0.216 HD
ENDBRANCH  23  24
ENDBRANCH  18  23
ENDBRANCH   1  14
BRANCH   2  26
HETATM   26  C9  UNL     1     -18.033   1.691  18.151  1.00  0.00     0.068 C 
BRANCH  26  27
HETATM   27  C10 UNL     1     -17.408   2.877  18.755  1.00  0.00    -0.025 C 
HETATM   28  C11 UNL     1     -17.897   3.703  19.619  1.00  0.00    -0.020 C 
BRANCH  28  29
HETATM   29  C12 UNL     1     -19.227   3.687  20.232  1.00  0.00     0.112 C 
HETATM   30 BR1  UNL     1     -19.089   2.998  22.051  1.00  0.00    -0.092 Br
ENDBRANCH  28  29
ENDBRANCH  26  27
ENDBRANCH   2  26
TORSDOF 6
ENDMDL
