MODEL 1
REMARK VINA RESULT: -6.208356654      0.000      0.000
REMARK  3 active torsions:
REMARK  status: ('A' for Active; 'I' for Inactive)
REMARK    1  A    between atoms: C2_2  and  N1_3 
REMARK    2  A    between atoms: C2_2  and  C4_16 
REMARK       I    between atoms: N1_3  and  C3_5 
REMARK       I    between atoms: C3_5  and  N3_9 
REMARK    3  A    between atoms: N3_9  and  N4_11 
ROOT
HETATM    1  C1  UNL     1      -4.143 -14.956 -10.078  1.00  0.00     0.034 C 
HETATM    2  C2  UNL     1      -3.235 -15.358 -11.264  1.00  0.00     0.108 C 
ENDROOT
BRANCH   2   3
HETATM    3  N1  UNL     1      -3.412 -14.425 -12.265  1.00  0.00    -0.220 N 
HETATM    4  C3  UNL     1      -2.858 -13.099 -12.039  1.00  0.00     0.687 C 
HETATM    5  N2  UNL     1      -1.619 -12.965 -11.709  1.00  0.00    -0.234 N 
HETATM    6  N3  UNL     1      -3.643 -11.937 -12.173  1.00  0.00    -0.119 N 
ATOM      7  H22 UNL     1      -1.050 -13.806 -11.612  1.00  0.00     0.174 HD
ATOM      8  H21 UNL     1      -1.231 -12.035 -11.550  1.00  0.00     0.174 HD
ATOM      9  H3  UNL     1      -4.607 -11.937 -11.840  1.00  0.00     0.207 HD
ATOM     10  H1  UNL     1      -3.909 -14.655 -13.125  1.00  0.00     0.178 HD
BRANCH   6  11
HETATM   11  N4  UNL     1      -3.113 -10.791 -12.757  1.00  0.00    -0.235 N 
HETATM   12  N5  UNL     1      -3.741  -9.672 -12.734  1.00  0.00    -0.330 N 
ATOM     13  H52 UNL     1      -4.649  -9.640 -12.273  1.00  0.00     0.178 HD
ATOM     14  H51 UNL     1      -3.352  -8.832 -13.163  1.00  0.00     0.178 HD
ATOM     15  H4  UNL     1      -2.203 -10.841 -13.214  1.00  0.00     0.208 HD
ENDBRANCH   6  11
ENDBRANCH   2   3
BRANCH   2  16
HETATM   16  C4  UNL     1      -3.542 -16.841 -11.488  1.00  0.00     0.007 A 
HETATM   17  C5  UNL     1      -3.660 -17.431 -10.171  1.00  0.00     0.043 A 
HETATM   18  C6  UNL     1      -2.461 -18.203 -10.462  1.00  0.00    -0.021 A 
HETATM   19  C7  UNL     1      -2.358 -17.739 -11.642  1.00  0.00    -0.067 A 
HETATM   20  C8  UNL     1      -2.015 -17.415 -13.063  1.00  0.00     0.035 C 
HETATM   21  C9  UNL     1      -1.188 -18.420 -13.789  1.00  0.00     0.067 C 
HETATM   22  C12 UNL     1      -3.409 -17.948 -13.543  1.00  0.00     0.010 C 
HETATM   23 BR1  UNL     1       0.672 -17.978 -13.749  1.00  0.00    -0.090 Br
HETATM   24  C10 UNL     1      -1.779 -18.219 -15.200  1.00  0.00     0.032 C 
HETATM   25  C11 UNL     1      -3.268 -17.954 -14.961  1.00  0.00     0.064 C 
HETATM   26 BR2  UNL     1      -3.738 -16.335 -15.855  1.00  0.00    -0.091 Br
HETATM   27  C13 UNL     1      -4.320 -17.130 -12.727  1.00  0.00     0.023 C 
ENDBRANCH   2  16
TORSDOF 3
ENDMDL
MODEL 2
REMARK VINA RESULT: -6.158971543      2.399      3.788
REMARK  3 active torsions:
REMARK  status: ('A' for Active; 'I' for Inactive)
REMARK    1  A    between atoms: C2_2  and  N1_3 
REMARK    2  A    between atoms: C2_2  and  C4_16 
REMARK       I    between atoms: N1_3  and  C3_5 
REMARK       I    between atoms: C3_5  and  N3_9 
REMARK    3  A    between atoms: N3_9  and  N4_11 
ROOT
HETATM    1  C1  UNL     1       0.242 -13.469 -14.157  1.00  0.00     0.034 C 
HETATM    2  C2  UNL     1      -0.873 -14.108 -13.296  1.00  0.00     0.108 C 
ENDROOT
BRANCH   2   3
HETATM    3  N1  UNL     1      -1.405 -13.119 -12.494  1.00  0.00    -0.220 N 
HETATM    4  C3  UNL     1      -2.789 -12.741 -12.737  1.00  0.00     0.687 C 
HETATM    5  N2  UNL     1      -3.709 -13.645 -12.762  1.00  0.00    -0.234 N 
HETATM    6  N3  UNL     1      -3.164 -11.401 -12.948  1.00  0.00    -0.119 N 
ATOM      7  H22 UNL     1      -3.438 -14.616 -12.609  1.00  0.00     0.174 HD
ATOM      8  H21 UNL     1      -4.680 -13.381 -12.933  1.00  0.00     0.174 HD
ATOM      9  H3  UNL     1      -2.569 -10.792 -13.509  1.00  0.00     0.207 HD
ATOM     10  H1  UNL     1      -0.852 -12.671 -11.763  1.00  0.00     0.178 HD
BRANCH   6  11
HETATM   11  N4  UNL     1      -4.340 -10.902 -12.397  1.00  0.00    -0.235 N 
HETATM   12  N5  UNL     1      -4.647  -9.659 -12.476  1.00  0.00    -0.330 N 
ATOM     13  H52 UNL     1      -4.001  -9.034 -12.959  1.00  0.00     0.178 HD
ATOM     14  H51 UNL     1      -5.509  -9.293 -12.072  1.00  0.00     0.178 HD
ATOM     15  H4  UNL     1      -4.975 -11.541 -11.919  1.00  0.00     0.208 HD
ENDBRANCH   6  11
ENDBRANCH   2   3
BRANCH   2  16
HETATM   16  C4  UNL     1      -0.221 -15.358 -12.700  1.00  0.00     0.007 A 
HETATM   17  C5  UNL     1       0.977 -15.597 -13.478  1.00  0.00     0.043 A 
HETATM   18  C6  UNL     1       0.359 -16.823 -13.961  1.00  0.00    -0.021 A 
HETATM   19  C7  UNL     1      -0.685 -16.666 -13.252  1.00  0.00    -0.067 A 
HETATM   20  C8  UNL     1      -1.981 -16.774 -12.509  1.00  0.00     0.035 C 
HETATM   21  C9  UNL     1      -2.562 -18.141 -12.392  1.00  0.00     0.067 C 
HETATM   22  C12 UNL     1      -1.219 -16.784 -11.139  1.00  0.00     0.010 C 
HETATM   23 BR1  UNL     1      -3.869 -18.481 -13.746  1.00  0.00    -0.090 Br
HETATM   24  C10 UNL     1      -3.223 -17.985 -11.005  1.00  0.00     0.032 C 
HETATM   25  C11 UNL     1      -2.252 -17.107 -10.212  1.00  0.00     0.064 C 
HETATM   26 BR2  UNL     1      -3.227 -15.631  -9.498  1.00  0.00    -0.091 Br
HETATM   27  C13 UNL     1      -0.448 -15.534 -11.237  1.00  0.00     0.023 C 
ENDBRANCH   2  16
TORSDOF 3
ENDMDL
MODEL 3
REMARK VINA RESULT: -5.988740274      1.374      1.625
REMARK  3 active torsions:
REMARK  status: ('A' for Active; 'I' for Inactive)
REMARK    1  A    between atoms: C2_2  and  N1_3 
REMARK    2  A    between atoms: C2_2  and  C4_16 
REMARK       I    between atoms: N1_3  and  C3_5 
REMARK       I    between atoms: C3_5  and  N3_9 
REMARK    3  A    between atoms: N3_9  and  N4_11 
ROOT
HETATM    1  C1  UNL     1      -4.342 -15.734 -10.258  1.00  0.00     0.034 C 
HETATM    2  C2  UNL     1      -3.193 -15.613 -11.286  1.00  0.00     0.108 C 
ENDROOT
BRANCH   2   3
HETATM    3  N1  UNL     1      -3.546 -14.642 -12.200  1.00  0.00    -0.220 N 
HETATM    4  C3  UNL     1      -2.768 -13.413 -12.195  1.00  0.00     0.687 C 
HETATM    5  N2  UNL     1      -1.482 -13.463 -12.280  1.00  0.00    -0.234 N 
HETATM    6  N3  UNL     1      -3.382 -12.150 -12.099  1.00  0.00    -0.119 N 
ATOM      7  H22 UNL     1      -1.037 -14.378 -12.350  1.00  0.00     0.174 HD
ATOM      8  H21 UNL     1      -0.937 -12.601 -12.277  1.00  0.00     0.174 HD
ATOM      9  H3  UNL     1      -4.179 -12.020 -11.476  1.00  0.00     0.207 HD
ATOM     10  H1  UNL     1      -4.319 -14.780 -12.851  1.00  0.00     0.178 HD
BRANCH   6  11
HETATM   11  N4  UNL     1      -2.911 -11.076 -12.849  1.00  0.00    -0.235 N 
HETATM   12  N5  UNL     1      -3.499  -9.937 -12.838  1.00  0.00    -0.330 N 
ATOM     13  H52 UNL     1      -4.333  -9.831 -12.260  1.00  0.00     0.178 HD
ATOM     14  H51 UNL     1      -3.153  -9.150 -13.388  1.00  0.00     0.178 HD
ATOM     15  H4  UNL     1      -2.076 -11.200 -13.421  1.00  0.00     0.208 HD
ENDBRANCH   6  11
ENDBRANCH   2   3
BRANCH   2  16
HETATM   16  C4  UNL     1      -2.917 -17.056 -11.715  1.00  0.00     0.007 A 
HETATM   17  C5  UNL     1      -3.538 -17.900 -10.715  1.00  0.00     0.043 A 
HETATM   18  C6  UNL     1      -2.205 -18.342 -10.333  1.00  0.00    -0.021 A 
HETATM   19  C7  UNL     1      -1.634 -17.649 -11.233  1.00  0.00    -0.067 A 
HETATM   20  C8  UNL     1      -0.705 -16.996 -12.209  1.00  0.00     0.035 C 
HETATM   21  C9  UNL     1       0.618 -17.655 -12.405  1.00  0.00     0.067 C 
HETATM   22  C12 UNL     1      -1.435 -17.697 -13.406  1.00  0.00     0.010 C 
HETATM   23 BR1  UNL     1       1.979 -16.862 -11.320  1.00  0.00    -0.090 Br
HETATM   24  C10 UNL     1       0.820 -17.310 -13.896  1.00  0.00     0.032 C 
HETATM   25  C11 UNL     1      -0.580 -17.402 -14.507  1.00  0.00     0.064 C 
HETATM   26 BR2  UNL     1      -0.938 -15.771 -15.430  1.00  0.00    -0.091 Br
HETATM   27  C13 UNL     1      -2.821 -17.253 -13.190  1.00  0.00     0.023 C 
ENDBRANCH   2  16
TORSDOF 3
ENDMDL
MODEL 4
REMARK VINA RESULT: -5.757123374      2.384      3.834
REMARK  3 active torsions:
REMARK  status: ('A' for Active; 'I' for Inactive)
REMARK    1  A    between atoms: C2_2  and  N1_3 
REMARK    2  A    between atoms: C2_2  and  C4_16 
REMARK       I    between atoms: N1_3  and  C3_5 
REMARK       I    between atoms: C3_5  and  N3_9 
REMARK    3  A    between atoms: N3_9  and  N4_11 
ROOT
HETATM    1  C1  UNL     1      -4.254 -14.117 -15.789  1.00  0.00     0.034 C 
HETATM    2  C2  UNL     1      -3.768 -14.263 -14.327  1.00  0.00     0.108 C 
ENDROOT
BRANCH   2   3
HETATM    3  N1  UNL     1      -2.690 -13.419 -14.156  1.00  0.00    -0.220 N 
HETATM    4  C3  UNL     1      -2.892 -12.247 -13.318  1.00  0.00     0.687 C 
HETATM    5  N2  UNL     1      -3.371 -12.380 -12.127  1.00  0.00    -0.234 N 
HETATM    6  N3  UNL     1      -2.575 -10.952 -13.769  1.00  0.00    -0.119 N 
ATOM      7  H22 UNL     1      -3.600 -13.318 -11.800  1.00  0.00     0.174 HD
ATOM      8  H21 UNL     1      -3.512 -11.558 -11.540  1.00  0.00     0.174 HD
ATOM      9  H3  UNL     1      -2.779 -10.689 -14.733  1.00  0.00     0.207 HD
ATOM     10  H1  UNL     1      -1.791 -13.609 -14.597  1.00  0.00     0.178 HD
BRANCH   6  11
HETATM   11  N4  UNL     1      -1.986 -10.029 -12.911  1.00  0.00    -0.235 N 
HETATM   12  N5  UNL     1      -2.588  -8.950 -12.566  1.00  0.00    -0.330 N 
ATOM     13  H52 UNL     1      -3.521  -8.780 -12.939  1.00  0.00     0.178 HD
ATOM     14  H51 UNL     1      -2.155  -8.274 -11.937  1.00  0.00     0.178 HD
ATOM     15  H4  UNL     1      -1.052 -10.216 -12.547  1.00  0.00     0.208 HD
ENDBRANCH   6  11
ENDBRANCH   2   3
BRANCH   2  16
HETATM   16  C4  UNL     1      -3.646 -15.774 -14.119  1.00  0.00     0.007 A 
HETATM   17  C5  UNL     1      -4.655 -16.380 -14.961  1.00  0.00     0.043 A 
HETATM   18  C6  UNL     1      -5.328 -16.825 -13.750  1.00  0.00    -0.021 A 
HETATM   19  C7  UNL     1      -4.432 -16.346 -12.985  1.00  0.00    -0.067 A 
HETATM   20  C8  UNL     1      -3.530 -15.941 -11.861  1.00  0.00     0.035 C 
HETATM   21  C9  UNL     1      -3.676 -16.703 -10.589  1.00  0.00     0.067 C 
HETATM   22  C12 UNL     1      -2.365 -16.804 -12.456  1.00  0.00     0.010 C 
HETATM   23 BR1  UNL     1      -4.823 -15.809  -9.347  1.00  0.00    -0.090 Br
HETATM   24  C10 UNL     1      -2.204 -16.652 -10.127  1.00  0.00     0.032 C 
HETATM   25  C11 UNL     1      -1.390 -16.768 -11.417  1.00  0.00     0.064 C 
HETATM   26 BR2  UNL     1      -0.155 -15.316 -11.479  1.00  0.00    -0.091 Br
HETATM   27  C13 UNL     1      -2.264 -16.244 -13.813  1.00  0.00     0.023 C 
ENDBRANCH   2  16
TORSDOF 3
ENDMDL
MODEL 5
REMARK VINA RESULT: -5.672940247      3.261      3.935
REMARK  3 active torsions:
REMARK  status: ('A' for Active; 'I' for Inactive)
REMARK    1  A    between atoms: C2_2  and  N1_3 
REMARK    2  A    between atoms: C2_2  and  C4_16 
REMARK       I    between atoms: N1_3  and  C3_5 
REMARK       I    between atoms: C3_5  and  N3_9 
REMARK    3  A    between atoms: N3_9  and  N4_11 
ROOT
HETATM    1  C1  UNL     1      -2.626 -15.563  -9.661  1.00  0.00     0.034 C 
HETATM    2  C2  UNL     1      -3.978 -15.976 -10.290  1.00  0.00     0.108 C 
ENDROOT
BRANCH   2   3
HETATM    3  N1  UNL     1      -4.864 -16.220  -9.262  1.00  0.00    -0.220 N 
HETATM    4  C3  UNL     1      -5.234 -15.090  -8.423  1.00  0.00     0.687 C 
HETATM    5  N2  UNL     1      -5.678 -14.005  -8.961  1.00  0.00    -0.234 N 
HETATM    6  N3  UNL     1      -5.122 -15.143  -7.020  1.00  0.00    -0.119 N 
ATOM      7  H22 UNL     1      -5.759 -13.967  -9.977  1.00  0.00     0.174 HD
ATOM      8  H21 UNL     1      -5.936 -13.213  -8.372  1.00  0.00     0.174 HD
ATOM      9  H3  UNL     1      -4.317 -15.602  -6.594  1.00  0.00     0.207 HD
ATOM     10  H1  UNL     1      -5.244 -17.152  -9.097  1.00  0.00     0.178 HD
BRANCH   6  11
HETATM   11  N4  UNL     1      -6.101 -14.574  -6.212  1.00  0.00    -0.235 N 
HETATM   12  N5  UNL     1      -6.484 -15.133  -5.123  1.00  0.00    -0.330 N 
ATOM     13  H52 UNL     1      -6.049 -16.017  -4.858  1.00  0.00     0.178 HD
ATOM     14  H51 UNL     1      -7.202 -14.716  -4.531  1.00  0.00     0.178 HD
ATOM     15  H4  UNL     1      -6.525 -13.690  -6.493  1.00  0.00     0.208 HD
ENDBRANCH   6  11
ENDBRANCH   2   3
BRANCH   2  16
HETATM   16  C4  UNL     1      -3.606 -17.061 -11.303  1.00  0.00     0.007 A 
HETATM   17  C5  UNL     1      -3.210 -18.218 -10.528  1.00  0.00     0.043 A 
HETATM   18  C6  UNL     1      -1.863 -18.045 -11.050  1.00  0.00    -0.021 A 
HETATM   19  C7  UNL     1      -2.190 -17.056 -11.779  1.00  0.00    -0.067 A 
HETATM   20  C8  UNL     1      -2.288 -15.928 -12.760  1.00  0.00     0.035 C 
HETATM   21  C9  UNL     1      -1.234 -15.874 -13.812  1.00  0.00     0.067 C 
HETATM   22  C12 UNL     1      -3.344 -16.723 -13.602  1.00  0.00     0.010 C 
HETATM   23 BR1  UNL     1       0.194 -14.694 -13.334  1.00  0.00    -0.090 Br
HETATM   24  C10 UNL     1      -2.088 -15.283 -14.954  1.00  0.00     0.032 C 
HETATM   25  C11 UNL     1      -3.466 -15.927 -14.778  1.00  0.00     0.064 C 
HETATM   26 BR2  UNL     1      -4.772 -14.538 -14.715  1.00  0.00    -0.091 Br
HETATM   27  C13 UNL     1      -4.369 -16.997 -12.583  1.00  0.00     0.023 C 
ENDBRANCH   2  16
TORSDOF 3
ENDMDL
