MODEL 1
REMARK VINA RESULT: -5.758948208      0.000      0.000
REMARK  7 active torsions:
REMARK  status: ('A' for Active; 'I' for Inactive)
REMARK    1  A    between atoms: N1_1  and  N2_4 
REMARK    2  A    between atoms: N2_4  and  N3_6 
REMARK    3  A    between atoms: C1_8  and  O1_9 
REMARK    4  A    between atoms: C1_8  and  C2_11 
REMARK    5  A    between atoms: C3_12  and  C4_13 
REMARK    6  A    between atoms: C4_13  and  O2_14 
REMARK    7  A    between atoms: C4_13  and  C5_16 
ROOT
HETATM    1  C2  UNL     1      -3.086 -15.008 -11.551  1.00  0.00     0.061 A 
HETATM    2  C3  UNL     1      -3.747 -15.648 -10.509  1.00  0.00     0.056 A 
HETATM    3  N4  UNL     1      -3.896 -16.944 -10.826  1.00  0.00    -0.350 N 
ATOM      4  H4  UNL     1      -4.350 -17.644 -10.239  1.00  0.00     0.166 HD
HETATM    5  C6  UNL     1      -3.355 -17.184 -12.046  1.00  0.00     0.098 A 
HETATM    6 BR2  UNL     1      -3.272 -18.830 -13.002  1.00  0.00    -0.030 Br
HETATM    7  C7  UNL     1      -2.851 -16.000 -12.507  1.00  0.00     0.061 A 
HETATM    8 BR3  UNL     1      -1.961 -15.734 -14.191  1.00  0.00    -0.047 Br
ENDROOT
BRANCH   1   9
HETATM    9  C1  UNL     1      -2.708 -13.629 -11.727  1.00  0.00     0.170 C 
HETATM   10  N3  UNL     1      -3.523 -12.811 -12.298  1.00  0.00    -0.265 N 
ATOM     11  H3  UNL     1      -4.419 -13.188 -12.605  1.00  0.00     0.190 HD
BRANCH  10  12
HETATM   12  N2  UNL     1      -3.292 -11.476 -12.529  1.00  0.00    -0.247 N 
ATOM     13  H2  UNL     1      -2.353 -11.096 -12.651  1.00  0.00     0.207 HD
BRANCH  12  14
HETATM   14  N1  UNL     1      -4.420 -10.687 -12.586  1.00  0.00    -0.331 N 
ATOM     15  H12 UNL     1      -4.936 -10.557 -13.456  1.00  0.00     0.178 HD
ATOM     16  H11 UNL     1      -4.691 -10.253 -11.704  1.00  0.00     0.178 HD
ENDBRANCH  12  14
ENDBRANCH  10  12
BRANCH   9  17
HETATM   17  O1  UNL     1      -1.459 -13.207 -11.273  1.00  0.00    -0.344 OA
ATOM     18  H1  UNL     1      -0.694 -13.766 -11.344  1.00  0.00     0.219 HD
ENDBRANCH   9  17
ENDBRANCH   1   9
BRANCH   2  19
HETATM   19  C4  UNL     1      -4.192 -14.968  -9.268  1.00  0.00     0.178 C 
BRANCH  19  20
HETATM   20  O2  UNL     1      -3.178 -15.264  -8.301  1.00  0.00    -0.389 OA
ATOM     21  H2  UNL     1      -3.094 -14.471  -7.784  1.00  0.00     0.210 HD
ENDBRANCH  19  20
BRANCH  19  22
HETATM   22  C5  UNL     1      -5.440 -15.560  -8.658  1.00  0.00     0.123 C 
HETATM   23 BR1  UNL     1      -5.589 -15.124  -6.803  1.00  0.00    -0.093 Br
ENDBRANCH  19  22
ENDBRANCH   2  19
TORSDOF 7
ENDMDL
MODEL 2
REMARK VINA RESULT: -5.451595578      2.227      2.694
REMARK  7 active torsions:
REMARK  status: ('A' for Active; 'I' for Inactive)
REMARK    1  A    between atoms: N1_1  and  N2_4 
REMARK    2  A    between atoms: N2_4  and  N3_6 
REMARK    3  A    between atoms: C1_8  and  O1_9 
REMARK    4  A    between atoms: C1_8  and  C2_11 
REMARK    5  A    between atoms: C3_12  and  C4_13 
REMARK    6  A    between atoms: C4_13  and  O2_14 
REMARK    7  A    between atoms: C4_13  and  C5_16 
ROOT
HETATM    1  C2  UNL     1      -2.144 -14.324 -11.777  1.00  0.00     0.061 A 
HETATM    2  C3  UNL     1      -2.262 -15.016 -10.577  1.00  0.00     0.056 A 
HETATM    3  N4  UNL     1      -1.104 -15.653 -10.334  1.00  0.00    -0.350 N 
ATOM      4  H4  UNL     1      -0.917 -16.238  -9.519  1.00  0.00     0.166 HD
HETATM    5  C6  UNL     1      -0.223 -15.403 -11.333  1.00  0.00     0.098 A 
HETATM    6 BR2  UNL     1       1.565 -16.034 -11.521  1.00  0.00    -0.030 Br
HETATM    7  C7  UNL     1      -0.849 -14.584 -12.232  1.00  0.00     0.061 A 
HETATM    8 BR3  UNL     1      -0.080 -13.899 -13.856  1.00  0.00    -0.047 Br
ENDROOT
BRANCH   1   9
HETATM    9  C1  UNL     1      -3.092 -13.514 -12.499  1.00  0.00     0.170 C 
HETATM   10  N3  UNL     1      -3.152 -12.247 -12.274  1.00  0.00    -0.265 N 
ATOM     11  H3  UNL     1      -2.510 -11.869 -11.578  1.00  0.00     0.190 HD
BRANCH  10  12
HETATM   12  N2  UNL     1      -4.004 -11.361 -12.887  1.00  0.00    -0.247 N 
ATOM     13  H2  UNL     1      -4.165 -11.364 -13.895  1.00  0.00     0.207 HD
BRANCH  12  14
HETATM   14  N1  UNL     1      -4.626 -10.466 -12.044  1.00  0.00    -0.331 N 
ATOM     15  H12 UNL     1      -4.331  -9.492 -11.990  1.00  0.00     0.178 HD
ATOM     16  H11 UNL     1      -5.391 -10.851 -11.490  1.00  0.00     0.178 HD
ENDBRANCH  12  14
ENDBRANCH  10  12
BRANCH   9  17
HETATM   17  O1  UNL     1      -3.930 -14.123 -13.432  1.00  0.00    -0.344 OA
ATOM     18  H1  UNL     1      -3.881 -15.056 -13.603  1.00  0.00     0.219 HD
ENDBRANCH   9  17
ENDBRANCH   1   9
BRANCH   2  19
HETATM   19  C4  UNL     1      -3.485 -15.020  -9.738  1.00  0.00     0.178 C 
BRANCH  19  20
HETATM   20  O2  UNL     1      -3.024 -15.319  -8.416  1.00  0.00    -0.389 OA
ATOM     21  H2  UNL     1      -3.547 -14.769  -7.844  1.00  0.00     0.210 HD
ENDBRANCH  19  20
BRANCH  19  22
HETATM   22  C5  UNL     1      -4.435 -16.154 -10.043  1.00  0.00     0.123 C 
HETATM   23 BR1  UNL     1      -3.495 -17.775 -10.417  1.00  0.00    -0.093 Br
ENDBRANCH  19  22
ENDBRANCH   2  19
TORSDOF 7
ENDMDL
MODEL 3
REMARK VINA RESULT: -5.373226450      3.600      5.211
REMARK  7 active torsions:
REMARK  status: ('A' for Active; 'I' for Inactive)
REMARK    1  A    between atoms: N1_1  and  N2_4 
REMARK    2  A    between atoms: N2_4  and  N3_6 
REMARK    3  A    between atoms: C1_8  and  O1_9 
REMARK    4  A    between atoms: C1_8  and  C2_11 
REMARK    5  A    between atoms: C3_12  and  C4_13 
REMARK    6  A    between atoms: C4_13  and  O2_14 
REMARK    7  A    between atoms: C4_13  and  C5_16 
ROOT
HETATM    1  C2  UNL     1      -1.191 -15.583 -11.430  1.00  0.00     0.061 A 
HETATM    2  C3  UNL     1       0.193 -15.507 -11.529  1.00  0.00     0.056 A 
HETATM    3  N4  UNL     1       0.510 -15.022 -12.741  1.00  0.00    -0.350 N 
ATOM      4  H4  UNL     1       1.460 -14.865 -13.080  1.00  0.00     0.166 HD
HETATM    5  C6  UNL     1      -0.620 -14.772 -13.446  1.00  0.00     0.098 A 
HETATM    6 BR2  UNL     1      -0.784 -14.077 -15.213  1.00  0.00    -0.030 Br
HETATM    7  C7  UNL     1      -1.679 -15.112 -12.652  1.00  0.00     0.061 A 
HETATM    8 BR3  UNL     1      -3.537 -14.970 -13.128  1.00  0.00    -0.047 Br
ENDROOT
BRANCH   1   9
HETATM    9  C1  UNL     1      -2.039 -16.055 -10.365  1.00  0.00     0.170 C 
HETATM   10  N3  UNL     1      -2.431 -15.237  -9.450  1.00  0.00    -0.265 N 
ATOM     11  H3  UNL     1      -2.115 -14.270  -9.526  1.00  0.00     0.190 HD
BRANCH  10  12
HETATM   12  N2  UNL     1      -3.237 -15.550  -8.382  1.00  0.00    -0.247 N 
ATOM     13  H2  UNL     1      -2.863 -15.738  -7.452  1.00  0.00     0.207 HD
BRANCH  12  14
HETATM   14  N1  UNL     1      -4.586 -15.593  -8.658  1.00  0.00    -0.331 N 
ATOM     15  H12 UNL     1      -5.203 -16.262  -8.197  1.00  0.00     0.178 HD
ATOM     16  H11 UNL     1      -4.910 -14.915  -9.347  1.00  0.00     0.178 HD
ENDBRANCH  12  14
ENDBRANCH  10  12
BRANCH   9  17
HETATM   17  O1  UNL     1      -2.419 -17.396 -10.346  1.00  0.00    -0.344 OA
ATOM     18  H1  UNL     1      -2.174 -17.967  -9.627  1.00  0.00     0.219 HD
ENDBRANCH   9  17
ENDBRANCH   1   9
BRANCH   2  19
HETATM   19  C4  UNL     1       1.126 -15.908 -10.448  1.00  0.00     0.178 C 
BRANCH  19  20
HETATM   20  O2  UNL     1       1.620 -14.675  -9.911  1.00  0.00    -0.389 OA
ATOM     21  H2  UNL     1       1.758 -14.849  -8.988  1.00  0.00     0.210 HD
ENDBRANCH  19  20
BRANCH  19  22
HETATM   22  C5  UNL     1       2.375 -16.601 -10.940  1.00  0.00     0.123 C 
HETATM   23 BR1  UNL     1       1.964 -18.243 -11.826  1.00  0.00    -0.093 Br
ENDBRANCH  19  22
ENDBRANCH   2  19
TORSDOF 7
ENDMDL
MODEL 4
REMARK VINA RESULT: -5.222934911      2.427      3.051
REMARK  7 active torsions:
REMARK  status: ('A' for Active; 'I' for Inactive)
REMARK    1  A    between atoms: N1_1  and  N2_4 
REMARK    2  A    between atoms: N2_4  and  N3_6 
REMARK    3  A    between atoms: C1_8  and  O1_9 
REMARK    4  A    between atoms: C1_8  and  C2_11 
REMARK    5  A    between atoms: C3_12  and  C4_13 
REMARK    6  A    between atoms: C4_13  and  O2_14 
REMARK    7  A    between atoms: C4_13  and  C5_16 
ROOT
HETATM    1  C2  UNL     1      -2.389 -15.616 -11.538  1.00  0.00     0.061 A 
HETATM    2  C3  UNL     1      -3.546 -15.759 -10.781  1.00  0.00     0.056 A 
HETATM    3  N4  UNL     1      -4.450 -16.442 -11.504  1.00  0.00    -0.350 N 
ATOM      4  H4  UNL     1      -5.389 -16.686 -11.189  1.00  0.00     0.166 HD
HETATM    5  C6  UNL     1      -3.926 -16.757 -12.714  1.00  0.00     0.098 A 
HETATM    6 BR2  UNL     1      -4.743 -17.716 -14.143  1.00  0.00    -0.030 Br
HETATM    7  C7  UNL     1      -2.655 -16.255 -12.751  1.00  0.00     0.061 A 
HETATM    8 BR3  UNL     1      -1.430 -16.401 -14.226  1.00  0.00    -0.047 Br
ENDROOT
BRANCH   1   9
HETATM    9  C1  UNL     1      -1.145 -14.950 -11.247  1.00  0.00     0.170 C 
HETATM   10  N3  UNL     1      -0.212 -15.582 -10.623  1.00  0.00    -0.265 N 
ATOM     11  H3  UNL     1      -0.403 -16.547 -10.358  1.00  0.00     0.190 HD
BRANCH  10  12
HETATM   12  N2  UNL     1       1.017 -15.071 -10.282  1.00  0.00    -0.247 N 
ATOM     13  H2  UNL     1       1.184 -14.070 -10.178  1.00  0.00     0.207 HD
BRANCH  12  14
HETATM   14  N1  UNL     1       2.009 -16.008 -10.091  1.00  0.00    -0.331 N 
ATOM     15  H12 UNL     1       1.946 -16.941 -10.497  1.00  0.00     0.178 HD
ATOM     16  H11 UNL     1       2.796 -15.697  -9.521  1.00  0.00     0.178 HD
ENDBRANCH  12  14
ENDBRANCH  10  12
BRANCH   9  17
HETATM   17  O1  UNL     1      -0.976 -13.626 -11.650  1.00  0.00    -0.344 OA
ATOM     18  H1  UNL     1      -1.466 -13.267 -12.381  1.00  0.00     0.219 HD
ENDBRANCH   9  17
ENDBRANCH   1   9
BRANCH   2  19
HETATM   19  C4  UNL     1      -3.709 -15.228  -9.406  1.00  0.00     0.178 C 
BRANCH  19  20
HETATM   20  O2  UNL     1      -2.918 -16.091  -8.581  1.00  0.00    -0.389 OA
ATOM     21  H2  UNL     1      -2.285 -16.482  -9.171  1.00  0.00     0.210 HD
ENDBRANCH  19  20
BRANCH  19  22
HETATM   22  C5  UNL     1      -5.102 -15.390  -8.846  1.00  0.00     0.123 C 
HETATM   23 BR1  UNL     1      -5.137 -15.101  -6.957  1.00  0.00    -0.093 Br
ENDBRANCH  19  22
ENDBRANCH   2  19
TORSDOF 7
ENDMDL
MODEL 5
REMARK VINA RESULT: -5.207439504      1.388      1.425
REMARK  7 active torsions:
REMARK  status: ('A' for Active; 'I' for Inactive)
REMARK    1  A    between atoms: N1_1  and  N2_4 
REMARK    2  A    between atoms: N2_4  and  N3_6 
REMARK    3  A    between atoms: C1_8  and  O1_9 
REMARK    4  A    between atoms: C1_8  and  C2_11 
REMARK    5  A    between atoms: C3_12  and  C4_13 
REMARK    6  A    between atoms: C4_13  and  O2_14 
REMARK    7  A    between atoms: C4_13  and  C5_16 
ROOT
HETATM    1  C2  UNL     1      -3.336 -14.389 -12.249  1.00  0.00     0.061 A 
HETATM    2  C3  UNL     1      -3.445 -15.283 -11.190  1.00  0.00     0.056 A 
HETATM    3  N4  UNL     1      -3.927 -16.446 -11.658  1.00  0.00    -0.350 N 
ATOM      4  H4  UNL     1      -4.107 -17.276 -11.092  1.00  0.00     0.166 HD
HETATM    5  C6  UNL     1      -4.139 -16.352 -12.993  1.00  0.00     0.098 A 
HETATM    6 BR2  UNL     1      -4.807 -17.682 -14.183  1.00  0.00    -0.030 Br
HETATM    7  C7  UNL     1      -3.780 -15.089 -13.374  1.00  0.00     0.061 A 
HETATM    8 BR3  UNL     1      -3.866 -14.384 -15.161  1.00  0.00    -0.047 Br
ENDROOT
BRANCH   1   9
HETATM    9  C1  UNL     1      -2.906 -13.015 -12.287  1.00  0.00     0.170 C 
HETATM   10  N3  UNL     1      -3.729 -12.098 -12.663  1.00  0.00    -0.265 N 
ATOM     11  H3  UNL     1      -4.669 -12.396 -12.922  1.00  0.00     0.190 HD
BRANCH  10  12
HETATM   12  N2  UNL     1      -3.453 -10.754 -12.746  1.00  0.00    -0.247 N 
ATOM     13  H2  UNL     1      -2.520 -10.399 -12.957  1.00  0.00     0.207 HD
BRANCH  12  14
HETATM   14  N1  UNL     1      -4.527  -9.920 -12.525  1.00  0.00    -0.331 N 
ATOM     15  H12 UNL     1      -4.759  -9.587 -11.589  1.00  0.00     0.178 HD
ATOM     16  H11 UNL     1      -5.060  -9.669 -13.357  1.00  0.00     0.178 HD
ENDBRANCH  12  14
ENDBRANCH  10  12
BRANCH   9  17
HETATM   17  O1  UNL     1      -1.599 -12.704 -11.914  1.00  0.00    -0.344 OA
ATOM     18  H1  UNL     1      -1.187 -13.123 -11.167  1.00  0.00     0.219 HD
ENDBRANCH   9  17
ENDBRANCH   1   9
BRANCH   2  19
HETATM   19  C4  UNL     1      -3.076 -14.959  -9.791  1.00  0.00     0.178 C 
BRANCH  19  20
HETATM   20  O2  UNL     1      -1.765 -15.509  -9.618  1.00  0.00    -0.389 OA
ATOM     21  H2  UNL     1      -1.580 -15.414  -8.691  1.00  0.00     0.210 HD
ENDBRANCH  19  20
BRANCH  19  22
HETATM   22  C5  UNL     1      -3.899 -15.687  -8.754  1.00  0.00     0.123 C 
HETATM   23 BR1  UNL     1      -5.575 -14.819  -8.453  1.00  0.00    -0.093 Br
ENDBRANCH  19  22
ENDBRANCH   2  19
TORSDOF 7
ENDMDL
