MODEL 1
REMARK VINA RESULT: -6.980103816      0.000      0.000
REMARK  6 active torsions:
REMARK  status: ('A' for Active; 'I' for Inactive)
REMARK    1  A    between atoms: C2_3  and  N2_4 
REMARK    2  A    between atoms: C5_13  and  C6_14 
REMARK    3  A    between atoms: C6_14  and  C7_15 
REMARK    4  A    between atoms: C7_15  and  C8_16 
REMARK    5  A    between atoms: C8_16  and  C9_17 
REMARK    6  A    between atoms: C9_17  and  C10_18 
ROOT
HETATM    1  C1  UNL     1      -3.004 -18.669 -10.657  1.00  0.00     0.147 C 
HETATM    2  N1  UNL     1      -2.770 -17.736 -11.491  1.00  0.00    -0.167 N 
HETATM    3  C2  UNL     1      -2.467 -18.143 -12.744  1.00  0.00     0.682 A 
HETATM    4  N3  UNL     1      -2.215 -17.172 -13.664  1.00  0.00    -0.184 N 
ATOM      5  H3  UNL     1      -1.984 -17.442 -14.620  1.00  0.00     0.185 HD
HETATM    6  C3  UNL     1      -2.262 -15.891 -13.353  1.00  0.00     0.115 A 
HETATM    7 BR1  UNL     1      -1.903 -14.539 -14.669  1.00  0.00    -0.029 Br
HETATM    8  C4  UNL     1      -2.571 -15.435 -12.069  1.00  0.00     0.073 A 
HETATM    9 BR2  UNL     1      -2.596 -13.557 -11.759  1.00  0.00    -0.046 Br
HETATM   10  C5  UNL     1      -2.829 -16.407 -11.125  1.00  0.00     0.071 A 
ENDROOT
BRANCH  10  11
HETATM   11  C6  UNL     1      -3.118 -16.068  -9.893  1.00  0.00     0.005 C 
BRANCH  11  12
HETATM   12  C7  UNL     1      -4.325 -15.676  -9.210  1.00  0.00     0.030 C 
BRANCH  12  13
HETATM   13  C8  UNL     1      -4.151 -15.253  -7.763  1.00  0.00     0.010 C 
BRANCH  13  14
HETATM   14  C9  UNL     1      -5.455 -15.092  -7.059  1.00  0.00     0.059 C 
BRANCH  14  15
HETATM   15  C10 UNL     1      -5.327 -15.034  -5.599  1.00  0.00     0.029 A 
HETATM   16  C11 UNL     1      -4.299 -14.552  -4.826  1.00  0.00     0.117 A 
HETATM   17  N4  UNL     1      -4.580 -14.686  -3.524  1.00  0.00    -0.317 N 
HETATM   18  C12 UNL     1      -5.789 -15.254  -3.469  1.00  0.00     0.324 A 
ATOM     19  H4  UNL     1      -3.993 -14.411  -2.736  1.00  0.00     0.170 HD
HETATM   20  O1  UNL     1      -6.378 -15.532  -2.383  1.00  0.00    -0.247 OA
HETATM   21  N5  UNL     1      -6.255 -15.471  -4.735  1.00  0.00    -0.311 N 
ATOM     22  H5  UNL     1      -7.152 -15.891  -4.980  1.00  0.00     0.170 HD
ENDBRANCH  14  15
ENDBRANCH  13  14
ENDBRANCH  12  13
ENDBRANCH  11  12
ENDBRANCH  10  11
BRANCH   3  23
HETATM   23  N2  UNL     1      -2.401 -19.364 -13.123  1.00  0.00    -0.234 N 
ATOM     24  H22 UNL     1      -2.359 -20.088 -12.406  1.00  0.00     0.174 HD
ATOM     25  H21 UNL     1      -2.387 -19.675 -14.094  1.00  0.00     0.174 HD
ENDBRANCH   3  23
TORSDOF 6
ENDMDL
MODEL 2
REMARK VINA RESULT: -6.948112530      1.958      2.608
REMARK  6 active torsions:
REMARK  status: ('A' for Active; 'I' for Inactive)
REMARK    1  A    between atoms: C2_3  and  N2_4 
REMARK    2  A    between atoms: C5_13  and  C6_14 
REMARK    3  A    between atoms: C6_14  and  C7_15 
REMARK    4  A    between atoms: C7_15  and  C8_16 
REMARK    5  A    between atoms: C8_16  and  C9_17 
REMARK    6  A    between atoms: C9_17  and  C10_18 
ROOT
HETATM    1  C1  UNL     1      -2.672 -13.358 -11.776  1.00  0.00     0.147 C 
HETATM    2  N1  UNL     1      -2.640 -14.578 -12.137  1.00  0.00    -0.167 N 
HETATM    3  C2  UNL     1      -2.363 -14.787 -13.443  1.00  0.00     0.682 A 
HETATM    4  N3  UNL     1      -2.317 -16.081 -13.864  1.00  0.00    -0.184 N 
ATOM      5  H3  UNL     1      -2.110 -16.277 -14.844  1.00  0.00     0.185 HD
HETATM    6  C3  UNL     1      -2.533 -17.088 -13.040  1.00  0.00     0.115 A 
HETATM    7 BR1  UNL     1      -2.462 -18.905 -13.659  1.00  0.00    -0.029 Br
HETATM    8  C4  UNL     1      -2.822 -16.908 -11.686  1.00  0.00     0.073 A 
HETATM    9 BR2  UNL     1      -3.119 -18.452 -10.613  1.00  0.00    -0.046 Br
HETATM   10  C5  UNL     1      -2.872 -15.604 -11.243  1.00  0.00     0.071 A 
ENDROOT
BRANCH  10  11
HETATM   11  C6  UNL     1      -3.146 -15.344  -9.989  1.00  0.00     0.005 C 
BRANCH  11  12
HETATM   12  C7  UNL     1      -4.361 -15.242  -9.220  1.00  0.00     0.030 C 
BRANCH  12  13
HETATM   13  C8  UNL     1      -4.187 -15.268  -7.713  1.00  0.00     0.010 C 
BRANCH  13  14
HETATM   14  C9  UNL     1      -5.459 -14.981  -6.990  1.00  0.00     0.059 C 
BRANCH  14  15
HETATM   15  C10 UNL     1      -5.318 -14.994  -5.531  1.00  0.00     0.029 A 
HETATM   16  C11 UNL     1      -4.274 -14.569  -4.746  1.00  0.00     0.117 A 
HETATM   17  N4  UNL     1      -4.546 -14.758  -3.448  1.00  0.00    -0.317 N 
HETATM   18  C12 UNL     1      -5.765 -15.306  -3.409  1.00  0.00     0.324 A 
ATOM     19  H4  UNL     1      -3.947 -14.532  -2.654  1.00  0.00     0.170 HD
HETATM   20  O1  UNL     1      -6.350 -15.625  -2.331  1.00  0.00    -0.247 OA
HETATM   21  N5  UNL     1      -6.246 -15.455  -4.679  1.00  0.00    -0.311 N 
ATOM     22  H5  UNL     1      -7.153 -15.847  -4.935  1.00  0.00     0.170 HD
ENDBRANCH  14  15
ENDBRANCH  13  14
ENDBRANCH  12  13
ENDBRANCH  11  12
ENDBRANCH  10  11
BRANCH   3  23
HETATM   23  N2  UNL     1      -2.143 -13.865 -14.303  1.00  0.00    -0.234 N 
ATOM     24  H22 UNL     1      -2.026 -12.911 -13.965  1.00  0.00     0.174 HD
ATOM     25  H21 UNL     1      -2.075 -14.009 -15.311  1.00  0.00     0.174 HD
ENDBRANCH   3  23
TORSDOF 6
ENDMDL
MODEL 3
REMARK VINA RESULT: -6.880858903      0.724      1.032
REMARK  6 active torsions:
REMARK  status: ('A' for Active; 'I' for Inactive)
REMARK    1  A    between atoms: C2_3  and  N2_4 
REMARK    2  A    between atoms: C5_13  and  C6_14 
REMARK    3  A    between atoms: C6_14  and  C7_15 
REMARK    4  A    between atoms: C7_15  and  C8_16 
REMARK    5  A    between atoms: C8_16  and  C9_17 
REMARK    6  A    between atoms: C9_17  and  C10_18 
ROOT
HETATM    1  C1  UNL     1      -3.393 -18.361 -10.270  1.00  0.00     0.147 C 
HETATM    2  N1  UNL     1      -3.035 -17.509 -11.146  1.00  0.00    -0.167 N 
HETATM    3  C2  UNL     1      -2.634 -18.030 -12.327  1.00  0.00     0.682 A 
HETATM    4  N3  UNL     1      -2.248 -17.149 -13.290  1.00  0.00    -0.184 N 
ATOM      5  H3  UNL     1      -1.940 -17.506 -14.195  1.00  0.00     0.185 HD
HETATM    6  C3  UNL     1      -2.262 -15.846 -13.085  1.00  0.00     0.115 A 
HETATM    7 BR1  UNL     1      -1.713 -14.622 -14.460  1.00  0.00    -0.029 Br
HETATM    8  C4  UNL     1      -2.669 -15.274 -11.878  1.00  0.00     0.073 A 
HETATM    9 BR2  UNL     1      -2.631 -13.378 -11.718  1.00  0.00    -0.046 Br
HETATM   10  C5  UNL     1      -3.064 -16.154 -10.892  1.00  0.00     0.071 A 
ENDROOT
BRANCH  10  11
HETATM   11  C6  UNL     1      -3.452 -15.703  -9.725  1.00  0.00     0.005 C 
BRANCH  11  12
HETATM   12  C7  UNL     1      -4.623 -15.012  -9.247  1.00  0.00     0.030 C 
BRANCH  12  13
HETATM   13  C8  UNL     1      -5.246 -15.574  -7.983  1.00  0.00     0.010 C 
BRANCH  13  14
HETATM   14  C9  UNL     1      -4.653 -14.985  -6.749  1.00  0.00     0.059 C 
BRANCH  14  15
HETATM   15  C10 UNL     1      -5.565 -14.992  -5.601  1.00  0.00     0.029 A 
HETATM   16  C11 UNL     1      -6.852 -14.524  -5.499  1.00  0.00     0.117 A 
HETATM   17  N4  UNL     1      -7.336 -14.724  -4.266  1.00  0.00    -0.317 N 
HETATM   18  C12 UNL     1      -6.353 -15.321  -3.583  1.00  0.00     0.324 A 
ATOM     19  H4  UNL     1      -8.262 -14.473  -3.920  1.00  0.00     0.170 HD
HETATM   20  O1  UNL     1      -6.459 -15.662  -2.368  1.00  0.00    -0.247 OA
HETATM   21  N5  UNL     1      -5.265 -15.489  -4.391  1.00  0.00    -0.311 N 
ATOM     22  H5  UNL     1      -4.379 -15.918  -4.122  1.00  0.00     0.170 HD
ENDBRANCH  14  15
ENDBRANCH  13  14
ENDBRANCH  12  13
ENDBRANCH  11  12
ENDBRANCH  10  11
BRANCH   3  23
HETATM   23  N2  UNL     1      -2.592 -19.280 -12.602  1.00  0.00    -0.234 N 
ATOM     24  H22 UNL     1      -2.156 -19.906 -11.926  1.00  0.00     0.174 HD
ATOM     25  H21 UNL     1      -2.964 -19.705 -13.452  1.00  0.00     0.174 HD
ENDBRANCH   3  23
TORSDOF 6
ENDMDL
MODEL 4
REMARK VINA RESULT: -6.809819947      2.093      2.794
REMARK  6 active torsions:
REMARK  status: ('A' for Active; 'I' for Inactive)
REMARK    1  A    between atoms: C2_3  and  N2_4 
REMARK    2  A    between atoms: C5_13  and  C6_14 
REMARK    3  A    between atoms: C6_14  and  C7_15 
REMARK    4  A    between atoms: C7_15  and  C8_16 
REMARK    5  A    between atoms: C8_16  and  C9_17 
REMARK    6  A    between atoms: C9_17  and  C10_18 
ROOT
HETATM    1  C1  UNL     1      -3.024 -13.420 -11.271  1.00  0.00     0.147 C 
HETATM    2  N1  UNL     1      -2.806 -14.583 -11.743  1.00  0.00    -0.167 N 
HETATM    3  C2  UNL     1      -2.295 -14.611 -12.994  1.00  0.00     0.682 A 
HETATM    4  N3  UNL     1      -2.045 -15.837 -13.531  1.00  0.00    -0.184 N 
ATOM      5  H3  UNL     1      -1.658 -15.897 -14.472  1.00  0.00     0.185 HD
HETATM    6  C3  UNL     1      -2.292 -16.949 -12.866  1.00  0.00     0.115 A 
HETATM    7 BR1  UNL     1      -1.931 -18.667 -13.645  1.00  0.00    -0.029 Br
HETATM    8  C4  UNL     1      -2.820 -16.957 -11.573  1.00  0.00     0.073 A 
HETATM    9 BR2  UNL     1      -3.133 -18.637 -10.735  1.00  0.00    -0.046 Br
HETATM   10  C5  UNL     1      -3.078 -15.723 -11.015  1.00  0.00     0.071 A 
ENDROOT
BRANCH  10  11
HETATM   11  C6  UNL     1      -3.584 -15.638  -9.810  1.00  0.00     0.005 C 
BRANCH  11  12
HETATM   12  C7  UNL     1      -4.887 -15.875  -9.241  1.00  0.00     0.030 C 
BRANCH  12  13
HETATM   13  C8  UNL     1      -5.326 -14.888  -8.176  1.00  0.00     0.010 C 
BRANCH  13  14
HETATM   14  C9  UNL     1      -4.661 -15.136  -6.865  1.00  0.00     0.059 C 
BRANCH  14  15
HETATM   15  C10 UNL     1      -5.575 -15.060  -5.721  1.00  0.00     0.029 A 
HETATM   16  C11 UNL     1      -6.843 -14.538  -5.644  1.00  0.00     0.117 A 
HETATM   17  N4  UNL     1      -7.337 -14.667  -4.406  1.00  0.00    -0.317 N 
HETATM   18  C12 UNL     1      -6.380 -15.273  -3.695  1.00  0.00     0.324 A 
ATOM     19  H4  UNL     1      -8.253 -14.366  -4.074  1.00  0.00     0.170 HD
HETATM   20  O1  UNL     1      -6.502 -15.558  -2.467  1.00  0.00    -0.247 OA
HETATM   21  N5  UNL     1      -5.297 -15.517  -4.491  1.00  0.00    -0.311 N 
ATOM     22  H5  UNL     1      -4.429 -15.969  -4.201  1.00  0.00     0.170 HD
ENDBRANCH  14  15
ENDBRANCH  13  14
ENDBRANCH  12  13
ENDBRANCH  11  12
ENDBRANCH  10  11
BRANCH   3  23
HETATM   23  N2  UNL     1      -2.030 -13.578 -13.702  1.00  0.00    -0.234 N 
ATOM     24  H22 UNL     1      -2.730 -12.838 -13.753  1.00  0.00     0.174 HD
ATOM     25  H21 UNL     1      -1.166 -13.433 -14.225  1.00  0.00     0.174 HD
ENDBRANCH   3  23
TORSDOF 6
ENDMDL
MODEL 5
REMARK VINA RESULT: -6.785259273      1.278      1.278
REMARK  6 active torsions:
REMARK  status: ('A' for Active; 'I' for Inactive)
REMARK    1  A    between atoms: C2_3  and  N2_4 
REMARK    2  A    between atoms: C5_13  and  C6_14 
REMARK    3  A    between atoms: C6_14  and  C7_15 
REMARK    4  A    between atoms: C7_15  and  C8_16 
REMARK    5  A    between atoms: C8_16  and  C9_17 
REMARK    6  A    between atoms: C9_17  and  C10_18 
ROOT
HETATM    1  C1  UNL     1      -2.606 -17.866 -10.231  1.00  0.00     0.147 C 
HETATM    2  N1  UNL     1      -2.136 -16.950 -10.980  1.00  0.00    -0.167 N 
HETATM    3  C2  UNL     1      -0.955 -17.235 -11.570  1.00  0.00     0.682 A 
HETATM    4  N3  UNL     1      -0.424 -16.280 -12.382  1.00  0.00    -0.184 N 
ATOM      5  H3  UNL     1       0.466 -16.461 -12.845  1.00  0.00     0.185 HD
HETATM    6  C3  UNL     1      -1.030 -15.126 -12.584  1.00  0.00     0.115 A 
HETATM    7 BR1  UNL     1      -0.261 -13.793 -13.734  1.00  0.00    -0.029 Br
HETATM    8  C4  UNL     1      -2.250 -14.798 -11.990  1.00  0.00     0.073 A 
HETATM    9 BR2  UNL     1      -3.008 -13.093 -12.366  1.00  0.00    -0.046 Br
HETATM   10  C5  UNL     1      -2.802 -15.755 -11.165  1.00  0.00     0.071 A 
ENDROOT
BRANCH  10  11
HETATM   11  C6  UNL     1      -3.940 -15.526 -10.560  1.00  0.00     0.005 C 
BRANCH  11  12
HETATM   12  C7  UNL     1      -4.353 -14.679  -9.469  1.00  0.00     0.030 C 
BRANCH  12  13
HETATM   13  C8  UNL     1      -4.351 -15.329  -8.098  1.00  0.00     0.010 C 
BRANCH  13  14
HETATM   14  C9  UNL     1      -5.577 -15.004  -7.315  1.00  0.00     0.059 C 
BRANCH  14  15
HETATM   15  C10 UNL     1      -5.376 -15.059  -5.864  1.00  0.00     0.029 A 
HETATM   16  C11 UNL     1      -4.237 -14.848  -5.127  1.00  0.00     0.117 A 
HETATM   17  N4  UNL     1      -4.482 -14.996  -3.819  1.00  0.00    -0.317 N 
HETATM   18  C12 UNL     1      -5.780 -15.304  -3.725  1.00  0.00     0.324 A 
ATOM     19  H4  UNL     1      -3.816 -14.896  -3.052  1.00  0.00     0.170 HD
HETATM   20  O1  UNL     1      -6.366 -15.517  -2.622  1.00  0.00    -0.247 OA
HETATM   21  N5  UNL     1      -6.337 -15.344  -4.971  1.00  0.00    -0.311 N 
ATOM     22  H5  UNL     1      -7.312 -15.555  -5.186  1.00  0.00     0.170 HD
ENDBRANCH  14  15
ENDBRANCH  13  14
ENDBRANCH  12  13
ENDBRANCH  11  12
ENDBRANCH  10  11
BRANCH   3  23
HETATM   23  N2  UNL     1      -0.306 -18.329 -11.423  1.00  0.00    -0.234 N 
ATOM     24  H22 UNL     1       0.550 -18.456 -11.963  1.00  0.00     0.174 HD
ATOM     25  H21 UNL     1      -0.578 -19.092 -10.804  1.00  0.00     0.174 HD
ENDBRANCH   3  23
TORSDOF 6
ENDMDL
