MODEL 1
REMARK VINA RESULT: -8.538761493      0.000      0.000
REMARK  6 active torsions:
REMARK  status: ('A' for Active; 'I' for Inactive)
REMARK    1  A    between atoms: O1_1  and  C1_3 
REMARK    2  A    between atoms: C2_8  and  C3_9 
REMARK    3  A    between atoms: N3_10  and  C4_12 
REMARK    4  A    between atoms: C4_12  and  C5_13 
REMARK    5  A    between atoms: C7_17  and  C8_18 
REMARK    6  A    between atoms: C8_18  and  C9_19 
ROOT
HETATM    1  C5  UNL     1      -3.225 -14.961 -10.551  1.00  0.00     0.123 A 
HETATM    2  N4  UNL     1      -2.645 -15.319  -9.393  1.00  0.00    -0.328 N 
ATOM      3  H4  UNL     1      -1.701 -15.612  -9.142  1.00  0.00     0.169 HD
HETATM    4  C6  UNL     1      -3.775 -15.144  -8.689  1.00  0.00     0.104 A 
HETATM    5  C7  UNL     1      -4.201 -15.250  -7.443  1.00  0.00     0.028 C 
HETATM    6  N6  UNL     1      -4.375 -14.780  -9.855  1.00  0.00    -0.328 N 
ATOM      7  H6  UNL     1      -5.318 -14.487 -10.107  1.00  0.00     0.169 HD
ENDROOT
BRANCH   1   8
HETATM    8  C4  UNL     1      -2.899 -14.826 -11.817  1.00  0.00     0.136 C 
BRANCH   8   9
HETATM    9  N3  UNL     1      -3.473 -13.757 -12.555  1.00  0.00    -0.369 N 
HETATM   10  C3  UNL     1      -2.839 -12.620 -12.647  1.00  0.00     0.123 C 
ATOM     11  H3  UNL     1      -4.377 -13.878 -13.010  1.00  0.00     0.164 HD
BRANCH  10  12
HETATM   12  C2  UNL     1      -3.436 -11.530 -13.405  1.00  0.00     0.115 A 
HETATM   13  C1  UNL     1      -4.330 -10.514 -13.161  1.00  0.00     0.185 A 
HETATM   14  N1  UNL     1      -4.197 -10.110 -14.434  1.00  0.00    -0.278 N 
HETATM   15  N2  UNL     1      -3.323 -11.102 -14.676  1.00  0.00    -0.293 N 
ATOM     16  H1  UNL     1      -4.597  -9.356 -14.992  1.00  0.00     0.189 HD
ATOM     17  H2  UNL     1      -2.792 -11.406 -15.492  1.00  0.00     0.187 HD
BRANCH  13  18
HETATM   18  O1  UNL     1      -5.048 -10.095 -12.077  1.00  0.00    -0.343 OA
ATOM     19  H1  UNL     1      -5.156  -9.273 -11.613  1.00  0.00     0.219 HD
ENDBRANCH  13  18
ENDBRANCH  10  12
ENDBRANCH   8   9
ENDBRANCH   1   8
BRANCH   5  20
HETATM   20  C8  UNL     1      -5.600 -14.949  -7.059  1.00  0.00     0.088 C 
BRANCH  20  21
HETATM   21  C9  UNL     1      -5.739 -14.913  -5.590  1.00  0.00     0.015 A 
HETATM   22  C10 UNL     1      -6.125 -13.831  -4.821  1.00  0.00     0.047 A 
HETATM   23  C11 UNL     1      -6.117 -14.244  -3.512  1.00  0.00     0.046 A 
HETATM   24 BR1  UNL     1      -6.553 -13.225  -1.961  1.00  0.00    -0.048 Br
HETATM   25  C12 UNL     1      -5.728 -15.561  -3.506  1.00  0.00     0.097 A 
HETATM   26 BR2  UNL     1      -5.515 -16.724  -2.013  1.00  0.00    -0.030 Br
HETATM   27  N5  UNL     1      -5.497 -15.969  -4.784  1.00  0.00    -0.352 N 
ATOM     28  H5  UNL     1      -5.197 -16.899  -5.078  1.00  0.00     0.166 HD
ENDBRANCH  20  21
ENDBRANCH   5  20
TORSDOF 6
ENDMDL
MODEL 2
REMARK VINA RESULT: -8.426209580      3.269      4.588
REMARK  6 active torsions:
REMARK  status: ('A' for Active; 'I' for Inactive)
REMARK    1  A    between atoms: O1_1  and  C1_3 
REMARK    2  A    between atoms: C2_8  and  C3_9 
REMARK    3  A    between atoms: N3_10  and  C4_12 
REMARK    4  A    between atoms: C4_12  and  C5_13 
REMARK    5  A    between atoms: C7_17  and  C8_18 
REMARK    6  A    between atoms: C8_18  and  C9_19 
ROOT
HETATM    1  C5  UNL     1      -3.394 -15.423 -10.932  1.00  0.00     0.123 A 
HETATM    2  N4  UNL     1      -4.120 -16.403 -10.369  1.00  0.00    -0.328 N 
ATOM      3  H4  UNL     1      -4.168 -17.412 -10.512  1.00  0.00     0.169 HD
HETATM    4  C6  UNL     1      -4.759 -15.556  -9.546  1.00  0.00     0.104 A 
HETATM    5  C7  UNL     1      -5.680 -15.589  -8.600  1.00  0.00     0.028 C 
HETATM    6  N6  UNL     1      -4.030 -14.554 -10.108  1.00  0.00    -0.328 N 
ATOM      7  H6  UNL     1      -3.981 -13.546  -9.965  1.00  0.00     0.169 HD
ENDROOT
BRANCH   1   8
HETATM    8  C4  UNL     1      -2.473 -15.286 -11.859  1.00  0.00     0.136 C 
BRANCH   8   9
HETATM    9  N3  UNL     1      -1.110 -15.436 -11.489  1.00  0.00    -0.369 N 
HETATM   10  C3  UNL     1      -0.557 -16.618 -11.523  1.00  0.00     0.123 C 
ATOM     11  H3  UNL     1      -0.567 -14.624 -11.199  1.00  0.00     0.164 HD
BRANCH  10  12
HETATM   12  C2  UNL     1       0.841 -16.762 -11.141  1.00  0.00     0.115 A 
HETATM   13  C1  UNL     1       1.780 -16.008 -10.478  1.00  0.00     0.185 A 
HETATM   14  N1  UNL     1       2.676 -16.991 -10.658  1.00  0.00    -0.278 N 
HETATM   15  N2  UNL     1       1.761 -17.730 -11.307  1.00  0.00    -0.293 N 
ATOM     16  H1  UNL     1       3.655 -17.123 -10.405  1.00  0.00     0.189 HD
ATOM     17  H2  UNL     1       1.763 -18.651 -11.746  1.00  0.00     0.187 HD
BRANCH  13  18
HETATM   18  O1  UNL     1       1.792 -14.776  -9.886  1.00  0.00    -0.343 OA
ATOM     19  H1  UNL     1       1.240 -14.320  -9.261  1.00  0.00     0.219 HD
ENDBRANCH  13  18
ENDBRANCH  10  12
ENDBRANCH   8   9
ENDBRANCH   1   8
BRANCH   5  20
HETATM   20  C8  UNL     1      -6.134 -14.366  -7.897  1.00  0.00     0.088 C 
BRANCH  20  21
HETATM   21  C9  UNL     1      -5.983 -14.519  -6.437  1.00  0.00     0.015 A 
HETATM   22  C10 UNL     1      -6.646 -13.806  -5.456  1.00  0.00     0.047 A 
HETATM   23  C11 UNL     1      -6.202 -14.275  -4.246  1.00  0.00     0.046 A 
HETATM   24 BR1  UNL     1      -6.727 -13.704  -2.505  1.00  0.00    -0.048 Br
HETATM   25  C12 UNL     1      -5.281 -15.260  -4.507  1.00  0.00     0.097 A 
HETATM   26 BR2  UNL     1      -4.291 -16.313  -3.268  1.00  0.00    -0.030 Br
HETATM   27  N5  UNL     1      -5.149 -15.408  -5.855  1.00  0.00    -0.352 N 
ATOM     28  H5  UNL     1      -4.536 -16.067  -6.335  1.00  0.00     0.166 HD
ENDBRANCH  20  21
ENDBRANCH   5  20
TORSDOF 6
ENDMDL
MODEL 3
REMARK VINA RESULT: -8.235477047      3.299      4.823
REMARK  6 active torsions:
REMARK  status: ('A' for Active; 'I' for Inactive)
REMARK    1  A    between atoms: O1_1  and  C1_3 
REMARK    2  A    between atoms: C2_8  and  C3_9 
REMARK    3  A    between atoms: N3_10  and  C4_12 
REMARK    4  A    between atoms: C4_12  and  C5_13 
REMARK    5  A    between atoms: C7_17  and  C8_18 
REMARK    6  A    between atoms: C8_18  and  C9_19 
ROOT
HETATM    1  C5  UNL     1      -3.295 -15.430 -11.129  1.00  0.00     0.123 A 
HETATM    2  N4  UNL     1      -4.103 -16.384 -10.636  1.00  0.00    -0.328 N 
ATOM      3  H4  UNL     1      -4.220 -17.378 -10.837  1.00  0.00     0.169 HD
HETATM    4  C6  UNL     1      -4.699 -15.540  -9.779  1.00  0.00     0.104 A 
HETATM    5  C7  UNL     1      -5.642 -15.557  -8.854  1.00  0.00     0.028 C 
HETATM    6  N6  UNL     1      -3.887 -14.564 -10.270  1.00  0.00    -0.328 N 
ATOM      7  H6  UNL     1      -3.770 -13.571 -10.069  1.00  0.00     0.169 HD
ENDROOT
BRANCH   1   8
HETATM    8  C4  UNL     1      -2.346 -15.310 -12.029  1.00  0.00     0.136 C 
BRANCH   8   9
HETATM    9  N3  UNL     1      -0.996 -15.466 -11.617  1.00  0.00    -0.369 N 
HETATM   10  C3  UNL     1      -0.461 -16.656 -11.590  1.00  0.00     0.123 C 
ATOM     11  H3  UNL     1      -0.448 -14.651 -11.342  1.00  0.00     0.164 HD
BRANCH  10  12
HETATM   12  C2  UNL     1       0.923 -16.807 -11.165  1.00  0.00     0.115 A 
HETATM   13  C1  UNL     1       1.843 -16.058 -10.469  1.00  0.00     0.185 A 
HETATM   14  N1  UNL     1       2.742 -17.043 -10.625  1.00  0.00    -0.278 N 
HETATM   15  N2  UNL     1       1.845 -17.778 -11.306  1.00  0.00    -0.293 N 
ATOM     16  H1  UNL     1       3.712 -17.180 -10.342  1.00  0.00     0.189 HD
ATOM     17  H2  UNL     1       1.858 -18.696 -11.749  1.00  0.00     0.187 HD
BRANCH  13  18
HETATM   18  O1  UNL     1       1.840 -14.830  -9.872  1.00  0.00    -0.343 OA
ATOM     19  H1  UNL     1       1.354 -14.422  -9.165  1.00  0.00     0.219 HD
ENDBRANCH  13  18
ENDBRANCH  10  12
ENDBRANCH   8   9
ENDBRANCH   1   8
BRANCH   5  20
HETATM   20  C8  UNL     1      -6.023 -14.345  -8.093  1.00  0.00     0.088 C 
BRANCH  20  21
HETATM   21  C9  UNL     1      -5.868 -14.573  -6.643  1.00  0.00     0.015 A 
HETATM   22  C10 UNL     1      -4.914 -15.360  -6.025  1.00  0.00     0.047 A 
HETATM   23  C11 UNL     1      -5.142 -15.284  -4.674  1.00  0.00     0.046 A 
HETATM   24 BR1  UNL     1      -4.172 -16.141  -3.274  1.00  0.00    -0.048 Br
HETATM   25  C12 UNL     1      -6.224 -14.457  -4.492  1.00  0.00     0.097 A 
HETATM   26 BR2  UNL     1      -7.051 -13.935  -2.859  1.00  0.00    -0.030 Br
HETATM   27  N5  UNL     1      -6.667 -14.022  -5.703  1.00  0.00    -0.352 N 
ATOM     28  H5  UNL     1      -7.456 -13.396  -5.870  1.00  0.00     0.166 HD
ENDBRANCH  20  21
ENDBRANCH   5  20
TORSDOF 6
ENDMDL
MODEL 4
REMARK VINA RESULT: -8.189985595      1.454      1.762
REMARK  6 active torsions:
REMARK  status: ('A' for Active; 'I' for Inactive)
REMARK    1  A    between atoms: O1_1  and  C1_3 
REMARK    2  A    between atoms: C2_8  and  C3_9 
REMARK    3  A    between atoms: N3_10  and  C4_12 
REMARK    4  A    between atoms: C4_12  and  C5_13 
REMARK    5  A    between atoms: C7_17  and  C8_18 
REMARK    6  A    between atoms: C8_18  and  C9_19 
ROOT
HETATM    1  C5  UNL     1      -2.467 -13.760 -11.357  1.00  0.00     0.123 A 
HETATM    2  N4  UNL     1      -2.169 -14.799 -10.558  1.00  0.00    -0.328 N 
ATOM      3  H4  UNL     1      -1.352 -15.403 -10.469  1.00  0.00     0.169 HD
HETATM    4  C6  UNL     1      -3.350 -14.743  -9.922  1.00  0.00     0.104 A 
HETATM    5  C7  UNL     1      -3.993 -15.374  -8.956  1.00  0.00     0.028 C 
HETATM    6  N6  UNL     1      -3.665 -13.691 -10.724  1.00  0.00    -0.328 N 
ATOM      7  H6  UNL     1      -4.481 -13.087 -10.815  1.00  0.00     0.169 HD
ENDROOT
BRANCH   1   8
HETATM    8  C4  UNL     1      -1.912 -13.070 -12.328  1.00  0.00     0.136 C 
BRANCH   8   9
HETATM    9  N3  UNL     1      -2.378 -11.753 -12.576  1.00  0.00    -0.369 N 
HETATM   10  C3  UNL     1      -3.151 -11.523 -13.602  1.00  0.00     0.123 C 
ATOM     11  H3  UNL     1      -2.111 -10.990 -11.955  1.00  0.00     0.164 HD
BRANCH  10  12
HETATM   12  C2  UNL     1      -3.625 -10.168 -13.850  1.00  0.00     0.115 A 
HETATM   13  C1  UNL     1      -3.584  -8.959 -13.196  1.00  0.00     0.185 A 
HETATM   14  N1  UNL     1      -4.262  -8.403 -14.212  1.00  0.00    -0.278 N 
HETATM   15  N2  UNL     1      -4.304  -9.583 -14.854  1.00  0.00    -0.293 N 
ATOM     16  H1  UNL     1      -4.606  -7.465 -14.415  1.00  0.00     0.189 HD
ATOM     17  H2  UNL     1      -4.692  -9.904 -15.740  1.00  0.00     0.187 HD
BRANCH  13  18
HETATM   18  O1  UNL     1      -3.069  -8.515 -12.011  1.00  0.00    -0.343 OA
ATOM     19  H1  UNL     1      -2.320  -8.742 -11.471  1.00  0.00     0.219 HD
ENDBRANCH  13  18
ENDBRANCH  10  12
ENDBRANCH   8   9
ENDBRANCH   1   8
BRANCH   5  20
HETATM   20  C8  UNL     1      -5.357 -14.983  -8.530  1.00  0.00     0.088 C 
BRANCH  20  21
HETATM   21  C9  UNL     1      -5.457 -14.969  -7.057  1.00  0.00     0.015 A 
HETATM   22  C10 UNL     1      -6.498 -14.462  -6.302  1.00  0.00     0.047 A 
HETATM   23  C11 UNL     1      -6.172 -14.660  -4.983  1.00  0.00     0.046 A 
HETATM   24 BR1  UNL     1      -7.190 -14.185  -3.443  1.00  0.00    -0.048 Br
HETATM   25  C12 UNL     1      -4.946 -15.279  -4.957  1.00  0.00     0.097 A 
HETATM   26 BR2  UNL     1      -3.932 -15.829  -3.443  1.00  0.00    -0.030 Br
HETATM   27  N5  UNL     1      -4.510 -15.468  -6.233  1.00  0.00    -0.352 N 
ATOM     28  H5  UNL     1      -3.632 -15.905  -6.514  1.00  0.00     0.166 HD
ENDBRANCH  20  21
ENDBRANCH   5  20
TORSDOF 6
ENDMDL
MODEL 5
REMARK VINA RESULT: -7.936464112      2.474      3.176
REMARK  6 active torsions:
REMARK  status: ('A' for Active; 'I' for Inactive)
REMARK    1  A    between atoms: O1_1  and  C1_3 
REMARK    2  A    between atoms: C2_8  and  C3_9 
REMARK    3  A    between atoms: N3_10  and  C4_12 
REMARK    4  A    between atoms: C4_12  and  C5_13 
REMARK    5  A    between atoms: C7_17  and  C8_18 
REMARK    6  A    between atoms: C8_18  and  C9_19 
ROOT
HETATM    1  C5  UNL     1      -3.292 -15.102 -10.551  1.00  0.00     0.123 A 
HETATM    2  N4  UNL     1      -2.706 -15.431  -9.387  1.00  0.00    -0.328 N 
ATOM      3  H4  UNL     1      -1.770 -15.751  -9.139  1.00  0.00     0.169 HD
HETATM    4  C6  UNL     1      -3.815 -15.178  -8.673  1.00  0.00     0.104 A 
HETATM    5  C7  UNL     1      -4.221 -15.211  -7.417  1.00  0.00     0.028 C 
HETATM    6  N6  UNL     1      -4.421 -14.843  -9.844  1.00  0.00    -0.328 N 
ATOM      7  H6  UNL     1      -5.356 -14.523 -10.093  1.00  0.00     0.169 HD
ENDROOT
BRANCH   1   8
HETATM    8  C4  UNL     1      -2.985 -15.038 -11.827  1.00  0.00     0.136 C 
BRANCH   8   9
HETATM    9  N3  UNL     1      -4.027 -15.165 -12.782  1.00  0.00    -0.369 N 
HETATM   10  C3  UNL     1      -4.466 -16.351 -13.108  1.00  0.00     0.123 C 
ATOM     11  H3  UNL     1      -4.431 -14.334 -13.213  1.00  0.00     0.164 HD
BRANCH  10  12
HETATM   12  C2  UNL     1      -5.534 -16.472 -14.089  1.00  0.00     0.115 A 
HETATM   13  C1  UNL     1      -6.191 -15.636 -14.961  1.00  0.00     0.185 A 
HETATM   14  N1  UNL     1      -6.940 -16.673 -15.369  1.00  0.00    -0.278 N 
HETATM   15  N2  UNL     1      -6.300 -17.493 -14.518  1.00  0.00    -0.293 N 
ATOM     16  H1  UNL     1      -7.690 -16.791 -16.049  1.00  0.00     0.189 HD
ATOM     17  H2  UNL     1      -6.367 -18.484 -14.290  1.00  0.00     0.187 HD
BRANCH  13  18
HETATM   18  O1  UNL     1      -6.113 -14.309 -15.276  1.00  0.00    -0.343 OA
ATOM     19  H1  UNL     1      -6.140 -13.494 -14.787  1.00  0.00     0.219 HD
ENDBRANCH  13  18
ENDBRANCH  10  12
ENDBRANCH   8   9
ENDBRANCH   1   8
BRANCH   5  20
HETATM   20  C8  UNL     1      -5.600 -14.835  -7.023  1.00  0.00     0.088 C 
BRANCH  20  21
HETATM   21  C9  UNL     1      -5.737 -14.833  -5.554  1.00  0.00     0.015 A 
HETATM   22  C10 UNL     1      -6.140 -13.774  -4.761  1.00  0.00     0.047 A 
HETATM   23  C11 UNL     1      -6.125 -14.214  -3.462  1.00  0.00     0.046 A 
HETATM   24 BR1  UNL     1      -6.576 -13.236  -1.889  1.00  0.00    -0.048 Br
HETATM   25  C12 UNL     1      -5.714 -15.525  -3.484  1.00  0.00     0.097 A 
HETATM   26 BR2  UNL     1      -5.481 -16.715  -2.016  1.00  0.00    -0.030 Br
HETATM   27  N5  UNL     1      -5.477 -15.902  -4.770  1.00  0.00    -0.352 N 
ATOM     28  H5  UNL     1      -5.163 -16.820  -5.084  1.00  0.00     0.166 HD
ENDBRANCH  20  21
ENDBRANCH   5  20
TORSDOF 6
ENDMDL
