MODEL 1
REMARK VINA RESULT: -7.984522181      0.000      0.000
REMARK  4 active torsions:
REMARK  status: ('A' for Active; 'I' for Inactive)
REMARK    1  A    between atoms: C2_2  and  C3_4 
REMARK    2  A    between atoms: C3_4  and  O3_6 
REMARK    3  A    between atoms: O3_6  and  C4_7 
REMARK    4  A    between atoms: C14_19  and  O6_20 
ROOT
HETATM    1  C4  UNL     1      18.106  14.299   3.681  1.00  0.00     0.139 C 
HETATM    2  C5  UNL     1      18.492  15.663   3.379  1.00  0.00     0.040 C 
HETATM    3  C6  UNL     1      19.858  16.107   3.273  1.00  0.00     0.020 C 
HETATM    4  C7  UNL     1      20.313  16.604   4.671  1.00  0.00     0.010 C 
HETATM    5  C8  UNL     1      21.190  15.455   5.206  1.00  0.00     0.044 C 
HETATM    6  C9  UNL     1      21.193  14.423   4.160  1.00  0.00     0.117 C 
HETATM    7  O4  UNL     1      22.466  13.952   3.779  1.00  0.00    -0.340 OA
HETATM    8  C10 UNL     1      22.551  14.068   2.392  1.00  0.00     0.158 C 
HETATM    9  C11 UNL     1      23.002  12.829   1.693  1.00  0.00     0.078 C 
HETATM   10  C12 UNL     1      23.619  15.129   2.081  1.00  0.00     0.078 C 
HETATM   11  O5  UNL     1      21.274  14.523   1.957  1.00  0.00    -0.347 OA
HETATM   12  C13 UNL     1      20.997  15.346   2.943  1.00  0.00     0.166 C 
HETATM   13  C14 UNL     1      20.300  13.299   4.247  1.00  0.00     0.161 C 
HETATM   14  C15 UNL     1      18.877  13.490   4.646  1.00  0.00     0.043 C 
HETATM   15  C16 UNL     1      18.625  13.749   6.095  1.00  0.00     0.015 C 
ENDROOT
BRANCH   1  16
HETATM   16  O3  UNL     1      16.748  14.300   4.156  1.00  0.00    -0.309 OA
BRANCH  16  17
HETATM   17  C3  UNL     1      15.795  13.407   3.751  1.00  0.00     0.329 C 
HETATM   18  O2  UNL     1      14.673  13.897   3.383  1.00  0.00    -0.256 OA
BRANCH  17  19
HETATM   19  C2  UNL     1      16.014  11.978   3.729  1.00  0.00     0.220 C 
HETATM   20  C1  UNL     1      16.576  11.340   2.525  1.00  0.00     0.103 C 
HETATM   21  O1  UNL     1      15.728  11.283   4.722  1.00  0.00    -0.287 OA
ENDBRANCH  17  19
ENDBRANCH  16  17
ENDBRANCH   1  16
BRANCH  13  22
HETATM   22  O6  UNL     1      20.217  12.656   2.985  1.00  0.00    -0.392 OA
ATOM     23  H6  UNL     1      19.310  12.617   2.704  1.00  0.00     0.210 HD
ENDBRANCH  13  22
TORSDOF 4
ENDMDL
MODEL 2
REMARK VINA RESULT: -7.644867927      0.939      1.219
REMARK  4 active torsions:
REMARK  status: ('A' for Active; 'I' for Inactive)
REMARK    1  A    between atoms: C2_2  and  C3_4 
REMARK    2  A    between atoms: C3_4  and  O3_6 
REMARK    3  A    between atoms: O3_6  and  C4_7 
REMARK    4  A    between atoms: C14_19  and  O6_20 
ROOT
HETATM    1  C4  UNL     1      18.674  13.902   3.292  1.00  0.00     0.139 C 
HETATM    2  C5  UNL     1      18.849  15.277   2.869  1.00  0.00     0.040 C 
HETATM    3  C6  UNL     1      20.108  15.977   2.909  1.00  0.00     0.020 C 
HETATM    4  C7  UNL     1      20.216  16.697   4.280  1.00  0.00     0.010 C 
HETATM    5  C8  UNL     1      21.184  15.810   5.090  1.00  0.00     0.044 C 
HETATM    6  C9  UNL     1      21.556  14.699   4.204  1.00  0.00     0.117 C 
HETATM    7  O4  UNL     1      22.940  14.459   4.084  1.00  0.00    -0.340 OA
HETATM    8  C10 UNL     1      23.240  14.446   2.721  1.00  0.00     0.158 C 
HETATM    9  C11 UNL     1      24.024  13.259   2.271  1.00  0.00     0.078 C 
HETATM   10  C12 UNL     1      24.132  15.664   2.434  1.00  0.00     0.078 C 
HETATM   11  O5  UNL     1      21.995  14.585   2.045  1.00  0.00    -0.347 OA
HETATM   12  C13 UNL     1      21.407  15.432   2.858  1.00  0.00     0.166 C 
HETATM   13  C14 UNL     1      20.882  13.432   4.307  1.00  0.00     0.161 C 
HETATM   14  C15 UNL     1      19.402  13.370   4.460  1.00  0.00     0.043 C 
HETATM   15  C16 UNL     1      18.861  13.720   5.808  1.00  0.00     0.015 C 
ENDROOT
BRANCH   1  16
HETATM   16  O3  UNL     1      17.277  13.677   3.554  1.00  0.00    -0.309 OA
BRANCH  16  17
HETATM   17  C3  UNL     1      16.677  12.450   3.500  1.00  0.00     0.329 C 
HETATM   18  O2  UNL     1      15.861  12.171   4.444  1.00  0.00    -0.256 OA
BRANCH  17  19
HETATM   19  C2  UNL     1      16.929  11.495   2.444  1.00  0.00     0.220 C 
HETATM   20  C1  UNL     1      15.800  10.864   1.739  1.00  0.00     0.103 C 
HETATM   21  O1  UNL     1      18.098  11.204   2.127  1.00  0.00    -0.287 OA
ENDBRANCH  17  19
ENDBRANCH  16  17
ENDBRANCH   1  16
BRANCH  13  22
HETATM   22  O6  UNL     1      21.137  12.659   3.145  1.00  0.00    -0.392 OA
ATOM     23  H6  UNL     1      21.160  13.226   2.382  1.00  0.00     0.210 HD
ENDBRANCH  13  22
TORSDOF 4
ENDMDL
MODEL 3
REMARK VINA RESULT: -7.514334162      1.272      1.930
REMARK  4 active torsions:
REMARK  status: ('A' for Active; 'I' for Inactive)
REMARK    1  A    between atoms: C2_2  and  C3_4 
REMARK    2  A    between atoms: C3_4  and  O3_6 
REMARK    3  A    between atoms: O3_6  and  C4_7 
REMARK    4  A    between atoms: C14_19  and  O6_20 
ROOT
HETATM    1  C4  UNL     1      17.938  13.982   3.710  1.00  0.00     0.139 C 
HETATM    2  C5  UNL     1      18.195  15.388   3.468  1.00  0.00     0.040 C 
HETATM    3  C6  UNL     1      19.514  15.962   3.392  1.00  0.00     0.020 C 
HETATM    4  C7  UNL     1      19.914  16.440   4.814  1.00  0.00     0.010 C 
HETATM    5  C8  UNL     1      20.893  15.355   5.308  1.00  0.00     0.044 C 
HETATM    6  C9  UNL     1      20.997  14.374   4.220  1.00  0.00     0.117 C 
HETATM    7  O4  UNL     1      22.310  14.040   3.830  1.00  0.00    -0.340 OA
HETATM    8  C10 UNL     1      22.390  14.222   2.449  1.00  0.00     0.158 C 
HETATM    9  C11 UNL     1      22.958  13.062   1.703  1.00  0.00     0.078 C 
HETATM   10  C12 UNL     1      23.355  15.391   2.193  1.00  0.00     0.078 C 
HETATM   11  O5  UNL     1      21.078  14.574   2.024  1.00  0.00    -0.347 OA
HETATM   12  C13 UNL     1      20.721  15.325   3.040  1.00  0.00     0.166 C 
HETATM   13  C14 UNL     1      20.212  13.169   4.251  1.00  0.00     0.161 C 
HETATM   14  C15 UNL     1      18.776  13.208   4.646  1.00  0.00     0.043 C 
HETATM   15  C16 UNL     1      18.495  13.381   6.103  1.00  0.00     0.015 C 
ENDROOT
BRANCH   1  16
HETATM   16  O3  UNL     1      16.583  13.836   4.173  1.00  0.00    -0.309 OA
BRANCH  16  17
HETATM   17  C3  UNL     1      15.690  14.867   4.263  1.00  0.00     0.329 C 
HETATM   18  O2  UNL     1      15.112  15.219   3.179  1.00  0.00    -0.256 OA
BRANCH  17  19
HETATM   19  C2  UNL     1      15.392  15.545   5.506  1.00  0.00     0.220 C 
HETATM   20  C1  UNL     1      16.401  16.424   6.122  1.00  0.00     0.103 C 
HETATM   21  O1  UNL     1      14.287  15.388   6.057  1.00  0.00    -0.287 OA
ENDBRANCH  17  19
ENDBRANCH  16  17
ENDBRANCH   1  16
BRANCH  13  22
HETATM   22  O6  UNL     1      20.196  12.575   2.963  1.00  0.00    -0.392 OA
ATOM     23  H6  UNL     1      21.038  12.174   2.784  1.00  0.00     0.210 HD
ENDBRANCH  13  22
TORSDOF 4
ENDMDL
MODEL 4
REMARK VINA RESULT: -7.188562744      1.548      5.581
REMARK  4 active torsions:
REMARK  status: ('A' for Active; 'I' for Inactive)
REMARK    1  A    between atoms: C2_2  and  C3_4 
REMARK    2  A    between atoms: C3_4  and  O3_6 
REMARK    3  A    between atoms: O3_6  and  C4_7 
REMARK    4  A    between atoms: C14_19  and  O6_20 
ROOT
HETATM    1  C4  UNL     1      20.978  14.792   4.042  1.00  0.00     0.139 C 
HETATM    2  C5  UNL     1      20.348  14.467   5.306  1.00  0.00     0.040 C 
HETATM    3  C6  UNL     1      19.026  13.908   5.426  1.00  0.00     0.020 C 
HETATM    4  C7  UNL     1      18.018  15.080   5.565  1.00  0.00     0.010 C 
HETATM    5  C8  UNL     1      17.371  15.180   4.168  1.00  0.00     0.044 C 
HETATM    6  C9  UNL     1      18.000  14.134   3.352  1.00  0.00     0.117 C 
HETATM    7  O4  UNL     1      17.109  13.287   2.662  1.00  0.00    -0.340 OA
HETATM    8  C10 UNL     1      17.456  11.974   2.980  1.00  0.00     0.158 C 
HETATM    9  C11 UNL     1      17.624  11.074   1.802  1.00  0.00     0.078 C 
HETATM   10  C12 UNL     1      16.297  11.375   3.795  1.00  0.00     0.078 C 
HETATM   11  O5  UNL     1      18.623  12.062   3.790  1.00  0.00    -0.347 OA
HETATM   12  C13 UNL     1      18.320  13.137   4.481  1.00  0.00     0.166 C 
HETATM   13  C14 UNL     1      19.092  14.457   2.473  1.00  0.00     0.161 C 
HETATM   14  C15 UNL     1      20.192  15.354   2.926  1.00  0.00     0.043 C 
HETATM   15  C16 UNL     1      19.871  16.811   2.996  1.00  0.00     0.015 C 
ENDROOT
BRANCH   1  16
HETATM   16  O3  UNL     1      22.047  15.723   4.287  1.00  0.00    -0.309 OA
BRANCH  16  17
HETATM   17  C3  UNL     1      23.273  15.655   3.686  1.00  0.00     0.329 C 
HETATM   18  O2  UNL     1      23.967  16.729   3.681  1.00  0.00    -0.256 OA
BRANCH  17  19
HETATM   19  C2  UNL     1      23.787  14.447   3.078  1.00  0.00     0.220 C 
HETATM   20  C1  UNL     1      23.756  14.292   1.614  1.00  0.00     0.103 C 
HETATM   21  O1  UNL     1      24.255  13.538   3.788  1.00  0.00    -0.287 OA
ENDBRANCH  17  19
ENDBRANCH  16  17
ENDBRANCH   1  16
BRANCH  13  22
HETATM   22  O6  UNL     1      19.761  13.267   2.084  1.00  0.00    -0.392 OA
ATOM     23  H6  UNL     1      19.870  13.255   1.140  1.00  0.00     0.210 HD
ENDBRANCH  13  22
TORSDOF 4
ENDMDL
MODEL 5
REMARK VINA RESULT: -7.170935500      6.263     10.517
REMARK  4 active torsions:
REMARK  status: ('A' for Active; 'I' for Inactive)
REMARK    1  A    between atoms: C2_2  and  C3_4 
REMARK    2  A    between atoms: C3_4  and  O3_6 
REMARK    3  A    between atoms: O3_6  and  C4_7 
REMARK    4  A    between atoms: C14_19  and  O6_20 
ROOT
HETATM    1  C4  UNL     1      14.267   8.511   0.207  1.00  0.00     0.139 C 
HETATM    2  C5  UNL     1      15.358   7.568   0.349  1.00  0.00     0.040 C 
HETATM    3  C6  UNL     1      15.177   6.148   0.519  1.00  0.00     0.020 C 
HETATM    4  C7  UNL     1      15.115   5.850   2.041  1.00  0.00     0.010 C 
HETATM    5  C8  UNL     1      13.613   5.629   2.314  1.00  0.00     0.044 C 
HETATM    6  C9  UNL     1      12.934   5.804   1.024  1.00  0.00     0.117 C 
HETATM    7  O4  UNL     1      12.051   4.766   0.660  1.00  0.00    -0.340 OA
HETATM    8  C10 UNL     1      12.413   4.346  -0.620  1.00  0.00     0.158 C 
HETATM    9  C11 UNL     1      11.283   4.275  -1.592  1.00  0.00     0.078 C 
HETATM   10  C12 UNL     1      12.945   2.908  -0.499  1.00  0.00     0.078 C 
HETATM   11  O5  UNL     1      13.458   5.216  -1.038  1.00  0.00    -0.347 OA
HETATM   12  C13 UNL     1      14.087   5.356   0.107  1.00  0.00     0.166 C 
HETATM   13  C14 UNL     1      12.319   7.061   0.691  1.00  0.00     0.161 C 
HETATM   14  C15 UNL     1      13.017   8.346   0.975  1.00  0.00     0.043 C 
HETATM   15  C16 UNL     1      13.043   8.783   2.403  1.00  0.00     0.015 C 
ENDROOT
BRANCH   1  16
HETATM   16  O3  UNL     1      14.755   9.829   0.516  1.00  0.00    -0.309 OA
BRANCH  16  17
HETATM   17  C3  UNL     1      16.080  10.160   0.570  1.00  0.00     0.329 C 
HETATM   18  O2  UNL     1      16.757   9.982  -0.499  1.00  0.00    -0.256 OA
BRANCH  17  19
HETATM   19  C2  UNL     1      16.713  10.688   1.759  1.00  0.00     0.220 C 
HETATM   20  C1  UNL     1      15.914  10.912   2.977  1.00  0.00     0.103 C 
HETATM   21  O1  UNL     1      17.929  10.953   1.758  1.00  0.00    -0.287 OA
ENDBRANCH  17  19
ENDBRANCH  16  17
ENDBRANCH   1  16
BRANCH  13  22
HETATM   22  O6  UNL     1      12.063   7.113  -0.704  1.00  0.00    -0.392 OA
ATOM     23  H6  UNL     1      12.627   6.497  -1.156  1.00  0.00     0.210 HD
ENDBRANCH  13  22
TORSDOF 4
ENDMDL
