MODEL 1
REMARK VINA RESULT: -7.957157498      0.000      0.000
REMARK  3 active torsions:
REMARK  status: ('A' for Active; 'I' for Inactive)
REMARK    1  A    between atoms: O1_2  and  C2_3 
REMARK    2  A    between atoms: C4_5  and  O2_6 
REMARK    3  A    between atoms: C16_21  and  O6_22 
ROOT
HETATM    1  C2  UNL     1      15.266   3.049  -0.124  1.00  0.00     0.071 A 
HETATM    2  C3  UNL     1      16.216   3.721   0.611  1.00  0.00     0.074 A 
HETATM    3  C4  UNL     1      16.005   5.002   1.064  1.00  0.00     0.084 A 
HETATM    4  C6  UNL     1      14.779   5.603   0.747  1.00  0.00     0.046 A 
HETATM    5  C7  UNL     1      13.833   4.929   0.013  1.00  0.00     0.037 A 
HETATM    6  C8  UNL     1      14.058   3.644  -0.435  1.00  0.00     0.053 A 
HETATM    7  C9  UNL     1      12.567   5.588  -0.297  1.00  0.00     0.233 A 
HETATM    8  O3  UNL     1      11.689   5.006  -0.959  1.00  0.00    -0.283 OA
HETATM    9  C10 UNL     1      12.358   6.944   0.191  1.00  0.00     0.234 A 
HETATM   10  O4  UNL     1      11.295   7.557  -0.043  1.00  0.00    -0.283 OA
HETATM   11  C11 UNL     1      13.385   7.622   0.964  1.00  0.00     0.062 A 
HETATM   12  C12 UNL     1      14.508   6.973   1.210  1.00  0.00     0.097 A 
HETATM   13  O5  UNL     1      15.362   7.799   1.967  1.00  0.00    -0.336 OA
HETATM   14  C13 UNL     1      14.974   9.128   1.666  1.00  0.00     0.091 C 
HETATM   15  C14 UNL     1      15.401  10.117   2.708  1.00  0.00     0.049 C 
HETATM   16  C15 UNL     1      15.442   9.523   0.276  1.00  0.00     0.049 C 
HETATM   17  C16 UNL     1      13.469   8.978   1.591  1.00  0.00     0.192 C 
ENDROOT
BRANCH   1  18
HETATM   18  O1  UNL     1      15.511   1.768  -0.561  1.00  0.00    -0.356 OA
HETATM   19  C1  UNL     1      14.427   0.900  -0.827  1.00  0.00     0.210 C 
ENDBRANCH   1  18
BRANCH   3  20
HETATM   20  O2  UNL     1      16.961   5.683   1.805  1.00  0.00    -0.355 OA
HETATM   21  C5  UNL     1      18.303   5.246   1.722  1.00  0.00     0.210 C 
ENDBRANCH   3  20
BRANCH  17  22
HETATM   22  O6  UNL     1      12.875   8.892   2.836  1.00  0.00    -0.388 OA
ATOM     23  H6  UNL     1      13.417   8.323   3.369  1.00  0.00     0.210 HD
ENDBRANCH  17  22
TORSDOF 3
ENDMDL
MODEL 2
REMARK VINA RESULT: -7.757859666      2.137      4.945
REMARK  3 active torsions:
REMARK  status: ('A' for Active; 'I' for Inactive)
REMARK    1  A    between atoms: O1_2  and  C2_3 
REMARK    2  A    between atoms: C4_5  and  O2_6 
REMARK    3  A    between atoms: C16_21  and  O6_22 
ROOT
HETATM    1  C2  UNL     1      12.197   1.742  -2.177  1.00  0.00     0.071 A 
HETATM    2  C3  UNL     1      11.860   3.050  -1.910  1.00  0.00     0.074 A 
HETATM    3  C4  UNL     1      12.639   3.847  -1.107  1.00  0.00     0.084 A 
HETATM    4  C6  UNL     1      13.799   3.277  -0.564  1.00  0.00     0.046 A 
HETATM    5  C7  UNL     1      14.133   1.972  -0.832  1.00  0.00     0.037 A 
HETATM    6  C8  UNL     1      13.341   1.182  -1.640  1.00  0.00     0.053 A 
HETATM    7  C9  UNL     1      15.350   1.412  -0.249  1.00  0.00     0.233 A 
HETATM    8  O3  UNL     1      15.682   0.234  -0.472  1.00  0.00    -0.283 OA
HETATM    9  C10 UNL     1      16.166   2.270   0.598  1.00  0.00     0.234 A 
HETATM   10  O4  UNL     1      17.217   1.846   1.124  1.00  0.00    -0.283 OA
HETATM   11  C11 UNL     1      15.776   3.646   0.857  1.00  0.00     0.062 A 
HETATM   12  C12 UNL     1      14.665   4.092   0.302  1.00  0.00     0.097 A 
HETATM   13  O5  UNL     1      14.470   5.437   0.675  1.00  0.00    -0.336 OA
HETATM   14  C13 UNL     1      15.154   5.595   1.906  1.00  0.00     0.091 C 
HETATM   15  C14 UNL     1      15.487   7.022   2.216  1.00  0.00     0.049 C 
HETATM   16  C15 UNL     1      14.387   4.928   3.036  1.00  0.00     0.049 C 
HETATM   17  C16 UNL     1      16.387   4.750   1.661  1.00  0.00     0.192 C 
ENDROOT
BRANCH   1  18
HETATM   18  O1  UNL     1      11.393   0.973  -2.985  1.00  0.00    -0.356 OA
HETATM   19  C1  UNL     1      10.220   1.532  -3.540  1.00  0.00     0.210 C 
ENDBRANCH   1  18
BRANCH   3  20
HETATM   20  O2  UNL     1      12.301   5.166  -0.836  1.00  0.00    -0.355 OA
HETATM   21  C5  UNL     1      11.226   5.409   0.049  1.00  0.00     0.210 C 
ENDBRANCH   3  20
BRANCH  17  22
HETATM   22  O6  UNL     1      17.316   5.379   0.855  1.00  0.00    -0.388 OA
ATOM     23  H6  UNL     1      16.926   5.474  -0.006  1.00  0.00     0.210 HD
ENDBRANCH  17  22
TORSDOF 3
ENDMDL
MODEL 3
REMARK VINA RESULT: -7.205902278      1.607      2.842
REMARK  3 active torsions:
REMARK  status: ('A' for Active; 'I' for Inactive)
REMARK    1  A    between atoms: O1_2  and  C2_3 
REMARK    2  A    between atoms: C4_5  and  O2_6 
REMARK    3  A    between atoms: C16_21  and  O6_22 
ROOT
HETATM    1  C2  UNL     1      16.298   4.411   0.921  1.00  0.00     0.071 A 
HETATM    2  C3  UNL     1      16.234   5.608   1.596  1.00  0.00     0.074 A 
HETATM    3  C4  UNL     1      15.101   6.385   1.583  1.00  0.00     0.084 A 
HETATM    4  C6  UNL     1      14.004   5.912   0.851  1.00  0.00     0.046 A 
HETATM    5  C7  UNL     1      14.071   4.715   0.177  1.00  0.00     0.037 A 
HETATM    6  C8  UNL     1      15.215   3.945   0.199  1.00  0.00     0.053 A 
HETATM    7  C9  UNL     1      12.907   4.253  -0.575  1.00  0.00     0.233 A 
HETATM    8  O3  UNL     1      12.934   3.175  -1.195  1.00  0.00    -0.283 OA
HETATM    9  C10 UNL     1      11.713   5.087  -0.578  1.00  0.00     0.234 A 
HETATM   10  O4  UNL     1      10.687   4.743  -1.204  1.00  0.00    -0.283 OA
HETATM   11  C11 UNL     1      11.684   6.346   0.147  1.00  0.00     0.062 A 
HETATM   12  C12 UNL     1      12.768   6.708   0.807  1.00  0.00     0.097 A 
HETATM   13  O5  UNL     1      12.533   7.947   1.436  1.00  0.00    -0.336 OA
HETATM   14  C13 UNL     1      11.522   8.578   0.671  1.00  0.00     0.091 C 
HETATM   15  C14 UNL     1      10.792   9.647   1.426  1.00  0.00     0.049 C 
HETATM   16  C15 UNL     1      12.084   9.090  -0.645  1.00  0.00     0.049 C 
HETATM   17  C16 UNL     1      10.636   7.398   0.333  1.00  0.00     0.192 C 
ENDROOT
BRANCH   1  18
HETATM   18  O1  UNL     1      17.449   3.659   0.956  1.00  0.00    -0.356 OA
HETATM   19  C1  UNL     1      17.362   2.248   0.999  1.00  0.00     0.210 C 
ENDBRANCH   1  18
BRANCH   3  20
HETATM   20  O2  UNL     1      15.033   7.593   2.263  1.00  0.00    -0.355 OA
HETATM   21  C5  UNL     1      15.649   8.722   1.676  1.00  0.00     0.210 C 
ENDBRANCH   3  20
BRANCH  17  22
HETATM   22  O6  UNL     1       9.842   7.003   1.393  1.00  0.00    -0.388 OA
ATOM     23  H6  UNL     1       9.573   7.789   1.853  1.00  0.00     0.210 HD
ENDBRANCH  17  22
TORSDOF 3
ENDMDL
MODEL 4
REMARK VINA RESULT: -7.140785185      1.786      2.563
REMARK  3 active torsions:
REMARK  status: ('A' for Active; 'I' for Inactive)
REMARK    1  A    between atoms: O1_2  and  C2_3 
REMARK    2  A    between atoms: C4_5  and  O2_6 
REMARK    3  A    between atoms: C16_21  and  O6_22 
ROOT
HETATM    1  C2  UNL     1      15.850   2.830   0.317  1.00  0.00     0.071 A 
HETATM    2  C3  UNL     1      16.030   3.886   1.182  1.00  0.00     0.074 A 
HETATM    3  C4  UNL     1      15.093   4.884   1.307  1.00  0.00     0.084 A 
HETATM    4  C6  UNL     1      13.940   4.788   0.517  1.00  0.00     0.046 A 
HETATM    5  C7  UNL     1      13.763   3.732  -0.345  1.00  0.00     0.037 A 
HETATM    6  C8  UNL     1      14.712   2.737  -0.461  1.00  0.00     0.053 A 
HETATM    7  C9  UNL     1      12.547   3.665  -1.152  1.00  0.00     0.233 A 
HETATM    8  O3  UNL     1      12.356   2.723  -1.942  1.00  0.00    -0.283 OA
HETATM    9  C10 UNL     1      11.564   4.729  -1.007  1.00  0.00     0.234 A 
HETATM   10  O4  UNL     1      10.506   4.725  -1.672  1.00  0.00    -0.283 OA
HETATM   11  C11 UNL     1      11.791   5.829  -0.084  1.00  0.00     0.062 A 
HETATM   12  C12 UNL     1      12.909   5.833   0.616  1.00  0.00     0.097 A 
HETATM   13  O5  UNL     1      12.932   6.973   1.443  1.00  0.00    -0.336 OA
HETATM   14  C13 UNL     1      12.104   7.927   0.802  1.00  0.00     0.091 C 
HETATM   15  C14 UNL     1      11.604   8.992   1.730  1.00  0.00     0.049 C 
HETATM   16  C15 UNL     1      12.800   8.510  -0.416  1.00  0.00     0.049 C 
HETATM   17  C16 UNL     1      10.992   7.040   0.283  1.00  0.00     0.192 C 
ENDROOT
BRANCH   1  18
HETATM   18  O1  UNL     1      16.808   1.848   0.218  1.00  0.00    -0.356 OA
HETATM   19  C1  UNL     1      17.702   1.632   1.291  1.00  0.00     0.210 C 
ENDBRANCH   1  18
BRANCH   3  20
HETATM   20  O2  UNL     1      15.272   5.950   2.177  1.00  0.00    -0.355 OA
HETATM   21  C5  UNL     1      16.127   7.001   1.775  1.00  0.00     0.210 C 
ENDBRANCH   3  20
BRANCH  17  22
HETATM   22  O6  UNL     1      10.102   6.662   1.270  1.00  0.00    -0.388 OA
ATOM     23  H6  UNL     1       9.306   6.376   0.839  1.00  0.00     0.210 HD
ENDBRANCH  17  22
TORSDOF 3
ENDMDL
MODEL 5
REMARK VINA RESULT: -7.040598790      1.604      2.413
REMARK  3 active torsions:
REMARK  status: ('A' for Active; 'I' for Inactive)
REMARK    1  A    between atoms: O1_2  and  C2_3 
REMARK    2  A    between atoms: C4_5  and  O2_6 
REMARK    3  A    between atoms: C16_21  and  O6_22 
ROOT
HETATM    1  C2  UNL     1      12.357   4.610   0.025  1.00  0.00     0.071 A 
HETATM    2  C3  UNL     1      13.578   4.714   0.651  1.00  0.00     0.074 A 
HETATM    3  C4  UNL     1      14.023   5.905   1.172  1.00  0.00     0.084 A 
HETATM    4  C6  UNL     1      13.182   7.019   1.043  1.00  0.00     0.046 A 
HETATM    5  C7  UNL     1      11.963   6.912   0.419  1.00  0.00     0.037 A 
HETATM    6  C8  UNL     1      11.529   5.709  -0.101  1.00  0.00     0.053 A 
HETATM    7  C9  UNL     1      11.112   8.094   0.304  1.00  0.00     0.233 A 
HETATM    8  O3  UNL     1      10.003   8.031  -0.255  1.00  0.00    -0.283 OA
HETATM    9  C10 UNL     1      11.597   9.348   0.863  1.00  0.00     0.234 A 
HETATM   10  O4  UNL     1      10.913  10.392   0.794  1.00  0.00    -0.283 OA
HETATM   11  C11 UNL     1      12.894   9.419   1.515  1.00  0.00     0.062 A 
HETATM   12  C12 UNL     1      13.615   8.316   1.587  1.00  0.00     0.097 A 
HETATM   13  O5  UNL     1      14.825   8.597   2.252  1.00  0.00    -0.336 OA
HETATM   14  C13 UNL     1      15.057   9.981   2.052  1.00  0.00     0.091 C 
HETATM   15  C14 UNL     1      15.993  10.572   3.062  1.00  0.00     0.049 C 
HETATM   16  C15 UNL     1      15.509  10.250   0.627  1.00  0.00     0.049 C 
HETATM   17  C16 UNL     1      13.651  10.529   2.173  1.00  0.00     0.192 C 
ENDROOT
BRANCH   1  18
HETATM   18  O1  UNL     1      11.944   3.402  -0.485  1.00  0.00    -0.356 OA
HETATM   19  C1  UNL     1      12.806   2.668  -1.331  1.00  0.00     0.210 C 
ENDBRANCH   1  18
BRANCH   3  20
HETATM   20  O2  UNL     1      15.254   6.014   1.803  1.00  0.00    -0.355 OA
HETATM   21  C5  UNL     1      16.317   5.210   1.331  1.00  0.00     0.210 C 
ENDBRANCH   3  20
BRANCH  17  22
HETATM   22  O6  UNL     1      13.215  10.605   3.482  1.00  0.00    -0.388 OA
ATOM     23  H6  UNL     1      13.861  11.105   3.967  1.00  0.00     0.210 HD
ENDBRANCH  17  22
TORSDOF 3
ENDMDL
