MODEL 1
REMARK VINA RESULT: -7.375153966      0.000      0.000
REMARK  3 active torsions:
REMARK  status: ('A' for Active; 'I' for Inactive)
REMARK    1  A    between atoms: C2_2  and  O1_3 
REMARK    2  A    between atoms: C2_2  and  C3_5 
REMARK    3  A    between atoms: C3_5  and  C5_7 
ROOT
HETATM    1  C5  UNL     1      20.946  15.097   4.009  1.00  0.00     0.030 C 
HETATM    2  C6  UNL     1      20.811  15.073   2.484  1.00  0.00     0.125 C 
HETATM    3  C7  UNL     1      20.447  13.759   1.911  1.00  0.00     0.040 C 
HETATM    4  O2  UNL     1      19.909  16.074   2.164  1.00  0.00    -0.355 OA
HETATM    5  C8  UNL     1      18.999  16.119   3.214  1.00  0.00     0.274 C 
HETATM    6  O3  UNL     1      18.102  15.066   3.040  1.00  0.00    -0.289 OA
HETATM    7  C9  UNL     1      17.790  14.185   4.027  1.00  0.00     0.270 C 
HETATM    8  O4  UNL     1      17.217  13.105   3.757  1.00  0.00    -0.264 OA
HETATM    9  C10 UNL     1      18.117  14.483   5.431  1.00  0.00     0.059 C 
HETATM   10  C11 UNL     1      18.626  13.277   6.191  1.00  0.00     0.027 C 
HETATM   11  C12 UNL     1      16.759  14.798   6.091  1.00  0.00     0.131 C 
HETATM   12  C13 UNL     1      16.124  15.899   5.291  1.00  0.00     0.260 C 
HETATM   13  O5  UNL     1      14.951  15.857   4.870  1.00  0.00    -0.265 OA
HETATM   14  O6  UNL     1      16.991  16.986   5.065  1.00  0.00    -0.321 OA
HETATM   15  C14 UNL     1      18.179  16.970   5.800  1.00  0.00     0.185 C 
HETATM   16  C15 UNL     1      19.008  15.691   5.576  1.00  0.00     0.038 C 
HETATM   17  C16 UNL     1      19.906  15.989   4.423  1.00  0.00     0.056 C 
ENDROOT
BRANCH   1  18
HETATM   18  C3  UNL     1      22.386  15.305   4.255  1.00  0.00     0.017 C 
HETATM   19  C4  UNL     1      22.429  16.604   5.116  1.00  0.00     0.013 C 
BRANCH  18  20
HETATM   20  C2  UNL     1      23.343  15.512   3.157  1.00  0.00     0.118 C 
HETATM   21  C1  UNL     1      24.255  14.364   2.826  1.00  0.00     0.040 C 
BRANCH  20  22
HETATM   22  O1  UNL     1      24.255  16.527   3.578  1.00  0.00    -0.396 OA
ATOM     23  H1  UNL     1      23.880  17.314   3.202  1.00  0.00     0.210 HD
ENDBRANCH  20  22
ENDBRANCH  18  20
ENDBRANCH   1  18
TORSDOF 3
ENDMDL
MODEL 2
REMARK VINA RESULT: -6.707733633     10.472     12.548
REMARK  3 active torsions:
REMARK  status: ('A' for Active; 'I' for Inactive)
REMARK    1  A    between atoms: C2_2  and  O1_3 
REMARK    2  A    between atoms: C2_2  and  C3_5 
REMARK    3  A    between atoms: C3_5  and  C5_7 
ROOT
HETATM    1  C5  UNL     1      14.943   3.442   0.464  1.00  0.00     0.030 C 
HETATM    2  C6  UNL     1      14.268   3.546  -0.907  1.00  0.00     0.125 C 
HETATM    3  C7  UNL     1      12.791   3.486  -0.880  1.00  0.00     0.040 C 
HETATM    4  O2  UNL     1      14.755   4.705  -1.486  1.00  0.00    -0.355 OA
HETATM    5  C8  UNL     1      14.961   5.598  -0.441  1.00  0.00     0.274 C 
HETATM    6  O3  UNL     1      13.720   6.130  -0.091  1.00  0.00    -0.289 OA
HETATM    7  C9  UNL     1      13.265   6.171   1.189  1.00  0.00     0.270 C 
HETATM    8  O4  UNL     1      12.053   6.385   1.426  1.00  0.00    -0.264 OA
HETATM    9  C10 UNL     1      14.183   5.967   2.322  1.00  0.00     0.059 C 
HETATM   10  C11 UNL     1      13.584   5.125   3.428  1.00  0.00     0.027 C 
HETATM   11  C12 UNL     1      14.339   7.364   2.956  1.00  0.00     0.131 C 
HETATM   12  C13 UNL     1      14.795   8.294   1.869  1.00  0.00     0.260 C 
HETATM   13  O5  UNL     1      14.257   9.394   1.632  1.00  0.00    -0.265 OA
HETATM   14  O6  UNL     1      15.895   7.796   1.142  1.00  0.00    -0.321 OA
HETATM   15  C14 UNL     1      16.513   6.669   1.687  1.00  0.00     0.185 C 
HETATM   16  C15 UNL     1      15.545   5.487   1.885  1.00  0.00     0.038 C 
HETATM   17  C16 UNL     1      15.592   4.709   0.614  1.00  0.00     0.056 C 
ENDROOT
BRANCH   1  18
HETATM   18  C3  UNL     1      15.631   2.137   0.447  1.00  0.00     0.017 C 
HETATM   19  C4  UNL     1      17.142   2.516   0.419  1.00  0.00     0.013 C 
BRANCH  18  20
HETATM   20  C2  UNL     1      15.434   1.166  -0.641  1.00  0.00     0.118 C 
HETATM   21  C1  UNL     1      14.082   0.516  -0.735  1.00  0.00     0.040 C 
BRANCH  20  22
HETATM   22  O1  UNL     1      16.297   0.059  -0.381  1.00  0.00    -0.396 OA
ATOM     23  H1  UNL     1      16.486  -0.268  -1.252  1.00  0.00     0.210 HD
ENDBRANCH  20  22
ENDBRANCH  18  20
ENDBRANCH   1  18
TORSDOF 3
ENDMDL
MODEL 3
REMARK VINA RESULT: -6.637525764      7.508      9.872
REMARK  3 active torsions:
REMARK  status: ('A' for Active; 'I' for Inactive)
REMARK    1  A    between atoms: C2_2  and  O1_3 
REMARK    2  A    between atoms: C2_2  and  C3_5 
REMARK    3  A    between atoms: C3_5  and  C5_7 
ROOT
HETATM    1  C5  UNL     1      14.610   9.614   2.081  1.00  0.00     0.030 C 
HETATM    2  C6  UNL     1      15.656  10.070   1.060  1.00  0.00     0.125 C 
HETATM    3  C7  UNL     1      17.028   9.581   1.313  1.00  0.00     0.040 C 
HETATM    4  O2  UNL     1      15.166   9.699  -0.181  1.00  0.00    -0.355 OA
HETATM    5  C8  UNL     1      14.467   8.515   0.022  1.00  0.00     0.274 C 
HETATM    6  O3  UNL     1      15.401   7.484   0.115  1.00  0.00    -0.289 OA
HETATM    7  C9  UNL     1      15.404   6.574   1.124  1.00  0.00     0.270 C 
HETATM    8  O4  UNL     1      16.409   5.855   1.328  1.00  0.00    -0.264 OA
HETATM    9  C10 UNL     1      14.228   6.413   1.995  1.00  0.00     0.059 C 
HETATM   10  C11 UNL     1      14.590   6.211   3.450  1.00  0.00     0.027 C 
HETATM   11  C12 UNL     1      13.609   5.065   1.572  1.00  0.00     0.131 C 
HETATM   12  C13 UNL     1      13.357   5.140   0.093  1.00  0.00     0.260 C 
HETATM   13  O5  UNL     1      13.719   4.261  -0.714  1.00  0.00    -0.265 OA
HETATM   14  O6  UNL     1      12.667   6.308  -0.289  1.00  0.00    -0.321 OA
HETATM   15  C14 UNL     1      12.136   7.063   0.759  1.00  0.00     0.185 C 
HETATM   16  C15 UNL     1      13.199   7.495   1.787  1.00  0.00     0.038 C 
HETATM   17  C16 UNL     1      13.715   8.810   1.306  1.00  0.00     0.056 C 
ENDROOT
BRANCH   1  18
HETATM   18  C3  UNL     1      14.230  10.843   2.805  1.00  0.00     0.017 C 
HETATM   19  C4  UNL     1      12.934  11.314   2.078  1.00  0.00     0.013 C 
BRANCH  18  20
HETATM   20  C2  UNL     1      15.113  12.017   2.863  1.00  0.00     0.118 C 
HETATM   21  C1  UNL     1      16.082  12.082   4.011  1.00  0.00     0.040 C 
BRANCH  20  22
HETATM   22  O1  UNL     1      14.284  13.159   3.088  1.00  0.00    -0.396 OA
ATOM     23  H1  UNL     1      14.800  13.673   3.698  1.00  0.00     0.210 HD
ENDBRANCH  20  22
ENDBRANCH  18  20
ENDBRANCH   1  18
TORSDOF 3
ENDMDL
MODEL 4
REMARK VINA RESULT: -6.570471163      9.204     12.113
REMARK  3 active torsions:
REMARK  status: ('A' for Active; 'I' for Inactive)
REMARK    1  A    between atoms: C2_2  and  O1_3 
REMARK    2  A    between atoms: C2_2  and  C3_5 
REMARK    3  A    between atoms: C3_5  and  C5_7 
ROOT
HETATM    1  C5  UNL     1      12.032   8.290   0.829  1.00  0.00     0.030 C 
HETATM    2  C6  UNL     1      12.853   9.564   1.050  1.00  0.00     0.125 C 
HETATM    3  C7  UNL     1      13.168   9.864   2.462  1.00  0.00     0.040 C 
HETATM    4  O2  UNL     1      13.981   9.434   0.256  1.00  0.00    -0.355 OA
HETATM    5  C8  UNL     1      14.286   8.078   0.243  1.00  0.00     0.274 C 
HETATM    6  O3  UNL     1      14.928   7.779   1.444  1.00  0.00    -0.289 OA
HETATM    7  C9  UNL     1      14.560   6.745   2.245  1.00  0.00     0.270 C 
HETATM    8  O4  UNL     1      14.963   6.684   3.430  1.00  0.00    -0.264 OA
HETATM    9  C10 UNL     1      13.685   5.674   1.738  1.00  0.00     0.059 C 
HETATM   10  C11 UNL     1      12.651   5.225   2.747  1.00  0.00     0.027 C 
HETATM   11  C12 UNL     1      14.612   4.452   1.581  1.00  0.00     0.131 C 
HETATM   12  C13 UNL     1      15.753   4.874   0.700  1.00  0.00     0.260 C 
HETATM   13  O5  UNL     1      16.953   4.681   0.985  1.00  0.00    -0.265 OA
HETATM   14  O6  UNL     1      15.330   5.511  -0.483  1.00  0.00    -0.321 OA
HETATM   15  C14 UNL     1      13.961   5.434  -0.750  1.00  0.00     0.185 C 
HETATM   16  C15 UNL     1      13.093   6.000   0.390  1.00  0.00     0.038 C 
HETATM   17  C16 UNL     1      12.915   7.448   0.081  1.00  0.00     0.056 C 
ENDROOT
BRANCH   1  18
HETATM   18  C3  UNL     1      10.718   8.767   0.356  1.00  0.00     0.017 C 
HETATM   19  C4  UNL     1       9.700   7.953   1.210  1.00  0.00     0.013 C 
BRANCH  18  20
HETATM   20  C2  UNL     1      10.290   8.613  -1.043  1.00  0.00     0.118 C 
HETATM   21  C1  UNL     1       9.120   9.446  -1.490  1.00  0.00     0.040 C 
BRANCH  20  22
HETATM   22  O1  UNL     1       9.800   7.280  -1.191  1.00  0.00    -0.396 OA
ATOM     23  H1  UNL     1      10.529   6.755  -0.884  1.00  0.00     0.210 HD
ENDBRANCH  20  22
ENDBRANCH  18  20
ENDBRANCH   1  18
TORSDOF 3
ENDMDL
MODEL 5
REMARK VINA RESULT: -6.564308958     10.197     12.182
REMARK  3 active torsions:
REMARK  status: ('A' for Active; 'I' for Inactive)
REMARK    1  A    between atoms: C2_2  and  O1_3 
REMARK    2  A    between atoms: C2_2  and  C3_5 
REMARK    3  A    between atoms: C3_5  and  C5_7 
ROOT
HETATM    1  C5  UNL     1      15.214   3.739   0.130  1.00  0.00     0.030 C 
HETATM    2  C6  UNL     1      14.224   3.575  -1.028  1.00  0.00     0.125 C 
HETATM    3  C7  UNL     1      12.899   3.043  -0.644  1.00  0.00     0.040 C 
HETATM    4  O2  UNL     1      14.156   4.810  -1.650  1.00  0.00    -0.355 OA
HETATM    5  C8  UNL     1      14.316   5.755  -0.644  1.00  0.00     0.274 C 
HETATM    6  O3  UNL     1      13.098   5.870   0.025  1.00  0.00    -0.289 OA
HETATM    7  C9  UNL     1      12.985   5.804   1.378  1.00  0.00     0.270 C 
HETATM    8  O4  UNL     1      11.867   5.624   1.913  1.00  0.00    -0.264 OA
HETATM    9  C10 UNL     1      14.170   5.944   2.240  1.00  0.00     0.059 C 
HETATM   10  C11 UNL     1      14.165   4.990   3.415  1.00  0.00     0.027 C 
HETATM   11  C12 UNL     1      14.022   7.336   2.885  1.00  0.00     0.131 C 
HETATM   12  C13 UNL     1      13.872   8.328   1.768  1.00  0.00     0.260 C 
HETATM   13  O5  UNL     1      12.969   9.188   1.724  1.00  0.00    -0.265 OA
HETATM   14  O6  UNL     1      14.858   8.187   0.771  1.00  0.00    -0.321 OA
HETATM   15  C14 UNL     1      15.919   7.338   1.091  1.00  0.00     0.185 C 
HETATM   16  C15 UNL     1      15.461   5.914   1.461  1.00  0.00     0.038 C 
HETATM   17  C16 UNL     1      15.439   5.152   0.179  1.00  0.00     0.056 C 
ENDROOT
BRANCH   1  18
HETATM   18  C3  UNL     1      16.257   2.726  -0.120  1.00  0.00     0.017 C 
HETATM   19  C4  UNL     1      15.468   1.382  -0.144  1.00  0.00     0.013 C 
BRANCH  18  20
HETATM   20  C2  UNL     1      17.382   2.520   0.805  1.00  0.00     0.118 C 
HETATM   21  C1  UNL     1      17.803   1.099   1.057  1.00  0.00     0.040 C 
BRANCH  20  22
HETATM   22  O1  UNL     1      16.952   2.953   2.096  1.00  0.00    -0.396 OA
ATOM     23  H1  UNL     1      17.757   2.940   2.599  1.00  0.00     0.210 HD
ENDBRANCH  20  22
ENDBRANCH  18  20
ENDBRANCH   1  18
TORSDOF 3
ENDMDL
