MODEL 1
REMARK VINA RESULT: -7.041007011      0.000      0.000
REMARK  3 active torsions:
REMARK  status: ('A' for Active; 'I' for Inactive)
REMARK    1  A    between atoms: C2_2  and  C4_4 
REMARK    2  A    between atoms: C4_4  and  O1_5 
REMARK    3  A    between atoms: C4_4  and  C5_7 
ROOT
HETATM    1  C5  UNL     1      18.030  13.510   4.178  1.00  0.00     0.139 C 
HETATM    2  C6  UNL     1      17.083  14.592   4.425  1.00  0.00     0.198 C 
HETATM    3  O2  UNL     1      17.329  15.556   3.410  1.00  0.00    -0.364 OA
HETATM    4  C7  UNL     1      18.708  15.391   3.141  1.00  0.00     0.232 C 
HETATM    5  C8  UNL     1      19.411  16.176   4.183  1.00  0.00     0.131 C 
HETATM    6  S1  UNL     1      20.881  15.276   4.721  1.00  0.00    -0.119 SA
HETATM    7  C9  UNL     1      21.304  14.130   3.387  1.00  0.00     0.166 C 
HETATM    8  C10 UNL     1      22.311  13.141   3.928  1.00  0.00     0.227 C 
HETATM    9  O3  UNL     1      23.209  12.955   2.854  1.00  0.00    -0.352 OA
HETATM   10  C11 UNL     1      23.287  14.248   2.356  1.00  0.00     0.159 C 
HETATM   11  C12 UNL     1      23.844  14.183   0.949  1.00  0.00     0.078 C 
HETATM   12  C13 UNL     1      24.255  15.032   3.192  1.00  0.00     0.078 C 
HETATM   13  O4  UNL     1      22.010  14.757   2.366  1.00  0.00    -0.327 OA
HETATM   14  C14 UNL     1      20.098  13.396   2.914  1.00  0.00     0.113 C 
HETATM   15  N1  UNL     1      18.857  14.003   3.100  1.00  0.00    -0.354 N 
ENDROOT
BRANCH   1  16
HETATM   16  C4  UNL     1      17.551  12.146   3.953  1.00  0.00     0.146 C 
BRANCH  16  17
HETATM   17  C2  UNL     1      16.760  11.789   2.763  1.00  0.00     0.008 C 
HETATM   18  C1  UNL     1      17.506  11.014   1.695  1.00  0.00     0.012 C 
HETATM   19  C3  UNL     1      15.386  11.234   3.012  1.00  0.00     0.012 C 
ENDBRANCH  16  17
BRANCH  16  20
HETATM   20  O1  UNL     1      16.756  11.762   5.068  1.00  0.00    -0.393 OA
ATOM     21  H1  UNL     1      17.135  10.950   5.384  1.00  0.00     0.210 HD
ENDBRANCH  16  20
ENDBRANCH   1  16
TORSDOF 3
ENDMDL
MODEL 2
REMARK VINA RESULT: -6.629351543      6.790      9.482
REMARK  3 active torsions:
REMARK  status: ('A' for Active; 'I' for Inactive)
REMARK    1  A    between atoms: C2_2  and  C4_4 
REMARK    2  A    between atoms: C4_4  and  O1_5 
REMARK    3  A    between atoms: C4_4  and  C5_7 
ROOT
HETATM    1  C5  UNL     1      11.743   6.492   0.647  1.00  0.00     0.139 C 
HETATM    2  C6  UNL     1      10.377   6.935   0.396  1.00  0.00     0.198 C 
HETATM    3  O2  UNL     1      10.483   7.974  -0.568  1.00  0.00    -0.364 OA
HETATM    4  C7  UNL     1      11.749   8.540  -0.290  1.00  0.00     0.232 C 
HETATM    5  C8  UNL     1      11.525   9.480   0.833  1.00  0.00     0.131 C 
HETATM    6  S1  UNL     1      12.918   9.388   1.979  1.00  0.00    -0.119 SA
HETATM    7  C9  UNL     1      14.314   8.719   1.043  1.00  0.00     0.166 C 
HETATM    8  C10 UNL     1      15.385   8.320   2.033  1.00  0.00     0.227 C 
HETATM    9  O3  UNL     1      16.588   8.695   1.394  1.00  0.00    -0.352 OA
HETATM   10  C11 UNL     1      16.206   9.892   0.806  1.00  0.00     0.159 C 
HETATM   11  C12 UNL     1      17.206  10.229  -0.279  1.00  0.00     0.078 C 
HETATM   12  C13 UNL     1      16.268  10.981   1.837  1.00  0.00     0.078 C 
HETATM   13  O4  UNL     1      14.949   9.696   0.284  1.00  0.00    -0.327 OA
HETATM   14  C14 UNL     1      13.904   7.526   0.255  1.00  0.00     0.113 C 
HETATM   15  N1  UNL     1      12.560   7.417  -0.103  1.00  0.00    -0.354 N 
ENDROOT
BRANCH   1  16
HETATM   16  C4  UNL     1      12.119   5.094   0.431  1.00  0.00     0.146 C 
BRANCH  16  17
HETATM   17  C2  UNL     1      12.766   4.649  -0.815  1.00  0.00     0.008 C 
HETATM   18  C1  UNL     1      14.152   4.060  -0.652  1.00  0.00     0.012 C 
HETATM   19  C3  UNL     1      11.917   3.852  -1.764  1.00  0.00     0.012 C 
ENDBRANCH  16  17
BRANCH  16  20
HETATM   20  O1  UNL     1      10.950   4.293   0.561  1.00  0.00    -0.393 OA
ATOM     21  H1  UNL     1      10.505   4.615   1.337  1.00  0.00     0.210 HD
ENDBRANCH  16  20
ENDBRANCH   1  16
TORSDOF 3
ENDMDL
MODEL 3
REMARK VINA RESULT: -6.332391961      2.225      3.630
REMARK  3 active torsions:
REMARK  status: ('A' for Active; 'I' for Inactive)
REMARK    1  A    between atoms: C2_2  and  C4_4 
REMARK    2  A    between atoms: C4_4  and  O1_5 
REMARK    3  A    between atoms: C4_4  and  C5_7 
ROOT
HETATM    1  C5  UNL     1      17.876  13.859   4.015  1.00  0.00     0.139 C 
HETATM    2  C6  UNL     1      17.646  12.735   3.115  1.00  0.00     0.198 C 
HETATM    3  O2  UNL     1      18.759  11.870   3.290  1.00  0.00    -0.364 OA
HETATM    4  C7  UNL     1      19.804  12.759   3.633  1.00  0.00     0.232 C 
HETATM    5  C8  UNL     1      20.306  13.294   2.346  1.00  0.00     0.131 C 
HETATM    6  S1  UNL     1      20.695  15.048   2.537  1.00  0.00    -0.119 SA
HETATM    7  C9  UNL     1      20.955  15.330   4.304  1.00  0.00     0.166 C 
HETATM    8  C10 UNL     1      20.952  16.824   4.539  1.00  0.00     0.227 C 
HETATM    9  O3  UNL     1      21.964  17.013   5.506  1.00  0.00    -0.352 OA
HETATM   10  C11 UNL     1      22.912  16.100   5.070  1.00  0.00     0.159 C 
HETATM   11  C12 UNL     1      23.874  15.831   6.208  1.00  0.00     0.078 C 
HETATM   12  C13 UNL     1      23.697  16.715   3.947  1.00  0.00     0.078 C 
HETATM   13  O4  UNL     1      22.233  14.960   4.709  1.00  0.00    -0.327 OA
HETATM   14  C14 UNL     1      19.871  14.704   5.109  1.00  0.00     0.113 C 
HETATM   15  N1  UNL     1      19.196  13.619   4.551  1.00  0.00    -0.354 N 
ENDROOT
BRANCH   1  16
HETATM   16  C4  UNL     1      16.893  14.194   5.046  1.00  0.00     0.146 C 
BRANCH  16  17
HETATM   17  C2  UNL     1      16.252  15.519   5.103  1.00  0.00     0.008 C 
HETATM   18  C1  UNL     1      14.779  15.512   5.460  1.00  0.00     0.012 C 
HETATM   19  C3  UNL     1      17.006  16.599   5.825  1.00  0.00     0.012 C 
ENDBRANCH  16  17
BRANCH  16  20
HETATM   20  O1  UNL     1      17.500  14.009   6.318  1.00  0.00    -0.393 OA
ATOM     21  H1  UNL     1      17.851  14.859   6.560  1.00  0.00     0.210 HD
ENDBRANCH  16  20
ENDBRANCH   1  16
TORSDOF 3
ENDMDL
MODEL 4
REMARK VINA RESULT: -6.327633849      4.589      8.260
REMARK  3 active torsions:
REMARK  status: ('A' for Active; 'I' for Inactive)
REMARK    1  A    between atoms: C2_2  and  C4_4 
REMARK    2  A    between atoms: C4_4  and  O1_5 
REMARK    3  A    between atoms: C4_4  and  C5_7 
ROOT
HETATM    1  C5  UNL     1      16.024  11.372   2.076  1.00  0.00     0.139 C 
HETATM    2  C6  UNL     1      15.278  12.444   2.726  1.00  0.00     0.198 C 
HETATM    3  O2  UNL     1      14.436  11.803   3.675  1.00  0.00    -0.364 OA
HETATM    4  C7  UNL     1      14.187  10.544   3.082  1.00  0.00     0.232 C 
HETATM    5  C8  UNL     1      13.083  10.771   2.119  1.00  0.00     0.131 C 
HETATM    6  S1  UNL     1      13.383   9.804   0.623  1.00  0.00    -0.119 SA
HETATM    7  C9  UNL     1      14.506   8.465   1.090  1.00  0.00     0.166 C 
HETATM    8  C10 UNL     1      15.037   7.843  -0.182  1.00  0.00     0.227 C 
HETATM    9  O3  UNL     1      15.072   6.462   0.110  1.00  0.00    -0.352 OA
HETATM   10  C11 UNL     1      13.904   6.323   0.846  1.00  0.00     0.159 C 
HETATM   11  C12 UNL     1      13.981   5.024   1.621  1.00  0.00     0.078 C 
HETATM   12  C13 UNL     1      12.744   6.219  -0.101  1.00  0.00     0.078 C 
HETATM   13  O4  UNL     1      13.834   7.406   1.690  1.00  0.00    -0.327 OA
HETATM   14  C14 UNL     1      15.644   8.982   1.897  1.00  0.00     0.113 C 
HETATM   15  N1  UNL     1      15.447  10.162   2.613  1.00  0.00    -0.354 N 
ENDROOT
BRANCH   1  16
HETATM   16  C4  UNL     1      17.487  11.368   2.102  1.00  0.00     0.146 C 
BRANCH  16  17
HETATM   17  C2  UNL     1      18.254  12.470   2.707  1.00  0.00     0.008 C 
HETATM   18  C1  UNL     1      18.545  12.324   4.187  1.00  0.00     0.012 C 
HETATM   19  C3  UNL     1      19.450  12.956   1.938  1.00  0.00     0.012 C 
ENDBRANCH  16  17
BRANCH  16  20
HETATM   20  O1  UNL     1      17.957  11.265   0.764  1.00  0.00    -0.393 OA
ATOM     21  H1  UNL     1      17.277  10.801   0.289  1.00  0.00     0.210 HD
ENDBRANCH  16  20
ENDBRANCH   1  16
TORSDOF 3
ENDMDL
MODEL 5
REMARK VINA RESULT: -6.278758711      1.856      3.557
REMARK  3 active torsions:
REMARK  status: ('A' for Active; 'I' for Inactive)
REMARK    1  A    between atoms: C2_2  and  C4_4 
REMARK    2  A    between atoms: C4_4  and  O1_5 
REMARK    3  A    between atoms: C4_4  and  C5_7 
ROOT
HETATM    1  C5  UNL     1      17.386  14.398   4.477  1.00  0.00     0.139 C 
HETATM    2  C6  UNL     1      16.395  13.359   4.219  1.00  0.00     0.198 C 
HETATM    3  O2  UNL     1      17.052  12.128   4.489  1.00  0.00    -0.364 OA
HETATM    4  C7  UNL     1      18.401  12.410   4.174  1.00  0.00     0.232 C 
HETATM    5  C8  UNL     1      18.507  12.251   2.705  1.00  0.00     0.131 C 
HETATM    6  S1  UNL     1      19.587  13.535   2.037  1.00  0.00    -0.119 SA
HETATM    7  C9  UNL     1      20.625  14.100   3.406  1.00  0.00     0.166 C 
HETATM    8  C10 UNL     1      21.298  15.385   2.977  1.00  0.00     0.227 C 
HETATM    9  O3  UNL     1      22.600  15.276   3.514  1.00  0.00    -0.352 OA
HETATM   10  C11 UNL     1      22.854  13.929   3.305  1.00  0.00     0.159 C 
HETATM   11  C12 UNL     1      24.006  13.518   4.198  1.00  0.00     0.078 C 
HETATM   12  C13 UNL     1      23.291  13.733   1.882  1.00  0.00     0.078 C 
HETATM   13  O4  UNL     1      21.703  13.251   3.629  1.00  0.00    -0.327 OA
HETATM   14  C14 UNL     1      19.808  14.356   4.624  1.00  0.00     0.113 C 
HETATM   15  N1  UNL     1      18.602  13.668   4.750  1.00  0.00    -0.354 N 
ENDROOT
BRANCH   1  16
HETATM   16  C4  UNL     1      17.118  15.448   5.460  1.00  0.00     0.146 C 
BRANCH  16  17
HETATM   17  C2  UNL     1      15.816  15.557   6.141  1.00  0.00     0.008 C 
HETATM   18  C1  UNL     1      15.790  16.472   7.349  1.00  0.00     0.012 C 
HETATM   19  C3  UNL     1      14.612  15.743   5.262  1.00  0.00     0.012 C 
ENDBRANCH  16  17
BRANCH  16  20
HETATM   20  O1  UNL     1      17.329  16.708   4.836  1.00  0.00    -0.393 OA
ATOM     21  H1  UNL     1      17.044  16.598   3.936  1.00  0.00     0.210 HD
ENDBRANCH  16  20
ENDBRANCH   1  16
TORSDOF 3
ENDMDL
