MODEL 1
REMARK VINA RESULT: -6.355146908      0.000      0.000
REMARK  4 active torsions:
REMARK  status: ('A' for Active; 'I' for Inactive)
REMARK    1  A    between atoms: C2_2  and  C3_3 
REMARK    2  A    between atoms: C10_10  and  C11_11 
REMARK    3  A    between atoms: C11_11  and  N1_12 
REMARK    4  A    between atoms: N2_21  and  O4_23 
ROOT
HETATM    1  C3  UNL     1      14.275   5.932   0.406  1.00  0.00     0.046 C 
HETATM    2  C4  UNL     1      14.387   6.598  -0.887  1.00  0.00     0.026 C 
HETATM    3  C5  UNL     1      12.862   5.573   0.833  1.00  0.00     0.039 C 
HETATM    4  C6  UNL     1      12.320   4.391   0.113  1.00  0.00     0.025 C 
HETATM    5  C7  UNL     1      11.991   6.772   0.666  1.00  0.00     0.019 C 
HETATM    6  C8  UNL     1      12.641   8.075   1.041  1.00  0.00     0.012 C 
HETATM    7  C9  UNL     1      13.807   7.893   1.944  1.00  0.00     0.066 C 
HETATM    8  C10 UNL     1      14.768   9.031   1.994  1.00  0.00     0.123 C 
HETATM    9  C14 UNL     1      16.003   8.501   1.365  1.00  0.00     0.268 C 
HETATM   10  O1  UNL     1      16.849   9.200   0.725  1.00  0.00    -0.265 OA
HETATM   11  O2  UNL     1      16.007   7.141   1.630  1.00  0.00    -0.281 OA
HETATM   12  C15 UNL     1      14.680   6.719   1.624  1.00  0.00     0.196 C 
HETATM   13  O3  UNL     1      14.408   5.724   2.619  1.00  0.00    -0.297 OA
HETATM   14  C16 UNL     1      13.133   5.272   2.289  1.00  0.00     0.150 C 
HETATM   15  N2  UNL     1      12.305   4.685   3.102  1.00  0.00    -0.250 N 
ATOM     16  H2  UNL     1      11.389   4.389   2.766  1.00  0.00     0.196 HD
ENDROOT
BRANCH   8  17
HETATM   17  C11 UNL     1      14.315  10.315   1.410  1.00  0.00     0.286 C 
BRANCH  17  18
HETATM   18  N1  UNL     1      13.800  11.205   2.400  1.00  0.00     0.080 N 
HETATM   19  C12 UNL     1      14.662  12.301   2.749  1.00  0.00     0.309 C 
HETATM   20  C13 UNL     1      12.554  11.751   1.890  1.00  0.00     0.309 C 
ENDBRANCH  17  18
ENDBRANCH   8  17
BRANCH   1  21
HETATM   21  C2  UNL     1      15.069   4.671   0.420  1.00  0.00    -0.021 C 
HETATM   22  C1  UNL     1      15.295   3.977  -0.687  1.00  0.00     0.008 C 
ENDBRANCH   1  21
BRANCH  15  23
HETATM   23  O4  UNL     1      12.655   4.465   4.395  1.00  0.00    -0.288 OA
ATOM     24  H4  UNL     1      12.136   4.831   5.101  1.00  0.00     0.244 HD
ENDBRANCH  15  23
TORSDOF 4
ENDMDL
MODEL 2
REMARK VINA RESULT: -6.030132008      2.388      3.558
REMARK  4 active torsions:
REMARK  status: ('A' for Active; 'I' for Inactive)
REMARK    1  A    between atoms: C2_2  and  C3_3 
REMARK    2  A    between atoms: C10_10  and  C11_11 
REMARK    3  A    between atoms: C11_11  and  N1_12 
REMARK    4  A    between atoms: N2_21  and  O4_23 
ROOT
HETATM    1  C3  UNL     1      14.900   7.180   0.626  1.00  0.00     0.046 C 
HETATM    2  C4  UNL     1      14.967   7.556  -0.781  1.00  0.00     0.026 C 
HETATM    3  C5  UNL     1      14.803   5.689   0.898  1.00  0.00     0.039 C 
HETATM    4  C6  UNL     1      16.096   4.980   0.711  1.00  0.00     0.025 C 
HETATM    5  C7  UNL     1      13.727   5.114   0.041  1.00  0.00     0.019 C 
HETATM    6  C8  UNL     1      12.512   5.986  -0.108  1.00  0.00     0.012 C 
HETATM    7  C9  UNL     1      12.395   6.993   0.979  1.00  0.00     0.066 C 
HETATM    8  C10 UNL     1      11.524   8.166   0.681  1.00  0.00     0.123 C 
HETATM    9  C14 UNL     1      12.460   9.315   0.608  1.00  0.00     0.268 C 
HETATM   10  O1  UNL     1      12.285  10.348  -0.111  1.00  0.00    -0.265 OA
HETATM   11  O2  UNL     1      13.506   9.003   1.461  1.00  0.00    -0.281 OA
HETATM   12  C15 UNL     1      13.686   7.623   1.401  1.00  0.00     0.196 C 
HETATM   13  O3  UNL     1      14.024   7.050   2.670  1.00  0.00    -0.297 OA
HETATM   14  C16 UNL     1      14.395   5.747   2.352  1.00  0.00     0.150 C 
HETATM   15  N2  UNL     1      14.392   4.738   3.172  1.00  0.00    -0.250 N 
ATOM     16  H2  UNL     1      14.681   3.816   2.844  1.00  0.00     0.196 HD
ENDROOT
BRANCH   8  17
HETATM   17  C11 UNL     1      10.635   8.056  -0.499  1.00  0.00     0.286 C 
BRANCH  17  18
HETATM   18  N1  UNL     1       9.290   8.430  -0.198  1.00  0.00     0.080 N 
HETATM   19  C12 UNL     1       9.020   8.687   1.189  1.00  0.00     0.309 C 
HETATM   20  C13 UNL     1       8.995   9.638  -0.950  1.00  0.00     0.309 C 
ENDBRANCH  17  18
ENDBRANCH   8  17
BRANCH   1  21
HETATM   21  C2  UNL     1      16.093   7.683   1.364  1.00  0.00    -0.021 C 
HETATM   22  C1  UNL     1      16.611   8.878   1.121  1.00  0.00     0.008 C 
ENDBRANCH   1  21
BRANCH  15  23
HETATM   23  O4  UNL     1      14.003   4.906   4.462  1.00  0.00    -0.288 OA
ATOM     24  H4  UNL     1      14.445   5.539   5.017  1.00  0.00     0.244 HD
ENDBRANCH  15  23
TORSDOF 4
ENDMDL
MODEL 3
REMARK VINA RESULT: -5.993610925      2.524      5.913
REMARK  4 active torsions:
REMARK  status: ('A' for Active; 'I' for Inactive)
REMARK    1  A    between atoms: C2_2  and  C3_3 
REMARK    2  A    between atoms: C10_10  and  C11_11 
REMARK    3  A    between atoms: C11_11  and  N1_12 
REMARK    4  A    between atoms: N2_21  and  O4_23 
ROOT
HETATM    1  C3  UNL     1      14.006   6.511   0.491  1.00  0.00     0.046 C 
HETATM    2  C4  UNL     1      14.363   6.743  -0.904  1.00  0.00     0.026 C 
HETATM    3  C5  UNL     1      15.117   6.760   1.498  1.00  0.00     0.039 C 
HETATM    4  C6  UNL     1      15.366   8.204   1.742  1.00  0.00     0.025 C 
HETATM    5  C7  UNL     1      16.348   6.055   1.038  1.00  0.00     0.019 C 
HETATM    6  C8  UNL     1      16.104   4.704   0.424  1.00  0.00     0.012 C 
HETATM    7  C9  UNL     1      14.796   4.123   0.823  1.00  0.00     0.066 C 
HETATM    8  C10 UNL     1      14.270   3.048  -0.065  1.00  0.00     0.123 C 
HETATM    9  C14 UNL     1      13.070   3.645  -0.701  1.00  0.00     0.268 C 
HETATM   10  O1  UNL     1      12.636   3.345  -1.857  1.00  0.00    -0.265 OA
HETATM   11  O2  UNL     1      12.570   4.555   0.217  1.00  0.00    -0.281 OA
HETATM   12  C15 UNL     1      13.662   5.099   0.889  1.00  0.00     0.196 C 
HETATM   13  O3  UNL     1      13.401   5.329   2.280  1.00  0.00    -0.297 OA
HETATM   14  C16 UNL     1      14.495   6.082   2.697  1.00  0.00     0.150 C 
HETATM   15  N2  UNL     1      14.917   6.188   3.922  1.00  0.00    -0.250 N 
ATOM     16  H2  UNL     1      15.732   6.767   4.130  1.00  0.00     0.196 HD
ENDROOT
BRANCH   8  17
HETATM   17  C11 UNL     1      15.219   2.460  -1.038  1.00  0.00     0.286 C 
BRANCH  17  18
HETATM   18  N1  UNL     1      15.526   1.098  -0.736  1.00  0.00     0.080 N 
HETATM   19  C12 UNL     1      16.425   0.901   0.367  1.00  0.00     0.309 C 
HETATM   20  C13 UNL     1      14.275   0.427  -0.428  1.00  0.00     0.309 C 
ENDBRANCH  17  18
ENDBRANCH   8  17
BRANCH   1  21
HETATM   21  C2  UNL     1      12.854   7.367   0.891  1.00  0.00    -0.021 C 
HETATM   22  C1  UNL     1      12.061   7.933  -0.008  1.00  0.00     0.008 C 
ENDBRANCH   1  21
BRANCH  15  23
HETATM   23  O4  UNL     1      14.279   5.532   4.925  1.00  0.00    -0.288 OA
ATOM     24  H4  UNL     1      14.770   5.194   5.665  1.00  0.00     0.244 HD
ENDBRANCH  15  23
TORSDOF 4
ENDMDL
MODEL 4
REMARK VINA RESULT: -5.857161330      7.089     10.840
REMARK  4 active torsions:
REMARK  status: ('A' for Active; 'I' for Inactive)
REMARK    1  A    between atoms: C2_2  and  C3_3 
REMARK    2  A    between atoms: C10_10  and  C11_11 
REMARK    3  A    between atoms: C11_11  and  N1_12 
REMARK    4  A    between atoms: N2_21  and  O4_23 
ROOT
HETATM    1  C3  UNL     1      21.442  15.414   3.539  1.00  0.00     0.046 C 
HETATM    2  C4  UNL     1      20.630  16.146   2.574  1.00  0.00     0.026 C 
HETATM    3  C5  UNL     1      22.646  14.690   2.960  1.00  0.00     0.039 C 
HETATM    4  C6  UNL     1      23.768  15.605   2.625  1.00  0.00     0.025 C 
HETATM    5  C7  UNL     1      22.205  13.896   1.778  1.00  0.00     0.019 C 
HETATM    6  C8  UNL     1      20.864  13.234   1.932  1.00  0.00     0.012 C 
HETATM    7  C9  UNL     1      20.463  13.082   3.354  1.00  0.00     0.066 C 
HETATM    8  C10 UNL     1      19.006  12.878   3.595  1.00  0.00     0.123 C 
HETATM    9  C14 UNL     1      18.567  14.116   4.285  1.00  0.00     0.268 C 
HETATM   10  O1  UNL     1      17.402  14.615   4.207  1.00  0.00    -0.265 OA
HETATM   11  O2  UNL     1      19.672  14.566   4.991  1.00  0.00    -0.281 OA
HETATM   12  C15 UNL     1      20.797  14.244   4.236  1.00  0.00     0.196 C 
HETATM   13  O3  UNL     1      21.911  13.839   5.043  1.00  0.00    -0.297 OA
HETATM   14  C16 UNL     1      22.972  13.806   4.142  1.00  0.00     0.150 C 
HETATM   15  N2  UNL     1      24.069  13.125   4.291  1.00  0.00    -0.250 N 
ATOM     16  H2  UNL     1      24.792  13.165   3.573  1.00  0.00     0.196 HD
ENDROOT
BRANCH   8  17
HETATM   17  C11 UNL     1      18.175  12.535   2.418  1.00  0.00     0.286 C 
BRANCH  17  18
HETATM   18  N1  UNL     1      17.559  11.253   2.548  1.00  0.00     0.080 N 
HETATM   19  C12 UNL     1      16.222  11.264   3.073  1.00  0.00     0.309 C 
HETATM   20  C13 UNL     1      17.523  10.650   1.226  1.00  0.00     0.309 C 
ENDBRANCH  17  18
ENDBRANCH   8  17
BRANCH   1  21
HETATM   21  C2  UNL     1      21.951  16.326   4.602  1.00  0.00    -0.021 C 
HETATM   22  C1  UNL     1      21.129  17.012   5.383  1.00  0.00     0.008 C 
ENDBRANCH   1  21
BRANCH  15  23
HETATM   23  O4  UNL     1      24.255  12.360   5.398  1.00  0.00    -0.288 OA
ATOM     24  H4  UNL     1      25.124  12.258   5.768  1.00  0.00     0.244 HD
ENDBRANCH  15  23
TORSDOF 4
ENDMDL
MODEL 5
REMARK VINA RESULT: -5.808516591      5.366      9.605
REMARK  4 active torsions:
REMARK  status: ('A' for Active; 'I' for Inactive)
REMARK    1  A    between atoms: C2_2  and  C3_3 
REMARK    2  A    between atoms: C10_10  and  C11_11 
REMARK    3  A    between atoms: C11_11  and  N1_12 
REMARK    4  A    between atoms: N2_21  and  O4_23 
ROOT
HETATM    1  C3  UNL     1      18.787  14.840   4.004  1.00  0.00     0.046 C 
HETATM    2  C4  UNL     1      17.574  15.398   3.417  1.00  0.00     0.026 C 
HETATM    3  C5  UNL     1      20.050  15.009   3.176  1.00  0.00     0.039 C 
HETATM    4  C6  UNL     1      20.594  16.390   3.223  1.00  0.00     0.025 C 
HETATM    5  C7  UNL     1      19.768  14.570   1.779  1.00  0.00     0.019 C 
HETATM    6  C8  UNL     1      18.888  13.357   1.668  1.00  0.00     0.012 C 
HETATM    7  C9  UNL     1      18.866  12.551   2.915  1.00  0.00     0.066 C 
HETATM    8  C10 UNL     1      17.706  11.627   3.067  1.00  0.00     0.123 C 
HETATM    9  C14 UNL     1      16.927  12.192   4.195  1.00  0.00     0.268 C 
HETATM   10  O1  UNL     1      15.668  12.087   4.332  1.00  0.00    -0.265 OA
HETATM   11  O2  UNL     1      17.850  12.823   5.013  1.00  0.00    -0.281 OA
HETATM   12  C15 UNL     1      18.840  13.345   4.184  1.00  0.00     0.196 C 
HETATM   13  O3  UNL     1      20.152  13.248   4.754  1.00  0.00    -0.297 OA
HETATM   14  C16 UNL     1      20.936  14.026   3.907  1.00  0.00     0.150 C 
HETATM   15  N2  UNL     1      22.224  13.926   3.764  1.00  0.00    -0.250 N 
ATOM     16  H2  UNL     1      22.712  14.544   3.115  1.00  0.00     0.196 HD
ENDROOT
BRANCH   8  17
HETATM   17  C11 UNL     1      16.890  11.374   1.857  1.00  0.00     0.286 C 
BRANCH  17  18
HETATM   18  N1  UNL     1      17.192  10.114   1.256  1.00  0.00     0.080 N 
HETATM   19  C12 UNL     1      16.084   9.208   1.137  1.00  0.00     0.309 C 
HETATM   20  C13 UNL     1      17.708  10.378  -0.076  1.00  0.00     0.309 C 
ENDBRANCH  17  18
ENDBRANCH   8  17
BRANCH   1  21
HETATM   21  C2  UNL     1      19.055  15.448   5.338  1.00  0.00    -0.021 C 
HETATM   22  C1  UNL     1      18.304  16.428   5.821  1.00  0.00     0.008 C 
ENDBRANCH   1  21
BRANCH  15  23
HETATM   23  O4  UNL     1      22.922  13.003   4.474  1.00  0.00    -0.288 OA
ATOM     24  H4  UNL     1      23.461  13.272   5.209  1.00  0.00     0.244 HD
ENDBRANCH  15  23
TORSDOF 4
ENDMDL
