MODEL 1
REMARK VINA RESULT: -8.567573412      0.000      0.000
REMARK  4 active torsions:
REMARK  status: ('A' for Active; 'I' for Inactive)
REMARK    1  A    between atoms: C2_2  and  C3_3 
REMARK    2  A    between atoms: C3_3  and  C4_4 
REMARK    3  A    between atoms: C7_7  and  C8_8 
REMARK    4  A    between atoms: C8_8  and  O2_10 
ROOT
HETATM    1  C4  UNL     1      11.327   6.271  10.030  1.00  0.00    -0.002 C 
HETATM    2  C5  UNL     1       9.952   5.714   9.890  1.00  0.00    -0.018 C 
HETATM    3  C6  UNL     1       9.109   6.641  10.289  1.00  0.00    -0.004 C 
HETATM    4  C7  UNL     1       9.816   7.880  10.727  1.00  0.00     0.127 C 
HETATM    5  C10 UNL     1      10.224   8.813   9.661  1.00  0.00     0.288 C 
HETATM    6  O3  UNL     1      10.180   8.353   8.393  1.00  0.00    -0.359 OA
HETATM    7  C11 UNL     1      11.216   7.643   7.897  1.00  0.00     0.176 C 
HETATM    8  C12 UNL     1      11.796   6.539   8.664  1.00  0.00     0.019 C 
HETATM    9  C13 UNL     1      13.290   6.486   8.405  1.00  0.00     0.013 C 
HETATM   10  O4  UNL     1      11.548   9.216   9.917  1.00  0.00    -0.297 OA
HETATM   11  C14 UNL     1      12.050   8.494  10.952  1.00  0.00     0.347 C 
HETATM   12  O5  UNL     1      11.934   9.309  12.104  1.00  0.00    -0.165 OA
HETATM   13  O6  UNL     1      13.008  10.053  12.269  1.00  0.00    -0.192 OA
HETATM   14  C15 UNL     1      13.972   9.198  12.852  1.00  0.00     0.230 C 
HETATM   15  C16 UNL     1      15.346   9.767  12.804  1.00  0.00     0.074 C 
HETATM   16  C17 UNL     1      15.830  10.204  14.180  1.00  0.00     0.006 C 
HETATM   17  C18 UNL     1      14.720  10.980  14.844  1.00  0.00     0.000 C 
HETATM   18  C19 UNL     1      13.597  10.050  15.173  1.00  0.00     0.006 C 
HETATM   19  C20 UNL     1      13.488   8.880  14.239  1.00  0.00     0.074 C 
HETATM   20  O7  UNL     1      13.914   8.019  12.107  1.00  0.00    -0.192 OA
HETATM   21  O8  UNL     1      13.409   8.231  10.924  1.00  0.00    -0.165 OA
HETATM   22  C21 UNL     1      11.167   7.297  11.043  1.00  0.00     0.124 C 
ENDROOT
BRANCH   1  23
HETATM   23  C3  UNL     1      12.129   5.133  10.643  1.00  0.00     0.041 C 
BRANCH  23  24
HETATM   24  C2  UNL     1      11.541   3.808  10.381  1.00  0.00    -0.036 C 
HETATM   25  C1  UNL     1      12.262   2.776   9.961  1.00  0.00     0.007 C 
ENDBRANCH  23  24
ENDBRANCH   1  23
BRANCH   4  26
HETATM   26  C8  UNL     1       9.045   8.407  11.835  1.00  0.00     0.276 C 
HETATM   27  O1  UNL     1       8.429   9.484  11.942  1.00  0.00    -0.264 OA
BRANCH  26  28
HETATM   28  O2  UNL     1       8.963   7.595  12.988  1.00  0.00    -0.325 OA
HETATM   29  C9  UNL     1       9.091   8.136  14.284  1.00  0.00     0.213 C 
ENDBRANCH  26  28
ENDBRANCH   4  26
TORSDOF 4
ENDMDL
MODEL 2
REMARK VINA RESULT: -8.517096477      0.838      1.170
REMARK  4 active torsions:
REMARK  status: ('A' for Active; 'I' for Inactive)
REMARK    1  A    between atoms: C2_2  and  C3_3 
REMARK    2  A    between atoms: C3_3  and  C4_4 
REMARK    3  A    between atoms: C7_7  and  C8_8 
REMARK    4  A    between atoms: C8_8  and  O2_10 
ROOT
HETATM    1  C4  UNL     1      11.837   5.936   9.900  1.00  0.00    -0.002 C 
HETATM    2  C5  UNL     1      10.608   5.143   9.610  1.00  0.00    -0.018 C 
HETATM    3  C6  UNL     1       9.574   5.893   9.922  1.00  0.00    -0.004 C 
HETATM    4  C7  UNL     1       9.994   7.228  10.440  1.00  0.00     0.127 C 
HETATM    5  C10 UNL     1      10.335   8.245   9.430  1.00  0.00     0.288 C 
HETATM    6  O3  UNL     1      10.508   7.817   8.162  1.00  0.00    -0.359 OA
HETATM    7  C11 UNL     1      11.702   7.318   7.775  1.00  0.00     0.176 C 
HETATM    8  C12 UNL     1      12.390   6.318   8.594  1.00  0.00     0.019 C 
HETATM    9  C13 UNL     1      13.887   6.542   8.497  1.00  0.00     0.013 C 
HETATM   10  O4  UNL     1      11.529   8.874   9.829  1.00  0.00    -0.297 OA
HETATM   11  C14 UNL     1      12.043   8.229  10.908  1.00  0.00     0.347 C 
HETATM   12  O5  UNL     1      11.661   8.980  12.045  1.00  0.00    -0.165 OA
HETATM   13  O6  UNL     1      12.558   9.901  12.329  1.00  0.00    -0.192 OA
HETATM   14  C15 UNL     1      13.595   9.219  13.007  1.00  0.00     0.230 C 
HETATM   15  C16 UNL     1      14.840  10.028  13.110  1.00  0.00     0.074 C 
HETATM   16  C17 UNL     1      15.089  10.511  14.533  1.00  0.00     0.006 C 
HETATM   17  C18 UNL     1      13.793  11.056  15.078  1.00  0.00     0.000 C 
HETATM   18  C19 UNL     1      12.831   9.931  15.279  1.00  0.00     0.006 C 
HETATM   19  C20 UNL     1      13.034   8.785  14.332  1.00  0.00     0.074 C 
HETATM   20  O7  UNL     1      13.831   8.069  12.253  1.00  0.00    -0.192 OA
HETATM   21  O8  UNL     1      13.423   8.216  11.024  1.00  0.00    -0.165 OA
HETATM   22  C21 UNL     1      11.388   6.890  10.896  1.00  0.00     0.124 C 
ENDROOT
BRANCH   1  23
HETATM   23  C3  UNL     1      12.764   4.945  10.589  1.00  0.00     0.041 C 
BRANCH  23  24
HETATM   24  C2  UNL     1      12.496   3.547  10.213  1.00  0.00    -0.036 C 
HETATM   25  C1  UNL     1      13.437   2.612  10.215  1.00  0.00     0.007 C 
ENDBRANCH  23  24
ENDBRANCH   1  23
BRANCH   4  26
HETATM   26  C8  UNL     1       9.028   7.579  11.462  1.00  0.00     0.276 C 
HETATM   27  O1  UNL     1       8.656   6.944  12.464  1.00  0.00    -0.264 OA
BRANCH  26  28
HETATM   28  O2  UNL     1       8.390   8.832  11.321  1.00  0.00    -0.325 OA
HETATM   29  C9  UNL     1       7.030   8.935  10.965  1.00  0.00     0.213 C 
ENDBRANCH  26  28
ENDBRANCH   4  26
TORSDOF 4
ENDMDL
MODEL 3
REMARK VINA RESULT: -8.096409875      1.317      1.677
REMARK  4 active torsions:
REMARK  status: ('A' for Active; 'I' for Inactive)
REMARK    1  A    between atoms: C2_2  and  C3_3 
REMARK    2  A    between atoms: C3_3  and  C4_4 
REMARK    3  A    between atoms: C7_7  and  C8_8 
REMARK    4  A    between atoms: C8_8  and  O2_10 
ROOT
HETATM    1  C4  UNL     1      11.480   6.353  10.101  1.00  0.00    -0.002 C 
HETATM    2  C5  UNL     1      10.062   6.066  10.460  1.00  0.00    -0.018 C 
HETATM    3  C6  UNL     1       9.597   7.120  11.096  1.00  0.00    -0.004 C 
HETATM    4  C7  UNL     1      10.629   8.190  11.223  1.00  0.00     0.127 C 
HETATM    5  C10 UNL     1      10.813   9.066  10.054  1.00  0.00     0.288 C 
HETATM    6  O3  UNL     1      10.250   8.668   8.893  1.00  0.00    -0.359 OA
HETATM    7  C11 UNL     1      10.901   7.796   8.094  1.00  0.00     0.176 C 
HETATM    8  C12 UNL     1      11.492   6.577   8.649  1.00  0.00     0.019 C 
HETATM    9  C13 UNL     1      12.768   6.256   7.894  1.00  0.00     0.013 C 
HETATM   10  O4  UNL     1      12.195   9.207   9.825  1.00  0.00    -0.297 OA
HETATM   11  C14 UNL     1      12.878   8.369  10.647  1.00  0.00     0.347 C 
HETATM   12  O5  UNL     1      13.319   9.150  11.743  1.00  0.00    -0.165 OA
HETATM   13  O6  UNL     1      14.503   9.675  11.504  1.00  0.00    -0.192 OA
HETATM   14  C15 UNL     1      15.431   8.635  11.747  1.00  0.00     0.230 C 
HETATM   15  C16 UNL     1      16.784   8.940  11.211  1.00  0.00     0.074 C 
HETATM   16  C17 UNL     1      17.784   9.231  12.323  1.00  0.00     0.006 C 
HETATM   17  C18 UNL     1      17.136  10.176  13.303  1.00  0.00     0.000 C 
HETATM   18  C19 UNL     1      16.042   9.460  14.027  1.00  0.00     0.006 C 
HETATM   19  C20 UNL     1      15.402   8.365  13.225  1.00  0.00     0.074 C 
HETATM   20  O7  UNL     1      14.901   7.515  11.105  1.00  0.00    -0.192 OA
HETATM   21  O8  UNL     1      14.070   7.858  10.162  1.00  0.00    -0.165 OA
HETATM   22  C21 UNL     1      11.872   7.354  11.074  1.00  0.00     0.124 C 
ENDROOT
BRANCH   1  23
HETATM   23  C3  UNL     1      12.216   5.064  10.437  1.00  0.00     0.041 C 
BRANCH  23  24
HETATM   24  C2  UNL     1      11.329   3.890  10.482  1.00  0.00    -0.036 C 
HETATM   25  C1  UNL     1      11.529   2.812   9.733  1.00  0.00     0.007 C 
ENDBRANCH  23  24
ENDBRANCH   1  23
BRANCH   4  26
HETATM   26  C8  UNL     1      10.398   8.812  12.512  1.00  0.00     0.276 C 
HETATM   27  O1  UNL     1      10.322   8.303  13.645  1.00  0.00    -0.264 OA
BRANCH  26  28
HETATM   28  O2  UNL     1      10.226  10.214  12.512  1.00  0.00    -0.325 OA
HETATM   29  C9  UNL     1       9.080  10.819  13.067  1.00  0.00     0.213 C 
ENDBRANCH  26  28
ENDBRANCH   4  26
TORSDOF 4
ENDMDL
MODEL 4
REMARK VINA RESULT: -7.771495494      2.355      6.468
REMARK  4 active torsions:
REMARK  status: ('A' for Active; 'I' for Inactive)
REMARK    1  A    between atoms: C2_2  and  C3_3 
REMARK    2  A    between atoms: C3_3  and  C4_4 
REMARK    3  A    between atoms: C7_7  and  C8_8 
REMARK    4  A    between atoms: C8_8  and  O2_10 
ROOT
HETATM    1  C4  UNL     1      11.233   9.600  13.178  1.00  0.00    -0.002 C 
HETATM    2  C5  UNL     1      12.693   9.298  13.164  1.00  0.00    -0.018 C 
HETATM    3  C6  UNL     1      13.019   8.989  11.929  1.00  0.00    -0.004 C 
HETATM    4  C7  UNL     1      11.841   9.049  11.014  1.00  0.00     0.127 C 
HETATM    5  C10 UNL     1      11.474  10.382  10.506  1.00  0.00     0.288 C 
HETATM    6  O3  UNL     1      12.038  11.447  11.112  1.00  0.00    -0.359 OA
HETATM    7  C11 UNL     1      11.494  11.946  12.243  1.00  0.00     0.176 C 
HETATM    8  C12 UNL     1      11.122  11.055  13.344  1.00  0.00     0.019 C 
HETATM    9  C13 UNL     1       9.878  11.597  14.022  1.00  0.00     0.013 C 
HETATM   10  O4  UNL     1      10.078  10.523  10.619  1.00  0.00    -0.297 OA
HETATM   11  C14 UNL     1       9.569   9.464  11.300  1.00  0.00     0.347 C 
HETATM   12  O5  UNL     1       9.063   8.567  10.329  1.00  0.00    -0.165 OA
HETATM   13  O6  UNL     1       7.802   8.831  10.050  1.00  0.00    -0.192 OA
HETATM   14  C15 UNL     1       7.057   8.259  11.108  1.00  0.00     0.230 C 
HETATM   15  C16 UNL     1       5.650   8.741  11.141  1.00  0.00     0.074 C 
HETATM   16  C17 UNL     1       4.668   7.659  10.710  1.00  0.00     0.006 C 
HETATM   17  C18 UNL     1       5.207   7.005   9.463  1.00  0.00     0.000 C 
HETATM   18  C19 UNL     1       6.429   6.217   9.808  1.00  0.00     0.006 C 
HETATM   19  C20 UNL     1       7.193   6.768  10.977  1.00  0.00     0.074 C 
HETATM   20  O7  UNL     1       7.723   8.641  12.274  1.00  0.00    -0.192 OA
HETATM   21  O8  UNL     1       8.449   9.705  12.077  1.00  0.00    -0.165 OA
HETATM   22  C21 UNL     1      10.736   8.880  12.021  1.00  0.00     0.124 C 
ENDROOT
BRANCH   1  23
HETATM   23  C3  UNL     1      10.720   8.891  14.422  1.00  0.00     0.041 C 
BRANCH  23  24
HETATM   24  C2  UNL     1      11.768   8.665  15.431  1.00  0.00    -0.036 C 
HETATM   25  C1  UNL     1      11.837   9.358  16.561  1.00  0.00     0.007 C 
ENDBRANCH  23  24
ENDBRANCH   1  23
BRANCH   4  26
HETATM   26  C8  UNL     1      12.032   7.981  10.051  1.00  0.00     0.276 C 
HETATM   27  O1  UNL     1      11.887   7.983   8.816  1.00  0.00    -0.264 OA
BRANCH  26  28
HETATM   28  O2  UNL     1      12.443   6.733  10.569  1.00  0.00    -0.325 OA
HETATM   29  C9  UNL     1      11.792   5.534  10.213  1.00  0.00     0.213 C 
ENDBRANCH  26  28
ENDBRANCH   4  26
TORSDOF 4
ENDMDL
MODEL 5
REMARK VINA RESULT: -7.768042164      2.647      6.572
REMARK  4 active torsions:
REMARK  status: ('A' for Active; 'I' for Inactive)
REMARK    1  A    between atoms: C2_2  and  C3_3 
REMARK    2  A    between atoms: C3_3  and  C4_4 
REMARK    3  A    between atoms: C7_7  and  C8_8 
REMARK    4  A    between atoms: C8_8  and  O2_10 
ROOT
HETATM    1  C4  UNL     1      10.893   9.288  12.990  1.00  0.00    -0.002 C 
HETATM    2  C5  UNL     1      12.183   8.550  12.866  1.00  0.00    -0.018 C 
HETATM    3  C6  UNL     1      12.243   8.067  11.645  1.00  0.00    -0.004 C 
HETATM    4  C7  UNL     1      11.032   8.421  10.848  1.00  0.00     0.127 C 
HETATM    5  C10 UNL     1      11.017   9.763  10.239  1.00  0.00     0.288 C 
HETATM    6  O3  UNL     1      11.945  10.643  10.670  1.00  0.00    -0.359 OA
HETATM    7  C11 UNL     1      11.722  11.365  11.788  1.00  0.00     0.176 C 
HETATM    8  C12 UNL     1      11.243  10.714  13.010  1.00  0.00     0.019 C 
HETATM    9  C13 UNL     1      10.312  11.661  13.744  1.00  0.00     0.013 C 
HETATM   10  O4  UNL     1       9.753  10.335  10.473  1.00  0.00    -0.297 OA
HETATM   11  C14 UNL     1       9.041   9.536  11.309  1.00  0.00     0.347 C 
HETATM   12  O5  UNL     1       8.173   8.772  10.494  1.00  0.00    -0.165 OA
HETATM   13  O6  UNL     1       7.024   9.391  10.313  1.00  0.00    -0.192 OA
HETATM   14  C15 UNL     1       6.281   9.155  11.493  1.00  0.00     0.230 C 
HETATM   15  C16 UNL     1       5.098  10.048  11.613  1.00  0.00     0.074 C 
HETATM   16  C17 UNL     1       3.792   9.294  11.397  1.00  0.00     0.006 C 
HETATM   17  C18 UNL     1       3.950   8.417  10.181  1.00  0.00     0.000 C 
HETATM   18  C19 UNL     1       4.914   7.318  10.488  1.00  0.00     0.006 C 
HETATM   19  C20 UNL     1       5.949   7.689  11.510  1.00  0.00     0.074 C 
HETATM   20  O7  UNL     1       7.172   9.395  12.541  1.00  0.00    -0.192 OA
HETATM   21  O8  UNL     1       8.151  10.167  12.162  1.00  0.00    -0.165 OA
HETATM   22  C21 UNL     1      10.062   8.675  11.971  1.00  0.00     0.124 C 
ENDROOT
BRANCH   1  23
HETATM   23  C3  UNL     1      10.352   8.864  14.347  1.00  0.00     0.041 C 
BRANCH  23  24
HETATM   24  C2  UNL     1      11.412   8.490  15.299  1.00  0.00    -0.036 C 
HETATM   25  C1  UNL     1      11.722   9.233  16.354  1.00  0.00     0.007 C 
ENDBRANCH  23  24
ENDBRANCH   1  23
BRANCH   4  26
HETATM   26  C8  UNL     1      10.773   7.281   9.992  1.00  0.00     0.276 C 
HETATM   27  O1  UNL     1      10.431   6.121  10.285  1.00  0.00    -0.264 OA
BRANCH  26  28
HETATM   28  O2  UNL     1      10.927   7.488   8.603  1.00  0.00    -0.325 OA
HETATM   29  C9  UNL     1      12.013   6.940   7.889  1.00  0.00     0.213 C 
ENDBRANCH  26  28
ENDBRANCH   4  26
TORSDOF 4
ENDMDL
