MODEL 1
REMARK VINA RESULT: -8.766323889      0.000      0.000
REMARK  7 active torsions:
REMARK  status: ('A' for Active; 'I' for Inactive)
REMARK    1  A    between atoms: O1_2  and  C2_3 
REMARK    2  A    between atoms: C7_8  and  O2_9 
REMARK    3  A    between atoms: O2_9  and  C8_10 
REMARK    4  A    between atoms: C11_14  and  O4_15 
REMARK    5  A    between atoms: O4_15  and  C12_16 
REMARK    6  A    between atoms: C15_20  and  O6_21 
REMARK    7  A    between atoms: O6_21  and  C16_22 
ROOT
HETATM    1  C2  UNL     1      12.569   6.887   9.342  1.00  0.00     0.154 C 
HETATM    2  C3  UNL     1      12.756   8.024  10.321  1.00  0.00     0.047 C 
HETATM    3  C4  UNL     1      11.505   8.826  10.453  1.00  0.00     0.056 C 
HETATM    4  C5  UNL     1      10.328   7.920  10.590  1.00  0.00    -0.036 C 
HETATM    5  C6  UNL     1      10.301   6.638  10.313  1.00  0.00     0.016 C 
HETATM    6  C7  UNL     1      11.529   5.915   9.793  1.00  0.00     0.184 C 
HETATM    7  C10 UNL     1       9.081   8.555  11.061  1.00  0.00     0.038 A 
HETATM    8  C11 UNL     1       7.883   8.212  10.542  1.00  0.00     0.095 A 
HETATM    9  C14 UNL     1       6.748   8.871  11.046  1.00  0.00     0.075 A 
HETATM   10  C15 UNL     1       6.842   9.829  12.032  1.00  0.00     0.084 A 
HETATM   11  C18 UNL     1       8.096  10.154  12.538  1.00  0.00     0.075 A 
HETATM   12  C19 UNL     1       9.211   9.534  12.069  1.00  0.00     0.086 A 
HETATM   13  O8  UNL     1      10.491   9.766  12.480  1.00  0.00    -0.339 OA
HETATM   14  C20 UNL     1      11.592   9.820  11.585  1.00  0.00     0.068 C 
HETATM   15  C21 UNL     1      11.618  11.218  11.010  1.00  0.00     0.047 C 
HETATM   16  C22 UNL     1      12.897   9.627  12.327  1.00  0.00     0.047 C 
ENDROOT
BRANCH   6  17
HETATM   17  O2  UNL     1      11.954   4.930  10.675  1.00  0.00    -0.310 OA
BRANCH  17  18
HETATM   18  C8  UNL     1      11.883   3.574  10.464  1.00  0.00     0.255 C 
HETATM   19  C9  UNL     1      10.649   2.827  10.688  1.00  0.00     0.126 C 
HETATM   20  O3  UNL     1      12.913   2.988  10.072  1.00  0.00    -0.266 OA
ENDBRANCH  17  18
ENDBRANCH   6  17
BRANCH   1  21
HETATM   21  O1  UNL     1      12.263   7.432   8.096  1.00  0.00    -0.388 OA
HETATM   22  C1  UNL     1      12.723   6.623   7.056  1.00  0.00     0.202 C 
ENDBRANCH   1  21
BRANCH   8  23
HETATM   23  O4  UNL     1       7.710   7.278   9.566  1.00  0.00    -0.278 OA
BRANCH  23  24
HETATM   24  C12 UNL     1       6.786   6.234   9.583  1.00  0.00     0.260 C 
HETATM   25  C13 UNL     1       5.347   6.531   9.463  1.00  0.00     0.126 C 
HETATM   26  O5  UNL     1       7.187   5.065   9.699  1.00  0.00    -0.265 OA
ENDBRANCH  23  24
ENDBRANCH   8  23
BRANCH  10  27
HETATM   27  O6  UNL     1       5.673  10.425  12.469  1.00  0.00    -0.279 OA
BRANCH  27  28
HETATM   28  C16 UNL     1       5.309  11.714  12.114  1.00  0.00     0.260 C 
HETATM   29  C17 UNL     1       4.671  11.959  10.795  1.00  0.00     0.126 C 
HETATM   30  O7  UNL     1       5.542  12.617  12.941  1.00  0.00    -0.265 OA
ENDBRANCH  27  28
ENDBRANCH  10  27
TORSDOF 7
ENDMDL
MODEL 2
REMARK VINA RESULT: -8.155370453      2.308      3.872
REMARK  7 active torsions:
REMARK  status: ('A' for Active; 'I' for Inactive)
REMARK    1  A    between atoms: O1_2  and  C2_3 
REMARK    2  A    between atoms: C7_8  and  O2_9 
REMARK    3  A    between atoms: O2_9  and  C8_10 
REMARK    4  A    between atoms: C11_14  and  O4_15 
REMARK    5  A    between atoms: O4_15  and  C12_16 
REMARK    6  A    between atoms: C15_20  and  O6_21 
REMARK    7  A    between atoms: O6_21  and  C16_22 
ROOT
HETATM    1  C2  UNL     1      15.642   7.737  12.053  1.00  0.00     0.154 C 
HETATM    2  C3  UNL     1      14.756   8.144  13.209  1.00  0.00     0.047 C 
HETATM    3  C4  UNL     1      13.495   8.774  12.721  1.00  0.00     0.056 C 
HETATM    4  C5  UNL     1      12.925   7.973  11.599  1.00  0.00    -0.036 C 
HETATM    5  C6  UNL     1      13.553   7.055  10.904  1.00  0.00     0.016 C 
HETATM    6  C7  UNL     1      15.002   6.705  11.185  1.00  0.00     0.184 C 
HETATM    7  C10 UNL     1      11.524   8.277  11.242  1.00  0.00     0.038 A 
HETATM    8  C11 UNL     1      11.123   8.307   9.953  1.00  0.00     0.095 A 
HETATM    9  C14 UNL     1       9.773   8.610   9.705  1.00  0.00     0.075 A 
HETATM   10  C15 UNL     1       8.885   8.866  10.726  1.00  0.00     0.084 A 
HETATM   11  C18 UNL     1       9.341   8.826  12.040  1.00  0.00     0.075 A 
HETATM   12  C19 UNL     1      10.640   8.537  12.311  1.00  0.00     0.086 A 
HETATM   13  O8  UNL     1      11.206   8.472  13.550  1.00  0.00    -0.339 OA
HETATM   14  C20 UNL     1      12.502   8.980  13.837  1.00  0.00     0.068 C 
HETATM   15  C21 UNL     1      12.343  10.462  14.085  1.00  0.00     0.047 C 
HETATM   16  C22 UNL     1      13.045   8.376  15.114  1.00  0.00     0.047 C 
ENDROOT
BRANCH   6  17
HETATM   17  O2  UNL     1      15.138   5.387  11.600  1.00  0.00    -0.310 OA
BRANCH  17  18
HETATM   18  C8  UNL     1      15.101   4.278  10.788  1.00  0.00     0.255 C 
HETATM   19  C9  UNL     1      13.893   3.471  10.646  1.00  0.00     0.126 C 
HETATM   20  O3  UNL     1      16.140   3.973  10.167  1.00  0.00    -0.266 OA
ENDBRANCH  17  18
ENDBRANCH   6  17
BRANCH   1  21
HETATM   21  O1  UNL     1      15.974   8.885  11.335  1.00  0.00    -0.388 OA
HETATM   22  C1  UNL     1      17.260   8.800  10.799  1.00  0.00     0.202 C 
ENDBRANCH   1  21
BRANCH   8  23
HETATM   23  O4  UNL     1      11.941   8.068   8.891  1.00  0.00    -0.278 OA
BRANCH  23  24
HETATM   24  C12 UNL     1      11.691   7.176   7.847  1.00  0.00     0.260 C 
HETATM   25  C13 UNL     1      12.002   5.747   8.020  1.00  0.00     0.126 C 
HETATM   26  O5  UNL     1      11.208   7.599   6.786  1.00  0.00    -0.265 OA
ENDBRANCH  23  24
ENDBRANCH   8  23
BRANCH  10  27
HETATM   27  O6  UNL     1       7.575   9.155  10.389  1.00  0.00    -0.279 OA
BRANCH  27  28
HETATM   28  C16 UNL     1       6.525   8.288  10.644  1.00  0.00     0.260 C 
HETATM   29  C17 UNL     1       6.354   7.075   9.803  1.00  0.00     0.126 C 
HETATM   30  O7  UNL     1       5.765   8.580  11.588  1.00  0.00    -0.265 OA
ENDBRANCH  27  28
ENDBRANCH  10  27
TORSDOF 7
ENDMDL
MODEL 3
REMARK VINA RESULT: -8.097720491      1.171      1.424
REMARK  7 active torsions:
REMARK  status: ('A' for Active; 'I' for Inactive)
REMARK    1  A    between atoms: O1_2  and  C2_3 
REMARK    2  A    between atoms: C7_8  and  O2_9 
REMARK    3  A    between atoms: O2_9  and  C8_10 
REMARK    4  A    between atoms: C11_14  and  O4_15 
REMARK    5  A    between atoms: O4_15  and  C12_16 
REMARK    6  A    between atoms: C15_20  and  O6_21 
REMARK    7  A    between atoms: O6_21  and  C16_22 
ROOT
HETATM    1  C2  UNL     1      12.866   6.218   9.621  1.00  0.00     0.154 C 
HETATM    2  C3  UNL     1      13.260   7.121  10.769  1.00  0.00     0.047 C 
HETATM    3  C4  UNL     1      12.197   8.131  11.044  1.00  0.00     0.056 C 
HETATM    4  C5  UNL     1      10.857   7.476  11.047  1.00  0.00    -0.036 C 
HETATM    5  C6  UNL     1      10.575   6.288  10.568  1.00  0.00     0.016 C 
HETATM    6  C7  UNL     1      11.639   5.422   9.923  1.00  0.00     0.184 C 
HETATM    7  C10 UNL     1       9.757   8.270  11.630  1.00  0.00     0.038 A 
HETATM    8  C11 UNL     1       8.525   8.268  11.077  1.00  0.00     0.095 A 
HETATM    9  C14 UNL     1       7.539   9.056  11.696  1.00  0.00     0.075 A 
HETATM   10  C15 UNL     1       7.806   9.804  12.822  1.00  0.00     0.084 A 
HETATM   11  C18 UNL     1       9.089   9.779  13.358  1.00  0.00     0.075 A 
HETATM   12  C19 UNL     1      10.063   9.027  12.782  1.00  0.00     0.086 A 
HETATM   13  O8  UNL     1      11.354   8.922  13.208  1.00  0.00    -0.339 OA
HETATM   14  C20 UNL     1      12.463   8.891  12.320  1.00  0.00     0.068 C 
HETATM   15  C21 UNL     1      12.786  10.328  11.977  1.00  0.00     0.047 C 
HETATM   16  C22 UNL     1      13.684   8.318  13.005  1.00  0.00     0.047 C 
ENDROOT
BRANCH   6  17
HETATM   17  O2  UNL     1      11.835   4.242  10.629  1.00  0.00    -0.310 OA
BRANCH  17  18
HETATM   18  C8  UNL     1      12.442   3.107  10.149  1.00  0.00     0.255 C 
HETATM   19  C9  UNL     1      13.773   2.702  10.592  1.00  0.00     0.126 C 
HETATM   20  O3  UNL     1      11.820   2.420   9.311  1.00  0.00    -0.266 OA
ENDBRANCH  17  18
ENDBRANCH   6  17
BRANCH   1  21
HETATM   21  O1  UNL     1      12.704   7.008   8.483  1.00  0.00    -0.388 OA
HETATM   22  C1  UNL     1      12.744   6.240   7.318  1.00  0.00     0.202 C 
ENDBRANCH   1  21
BRANCH   8  23
HETATM   23  O4  UNL     1       8.186   7.558   9.966  1.00  0.00    -0.278 OA
BRANCH  23  24
HETATM   24  C12 UNL     1       7.197   6.577   9.888  1.00  0.00     0.260 C 
HETATM   25  C13 UNL     1       5.837   6.945   9.459  1.00  0.00     0.126 C 
HETATM   26  O5  UNL     1       7.477   5.405  10.181  1.00  0.00    -0.265 OA
ENDBRANCH  23  24
ENDBRANCH   8  23
BRANCH  10  27
HETATM   27  O6  UNL     1       6.775  10.550  13.364  1.00  0.00    -0.279 OA
BRANCH  27  28
HETATM   28  C16 UNL     1       6.686  11.924  13.220  1.00  0.00     0.260 C 
HETATM   29  C17 UNL     1       7.879  12.769  13.485  1.00  0.00     0.126 C 
HETATM   30  O7  UNL     1       5.584  12.387  12.866  1.00  0.00    -0.265 OA
ENDBRANCH  27  28
ENDBRANCH  10  27
TORSDOF 7
ENDMDL
MODEL 4
REMARK VINA RESULT: -8.084504202      1.805      2.259
REMARK  7 active torsions:
REMARK  status: ('A' for Active; 'I' for Inactive)
REMARK    1  A    between atoms: O1_2  and  C2_3 
REMARK    2  A    between atoms: C7_8  and  O2_9 
REMARK    3  A    between atoms: O2_9  and  C8_10 
REMARK    4  A    between atoms: C11_14  and  O4_15 
REMARK    5  A    between atoms: O4_15  and  C12_16 
REMARK    6  A    between atoms: C15_20  and  O6_21 
REMARK    7  A    between atoms: O6_21  and  C16_22 
ROOT
HETATM    1  C2  UNL     1      13.532   6.213   9.303  1.00  0.00     0.154 C 
HETATM    2  C3  UNL     1      14.125   6.898  10.515  1.00  0.00     0.047 C 
HETATM    3  C4  UNL     1      13.216   7.966  11.023  1.00  0.00     0.056 C 
HETATM    4  C5  UNL     1      11.813   7.462  11.072  1.00  0.00    -0.036 C 
HETATM    5  C6  UNL     1      11.353   6.391  10.472  1.00  0.00     0.016 C 
HETATM    6  C7  UNL     1      12.250   5.516   9.618  1.00  0.00     0.184 C 
HETATM    7  C10 UNL     1      10.866   8.278  11.860  1.00  0.00     0.038 A 
HETATM    8  C11 UNL     1       9.601   8.484  11.436  1.00  0.00     0.095 A 
HETATM    9  C14 UNL     1       8.770   9.278  12.246  1.00  0.00     0.075 A 
HETATM   10  C15 UNL     1       9.217   9.826  13.428  1.00  0.00     0.084 A 
HETATM   11  C18 UNL     1      10.528   9.590  13.828  1.00  0.00     0.075 A 
HETATM   12  C19 UNL     1      11.355   8.828  13.065  1.00  0.00     0.086 A 
HETATM   13  O8  UNL     1      12.656   8.528  13.344  1.00  0.00    -0.339 OA
HETATM   14  C20 UNL     1      13.674   8.506  12.355  1.00  0.00     0.068 C 
HETATM   15  C21 UNL     1      14.136   9.934  12.172  1.00  0.00     0.047 C 
HETATM   16  C22 UNL     1      14.872   7.716  12.835  1.00  0.00     0.047 C 
ENDROOT
BRANCH   6  17
HETATM   17  O2  UNL     1      12.363   4.235  10.141  1.00  0.00    -0.310 OA
BRANCH  17  18
HETATM   18  C8  UNL     1      11.495   3.193   9.916  1.00  0.00     0.255 C 
HETATM   19  C9  UNL     1      10.472   2.823  10.890  1.00  0.00     0.126 C 
HETATM   20  O3  UNL     1      11.604   2.561   8.845  1.00  0.00    -0.266 OA
ENDBRANCH  17  18
ENDBRANCH   6  17
BRANCH   1  21
HETATM   21  O1  UNL     1      13.370   7.168   8.300  1.00  0.00    -0.388 OA
HETATM   22  C1  UNL     1      12.675   6.648   7.207  1.00  0.00     0.202 C 
ENDBRANCH   1  21
BRANCH   8  23
HETATM   23  O4  UNL     1       9.089   7.978  10.280  1.00  0.00    -0.278 OA
BRANCH  23  24
HETATM   24  C12 UNL     1       7.888   7.281  10.151  1.00  0.00     0.260 C 
HETATM   25  C13 UNL     1       7.884   5.811  10.255  1.00  0.00     0.126 C 
HETATM   26  O5  UNL     1       6.836   7.908   9.951  1.00  0.00    -0.265 OA
ENDBRANCH  23  24
ENDBRANCH   8  23
BRANCH  10  27
HETATM   27  O6  UNL     1       8.330  10.593  14.162  1.00  0.00    -0.279 OA
BRANCH  27  28
HETATM   28  C16 UNL     1       7.839  11.808  13.715  1.00  0.00     0.260 C 
HETATM   29  C17 UNL     1       8.753  12.975  13.608  1.00  0.00     0.126 C 
HETATM   30  O7  UNL     1       6.629  11.856  13.420  1.00  0.00    -0.265 OA
ENDBRANCH  27  28
ENDBRANCH  10  27
TORSDOF 7
ENDMDL
MODEL 5
REMARK VINA RESULT: -8.021948889      2.447      4.235
REMARK  7 active torsions:
REMARK  status: ('A' for Active; 'I' for Inactive)
REMARK    1  A    between atoms: O1_2  and  C2_3 
REMARK    2  A    between atoms: C7_8  and  O2_9 
REMARK    3  A    between atoms: O2_9  and  C8_10 
REMARK    4  A    between atoms: C11_14  and  O4_15 
REMARK    5  A    between atoms: O4_15  and  C12_16 
REMARK    6  A    between atoms: C15_20  and  O6_21 
REMARK    7  A    between atoms: O6_21  and  C16_22 
ROOT
HETATM    1  C2  UNL     1      12.892   6.123   8.027  1.00  0.00     0.154 C 
HETATM    2  C3  UNL     1      14.032   6.337   8.998  1.00  0.00     0.047 C 
HETATM    3  C4  UNL     1      13.714   7.428   9.964  1.00  0.00     0.056 C 
HETATM    4  C5  UNL     1      12.324   7.264  10.481  1.00  0.00    -0.036 C 
HETATM    5  C6  UNL     1      11.389   6.507   9.961  1.00  0.00     0.016 C 
HETATM    6  C7  UNL     1      11.639   5.684   8.712  1.00  0.00     0.184 C 
HETATM    7  C10 UNL     1      11.989   8.058  11.680  1.00  0.00     0.038 A 
HETATM    8  C11 UNL     1      10.781   8.647  11.813  1.00  0.00     0.095 A 
HETATM    9  C14 UNL     1      10.550   9.388  12.985  1.00  0.00     0.075 A 
HETATM   10  C15 UNL     1      11.508   9.514  13.967  1.00  0.00     0.084 A 
HETATM   11  C18 UNL     1      12.740   8.892  13.789  1.00  0.00     0.075 A 
HETATM   12  C19 UNL     1      12.993   8.171  12.666  1.00  0.00     0.086 A 
HETATM   13  O8  UNL     1      14.156   7.521  12.375  1.00  0.00    -0.339 OA
HETATM   14  C20 UNL     1      14.730   7.506  11.076  1.00  0.00     0.068 C 
HETATM   15  C21 UNL     1      15.516   8.790  10.933  1.00  0.00     0.047 C 
HETATM   16  C22 UNL     1      15.719   6.369  10.938  1.00  0.00     0.047 C 
ENDROOT
BRANCH   6  17
HETATM   17  O2  UNL     1      11.525   4.324   8.963  1.00  0.00    -0.310 OA
BRANCH  17  18
HETATM   18  C8  UNL     1      11.795   3.700  10.157  1.00  0.00     0.255 C 
HETATM   19  C9  UNL     1      13.156   3.339  10.543  1.00  0.00     0.126 C 
HETATM   20  O3  UNL     1      10.836   3.444  10.914  1.00  0.00    -0.266 OA
ENDBRANCH  17  18
ENDBRANCH   6  17
BRANCH   1  21
HETATM   21  O1  UNL     1      12.704   7.304   7.310  1.00  0.00    -0.388 OA
HETATM   22  C1  UNL     1      11.356   7.516   7.017  1.00  0.00     0.202 C 
ENDBRANCH   1  21
BRANCH   8  23
HETATM   23  O4  UNL     1       9.786   8.570  10.887  1.00  0.00    -0.278 OA
BRANCH  23  24
HETATM   24  C12 UNL     1       8.444   8.289  11.145  1.00  0.00     0.260 C 
HETATM   25  C13 UNL     1       8.083   7.048  11.854  1.00  0.00     0.126 C 
HETATM   26  O5  UNL     1       7.571   9.089  10.776  1.00  0.00    -0.265 OA
ENDBRANCH  23  24
ENDBRANCH   8  23
BRANCH  10  27
HETATM   27  O6  UNL     1      11.194  10.261  15.087  1.00  0.00    -0.279 OA
BRANCH  27  28
HETATM   28  C16 UNL     1      11.902  10.170  16.274  1.00  0.00     0.260 C 
HETATM   29  C17 UNL     1      12.971  11.158  16.569  1.00  0.00     0.126 C 
HETATM   30  O7  UNL     1      11.595   9.242  17.047  1.00  0.00    -0.265 OA
ENDBRANCH  27  28
ENDBRANCH  10  27
TORSDOF 7
ENDMDL
