MODEL 1
REMARK VINA RESULT: -8.037418088      0.000      0.000
REMARK  7 active torsions:
REMARK  status: ('A' for Active; 'I' for Inactive)
REMARK    1  A    between atoms: C3_3  and  C5_5 
REMARK    2  A    between atoms: C5_5  and  O2_7 
REMARK    3  A    between atoms: O2_7  and  C6_8 
REMARK    4  A    between atoms: C14_18  and  C15_19 
REMARK    5  A    between atoms: C15_19  and  O4_21 
REMARK    6  A    between atoms: C17_23  and  O5_24 
REMARK    7  A    between atoms: O5_24  and  C18_25 
ROOT
HETATM    1  C6  UNL     1      11.600   7.613  11.284  1.00  0.00     0.165 C 
HETATM    2  C7  UNL     1      12.777   7.851  10.434  1.00  0.00     0.120 C 
HETATM    3  S1  UNL     1      13.455   9.495  10.765  1.00  0.00    -0.094 SA
HETATM    4  S2  UNL     1      11.753  10.195  11.848  1.00  0.00    -0.081 SA
HETATM    5  C8  UNL     1      10.670   8.754  11.417  1.00  0.00     0.080 C 
HETATM    6  C9  UNL     1       9.821   9.098  10.285  1.00  0.00     0.029 C 
HETATM    7  C10 UNL     1      10.342   8.718   8.912  1.00  0.00     0.016 C 
HETATM    8  C11 UNL     1       8.406   8.687  10.321  1.00  0.00    -0.017 C 
HETATM    9  C12 UNL     1       7.768   8.653  11.468  1.00  0.00    -0.071 C 
HETATM   10  C13 UNL     1       6.321   8.231  11.485  1.00  0.00     0.044 C 
HETATM   11  C14 UNL     1       8.478   9.016  12.695  1.00  0.00     0.145 C 
HETATM   12  C17 UNL     1       9.886   8.519  12.682  1.00  0.00     0.172 C 
ENDROOT
BRANCH   1  13
HETATM   13  O2  UNL     1      10.955   6.456  10.790  1.00  0.00    -0.310 OA
BRANCH  13  14
HETATM   14  C5  UNL     1      11.458   5.555   9.905  1.00  0.00     0.289 C 
HETATM   15  O1  UNL     1      11.475   5.841   8.683  1.00  0.00    -0.260 OA
BRANCH  14  16
HETATM   16  C3  UNL     1      11.993   4.245  10.297  1.00  0.00     0.009 C 
HETATM   17  C2  UNL     1      13.287   4.025  10.335  1.00  0.00    -0.018 C 
HETATM   18  C1  UNL     1      13.862   2.714  10.726  1.00  0.00     0.036 C 
HETATM   19  C4  UNL     1      11.091   3.123  10.665  1.00  0.00     0.054 C 
ENDBRANCH  14  16
ENDBRANCH  13  14
ENDBRANCH   1  13
BRANCH  12  20
HETATM   20  O5  UNL     1      10.514   9.163  13.807  1.00  0.00    -0.313 OA
BRANCH  20  21
HETATM   21  C18 UNL     1      10.562   8.537  15.030  1.00  0.00     0.255 C 
HETATM   22  C19 UNL     1      11.822   8.525  15.852  1.00  0.00     0.126 C 
HETATM   23  O6  UNL     1       9.591   7.946  15.539  1.00  0.00    -0.266 OA
ENDBRANCH  20  21
ENDBRANCH  12  20
BRANCH  11  24
HETATM   24  C15 UNL     1       8.295  10.390  13.165  1.00  0.00     0.269 C 
HETATM   25  O3  UNL     1       7.557  10.601  14.160  1.00  0.00    -0.264 OA
BRANCH  24  26
HETATM   26  O4  UNL     1       8.886  11.497  12.586  1.00  0.00    -0.326 OA
HETATM   27  C16 UNL     1       9.242  12.583  13.414  1.00  0.00     0.213 C 
ENDBRANCH  24  26
ENDBRANCH  11  24
TORSDOF 7
ENDMDL
MODEL 2
REMARK VINA RESULT: -7.478154252      2.347      3.752
REMARK  7 active torsions:
REMARK  status: ('A' for Active; 'I' for Inactive)
REMARK    1  A    between atoms: C3_3  and  C5_5 
REMARK    2  A    between atoms: C5_5  and  O2_7 
REMARK    3  A    between atoms: O2_7  and  C6_8 
REMARK    4  A    between atoms: C14_18  and  C15_19 
REMARK    5  A    between atoms: C15_19  and  O4_21 
REMARK    6  A    between atoms: C17_23  and  O5_24 
REMARK    7  A    between atoms: O5_24  and  C18_25 
ROOT
HETATM    1  C6  UNL     1      11.742   8.739  11.757  1.00  0.00     0.165 C 
HETATM    2  C7  UNL     1      12.560   9.784  11.123  1.00  0.00     0.120 C 
HETATM    3  S1  UNL     1      11.492  11.063  10.419  1.00  0.00    -0.094 SA
HETATM    4  S2  UNL     1       9.696   9.917  10.559  1.00  0.00    -0.081 SA
HETATM    5  C8  UNL     1      10.540   8.328  11.002  1.00  0.00     0.080 C 
HETATM    6  C9  UNL     1      10.711   7.512   9.808  1.00  0.00     0.029 C 
HETATM    7  C10 UNL     1      12.035   7.650   9.082  1.00  0.00     0.016 C 
HETATM    8  C11 UNL     1      10.438   6.067   9.902  1.00  0.00    -0.017 C 
HETATM    9  C12 UNL     1       9.494   5.634  10.707  1.00  0.00    -0.071 C 
HETATM   10  C13 UNL     1       9.228   4.153  10.789  1.00  0.00     0.044 C 
HETATM   11  C14 UNL     1       8.733   6.598  11.503  1.00  0.00     0.145 C 
HETATM   12  C17 UNL     1       9.602   7.704  12.003  1.00  0.00     0.172 C 
ENDROOT
BRANCH   1  13
HETATM   13  O2  UNL     1      12.597   7.648  12.032  1.00  0.00    -0.310 OA
BRANCH  13  14
HETATM   14  C5  UNL     1      13.931   7.699  12.287  1.00  0.00     0.289 C 
HETATM   15  O1  UNL     1      14.346   8.397  13.245  1.00  0.00    -0.260 OA
BRANCH  14  16
HETATM   16  C3  UNL     1      14.937   6.975  11.499  1.00  0.00     0.009 C 
HETATM   17  C2  UNL     1      14.787   5.702  11.213  1.00  0.00    -0.018 C 
HETATM   18  C1  UNL     1      15.781   4.940  10.419  1.00  0.00     0.036 C 
HETATM   19  C4  UNL     1      16.158   7.656  10.996  1.00  0.00     0.054 C 
ENDBRANCH  14  16
ENDBRANCH  13  14
ENDBRANCH   1  13
BRANCH  12  20
HETATM   20  O5  UNL     1       8.685   8.682  12.532  1.00  0.00    -0.313 OA
BRANCH  20  21
HETATM   21  C18 UNL     1       8.705   9.004  13.869  1.00  0.00     0.255 C 
HETATM   22  C19 UNL     1       9.444   8.152  14.866  1.00  0.00     0.126 C 
HETATM   23  O6  UNL     1       8.128   9.999  14.346  1.00  0.00    -0.266 OA
ENDBRANCH  20  21
ENDBRANCH  12  20
BRANCH  11  24
HETATM   24  C15 UNL     1       7.437   7.007  10.957  1.00  0.00     0.269 C 
HETATM   25  O3  UNL     1       6.528   7.363  11.750  1.00  0.00    -0.264 OA
BRANCH  24  26
HETATM   26  O4  UNL     1       7.132   7.034   9.611  1.00  0.00    -0.326 OA
HETATM   27  C16 UNL     1       6.089   6.207   9.139  1.00  0.00     0.213 C 
ENDBRANCH  24  26
ENDBRANCH  11  24
TORSDOF 7
ENDMDL
MODEL 3
REMARK VINA RESULT: -7.453910098      0.855      1.011
REMARK  7 active torsions:
REMARK  status: ('A' for Active; 'I' for Inactive)
REMARK    1  A    between atoms: C3_3  and  C5_5 
REMARK    2  A    between atoms: C5_5  and  O2_7 
REMARK    3  A    between atoms: O2_7  and  C6_8 
REMARK    4  A    between atoms: C14_18  and  C15_19 
REMARK    5  A    between atoms: C15_19  and  O4_21 
REMARK    6  A    between atoms: C17_23  and  O5_24 
REMARK    7  A    between atoms: O5_24  and  C18_25 
ROOT
HETATM    1  C6  UNL     1      11.546   7.533  11.160  1.00  0.00     0.165 C 
HETATM    2  C7  UNL     1      12.785   7.894  10.456  1.00  0.00     0.120 C 
HETATM    3  S1  UNL     1      13.137   9.654  10.688  1.00  0.00    -0.094 SA
HETATM    4  S2  UNL     1      11.201  10.143  11.443  1.00  0.00    -0.081 SA
HETATM    5  C8  UNL     1      10.438   8.504  11.035  1.00  0.00     0.080 C 
HETATM    6  C9  UNL     1       9.728   8.593   9.767  1.00  0.00     0.029 C 
HETATM    7  C10 UNL     1      10.505   8.188   8.530  1.00  0.00     0.016 C 
HETATM    8  C11 UNL     1       8.407   7.949   9.657  1.00  0.00    -0.017 C 
HETATM    9  C12 UNL     1       7.615   7.907  10.704  1.00  0.00    -0.071 C 
HETATM   10  C13 UNL     1       6.267   7.245  10.572  1.00  0.00     0.044 C 
HETATM   11  C14 UNL     1       8.063   8.495  11.966  1.00  0.00     0.145 C 
HETATM   12  C17 UNL     1       9.517   8.250  12.201  1.00  0.00     0.172 C 
ENDROOT
BRANCH   1  13
HETATM   13  O2  UNL     1      11.175   6.243  10.718  1.00  0.00    -0.310 OA
BRANCH  13  14
HETATM   14  C5  UNL     1      11.891   5.420   9.907  1.00  0.00     0.289 C 
HETATM   15  O1  UNL     1      12.178   5.801   8.746  1.00  0.00    -0.260 OA
BRANCH  14  16
HETATM   16  C3  UNL     1      12.360   4.088  10.313  1.00  0.00     0.009 C 
HETATM   17  C2  UNL     1      13.641   3.807  10.363  1.00  0.00    -0.018 C 
HETATM   18  C1  UNL     1      14.149   2.473  10.768  1.00  0.00     0.036 C 
HETATM   19  C4  UNL     1      11.402   3.013  10.680  1.00  0.00     0.054 C 
ENDBRANCH  14  16
ENDBRANCH  13  14
ENDBRANCH   1  13
BRANCH  12  20
HETATM   20  O5  UNL     1       9.856   9.091  13.321  1.00  0.00    -0.313 OA
BRANCH  20  21
HETATM   21  C18 UNL     1      10.052   8.545  14.567  1.00  0.00     0.255 C 
HETATM   22  C19 UNL     1      11.408   8.556  15.220  1.00  0.00     0.126 C 
HETATM   23  O6  UNL     1       9.146   8.012  15.235  1.00  0.00    -0.266 OA
ENDBRANCH  20  21
ENDBRANCH  12  20
BRANCH  11  24
HETATM   24  C15 UNL     1       7.596   9.854  12.248  1.00  0.00     0.269 C 
HETATM   25  O3  UNL     1       7.263  10.594  11.288  1.00  0.00    -0.264 OA
BRANCH  24  26
HETATM   26  O4  UNL     1       7.491  10.395  13.515  1.00  0.00    -0.326 OA
HETATM   27  C16 UNL     1       7.756  11.771  13.684  1.00  0.00     0.213 C 
ENDBRANCH  24  26
ENDBRANCH  11  24
TORSDOF 7
ENDMDL
MODEL 4
REMARK VINA RESULT: -7.450769414      2.493      6.107
REMARK  7 active torsions:
REMARK  status: ('A' for Active; 'I' for Inactive)
REMARK    1  A    between atoms: C3_3  and  C5_5 
REMARK    2  A    between atoms: C5_5  and  O2_7 
REMARK    3  A    between atoms: O2_7  and  C6_8 
REMARK    4  A    between atoms: C14_18  and  C15_19 
REMARK    5  A    between atoms: C15_19  and  O4_21 
REMARK    6  A    between atoms: C17_23  and  O5_24 
REMARK    7  A    between atoms: O5_24  and  C18_25 
ROOT
HETATM    1  C6  UNL     1      11.743   8.821  12.279  1.00  0.00     0.165 C 
HETATM    2  C7  UNL     1      11.754  10.292  12.301  1.00  0.00     0.120 C 
HETATM    3  S1  UNL     1      10.961  10.937  10.808  1.00  0.00    -0.094 SA
HETATM    4  S2  UNL     1      10.978   9.079   9.757  1.00  0.00    -0.081 SA
HETATM    5  C8  UNL     1      12.065   8.202  10.976  1.00  0.00     0.080 C 
HETATM    6  C9  UNL     1      13.445   8.229  10.513  1.00  0.00     0.029 C 
HETATM    7  C10 UNL     1      14.308   9.363  11.032  1.00  0.00     0.016 C 
HETATM    8  C11 UNL     1      14.251   7.002  10.641  1.00  0.00    -0.017 C 
HETATM    9  C12 UNL     1      13.674   5.829  10.514  1.00  0.00    -0.071 C 
HETATM   10  C13 UNL     1      14.514   4.584  10.647  1.00  0.00     0.044 C 
HETATM   11  C14 UNL     1      12.236   5.761  10.254  1.00  0.00     0.145 C 
HETATM   12  C17 UNL     1      11.491   6.809  11.013  1.00  0.00     0.172 C 
ENDROOT
BRANCH   1  13
HETATM   13  O2  UNL     1      12.609   8.381  13.306  1.00  0.00    -0.310 OA
BRANCH  13  14
HETATM   14  C5  UNL     1      12.521   8.672  14.630  1.00  0.00     0.289 C 
HETATM   15  O1  UNL     1      11.396   8.656  15.188  1.00  0.00    -0.260 OA
BRANCH  14  16
HETATM   16  C3  UNL     1      13.680   9.010  15.466  1.00  0.00     0.009 C 
HETATM   17  C2  UNL     1      14.906   8.808  15.039  1.00  0.00    -0.018 C 
HETATM   18  C1  UNL     1      16.099   9.138  15.856  1.00  0.00     0.036 C 
HETATM   19  C4  UNL     1      13.509   9.592  16.823  1.00  0.00     0.054 C 
ENDBRANCH  14  16
ENDBRANCH  13  14
ENDBRANCH   1  13
BRANCH  12  20
HETATM   20  O5  UNL     1      10.158   6.784  10.466  1.00  0.00    -0.313 OA
BRANCH  20  21
HETATM   21  C18 UNL     1       9.137   6.166  11.147  1.00  0.00     0.255 C 
HETATM   22  C19 UNL     1       8.700   4.768  10.800  1.00  0.00     0.126 C 
HETATM   23  O6  UNL     1       8.509   6.702  12.080  1.00  0.00    -0.266 OA
ENDBRANCH  20  21
ENDBRANCH  12  20
BRANCH  11  24
HETATM   24  C15 UNL     1      11.838   5.590   8.855  1.00  0.00     0.269 C 
HETATM   25  O3  UNL     1      11.484   4.451   8.458  1.00  0.00    -0.264 OA
BRANCH  24  26
HETATM   26  O4  UNL     1      11.823   6.606   7.920  1.00  0.00    -0.326 OA
HETATM   27  C16 UNL     1      12.887   6.690   6.997  1.00  0.00     0.213 C 
ENDBRANCH  24  26
ENDBRANCH  11  24
TORSDOF 7
ENDMDL
MODEL 5
REMARK VINA RESULT: -7.435786252      2.443      6.283
REMARK  7 active torsions:
REMARK  status: ('A' for Active; 'I' for Inactive)
REMARK    1  A    between atoms: C3_3  and  C5_5 
REMARK    2  A    between atoms: C5_5  and  O2_7 
REMARK    3  A    between atoms: O2_7  and  C6_8 
REMARK    4  A    between atoms: C14_18  and  C15_19 
REMARK    5  A    between atoms: C15_19  and  O4_21 
REMARK    6  A    between atoms: C17_23  and  O5_24 
REMARK    7  A    between atoms: O5_24  and  C18_25 
ROOT
HETATM    1  C6  UNL     1      11.743   8.773  12.086  1.00  0.00     0.165 C 
HETATM    2  C7  UNL     1      11.669  10.241  12.030  1.00  0.00     0.120 C 
HETATM    3  S1  UNL     1      10.927  10.764  10.465  1.00  0.00    -0.094 SA
HETATM    4  S2  UNL     1      11.109   8.860   9.516  1.00  0.00    -0.081 SA
HETATM    5  C8  UNL     1      12.174   8.111  10.836  1.00  0.00     0.080 C 
HETATM    6  C9  UNL     1      13.574   8.198  10.446  1.00  0.00     0.029 C 
HETATM    7  C10 UNL     1      14.340   9.406  10.950  1.00  0.00     0.016 C 
HETATM    8  C11 UNL     1      14.440   7.029  10.682  1.00  0.00    -0.017 C 
HETATM    9  C12 UNL     1      13.940   5.819  10.586  1.00  0.00    -0.071 C 
HETATM   10  C13 UNL     1      14.841   4.635  10.829  1.00  0.00     0.044 C 
HETATM   11  C14 UNL     1      12.525   5.652  10.253  1.00  0.00     0.145 C 
HETATM   12  C17 UNL     1      11.679   6.690  10.915  1.00  0.00     0.172 C 
ENDROOT
BRANCH   1  13
HETATM   13  O2  UNL     1      12.574   8.438  13.179  1.00  0.00    -0.310 OA
BRANCH  13  14
HETATM   14  C5  UNL     1      12.350   8.713  14.491  1.00  0.00     0.289 C 
HETATM   15  O1  UNL     1      11.172   8.707  14.925  1.00  0.00    -0.260 OA
BRANCH  14  16
HETATM   16  C3  UNL     1      13.418   9.021  15.449  1.00  0.00     0.009 C 
HETATM   17  C2  UNL     1      14.681   8.830  15.142  1.00  0.00    -0.018 C 
HETATM   18  C1  UNL     1      15.785   9.131  16.085  1.00  0.00     0.036 C 
HETATM   19  C4  UNL     1      13.110   9.560  16.800  1.00  0.00     0.054 C 
ENDBRANCH  14  16
ENDBRANCH  13  14
ENDBRANCH   1  13
BRANCH  12  20
HETATM   20  O5  UNL     1      10.383   6.558  10.299  1.00  0.00    -0.313 OA
BRANCH  20  21
HETATM   21  C18 UNL     1       9.300   6.146  11.038  1.00  0.00     0.255 C 
HETATM   22  C19 UNL     1       8.630   4.825  10.772  1.00  0.00     0.126 C 
HETATM   23  O6  UNL     1       8.800   6.818  11.960  1.00  0.00    -0.266 OA
ENDBRANCH  20  21
ENDBRANCH  12  20
BRANCH  11  24
HETATM   24  C15 UNL     1      12.218   5.389   8.846  1.00  0.00     0.269 C 
HETATM   25  O3  UNL     1      12.599   6.212   7.976  1.00  0.00    -0.264 OA
BRANCH  24  26
HETATM   26  O4  UNL     1      11.527   4.282   8.393  1.00  0.00    -0.326 OA
HETATM   27  C16 UNL     1      11.457   3.144   9.226  1.00  0.00     0.213 C 
ENDBRANCH  24  26
ENDBRANCH  11  24
TORSDOF 7
ENDMDL
