MODEL 1
REMARK VINA RESULT: -8.996237963      0.000      0.000
REMARK  8 active torsions:
REMARK  status: ('A' for Active; 'I' for Inactive)
REMARK    1  A    between atoms: O1_2  and  C2_3 
REMARK    2  A    between atoms: C2_3  and  C3_5 
REMARK    3  A    between atoms: C8_10  and  O3_11 
REMARK    4  A    between atoms: O3_11  and  C9_12 
REMARK    5  A    between atoms: C9_12  and  O5_14 
REMARK    6  A    between atoms: O5_14  and  C10_15 
REMARK    7  A    between atoms: C10_15  and  C13_18 
REMARK    8  A    between atoms: C16_25  and  C17_26 
ROOT
HETATM    1  C13 UNL     1      11.454   7.356  10.689  1.00  0.00     0.233 C 
HETATM    2  N1  UNL     1      11.752   8.356  11.679  1.00  0.00    -0.050 N 
ATOM      3  H11 UNL     1      11.185   8.427  12.524  1.00  0.00     0.279 HD
ATOM      4  H12 UNL     1      11.575   9.341  11.484  1.00  0.00     0.279 HD
HETATM    5  C14 UNL     1      13.109   7.858  11.750  1.00  0.00     0.302 C 
HETATM    6  C15 UNL     1      14.154   8.849  11.828  1.00  0.00     0.093 C 
HETATM    7  N2  UNL     1      14.983   9.651  11.887  1.00  0.00    -0.195 NA
HETATM    8  C16 UNL     1      12.914   7.197  10.405  1.00  0.00     0.097 C 
ENDROOT
BRANCH   8   9
HETATM    9  C17 UNL     1      13.393   5.783  10.364  1.00  0.00    -0.049 A 
HETATM   10  C18 UNL     1      14.739   5.465  10.368  1.00  0.00     0.008 A 
HETATM   11  C19 UNL     1      15.215   4.186  10.333  1.00  0.00     0.007 A 
HETATM   12  C20 UNL     1      14.322   3.143  10.289  1.00  0.00    -0.062 A 
HETATM   13  C21 UNL     1      14.795   1.720  10.248  1.00  0.00     0.048 C 
HETATM   14  C22 UNL     1      12.958   3.415  10.282  1.00  0.00     0.007 A 
HETATM   15  C23 UNL     1      12.511   4.721  10.320  1.00  0.00     0.008 A 
ENDBRANCH   8   9
BRANCH   1  16
HETATM   16  C10 UNL     1      10.585   7.787   9.543  1.00  0.00     0.095 C 
HETATM   17  C11 UNL     1      10.380   9.281   9.556  1.00  0.00     0.048 C 
HETATM   18  C12 UNL     1      11.293   7.353   8.263  1.00  0.00     0.048 C 
BRANCH  16  19
HETATM   19  O5  UNL     1       9.354   7.080   9.619  1.00  0.00    -0.285 OA
BRANCH  19  20
HETATM   20  C9  UNL     1       8.877   6.504  10.778  1.00  0.00     0.412 C 
HETATM   21  O4  UNL     1       8.542   5.306  10.788  1.00  0.00    -0.229 OA
BRANCH  20  22
HETATM   22  O3  UNL     1       8.743   7.205  11.982  1.00  0.00    -0.255 OA
BRANCH  22  23
HETATM   23  C8  UNL     1       7.983   8.355  12.084  1.00  0.00     0.097 A 
HETATM   24  C3  UNL     1       8.171   9.211  13.134  1.00  0.00     0.073 A 
HETATM   25  C4  UNL     1       7.393  10.367  13.222  1.00  0.00     0.020 A 
HETATM   26  C5  UNL     1       6.437  10.672  12.275  1.00  0.00     0.001 A 
HETATM   27  C6  UNL     1       6.246   9.816  11.221  1.00  0.00     0.003 A 
HETATM   28  C7  UNL     1       7.010   8.676  11.132  1.00  0.00     0.038 A 
BRANCH  24  29
HETATM   29  C2  UNL     1       9.183   8.905  14.131  1.00  0.00     0.295 C 
HETATM   30  O2  UNL     1       9.023   8.192  15.131  1.00  0.00    -0.259 OA
BRANCH  29  31
HETATM   31  O1  UNL     1      10.447   9.457  13.953  1.00  0.00    -0.322 OA
HETATM   32  C1  UNL     1      11.401   9.529  14.997  1.00  0.00     0.213 C 
ENDBRANCH  29  31
ENDBRANCH  24  29
ENDBRANCH  22  23
ENDBRANCH  20  22
ENDBRANCH  19  20
ENDBRANCH  16  19
ENDBRANCH   1  16
TORSDOF 8
ENDMDL
MODEL 2
REMARK VINA RESULT: -8.763392328      2.447      6.035
REMARK  8 active torsions:
REMARK  status: ('A' for Active; 'I' for Inactive)
REMARK    1  A    between atoms: O1_2  and  C2_3 
REMARK    2  A    between atoms: C2_3  and  C3_5 
REMARK    3  A    between atoms: C8_10  and  O3_11 
REMARK    4  A    between atoms: O3_11  and  C9_12 
REMARK    5  A    between atoms: C9_12  and  O5_14 
REMARK    6  A    between atoms: O5_14  and  C10_15 
REMARK    7  A    between atoms: C10_15  and  C13_18 
REMARK    8  A    between atoms: C16_25  and  C17_26 
ROOT
HETATM    1  C13 UNL     1      11.212   8.696  11.975  1.00  0.00     0.233 C 
HETATM    2  N1  UNL     1       9.819   8.350  12.067  1.00  0.00    -0.050 N 
ATOM      3  H11 UNL     1       9.511   7.398  11.868  1.00  0.00     0.279 HD
ATOM      4  H12 UNL     1       9.155   8.704  11.379  1.00  0.00     0.279 HD
HETATM    5  C14 UNL     1       9.801   8.853  13.424  1.00  0.00     0.302 C 
HETATM    6  C15 UNL     1       8.645   9.626  13.808  1.00  0.00     0.093 C 
HETATM    7  N2  UNL     1       7.716  10.246  14.104  1.00  0.00    -0.195 NA
HETATM    8  C16 UNL     1      11.060   9.636  13.128  1.00  0.00     0.097 C 
ENDROOT
BRANCH   8   9
HETATM    9  C17 UNL     1      12.104   9.503  14.187  1.00  0.00    -0.049 A 
HETATM   10  C18 UNL     1      13.104   8.552  14.113  1.00  0.00     0.008 A 
HETATM   11  C19 UNL     1      14.076   8.400  15.059  1.00  0.00     0.007 A 
HETATM   12  C20 UNL     1      14.076   9.228  16.155  1.00  0.00    -0.062 A 
HETATM   13  C21 UNL     1      15.122   9.100  17.224  1.00  0.00     0.048 C 
HETATM   14  C22 UNL     1      13.087  10.199  16.273  1.00  0.00     0.007 A 
HETATM   15  C23 UNL     1      12.120  10.326  15.296  1.00  0.00     0.008 A 
ENDBRANCH   8   9
BRANCH   1  16
HETATM   16  C10 UNL     1      11.670   9.288  10.674  1.00  0.00     0.095 C 
HETATM   17  C11 UNL     1      10.567  10.091  10.031  1.00  0.00     0.048 C 
HETATM   18  C12 UNL     1      12.868  10.180  10.990  1.00  0.00     0.048 C 
BRANCH  16  19
HETATM   19  O5  UNL     1      12.122   8.236   9.832  1.00  0.00    -0.285 OA
BRANCH  19  20
HETATM   20  C9  UNL     1      11.295   7.535   8.979  1.00  0.00     0.412 C 
HETATM   21  O4  UNL     1      11.414   7.666   7.747  1.00  0.00    -0.229 OA
BRANCH  20  22
HETATM   22  O3  UNL     1      10.299   6.659   9.426  1.00  0.00    -0.255 OA
BRANCH  22  23
HETATM   23  C8  UNL     1      10.580   5.364   9.817  1.00  0.00     0.097 A 
HETATM   24  C3  UNL     1       9.635   4.626  10.476  1.00  0.00     0.073 A 
HETATM   25  C4  UNL     1       9.937   3.320  10.866  1.00  0.00     0.020 A 
HETATM   26  C5  UNL     1      11.166   2.751  10.605  1.00  0.00     0.001 A 
HETATM   27  C6  UNL     1      12.116   3.487   9.946  1.00  0.00     0.003 A 
HETATM   28  C7  UNL     1      11.822   4.774   9.560  1.00  0.00     0.038 A 
BRANCH  24  29
HETATM   29  C2  UNL     1       8.333   5.213  10.746  1.00  0.00     0.295 C 
HETATM   30  O2  UNL     1       8.022   5.849  11.762  1.00  0.00    -0.259 OA
BRANCH  29  31
HETATM   31  O1  UNL     1       7.344   5.050   9.783  1.00  0.00    -0.322 OA
HETATM   32  C1  UNL     1       6.550   6.125   9.316  1.00  0.00     0.213 C 
ENDBRANCH  29  31
ENDBRANCH  24  29
ENDBRANCH  22  23
ENDBRANCH  20  22
ENDBRANCH  19  20
ENDBRANCH  16  19
ENDBRANCH   1  16
TORSDOF 8
ENDMDL
MODEL 3
REMARK VINA RESULT: -8.755822273      2.636      6.604
REMARK  8 active torsions:
REMARK  status: ('A' for Active; 'I' for Inactive)
REMARK    1  A    between atoms: O1_2  and  C2_3 
REMARK    2  A    between atoms: C2_3  and  C3_5 
REMARK    3  A    between atoms: C8_10  and  O3_11 
REMARK    4  A    between atoms: O3_11  and  C9_12 
REMARK    5  A    between atoms: C9_12  and  O5_14 
REMARK    6  A    between atoms: O5_14  and  C10_15 
REMARK    7  A    between atoms: C10_15  and  C13_18 
REMARK    8  A    between atoms: C16_25  and  C17_26 
ROOT
HETATM    1  C13 UNL     1       7.779   6.877  11.474  1.00  0.00     0.233 C 
HETATM    2  N1  UNL     1       6.408   7.310  11.476  1.00  0.00    -0.050 N 
ATOM      3  H11 UNL     1       5.685   6.724  11.893  1.00  0.00     0.279 HD
ATOM      4  H12 UNL     1       5.877   7.338  10.606  1.00  0.00     0.279 HD
HETATM    5  C14 UNL     1       6.814   8.540  12.123  1.00  0.00     0.302 C 
HETATM    6  C15 UNL     1       6.191   9.751  11.649  1.00  0.00     0.093 C 
HETATM    7  N2  UNL     1       5.687  10.716  11.260  1.00  0.00    -0.195 NA
HETATM    8  C16 UNL     1       8.231   8.292  11.657  1.00  0.00     0.097 C 
ENDROOT
BRANCH   8   9
HETATM    9  C17 UNL     1       9.250   8.490  12.730  1.00  0.00    -0.049 A 
HETATM   10  C18 UNL     1       8.984   8.202  14.056  1.00  0.00     0.008 A 
HETATM   11  C19 UNL     1       9.889   8.369  15.064  1.00  0.00     0.007 A 
HETATM   12  C20 UNL     1      11.140   8.850  14.764  1.00  0.00    -0.062 A 
HETATM   13  C21 UNL     1      12.170   9.052  15.836  1.00  0.00     0.048 C 
HETATM   14  C22 UNL     1      11.453   9.154  13.443  1.00  0.00     0.007 A 
HETATM   15  C23 UNL     1      10.513   8.972  12.449  1.00  0.00     0.008 A 
ENDBRANCH   8   9
BRANCH   1  16
HETATM   16  C10 UNL     1       8.256   6.169  10.240  1.00  0.00     0.095 C 
HETATM   17  C11 UNL     1       8.718   4.771  10.566  1.00  0.00     0.048 C 
HETATM   18  C12 UNL     1       7.080   6.133   9.268  1.00  0.00     0.048 C 
BRANCH  16  19
HETATM   19  O5  UNL     1       9.288   6.945   9.644  1.00  0.00    -0.285 OA
BRANCH  19  20
HETATM   20  C9  UNL     1      10.587   6.503   9.503  1.00  0.00     0.412 C 
HETATM   21  O4  UNL     1      11.079   6.361   8.369  1.00  0.00    -0.229 OA
BRANCH  20  22
HETATM   22  O3  UNL     1      11.413   6.195  10.591  1.00  0.00    -0.255 OA
BRANCH  22  23
HETATM   23  C8  UNL     1      12.395   5.227  10.517  1.00  0.00     0.097 A 
HETATM   24  C3  UNL     1      13.715   5.587  10.510  1.00  0.00     0.073 A 
HETATM   25  C4  UNL     1      14.694   4.594  10.433  1.00  0.00     0.020 A 
HETATM   26  C5  UNL     1      14.368   3.257  10.365  1.00  0.00     0.001 A 
HETATM   27  C6  UNL     1      13.046   2.891  10.374  1.00  0.00     0.003 A 
HETATM   28  C7  UNL     1      12.078   3.866  10.448  1.00  0.00     0.038 A 
BRANCH  24  29
HETATM   29  C2  UNL     1      14.070   6.994  10.591  1.00  0.00     0.295 C 
HETATM   30  O2  UNL     1      14.281   7.745   9.629  1.00  0.00    -0.259 OA
BRANCH  29  31
HETATM   31  O1  UNL     1      14.186   7.554  11.858  1.00  0.00    -0.322 OA
HETATM   32  C1  UNL     1      15.344   8.249  12.281  1.00  0.00     0.213 C 
ENDBRANCH  29  31
ENDBRANCH  24  29
ENDBRANCH  22  23
ENDBRANCH  20  22
ENDBRANCH  19  20
ENDBRANCH  16  19
ENDBRANCH   1  16
TORSDOF 8
ENDMDL
MODEL 4
REMARK VINA RESULT: -8.687814439      2.598      6.446
REMARK  8 active torsions:
REMARK  status: ('A' for Active; 'I' for Inactive)
REMARK    1  A    between atoms: O1_2  and  C2_3 
REMARK    2  A    between atoms: C2_3  and  C3_5 
REMARK    3  A    between atoms: C8_10  and  O3_11 
REMARK    4  A    between atoms: O3_11  and  C9_12 
REMARK    5  A    between atoms: C9_12  and  O5_14 
REMARK    6  A    between atoms: O5_14  and  C10_15 
REMARK    7  A    between atoms: C10_15  and  C13_18 
REMARK    8  A    between atoms: C16_25  and  C17_26 
ROOT
HETATM    1  C13 UNL     1      12.112   9.698  11.278  1.00  0.00     0.233 C 
HETATM    2  N1  UNL     1      11.988  11.067  11.697  1.00  0.00    -0.050 N 
ATOM      3  H11 UNL     1      12.186  11.825  11.044  1.00  0.00     0.279 HD
ATOM      4  H12 UNL     1      12.658  11.467  12.355  1.00  0.00     0.279 HD
HETATM    5  C14 UNL     1      10.628  10.800  12.114  1.00  0.00     0.302 C 
HETATM    6  C15 UNL     1      10.211  11.386  13.363  1.00  0.00     0.093 C 
HETATM    7  N2  UNL     1       9.888  11.858  14.368  1.00  0.00    -0.195 NA
HETATM    8  C16 UNL     1      10.950   9.323  12.142  1.00  0.00     0.097 C 
ENDROOT
BRANCH   8   9
HETATM    9  C17 UNL     1       9.918   8.478  11.471  1.00  0.00    -0.049 A 
HETATM   10  C18 UNL     1       8.775   9.022  10.915  1.00  0.00     0.008 A 
HETATM   11  C19 UNL     1       7.810   8.283  10.293  1.00  0.00     0.007 A 
HETATM   12  C20 UNL     1       7.964   6.921  10.207  1.00  0.00    -0.062 A 
HETATM   13  C21 UNL     1       6.932   6.065   9.534  1.00  0.00     0.048 C 
HETATM   14  C22 UNL     1       9.099   6.329  10.754  1.00  0.00     0.007 A 
HETATM   15  C23 UNL     1      10.055   7.107  11.374  1.00  0.00     0.008 A 
ENDBRANCH   8   9
BRANCH   1  16
HETATM   16  C10 UNL     1      13.420   9.023  11.574  1.00  0.00     0.095 C 
HETATM   17  C11 UNL     1      14.499   9.507  10.638  1.00  0.00     0.048 C 
HETATM   18  C12 UNL     1      13.774   9.359  13.021  1.00  0.00     0.048 C 
BRANCH  16  19
HETATM   19  O5  UNL     1      13.233   7.616  11.488  1.00  0.00    -0.285 OA
BRANCH  19  20
HETATM   20  C9  UNL     1      14.238   6.734  11.152  1.00  0.00     0.412 C 
HETATM   21  O4  UNL     1      15.241   6.623  11.881  1.00  0.00    -0.229 OA
BRANCH  20  22
HETATM   22  O3  UNL     1      14.200   5.931  10.007  1.00  0.00    -0.255 OA
BRANCH  22  23
HETATM   23  C8  UNL     1      13.223   4.975   9.810  1.00  0.00     0.097 A 
HETATM   24  C3  UNL     1      12.283   5.145   8.830  1.00  0.00     0.073 A 
HETATM   25  C4  UNL     1      11.301   4.169   8.648  1.00  0.00     0.020 A 
HETATM   26  C5  UNL     1      11.252   3.034   9.430  1.00  0.00     0.001 A 
HETATM   27  C6  UNL     1      12.192   2.860  10.412  1.00  0.00     0.003 A 
HETATM   28  C7  UNL     1      13.160   3.819  10.596  1.00  0.00     0.038 A 
BRANCH  24  29
HETATM   29  C2  UNL     1      12.332   6.333   7.995  1.00  0.00     0.295 C 
HETATM   30  O2  UNL     1      12.887   6.420   6.892  1.00  0.00    -0.259 OA
BRANCH  29  31
HETATM   31  O1  UNL     1      11.701   7.478   8.470  1.00  0.00    -0.322 OA
HETATM   32  C1  UNL     1      10.624   8.092   7.788  1.00  0.00     0.213 C 
ENDBRANCH  29  31
ENDBRANCH  24  29
ENDBRANCH  22  23
ENDBRANCH  20  22
ENDBRANCH  19  20
ENDBRANCH  16  19
ENDBRANCH   1  16
TORSDOF 8
ENDMDL
MODEL 5
REMARK VINA RESULT: -8.679997909      2.496      5.235
REMARK  8 active torsions:
REMARK  status: ('A' for Active; 'I' for Inactive)
REMARK    1  A    between atoms: O1_2  and  C2_3 
REMARK    2  A    between atoms: C2_3  and  C3_5 
REMARK    3  A    between atoms: C8_10  and  O3_11 
REMARK    4  A    between atoms: O3_11  and  C9_12 
REMARK    5  A    between atoms: C9_12  and  O5_14 
REMARK    6  A    between atoms: O5_14  and  C10_15 
REMARK    7  A    between atoms: C10_15  and  C13_18 
REMARK    8  A    between atoms: C16_25  and  C17_26 
ROOT
HETATM    1  C13 UNL     1       9.053   8.142  10.745  1.00  0.00     0.233 C 
HETATM    2  N1  UNL     1       7.958   8.361   9.839  1.00  0.00    -0.050 N 
ATOM      3  H11 UNL     1       8.046   9.036   9.079  1.00  0.00     0.279 HD
ATOM      4  H12 UNL     1       7.114   8.837  10.158  1.00  0.00     0.279 HD
HETATM    5  C14 UNL     1       7.931   6.942   9.555  1.00  0.00     0.302 C 
HETATM    6  C15 UNL     1       6.629   6.329   9.460  1.00  0.00     0.093 C 
HETATM    7  N2  UNL     1       5.581   5.848   9.389  1.00  0.00    -0.195 NA
HETATM    8  C16 UNL     1       8.696   6.692  10.835  1.00  0.00     0.097 C 
ENDROOT
BRANCH   8   9
HETATM    9  C17 UNL     1       9.843   5.753  10.667  1.00  0.00    -0.049 A 
HETATM   10  C18 UNL     1       9.678   4.381  10.704  1.00  0.00     0.008 A 
HETATM   11  C19 UNL     1      10.702   3.490  10.554  1.00  0.00     0.007 A 
HETATM   12  C20 UNL     1      11.975   3.965  10.355  1.00  0.00    -0.062 A 
HETATM   13  C21 UNL     1      13.135   3.027  10.185  1.00  0.00     0.048 C 
HETATM   14  C22 UNL     1      12.190   5.339  10.311  1.00  0.00     0.007 A 
HETATM   15  C23 UNL     1      11.131   6.211  10.465  1.00  0.00     0.008 A 
ENDBRANCH   8   9
BRANCH   1  16
HETATM   16  C10 UNL     1       9.030   8.926  12.025  1.00  0.00     0.095 C 
HETATM   17  C11 UNL     1       9.748  10.242  11.863  1.00  0.00     0.048 C 
HETATM   18  C12 UNL     1       7.563   9.154  12.377  1.00  0.00     0.048 C 
BRANCH  16  19
HETATM   19  O5  UNL     1       9.605   8.130  13.053  1.00  0.00    -0.285 OA
BRANCH  19  20
HETATM   20  C9  UNL     1       9.770   8.566  14.350  1.00  0.00     0.412 C 
HETATM   21  O4  UNL     1       9.043   8.119  15.256  1.00  0.00    -0.229 OA
BRANCH  20  22
HETATM   22  O3  UNL     1      10.734   9.509  14.725  1.00  0.00    -0.255 OA
BRANCH  22  23
HETATM   23  C8  UNL     1      12.082   9.207  14.767  1.00  0.00     0.097 A 
HETATM   24  C3  UNL     1      12.791   9.393  15.922  1.00  0.00     0.073 A 
HETATM   25  C4  UNL     1      14.153   9.084  15.945  1.00  0.00     0.020 A 
HETATM   26  C5  UNL     1      14.805   8.594  14.833  1.00  0.00     0.001 A 
HETATM   27  C6  UNL     1      14.098   8.405  13.674  1.00  0.00     0.003 A 
HETATM   28  C7  UNL     1      12.756   8.709  13.647  1.00  0.00     0.038 A 
BRANCH  24  29
HETATM   29  C2  UNL     1      12.111   9.899  17.102  1.00  0.00     0.295 C 
HETATM   30  O2  UNL     1      11.885   9.261  18.138  1.00  0.00    -0.259 OA
BRANCH  29  31
HETATM   31  O1  UNL     1      11.672  11.218  17.072  1.00  0.00    -0.322 OA
HETATM   32  C1  UNL     1      12.552  12.318  17.216  1.00  0.00     0.213 C 
ENDBRANCH  29  31
ENDBRANCH  24  29
ENDBRANCH  22  23
ENDBRANCH  20  22
ENDBRANCH  19  20
ENDBRANCH  16  19
ENDBRANCH   1  16
TORSDOF 8
ENDMDL
