MODEL 1
REMARK VINA RESULT: -7.803724046      0.000      0.000
REMARK  6 active torsions:
REMARK  status: ('A' for Active; 'I' for Inactive)
REMARK    1  A    between atoms: C2_2  and  N2_7 
REMARK    2  A    between atoms: N1_3  and  O1_5 
REMARK    3  A    between atoms: N2_7  and  C3_9 
REMARK    4  A    between atoms: C3_9  and  C4_10 
REMARK    5  A    between atoms: C3_9  and  C5_14 
REMARK       I    between atoms: C5_14  and  N4_16 
REMARK    6  A    between atoms: N4_16  and  N5_18 
REMARK       I    between atoms: N5_18  and  C6_20 
REMARK       I    between atoms: C6_20  and  N6_22 
ROOT
HETATM    1  C5  UNL     1       4.968  19.700  22.279  1.00  0.00     0.264 C 
HETATM    2  O2  UNL     1       4.998  18.462  22.479  1.00  0.00    -0.269 OA
HETATM    3  N4  UNL     1       4.703  20.559  23.379  1.00  0.00    -0.264 N 
ATOM      4  H4  UNL     1       4.678  21.566  23.219  1.00  0.00     0.190 HD
ENDROOT
BRANCH   1   5
HETATM    5  C3  UNL     1       5.201  20.244  20.935  1.00  0.00     0.215 C 
BRANCH   5   6
HETATM    6  N2  UNL     1       6.565  20.592  20.683  1.00  0.00    -0.361 N 
ATOM      7  H2  UNL     1       6.881  21.509  20.997  1.00  0.00     0.162 HD
BRANCH   6   8
HETATM    8  C2  UNL     1       7.521  19.758  20.026  1.00  0.00     0.094 C 
HETATM    9  C1  UNL     1       7.075  18.930  18.878  1.00  0.00     0.090 C 
HETATM   10  N1  UNL     1       8.753  19.687  20.382  1.00  0.00    -0.258 N 
ATOM     11  H1  UNL     1       9.081  20.249  21.168  1.00  0.00     0.195 HD
BRANCH  10  12
HETATM   12  O1  UNL     1       9.621  18.883  19.733  1.00  0.00    -0.288 OA
ATOM     13  H1  UNL     1      10.553  19.064  19.733  1.00  0.00     0.244 HD
ENDBRANCH  10  12
ENDBRANCH   6   8
ENDBRANCH   5   6
BRANCH   5  14
HETATM   14  C4  UNL     1       4.371  21.440  20.678  1.00  0.00     0.087 C 
HETATM   15  N3  UNL     1       4.926  22.546  20.414  1.00  0.00    -0.409 N 
ATOM     16  H32 UNL     1       5.945  22.595  20.383  1.00  0.00     0.155 HD
ATOM     17  H31 UNL     1       4.353  23.371  20.237  1.00  0.00     0.155 HD
ENDBRANCH   5  14
ENDBRANCH   1   5
BRANCH   3  18
HETATM   18  N5  UNL     1       4.475  20.083  24.664  1.00  0.00    -0.249 N 
HETATM   19  C6  UNL     1       3.287  20.393  25.353  1.00  0.00     0.338 C 
HETATM   20  O3  UNL     1       2.430  21.110  24.782  1.00  0.00    -0.245 OA
HETATM   21  N6  UNL     1       3.008  19.928  26.670  1.00  0.00    -0.308 N 
HETATM   22  C7  UNL     1       1.840  20.180  27.461  1.00  0.00     0.254 C 
HETATM   23  C9  UNL     1       3.900  19.092  27.451  1.00  0.00     0.232 C 
HETATM   24  N7  UNL     1       1.768  19.049  28.398  1.00  0.00    -0.343 N 
HETATM   25  C8  UNL     1       3.125  18.690  28.643  1.00  0.00     0.236 C 
ATOM     26  H7  UNL     1       0.930  18.617  28.786  1.00  0.00     0.164 HD
HETATM   27  O4  UNL     1       3.569  18.136  29.678  1.00  0.00    -0.272 OA
ATOM     28  H5  UNL     1       5.180  19.500  25.116  1.00  0.00     0.192 HD
ENDBRANCH   3  18
TORSDOF 6
ENDMDL
MODEL 2
REMARK VINA RESULT: -7.519118536      2.486      8.576
REMARK  6 active torsions:
REMARK  status: ('A' for Active; 'I' for Inactive)
REMARK    1  A    between atoms: C2_2  and  N2_7 
REMARK    2  A    between atoms: N1_3  and  O1_5 
REMARK    3  A    between atoms: N2_7  and  C3_9 
REMARK    4  A    between atoms: C3_9  and  C4_10 
REMARK    5  A    between atoms: C3_9  and  C5_14 
REMARK       I    between atoms: C5_14  and  N4_16 
REMARK    6  A    between atoms: N4_16  and  N5_18 
REMARK       I    between atoms: N5_18  and  C6_20 
REMARK       I    between atoms: C6_20  and  N6_22 
ROOT
HETATM    1  C5  UNL     1       3.181  19.231  27.896  1.00  0.00     0.264 C 
HETATM    2  O2  UNL     1       4.332  18.763  27.724  1.00  0.00    -0.269 OA
HETATM    3  N4  UNL     1       2.540  19.874  26.804  1.00  0.00    -0.264 N 
ATOM      4  H4  UNL     1       1.604  20.255  26.942  1.00  0.00     0.190 HD
ENDROOT
BRANCH   1   5
HETATM    5  C3  UNL     1       2.516  19.113  29.201  1.00  0.00     0.215 C 
BRANCH   5   6
HETATM    6  N2  UNL     1       2.209  20.372  29.807  1.00  0.00    -0.361 N 
ATOM      7  H2  UNL     1       2.979  20.887  30.233  1.00  0.00     0.162 HD
BRANCH   6   8
HETATM    8  C2  UNL     1       0.911  20.964  29.863  1.00  0.00     0.094 C 
HETATM    9  C1  UNL     1       0.771  22.321  30.445  1.00  0.00     0.090 C 
HETATM   10  N1  UNL     1      -0.147  20.377  29.433  1.00  0.00    -0.258 N 
ATOM     11  H1  UNL     1      -0.074  19.444  29.027  1.00  0.00     0.195 HD
BRANCH  10  12
HETATM   12  O1  UNL     1      -1.355  20.975  29.508  1.00  0.00    -0.288 OA
ATOM     13  H1  UNL     1      -2.149  20.509  29.274  1.00  0.00     0.244 HD
ENDBRANCH  10  12
ENDBRANCH   6   8
ENDBRANCH   5   6
BRANCH   5  14
HETATM   14  C4  UNL     1       3.328  18.333  30.159  1.00  0.00     0.087 C 
HETATM   15  N3  UNL     1       4.365  18.848  30.670  1.00  0.00    -0.409 N 
ATOM     16  H32 UNL     1       4.626  19.799  30.411  1.00  0.00     0.155 HD
ATOM     17  H31 UNL     1       4.926  18.309  31.331  1.00  0.00     0.155 HD
ENDBRANCH   5  14
ENDBRANCH   1   5
BRANCH   3  18
HETATM   18  N5  UNL     1       3.136  20.006  25.556  1.00  0.00    -0.249 N 
HETATM   19  C6  UNL     1       2.608  20.882  24.589  1.00  0.00     0.338 C 
HETATM   20  O3  UNL     1       1.582  21.545  24.875  1.00  0.00    -0.245 OA
HETATM   21  N6  UNL     1       3.184  21.052  23.297  1.00  0.00    -0.308 N 
HETATM   22  C7  UNL     1       2.733  21.908  22.241  1.00  0.00     0.254 C 
HETATM   23  C9  UNL     1       4.367  20.356  22.828  1.00  0.00     0.232 C 
HETATM   24  N7  UNL     1       3.931  22.175  21.433  1.00  0.00    -0.343 N 
HETATM   25  C8  UNL     1       4.715  20.989  21.540  1.00  0.00     0.236 C 
ATOM     26  H7  UNL     1       4.154  23.022  20.911  1.00  0.00     0.164 HD
HETATM   27  O4  UNL     1       5.542  20.569  20.694  1.00  0.00    -0.272 OA
ATOM     28  H5  UNL     1       3.970  19.461  25.338  1.00  0.00     0.192 HD
ENDBRANCH   3  18
TORSDOF 6
ENDMDL
MODEL 3
REMARK VINA RESULT: -7.462064965      2.230      3.408
REMARK  6 active torsions:
REMARK  status: ('A' for Active; 'I' for Inactive)
REMARK    1  A    between atoms: C2_2  and  N2_7 
REMARK    2  A    between atoms: N1_3  and  O1_5 
REMARK    3  A    between atoms: N2_7  and  C3_9 
REMARK    4  A    between atoms: C3_9  and  C4_10 
REMARK    5  A    between atoms: C3_9  and  C5_14 
REMARK       I    between atoms: C5_14  and  N4_16 
REMARK    6  A    between atoms: N4_16  and  N5_18 
REMARK       I    between atoms: N5_18  and  C6_20 
REMARK       I    between atoms: C6_20  and  N6_22 
ROOT
HETATM    1  C5  UNL     1       2.019  21.315  24.112  1.00  0.00     0.264 C 
HETATM    2  O2  UNL     1       1.059  22.016  24.512  1.00  0.00    -0.269 OA
HETATM    3  N4  UNL     1       2.637  20.424  25.028  1.00  0.00    -0.264 N 
ATOM      4  H4  UNL     1       3.418  19.853  24.705  1.00  0.00     0.190 HD
ENDROOT
BRANCH   1   5
HETATM    5  C3  UNL     1       2.489  21.418  22.723  1.00  0.00     0.215 C 
BRANCH   5   6
HETATM    6  N2  UNL     1       3.913  21.451  22.598  1.00  0.00    -0.361 N 
ATOM      7  H2  UNL     1       4.400  22.258  22.987  1.00  0.00     0.162 HD
BRANCH   6   8
HETATM    8  C2  UNL     1       4.708  20.443  21.972  1.00  0.00     0.094 C 
HETATM    9  C1  UNL     1       5.244  20.700  20.612  1.00  0.00     0.090 C 
HETATM   10  N1  UNL     1       4.983  19.319  22.529  1.00  0.00    -0.258 N 
ATOM     11  H1  UNL     1       4.626  19.122  23.464  1.00  0.00     0.195 HD
BRANCH  10  12
HETATM   12  O1  UNL     1       5.737  18.394  21.898  1.00  0.00    -0.288 OA
ATOM     13  H1  UNL     1       6.685  18.404  21.965  1.00  0.00     0.244 HD
ENDBRANCH  10  12
ENDBRANCH   6   8
ENDBRANCH   5   6
BRANCH   5  14
HETATM   14  C4  UNL     1       1.945  22.617  22.051  1.00  0.00     0.087 C 
HETATM   15  N3  UNL     1       2.475  23.032  20.979  1.00  0.00    -0.409 N 
ATOM     16  H32 UNL     1       3.275  22.529  20.594  1.00  0.00     0.155 HD
ATOM     17  H31 UNL     1       2.100  23.859  20.515  1.00  0.00     0.155 HD
ENDBRANCH   5  14
ENDBRANCH   1   5
BRANCH   3  18
HETATM   18  N5  UNL     1       2.223  20.300  26.349  1.00  0.00    -0.249 N 
HETATM   19  C6  UNL     1       3.025  19.643  27.301  1.00  0.00     0.338 C 
HETATM   20  O3  UNL     1       4.128  19.169  26.936  1.00  0.00    -0.245 OA
HETATM   21  N6  UNL     1       2.643  19.491  28.666  1.00  0.00    -0.308 N 
HETATM   22  C7  UNL     1       3.375  18.845  29.715  1.00  0.00     0.254 C 
HETATM   23  C9  UNL     1       1.403  19.986  29.231  1.00  0.00     0.232 C 
HETATM   24  N7  UNL     1       2.891  19.470  30.953  1.00  0.00    -0.343 N 
HETATM   25  C8  UNL     1       1.527  19.794  30.691  1.00  0.00     0.236 C 
ATOM     26  H7  UNL     1       3.415  19.637  31.812  1.00  0.00     0.164 HD
HETATM   27  O4  UNL     1       0.612  19.894  31.543  1.00  0.00    -0.272 OA
ATOM     28  H5  UNL     1       1.325  20.690  26.631  1.00  0.00     0.192 HD
ENDBRANCH   3  18
TORSDOF 6
ENDMDL
MODEL 4
REMARK VINA RESULT: -7.166436014      2.149      2.979
REMARK  6 active torsions:
REMARK  status: ('A' for Active; 'I' for Inactive)
REMARK    1  A    between atoms: C2_2  and  N2_7 
REMARK    2  A    between atoms: N1_3  and  O1_5 
REMARK    3  A    between atoms: N2_7  and  C3_9 
REMARK    4  A    between atoms: C3_9  and  C4_10 
REMARK    5  A    between atoms: C3_9  and  C5_14 
REMARK       I    between atoms: C5_14  and  N4_16 
REMARK    6  A    between atoms: N4_16  and  N5_18 
REMARK       I    between atoms: N5_18  and  C6_20 
REMARK       I    between atoms: C6_20  and  N6_22 
ROOT
HETATM    1  C5  UNL     1       2.203  22.029  22.566  1.00  0.00     0.264 C 
HETATM    2  O2  UNL     1       1.058  22.328  22.983  1.00  0.00    -0.269 OA
HETATM    3  N4  UNL     1       3.057  21.272  23.411  1.00  0.00    -0.264 N 
ATOM      4  H4  UNL     1       3.988  21.028  23.074  1.00  0.00     0.190 HD
ENDROOT
BRANCH   1   5
HETATM    5  C3  UNL     1       2.645  22.458  21.232  1.00  0.00     0.215 C 
BRANCH   5   6
HETATM    6  N2  UNL     1       4.046  22.735  21.151  1.00  0.00    -0.361 N 
ATOM      7  H2  UNL     1       4.359  23.657  21.455  1.00  0.00     0.162 HD
BRANCH   6   8
HETATM    8  C2  UNL     1       5.040  21.826  20.679  1.00  0.00     0.094 C 
HETATM    9  C1  UNL     1       4.898  21.259  19.315  1.00  0.00     0.090 C 
HETATM   10  N1  UNL     1       6.056  21.470  21.379  1.00  0.00    -0.258 N 
ATOM     11  H1  UNL     1       6.173  21.848  22.319  1.00  0.00     0.195 HD
BRANCH  10  12
HETATM   12  O1  UNL     1       6.970  20.605  20.892  1.00  0.00    -0.288 OA
ATOM     13  H1  UNL     1       6.991  19.699  21.178  1.00  0.00     0.244 HD
ENDBRANCH  10  12
ENDBRANCH   6   8
ENDBRANCH   5   6
BRANCH   5  14
HETATM   14  C4  UNL     1       1.915  23.659  20.775  1.00  0.00     0.087 C 
HETATM   15  N3  UNL     1       0.710  23.558  20.402  1.00  0.00    -0.409 N 
ATOM     16  H32 UNL     1       0.258  22.644  20.424  1.00  0.00     0.155 HD
ATOM     17  H31 UNL     1       0.206  24.388  20.087  1.00  0.00     0.155 HD
ENDBRANCH   5  14
ENDBRANCH   1   5
BRANCH   3  18
HETATM   18  N5  UNL     1       2.675  20.851  24.679  1.00  0.00    -0.249 N 
HETATM   19  C6  UNL     1       3.556  20.114  25.494  1.00  0.00     0.338 C 
HETATM   20  O3  UNL     1       4.699  19.843  25.054  1.00  0.00    -0.245 OA
HETATM   21  N6  UNL     1       3.211  19.661  26.800  1.00  0.00    -0.308 N 
HETATM   22  C7  UNL     1       4.022  18.909  27.711  1.00  0.00     0.254 C 
HETATM   23  C9  UNL     1       1.931  19.900  27.440  1.00  0.00     0.232 C 
HETATM   24  N7  UNL     1       3.488  19.227  29.043  1.00  0.00    -0.343 N 
HETATM   25  C8  UNL     1       2.094  19.444  28.835  1.00  0.00     0.236 C 
ATOM     26  H7  UNL     1       4.002  19.281  29.922  1.00  0.00     0.164 HD
HETATM   27  O4  UNL     1       1.185  19.277  29.684  1.00  0.00    -0.272 OA
ATOM     28  H5  UNL     1       1.744  21.079  25.024  1.00  0.00     0.192 HD
ENDBRANCH   3  18
TORSDOF 6
ENDMDL
MODEL 5
REMARK VINA RESULT: -7.161301748      1.949      3.146
REMARK  6 active torsions:
REMARK  status: ('A' for Active; 'I' for Inactive)
REMARK    1  A    between atoms: C2_2  and  N2_7 
REMARK    2  A    between atoms: N1_3  and  O1_5 
REMARK    3  A    between atoms: N2_7  and  C3_9 
REMARK    4  A    between atoms: C3_9  and  C4_10 
REMARK    5  A    between atoms: C3_9  and  C5_14 
REMARK       I    between atoms: C5_14  and  N4_16 
REMARK    6  A    between atoms: N4_16  and  N5_18 
REMARK       I    between atoms: N5_18  and  C6_20 
REMARK       I    between atoms: C6_20  and  N6_22 
ROOT
HETATM    1  C5  UNL     1       3.828  20.427  24.147  1.00  0.00     0.264 C 
HETATM    2  O2  UNL     1       2.832  21.176  24.008  1.00  0.00    -0.269 OA
HETATM    3  N4  UNL     1       4.023  19.784  25.399  1.00  0.00    -0.264 N 
ATOM      4  H4  UNL     1       4.832  19.174  25.514  1.00  0.00     0.190 HD
ENDROOT
BRANCH   1   5
HETATM    5  C3  UNL     1       4.769  20.223  23.038  1.00  0.00     0.215 C 
BRANCH   5   6
HETATM    6  N2  UNL     1       4.717  21.249  22.042  1.00  0.00    -0.361 N 
ATOM      7  H2  UNL     1       4.078  22.027  22.204  1.00  0.00     0.162 HD
BRANCH   6   8
HETATM    8  C2  UNL     1       5.489  21.271  20.841  1.00  0.00     0.094 C 
HETATM    9  C1  UNL     1       4.790  21.471  19.548  1.00  0.00     0.090 C 
HETATM   10  N1  UNL     1       6.765  21.124  20.824  1.00  0.00    -0.258 N 
ATOM     11  H1  UNL     1       7.266  20.986  21.702  1.00  0.00     0.195 HD
BRANCH  10  12
HETATM   12  O1  UNL     1       7.454  21.149  19.663  1.00  0.00    -0.288 OA
ATOM     13  H1  UNL     1       7.629  21.968  19.214  1.00  0.00     0.244 HD
ENDBRANCH  10  12
ENDBRANCH   6   8
ENDBRANCH   5   6
BRANCH   5  14
HETATM   14  C4  UNL     1       4.548  18.925  22.366  1.00  0.00     0.087 C 
HETATM   15  N3  UNL     1       5.505  18.106  22.249  1.00  0.00    -0.409 N 
ATOM     16  H32 UNL     1       6.421  18.356  22.623  1.00  0.00     0.155 HD
ATOM     17  H31 UNL     1       5.352  17.210  21.786  1.00  0.00     0.155 HD
ENDBRANCH   5  14
ENDBRANCH   1   5
BRANCH   3  18
HETATM   18  N5  UNL     1       3.157  19.953  26.472  1.00  0.00    -0.249 N 
HETATM   19  C6  UNL     1       3.355  19.258  27.680  1.00  0.00     0.338 C 
HETATM   20  O3  UNL     1       4.334  18.479  27.773  1.00  0.00    -0.245 OA
HETATM   21  N6  UNL     1       2.495  19.399  28.807  1.00  0.00    -0.308 N 
HETATM   22  C7  UNL     1       2.601  18.746  30.078  1.00  0.00     0.254 C 
HETATM   23  C9  UNL     1       1.330  20.261  28.848  1.00  0.00     0.232 C 
HETATM   24  N7  UNL     1       1.912  19.639  31.020  1.00  0.00    -0.343 N 
HETATM   25  C8  UNL     1       0.877  20.250  30.254  1.00  0.00     0.236 C 
ATOM     26  H7  UNL     1       2.127  19.790  32.005  1.00  0.00     0.164 HD
HETATM   27  O4  UNL     1      -0.210  20.694  30.698  1.00  0.00    -0.272 OA
ATOM     28  H5  UNL     1       2.366  20.589  26.382  1.00  0.00     0.192 HD
ENDBRANCH   3  18
TORSDOF 6
ENDMDL
