MODEL 1
REMARK VINA RESULT: -6.991086036      0.000      0.000
REMARK  6 active torsions:
REMARK  status: ('A' for Active; 'I' for Inactive)
REMARK       I    between atoms: C2_2  and  N1_4 
REMARK    1  A    between atoms: N1_4  and  N2_6 
REMARK       I    between atoms: N2_6  and  C3_8 
REMARK       I    between atoms: C3_8  and  N3_10 
REMARK    2  A    between atoms: N3_10  and  C4_12 
REMARK    3  A    between atoms: C7_16  and  N5_17 
REMARK    4  A    between atoms: C9_22  and  N6_23 
REMARK    5  A    between atoms: C9_22  and  C10_27 
REMARK    6  A    between atoms: C10_27  and  N7_28 
ROOT
HETATM    1  C4  UNL     1       4.954  20.053  21.284  1.00  0.00     0.152 C 
HETATM    2  C5  UNL     1       5.881  19.106  20.561  1.00  0.00     0.302 C 
HETATM    3  N4  UNL     1       5.741  19.243  19.135  1.00  0.00     0.117 N 
HETATM    4  C6  UNL     1       6.769  18.429  18.513  1.00  0.00     0.312 C 
HETATM    5  C7  UNL     1       5.961  20.611  18.691  1.00  0.00     0.419 C 
HETATM    6  C8  UNL     1       4.992  21.538  19.368  1.00  0.00     0.107 C 
HETATM    7  C9  UNL     1       5.265  21.465  20.861  1.00  0.00     0.172 C 
ENDROOT
BRANCH   1   8
HETATM    8  N3  UNL     1       5.070  19.947  22.698  1.00  0.00    -0.333 N 
HETATM    9  C3  UNL     1       4.002  20.122  23.624  1.00  0.00     0.335 C 
HETATM   10  N2  UNL     1       4.228  19.995  25.016  1.00  0.00    -0.249 N 
HETATM   11  O2  UNL     1       2.828  20.394  23.268  1.00  0.00    -0.246 OA
ATOM     12  H2  UNL     1       5.176  19.776  25.323  1.00  0.00     0.192 HD
ATOM     13  H3  UNL     1       5.991  19.729  23.079  1.00  0.00     0.164 HD
BRANCH  10  14
HETATM   14  N1  UNL     1       3.253  20.146  25.992  1.00  0.00    -0.266 N 
HETATM   15  C2  UNL     1       3.299  19.471  27.253  1.00  0.00     0.232 C 
HETATM   16  C1  UNL     1       2.219  19.680  28.256  1.00  0.00     0.119 C 
HETATM   17  O1  UNL     1       4.276  18.714  27.459  1.00  0.00    -0.272 OA
ATOM     18  H1  UNL     1       2.467  20.768  25.802  1.00  0.00     0.190 HD
ENDBRANCH  10  14
ENDBRANCH   1   8
BRANCH   7  19
HETATM   19  N6  UNL     1       6.678  21.688  21.026  1.00  0.00    -0.067 N 
ATOM     20  H63 UNL     1       7.017  21.395  21.943  1.00  0.00     0.275 HD
ATOM     21  H62 UNL     1       7.244  21.056  20.460  1.00  0.00     0.275 HD
ATOM     22  H61 UNL     1       6.874  22.670  20.831  1.00  0.00     0.275 HD
ENDBRANCH   7  19
BRANCH   7  23
HETATM   23  C10 UNL     1       4.428  22.510  21.534  1.00  0.00     0.270 C 
BRANCH  23  24
HETATM   24  N7  UNL     1       3.100  22.651  21.033  1.00  0.00    -0.077 N 
ATOM     25  H73 UNL     1       3.019  22.188  20.127  1.00  0.00     0.274 HD
ATOM     26  H72 UNL     1       2.457  22.083  21.584  1.00  0.00     0.274 HD
ATOM     27  H71 UNL     1       2.754  23.608  20.968  1.00  0.00     0.274 HD
ENDBRANCH  23  24
ENDBRANCH   7  23
BRANCH   5  28
HETATM   28  N5  UNL     1       5.751  20.678  17.279  1.00  0.00    -0.047 N 
ATOM     29  H53 UNL     1       6.050  19.829  16.800  1.00  0.00     0.276 HD
ATOM     30  H52 UNL     1       4.762  20.639  17.031  1.00  0.00     0.276 HD
ATOM     31  H51 UNL     1       6.211  21.514  16.916  1.00  0.00     0.276 HD
ENDBRANCH   5  28
TORSDOF 6
ENDMDL
MODEL 2
REMARK VINA RESULT: -6.061530574      3.316      5.729
REMARK  6 active torsions:
REMARK  status: ('A' for Active; 'I' for Inactive)
REMARK       I    between atoms: C2_2  and  N1_4 
REMARK    1  A    between atoms: N1_4  and  N2_6 
REMARK       I    between atoms: N2_6  and  C3_8 
REMARK       I    between atoms: C3_8  and  N3_10 
REMARK    2  A    between atoms: N3_10  and  C4_12 
REMARK    3  A    between atoms: C7_16  and  N5_17 
REMARK    4  A    between atoms: C9_22  and  N6_23 
REMARK    5  A    between atoms: C9_22  and  C10_27 
REMARK    6  A    between atoms: C10_27  and  N7_28 
ROOT
HETATM    1  C4  UNL     1       3.430  21.994  21.081  1.00  0.00     0.152 C 
HETATM    2  C5  UNL     1       3.545  21.677  22.552  1.00  0.00     0.302 C 
HETATM    3  N4  UNL     1       3.938  20.306  22.750  1.00  0.00     0.117 N 
HETATM    4  C6  UNL     1       4.185  20.121  24.169  1.00  0.00     0.312 C 
HETATM    5  C7  UNL     1       5.179  19.986  22.062  1.00  0.00     0.419 C 
HETATM    6  C8  UNL     1       5.036  20.245  20.588  1.00  0.00     0.107 C 
HETATM    7  C9  UNL     1       4.756  21.728  20.416  1.00  0.00     0.172 C 
ENDROOT
BRANCH   1   8
HETATM    8  N3  UNL     1       3.048  23.344  20.848  1.00  0.00    -0.333 N 
HETATM    9  C3  UNL     1       1.859  23.955  21.337  1.00  0.00     0.335 C 
HETATM   10  N2  UNL     1       1.573  25.311  21.045  1.00  0.00    -0.249 N 
HETATM   11  O2  UNL     1       1.014  23.342  22.037  1.00  0.00    -0.246 OA
ATOM     12  H2  UNL     1       2.247  25.824  20.476  1.00  0.00     0.192 HD
ATOM     13  H3  UNL     1       3.675  23.920  20.286  1.00  0.00     0.164 HD
BRANCH  10  14
HETATM   14  N1  UNL     1       0.443  25.992  21.476  1.00  0.00    -0.266 N 
HETATM   15  C2  UNL     1       0.500  27.125  22.350  1.00  0.00     0.232 C 
HETATM   16  C1  UNL     1      -0.753  27.809  22.774  1.00  0.00     0.119 C 
HETATM   17  O1  UNL     1       1.635  27.496  22.728  1.00  0.00    -0.272 OA
ATOM     18  H1  UNL     1      -0.470  25.671  21.156  1.00  0.00     0.190 HD
ENDBRANCH  10  14
ENDBRANCH   1   8
BRANCH   7  19
HETATM   19  N6  UNL     1       5.781  22.423  21.151  1.00  0.00    -0.067 N 
ATOM     20  H63 UNL     1       6.314  23.068  20.568  1.00  0.00     0.275 HD
ATOM     21  H62 UNL     1       5.400  23.108  21.804  1.00  0.00     0.275 HD
ATOM     22  H61 UNL     1       6.372  21.731  21.612  1.00  0.00     0.275 HD
ENDBRANCH   7  19
BRANCH   7  23
HETATM   23  C10 UNL     1       4.783  22.034  18.949  1.00  0.00     0.270 C 
BRANCH  23  24
HETATM   24  N7  UNL     1       5.434  21.064  18.130  1.00  0.00    -0.077 N 
ATOM     25  H73 UNL     1       5.315  20.133  18.531  1.00  0.00     0.274 HD
ATOM     26  H72 UNL     1       4.926  20.950  17.254  1.00  0.00     0.274 HD
ATOM     27  H71 UNL     1       6.421  21.239  17.942  1.00  0.00     0.274 HD
ENDBRANCH  23  24
ENDBRANCH   7  23
BRANCH   5  28
HETATM   28  N5  UNL     1       5.473  18.601  22.258  1.00  0.00    -0.047 N 
ATOM     29  H53 UNL     1       4.682  17.999  22.028  1.00  0.00     0.276 HD
ATOM     30  H52 UNL     1       6.130  18.241  21.567  1.00  0.00     0.276 HD
ATOM     31  H51 UNL     1       5.800  18.466  23.215  1.00  0.00     0.276 HD
ENDBRANCH   5  28
TORSDOF 6
ENDMDL
MODEL 3
REMARK VINA RESULT: -5.686657588      1.079      1.079
REMARK  6 active torsions:
REMARK  status: ('A' for Active; 'I' for Inactive)
REMARK       I    between atoms: C2_2  and  N1_4 
REMARK    1  A    between atoms: N1_4  and  N2_6 
REMARK       I    between atoms: N2_6  and  C3_8 
REMARK       I    between atoms: C3_8  and  N3_10 
REMARK    2  A    between atoms: N3_10  and  C4_12 
REMARK    3  A    between atoms: C7_16  and  N5_17 
REMARK    4  A    between atoms: C9_22  and  N6_23 
REMARK    5  A    between atoms: C9_22  and  C10_27 
REMARK    6  A    between atoms: C10_27  and  N7_28 
ROOT
HETATM    1  C4  UNL     1       4.989  20.593  21.044  1.00  0.00     0.152 C 
HETATM    2  C5  UNL     1       5.948  19.534  20.558  1.00  0.00     0.302 C 
HETATM    3  N4  UNL     1       5.787  19.308  19.145  1.00  0.00     0.117 N 
HETATM    4  C6  UNL     1       6.842  18.406  18.722  1.00  0.00     0.312 C 
HETATM    5  C7  UNL     1       5.944  20.531  18.373  1.00  0.00     0.419 C 
HETATM    6  C8  UNL     1       4.943  21.559  18.821  1.00  0.00     0.107 C 
HETATM    7  C9  UNL     1       5.235  21.868  20.279  1.00  0.00     0.172 C 
ENDROOT
BRANCH   1   8
HETATM    8  N3  UNL     1       5.124  20.845  22.437  1.00  0.00    -0.333 N 
HETATM    9  C3  UNL     1       4.574  20.038  23.474  1.00  0.00     0.335 C 
HETATM   10  N2  UNL     1       4.769  20.381  24.834  1.00  0.00    -0.249 N 
HETATM   11  O2  UNL     1       3.900  19.002  23.247  1.00  0.00    -0.246 OA
ATOM     12  H2  UNL     1       5.313  21.220  25.036  1.00  0.00     0.192 HD
ATOM     13  H3  UNL     1       5.657  21.669  22.716  1.00  0.00     0.164 HD
BRANCH  10  14
HETATM   14  N1  UNL     1       4.274  19.658  25.911  1.00  0.00    -0.266 N 
HETATM   15  C2  UNL     1       2.952  19.836  26.429  1.00  0.00     0.232 C 
HETATM   16  C1  UNL     1       2.485  19.026  27.587  1.00  0.00     0.119 C 
HETATM   17  O1  UNL     1       2.229  20.690  25.865  1.00  0.00    -0.272 OA
ATOM     18  H1  UNL     1       4.881  18.969  26.354  1.00  0.00     0.190 HD
ENDBRANCH  10  14
ENDBRANCH   1   8
BRANCH   7  19
HETATM   19  N6  UNL     1       6.639  22.179  20.355  1.00  0.00    -0.067 N 
ATOM     20  H63 UNL     1       6.813  23.175  20.492  1.00  0.00     0.275 HD
ATOM     21  H62 UNL     1       7.069  21.842  21.216  1.00  0.00     0.275 HD
ATOM     22  H61 UNL     1       7.096  21.813  19.520  1.00  0.00     0.275 HD
ENDBRANCH   7  19
BRANCH   7  23
HETATM   23  C10 UNL     1       4.361  23.013  20.691  1.00  0.00     0.270 C 
BRANCH  23  24
HETATM   24  N7  UNL     1       2.972  22.713  20.817  1.00  0.00    -0.077 N 
ATOM     25  H73 UNL     1       2.602  22.393  19.922  1.00  0.00     0.274 HD
ATOM     26  H72 UNL     1       2.847  21.869  21.376  1.00  0.00     0.274 HD
ATOM     27  H71 UNL     1       2.391  23.466  21.186  1.00  0.00     0.274 HD
ENDBRANCH  23  24
ENDBRANCH   7  23
BRANCH   5  28
HETATM   28  N5  UNL     1       5.716  20.239  16.993  1.00  0.00    -0.047 N 
ATOM     29  H53 UNL     1       5.552  19.246  16.827  1.00  0.00     0.276 HD
ATOM     30  H52 UNL     1       4.815  20.587  16.665  1.00  0.00     0.276 HD
ATOM     31  H51 UNL     1       6.497  20.602  16.445  1.00  0.00     0.276 HD
ENDBRANCH   5  28
TORSDOF 6
ENDMDL
MODEL 4
REMARK VINA RESULT: -4.683021056      9.074     10.644
REMARK  6 active torsions:
REMARK  status: ('A' for Active; 'I' for Inactive)
REMARK       I    between atoms: C2_2  and  N1_4 
REMARK    1  A    between atoms: N1_4  and  N2_6 
REMARK       I    between atoms: N2_6  and  C3_8 
REMARK       I    between atoms: C3_8  and  N3_10 
REMARK    2  A    between atoms: N3_10  and  C4_12 
REMARK    3  A    between atoms: C7_16  and  N5_17 
REMARK    4  A    between atoms: C9_22  and  N6_23 
REMARK    5  A    between atoms: C9_22  and  C10_27 
REMARK    6  A    between atoms: C10_27  and  N7_28 
ROOT
HETATM    1  C4  UNL     1      -0.881  24.265  29.029  1.00  0.00     0.152 C 
HETATM    2  C5  UNL     1      -0.643  25.275  27.934  1.00  0.00     0.302 C 
HETATM    3  N4  UNL     1      -1.607  26.343  28.005  1.00  0.00     0.117 N 
HETATM    4  C6  UNL     1      -1.219  27.350  27.033  1.00  0.00     0.312 C 
HETATM    5  C7  UNL     1      -1.609  26.993  29.306  1.00  0.00     0.419 C 
HETATM    6  C8  UNL     1      -1.910  25.992  30.385  1.00  0.00     0.107 C 
HETATM    7  C9  UNL     1      -0.796  24.958  30.364  1.00  0.00     0.172 C 
ENDROOT
BRANCH   1   8
HETATM    8  N3  UNL     1       0.057  23.197  28.991  1.00  0.00    -0.333 N 
HETATM    9  C3  UNL     1      -0.251  21.826  29.226  1.00  0.00     0.335 C 
HETATM   10  N2  UNL     1       0.763  20.840  29.164  1.00  0.00    -0.249 N 
HETATM   11  O2  UNL     1      -1.410  21.424  29.497  1.00  0.00    -0.246 OA
ATOM     12  H2  UNL     1       1.711  21.149  28.947  1.00  0.00     0.192 HD
ATOM     13  H3  UNL     1       1.027  23.431  28.779  1.00  0.00     0.164 HD
BRANCH  10  14
HETATM   14  N1  UNL     1       0.561  19.483  29.377  1.00  0.00    -0.266 N 
HETATM   15  C2  UNL     1       1.089  18.782  30.508  1.00  0.00     0.232 C 
HETATM   16  C1  UNL     1       0.833  17.325  30.674  1.00  0.00     0.119 C 
HETATM   17  O1  UNL     1       1.762  19.449  31.327  1.00  0.00    -0.272 OA
ATOM     18  H1  UNL     1       0.011  18.960  28.695  1.00  0.00     0.190 HD
ENDBRANCH  10  14
ENDBRANCH   1   8
BRANCH   7  19
HETATM   19  N6  UNL     1       0.441  25.693  30.417  1.00  0.00    -0.067 N 
ATOM     20  H63 UNL     1       1.237  25.144  30.092  1.00  0.00     0.275 HD
ATOM     21  H62 UNL     1       0.487  26.433  29.717  1.00  0.00     0.275 HD
ATOM     22  H61 UNL     1       0.567  26.044  31.366  1.00  0.00     0.275 HD
ENDBRANCH   7  19
BRANCH   7  23
HETATM   23  C10 UNL     1      -0.987  24.052  31.543  1.00  0.00     0.270 C 
BRANCH  23  24
HETATM   24  N7  UNL     1      -2.191  23.288  31.543  1.00  0.00    -0.077 N 
ATOM     25  H73 UNL     1      -2.024  22.373  31.960  1.00  0.00     0.274 HD
ATOM     26  H72 UNL     1      -2.850  23.676  32.217  1.00  0.00     0.274 HD
ATOM     27  H71 UNL     1      -2.643  23.180  30.635  1.00  0.00     0.274 HD
ENDBRANCH  23  24
ENDBRANCH   7  23
BRANCH   5  28
HETATM   28  N5  UNL     1      -2.624  27.999  29.318  1.00  0.00    -0.047 N 
ATOM     29  H53 UNL     1      -2.793  28.393  28.392  1.00  0.00     0.276 HD
ATOM     30  H52 UNL     1      -3.554  27.612  29.478  1.00  0.00     0.276 HD
ATOM     31  H51 UNL     1      -2.375  28.711  30.005  1.00  0.00     0.276 HD
ENDBRANCH   5  28
TORSDOF 6
ENDMDL
MODEL 5
REMARK VINA RESULT: -4.618368854      1.473      1.923
REMARK  6 active torsions:
REMARK  status: ('A' for Active; 'I' for Inactive)
REMARK       I    between atoms: C2_2  and  N1_4 
REMARK    1  A    between atoms: N1_4  and  N2_6 
REMARK       I    between atoms: N2_6  and  C3_8 
REMARK       I    between atoms: C3_8  and  N3_10 
REMARK    2  A    between atoms: N3_10  and  C4_12 
REMARK    3  A    between atoms: C7_16  and  N5_17 
REMARK    4  A    between atoms: C9_22  and  N6_23 
REMARK    5  A    between atoms: C9_22  and  C10_27 
REMARK    6  A    between atoms: C10_27  and  N7_28 
ROOT
HETATM    1  C4  UNL     1       5.126  20.187  20.694  1.00  0.00     0.152 C 
HETATM    2  C5  UNL     1       5.723  18.883  21.165  1.00  0.00     0.302 C 
HETATM    3  N4  UNL     1       6.335  18.176  20.071  1.00  0.00     0.117 N 
HETATM    4  C6  UNL     1       7.024  17.023  20.624  1.00  0.00     0.312 C 
HETATM    5  C7  UNL     1       7.340  18.980  19.393  1.00  0.00     0.419 C 
HETATM    6  C8  UNL     1       6.724  20.248  18.871  1.00  0.00     0.107 C 
HETATM    7  C9  UNL     1       6.211  21.027  20.070  1.00  0.00     0.172 C 
ENDROOT
BRANCH   1   8
HETATM    8  N3  UNL     1       4.515  20.914  21.752  1.00  0.00    -0.333 N 
HETATM    9  C3  UNL     1       3.896  20.334  22.896  1.00  0.00     0.335 C 
HETATM   10  N2  UNL     1       3.315  21.154  23.894  1.00  0.00    -0.249 N 
HETATM   11  O2  UNL     1       3.831  19.093  23.080  1.00  0.00    -0.246 OA
ATOM     12  H2  UNL     1       3.358  22.164  23.760  1.00  0.00     0.192 HD
ATOM     13  H3  UNL     1       4.520  21.932  21.686  1.00  0.00     0.164 HD
BRANCH  10  14
HETATM   14  N1  UNL     1       2.692  20.682  25.041  1.00  0.00    -0.266 N 
HETATM   15  C2  UNL     1       3.393  19.996  26.084  1.00  0.00     0.232 C 
HETATM   16  C1  UNL     1       2.661  19.516  27.289  1.00  0.00     0.119 C 
HETATM   17  O1  UNL     1       4.624  19.826  25.928  1.00  0.00    -0.272 OA
ATOM     18  H1  UNL     1       1.689  20.830  25.146  1.00  0.00     0.190 HD
ENDBRANCH  10  14
ENDBRANCH   1   8
BRANCH   7  19
HETATM   19  N6  UNL     1       7.309  21.113  20.998  1.00  0.00    -0.067 N 
ATOM     20  H63 UNL     1       7.929  20.304  20.949  1.00  0.00     0.275 HD
ATOM     21  H62 UNL     1       7.989  21.826  20.736  1.00  0.00     0.275 HD
ATOM     22  H61 UNL     1       6.929  21.260  21.934  1.00  0.00     0.275 HD
ENDBRANCH   7  19
BRANCH   7  23
HETATM   23  C10 UNL     1       5.751  22.368  19.585  1.00  0.00     0.270 C 
BRANCH  23  24
HETATM   24  N7  UNL     1       5.556  22.479  18.177  1.00  0.00    -0.077 N 
ATOM     25  H73 UNL     1       6.452  22.629  17.712  1.00  0.00     0.274 HD
ATOM     26  H72 UNL     1       5.300  21.572  17.788  1.00  0.00     0.274 HD
ATOM     27  H71 UNL     1       4.887  23.189  17.880  1.00  0.00     0.274 HD
ENDBRANCH  23  24
ENDBRANCH   7  23
BRANCH   5  28
HETATM   28  N5  UNL     1       7.862  18.236  18.290  1.00  0.00    -0.047 N 
ATOM     29  H53 UNL     1       7.969  17.244  18.505  1.00  0.00     0.276 HD
ATOM     30  H52 UNL     1       7.188  18.143  17.530  1.00  0.00     0.276 HD
ATOM     31  H51 UNL     1       8.736  18.665  17.986  1.00  0.00     0.276 HD
ENDBRANCH   5  28
TORSDOF 6
ENDMDL
