MODEL 1
REMARK VINA RESULT: -4.474377598      0.000      0.000
REMARK  4 active torsions:
REMARK  status: ('A' for Active; 'I' for Inactive)
REMARK    1  A    between atoms: C2_2  and  C3_3 
REMARK       I    between atoms: C3_3  and  N1_5 
REMARK    2  A    between atoms: C4_7  and  C5_8 
REMARK    3  A    between atoms: C5_8  and  N2_9 
REMARK    4  A    between atoms: C5_8  and  N3_13 
ROOT
HETATM    1  C3  UNL     1      19.311  40.024  13.792  1.00  0.00     0.270 C 
HETATM    2  O1  UNL     1      18.430  40.605  13.045  1.00  0.00    -0.266 OA
HETATM    3  N1  UNL     1      19.133  38.655  14.015  1.00  0.00    -0.172 N 
HETATM    4  O2  UNL     1      18.080  37.947  13.481  1.00  0.00    -0.262 OA
HETATM    5  C4  UNL     1      18.804  36.977  12.762  1.00  0.00     0.216 C 
HETATM    6  C6  UNL     1      19.980  36.614  13.592  1.00  0.00     0.119 C 
HETATM    7  C7  UNL     1      19.831  37.634  14.749  1.00  0.00     0.226 C 
HETATM    8  N4  UNL     1      21.102  37.953  15.254  1.00  0.00    -0.376 N 
ATOM      9  H4  UNL     1      21.848  38.265  14.632  1.00  0.00     0.157 HD
HETATM   10  C8  UNL     1      21.320  37.831  16.642  1.00  0.00     0.138 C 
HETATM   11  C9  UNL     1      21.666  36.418  17.114  1.00  0.00     0.157 C 
HETATM   12  N5  UNL     1      20.461  35.603  17.130  1.00  0.00    -0.225 N 
ATOM     13  H5  UNL     1      20.531  34.687  17.574  1.00  0.00     0.177 HD
HETATM   14  C10 UNL     1      19.175  35.962  16.579  1.00  0.00     0.671 C 
HETATM   15  N6  UNL     1      18.175  35.269  16.959  1.00  0.00    -0.235 N 
ATOM     16  H61 UNL     1      17.267  35.523  16.570  1.00  0.00     0.174 HD
ATOM     17  H62 UNL     1      18.368  34.516  17.620  1.00  0.00     0.174 HD
HETATM   18  N7  UNL     1      18.909  36.998  15.669  1.00  0.00    -0.179 N 
ATOM     19  H7  UNL     1      17.950  37.346  15.654  1.00  0.00     0.182 HD
ENDROOT
BRANCH   1  20
HETATM   20  C2  UNL     1      20.401  40.850  14.325  1.00  0.00     0.066 C 
HETATM   21  C1  UNL     1      20.413  42.128  14.067  1.00  0.00     0.017 C 
ENDBRANCH   1  20
BRANCH   5  22
HETATM   22  C5  UNL     1      17.956  35.837  12.321  1.00  0.00     0.409 C 
BRANCH  22  23
HETATM   23  N2  UNL     1      17.255  35.159  13.356  1.00  0.00    -0.048 N 
ATOM     24  H23 UNL     1      17.844  34.428  13.756  1.00  0.00     0.276 HD
ATOM     25  H22 UNL     1      17.152  35.770  14.166  1.00  0.00     0.276 HD
ATOM     26  H21 UNL     1      16.348  34.773  13.092  1.00  0.00     0.276 HD
ENDBRANCH  22  23
BRANCH  22  27
HETATM   27  N3  UNL     1      18.771  34.929  11.547  1.00  0.00    -0.048 N 
ATOM     28  H33 UNL     1      19.458  35.416  10.971  1.00  0.00     0.276 HD
ATOM     29  H32 UNL     1      19.423  34.399  12.125  1.00  0.00     0.276 HD
ATOM     30  H31 UNL     1      18.156  34.328  10.998  1.00  0.00     0.276 HD
ENDBRANCH  22  27
ENDBRANCH   5  22
TORSDOF 4
ENDMDL
MODEL 2
REMARK VINA RESULT: -3.783788560      5.986      8.184
REMARK  4 active torsions:
REMARK  status: ('A' for Active; 'I' for Inactive)
REMARK    1  A    between atoms: C2_2  and  C3_3 
REMARK       I    between atoms: C3_3  and  N1_5 
REMARK    2  A    between atoms: C4_7  and  C5_8 
REMARK    3  A    between atoms: C5_8  and  N2_9 
REMARK    4  A    between atoms: C5_8  and  N3_13 
ROOT
HETATM    1  C3  UNL     1      26.442  36.740  19.398  1.00  0.00     0.270 C 
HETATM    2  O1  UNL     1      26.088  35.586  19.862  1.00  0.00    -0.266 OA
HETATM    3  N1  UNL     1      26.012  37.049  18.104  1.00  0.00    -0.172 N 
HETATM    4  O2  UNL     1      25.255  36.184  17.347  1.00  0.00    -0.262 OA
HETATM    5  C4  UNL     1      24.138  37.008  17.113  1.00  0.00     0.216 C 
HETATM    6  C6  UNL     1      24.655  38.384  16.905  1.00  0.00     0.119 C 
HETATM    7  C7  UNL     1      26.158  38.168  17.212  1.00  0.00     0.226 C 
HETATM    8  N4  UNL     1      26.699  39.351  17.741  1.00  0.00    -0.376 N 
ATOM      9  H4  UNL     1      26.262  39.816  18.537  1.00  0.00     0.157 HD
HETATM   10  C8  UNL     1      27.862  39.880  17.143  1.00  0.00     0.138 C 
HETATM   11  C9  UNL     1      27.610  40.741  15.904  1.00  0.00     0.157 C 
HETATM   12  N5  UNL     1      27.296  39.883  14.772  1.00  0.00    -0.225 N 
ATOM     13  H5  UNL     1      27.261  40.327  13.854  1.00  0.00     0.177 HD
HETATM   14  C10 UNL     1      27.030  38.464  14.820  1.00  0.00     0.671 C 
HETATM   15  N6  UNL     1      27.087  37.833  13.713  1.00  0.00    -0.235 N 
ATOM     16  H61 UNL     1      26.899  36.831  13.747  1.00  0.00     0.174 HD
ATOM     17  H62 UNL     1      27.314  38.385  12.886  1.00  0.00     0.174 HD
HETATM   18  N7  UNL     1      26.716  37.704  15.958  1.00  0.00    -0.179 N 
ATOM     19  H7  UNL     1      26.905  36.704  15.895  1.00  0.00     0.182 HD
ENDROOT
BRANCH   1  20
HETATM   20  C2  UNL     1      27.250  37.602  20.268  1.00  0.00     0.066 C 
HETATM   21  C1  UNL     1      27.847  37.080  21.302  1.00  0.00     0.017 C 
ENDBRANCH   1  20
BRANCH   5  22
HETATM   22  C5  UNL     1      23.255  36.487  16.035  1.00  0.00     0.409 C 
BRANCH  22  23
HETATM   23  N2  UNL     1      21.919  36.974  16.050  1.00  0.00    -0.048 N 
ATOM     24  H23 UNL     1      21.553  36.960  17.002  1.00  0.00     0.276 HD
ATOM     25  H22 UNL     1      21.910  37.977  15.868  1.00  0.00     0.276 HD
ATOM     26  H21 UNL     1      21.272  36.499  15.419  1.00  0.00     0.276 HD
ENDBRANCH  22  23
BRANCH  22  27
HETATM   27  N3  UNL     1      23.297  35.043  16.064  1.00  0.00    -0.048 N 
ATOM     28  H33 UNL     1      22.520  34.641  16.588  1.00  0.00     0.276 HD
ATOM     29  H32 UNL     1      23.085  34.626  15.157  1.00  0.00     0.276 HD
ATOM     30  H31 UNL     1      24.205  34.751  16.426  1.00  0.00     0.276 HD
ENDBRANCH  22  27
ENDBRANCH   5  22
TORSDOF 4
ENDMDL
MODEL 3
REMARK VINA RESULT: -3.324699568      6.445      8.891
REMARK  4 active torsions:
REMARK  status: ('A' for Active; 'I' for Inactive)
REMARK    1  A    between atoms: C2_2  and  C3_3 
REMARK       I    between atoms: C3_3  and  N1_5 
REMARK    2  A    between atoms: C4_7  and  C5_8 
REMARK    3  A    between atoms: C5_8  and  N2_9 
REMARK    4  A    between atoms: C5_8  and  N3_13 
ROOT
HETATM    1  C3  UNL     1      21.751  46.188  13.791  1.00  0.00     0.270 C 
HETATM    2  O1  UNL     1      21.979  47.445  13.987  1.00  0.00    -0.266 OA
HETATM    3  N1  UNL     1      21.053  45.856  12.626  1.00  0.00    -0.172 N 
HETATM    4  O2  UNL     1      20.621  46.802  11.724  1.00  0.00    -0.262 OA
HETATM    5  C4  UNL     1      21.281  46.333  10.573  1.00  0.00     0.216 C 
HETATM    6  C6  UNL     1      21.229  44.850  10.621  1.00  0.00     0.119 C 
HETATM    7  C7  UNL     1      20.591  44.638  12.016  1.00  0.00     0.226 C 
HETATM    8  N4  UNL     1      21.051  43.427  12.558  1.00  0.00    -0.376 N 
ATOM      9  H4  UNL     1      22.050  43.226  12.617  1.00  0.00     0.157 HD
HETATM   10  C8  UNL     1      20.098  42.495  13.019  1.00  0.00     0.138 C 
HETATM   11  C9  UNL     1      19.505  41.596  11.933  1.00  0.00     0.157 C 
HETATM   12  N5  UNL     1      18.538  42.352  11.151  1.00  0.00    -0.225 N 
ATOM     13  H5  UNL     1      17.960  41.823  10.498  1.00  0.00     0.177 HD
HETATM   14  C10 UNL     1      18.315  43.778  11.209  1.00  0.00     0.671 C 
HETATM   15  N6  UNL     1      17.231  44.209  10.695  1.00  0.00    -0.235 N 
ATOM     16  H61 UNL     1      17.073  45.217  10.736  1.00  0.00     0.174 HD
ATOM     17  H62 UNL     1      16.613  43.510  10.283  1.00  0.00     0.174 HD
HETATM   18  N7  UNL     1      19.165  44.740  11.776  1.00  0.00    -0.179 N 
ATOM     19  H7  UNL     1      18.727  45.618  12.053  1.00  0.00     0.182 HD
ENDROOT
BRANCH   1  20
HETATM   20  C2  UNL     1      22.242  45.243  14.801  1.00  0.00     0.066 C 
HETATM   21  C1  UNL     1      23.046  45.672  15.734  1.00  0.00     0.017 C 
ENDBRANCH   1  20
BRANCH   5  22
HETATM   22  C5  UNL     1      20.764  46.952   9.322  1.00  0.00     0.409 C 
BRANCH  22  23
HETATM   23  N2  UNL     1      20.300  48.290   9.448  1.00  0.00    -0.048 N 
ATOM     24  H23 UNL     1      21.050  48.888   9.796  1.00  0.00     0.276 HD
ATOM     25  H22 UNL     1      20.158  48.700   8.525  1.00  0.00     0.276 HD
ATOM     26  H21 UNL     1      19.463  48.413  10.018  1.00  0.00     0.276 HD
ENDBRANCH  22  23
BRANCH  22  27
HETATM   27  N3  UNL     1      19.749  46.087   8.767  1.00  0.00    -0.048 N 
ATOM     28  H33 UNL     1      19.906  45.105   8.994  1.00  0.00     0.276 HD
ATOM     29  H32 UNL     1      18.846  46.195   9.230  1.00  0.00     0.276 HD
ATOM     30  H31 UNL     1      19.695  46.252   7.762  1.00  0.00     0.276 HD
ENDBRANCH  22  27
ENDBRANCH   5  22
TORSDOF 4
ENDMDL
MODEL 4
REMARK VINA RESULT: -3.153720518      5.650      8.278
REMARK  4 active torsions:
REMARK  status: ('A' for Active; 'I' for Inactive)
REMARK    1  A    between atoms: C2_2  and  C3_3 
REMARK       I    between atoms: C3_3  and  N1_5 
REMARK    2  A    between atoms: C4_7  and  C5_8 
REMARK    3  A    between atoms: C5_8  and  N2_9 
REMARK    4  A    between atoms: C5_8  and  N3_13 
ROOT
HETATM    1  C3  UNL     1      23.273  36.104  16.632  1.00  0.00     0.270 C 
HETATM    2  O1  UNL     1      22.399  35.807  17.537  1.00  0.00    -0.266 OA
HETATM    3  N1  UNL     1      24.486  36.631  17.088  1.00  0.00    -0.172 N 
HETATM    4  O2  UNL     1      24.753  36.832  18.423  1.00  0.00    -0.262 OA
HETATM    5  C4  UNL     1      25.908  36.037  18.544  1.00  0.00     0.216 C 
HETATM    6  C6  UNL     1      26.688  36.218  17.294  1.00  0.00     0.119 C 
HETATM    7  C7  UNL     1      25.703  37.087  16.473  1.00  0.00     0.226 C 
HETATM    8  N4  UNL     1      25.878  36.822  15.105  1.00  0.00    -0.376 N 
ATOM      9  H4  UNL     1      25.849  35.866  14.750  1.00  0.00     0.157 HD
HETATM   10  C8  UNL     1      26.093  37.911  14.234  1.00  0.00     0.138 C 
HETATM   11  C9  UNL     1      27.542  38.394  14.159  1.00  0.00     0.157 C 
HETATM   12  N5  UNL     1      27.862  39.157  15.356  1.00  0.00    -0.225 N 
ATOM     13  H5  UNL     1      28.747  39.663  15.355  1.00  0.00     0.177 HD
HETATM   14  C10 UNL     1      27.050  39.268  16.545  1.00  0.00     0.671 C 
HETATM   15  N6  UNL     1      27.337  40.216  17.348  1.00  0.00    -0.235 N 
ATOM     16  H61 UNL     1      26.763  40.294  18.188  1.00  0.00     0.174 HD
ATOM     17  H62 UNL     1      28.118  40.815  17.084  1.00  0.00     0.174 HD
HETATM   18  N7  UNL     1      25.974  38.443  16.909  1.00  0.00    -0.179 N 
ATOM     19  H7  UNL     1      25.300  38.846  17.560  1.00  0.00     0.182 HD
ENDROOT
BRANCH   1  20
HETATM   20  C2  UNL     1      22.910  35.861  15.231  1.00  0.00     0.066 C 
HETATM   21  C1  UNL     1      21.664  35.622  14.931  1.00  0.00     0.017 C 
ENDBRANCH   1  20
BRANCH   5  22
HETATM   22  C5  UNL     1      26.653  36.294  19.806  1.00  0.00     0.409 C 
BRANCH  22  23
HETATM   23  N2  UNL     1      26.925  37.661  20.088  1.00  0.00    -0.048 N 
ATOM     24  H23 UNL     1      27.930  37.803  20.195  1.00  0.00     0.276 HD
ATOM     25  H22 UNL     1      26.751  38.230  19.259  1.00  0.00     0.276 HD
ATOM     26  H21 UNL     1      26.430  38.051  20.890  1.00  0.00     0.276 HD
ENDBRANCH  22  23
BRANCH  22  27
HETATM   27  N3  UNL     1      27.860  35.501  19.797  1.00  0.00    -0.048 N 
ATOM     28  H33 UNL     1      27.764  34.650  19.244  1.00  0.00     0.276 HD
ATOM     29  H32 UNL     1      28.610  35.935  19.258  1.00  0.00     0.276 HD
ATOM     30  H31 UNL     1      28.132  35.312  20.763  1.00  0.00     0.276 HD
ENDBRANCH  22  27
ENDBRANCH   5  22
TORSDOF 4
ENDMDL
MODEL 5
REMARK VINA RESULT: -3.039740138      2.190      4.505
REMARK  4 active torsions:
REMARK  status: ('A' for Active; 'I' for Inactive)
REMARK    1  A    between atoms: C2_2  and  C3_3 
REMARK       I    between atoms: C3_3  and  N1_5 
REMARK    2  A    between atoms: C4_7  and  C5_8 
REMARK    3  A    between atoms: C5_8  and  N2_9 
REMARK    4  A    between atoms: C5_8  and  N3_13 
ROOT
HETATM    1  C3  UNL     1      21.687  36.131  16.272  1.00  0.00     0.270 C 
HETATM    2  O1  UNL     1      22.013  34.952  16.691  1.00  0.00    -0.266 OA
HETATM    3  N1  UNL     1      20.423  36.257  15.687  1.00  0.00    -0.172 N 
HETATM    4  O2  UNL     1      19.558  35.194  15.553  1.00  0.00    -0.262 OA
HETATM    5  C4  UNL     1      18.459  35.707  16.266  1.00  0.00     0.216 C 
HETATM    6  C6  UNL     1      18.377  37.155  15.947  1.00  0.00     0.119 C 
HETATM    7  C7  UNL     1      19.663  37.329  15.102  1.00  0.00     0.226 C 
HETATM    8  N4  UNL     1      20.153  38.634  15.265  1.00  0.00    -0.376 N 
ATOM      9  H4  UNL     1      20.315  39.020  16.196  1.00  0.00     0.157 HD
HETATM   10  C8  UNL     1      20.418  39.399  14.110  1.00  0.00     0.138 C 
HETATM   11  C9  UNL     1      19.197  40.105  13.516  1.00  0.00     0.157 C 
HETATM   12  N5  UNL     1      18.372  39.137  12.811  1.00  0.00    -0.225 N 
ATOM     13  H5  UNL     1      17.612  39.510  12.241  1.00  0.00     0.177 HD
HETATM   14  C10 UNL     1      18.522  37.701  12.837  1.00  0.00     0.671 C 
HETATM   15  N6  UNL     1      17.919  37.045  11.925  1.00  0.00    -0.235 N 
ATOM     16  H61 UNL     1      18.025  36.030  11.944  1.00  0.00     0.174 HD
ATOM     17  H62 UNL     1      17.379  37.591  11.253  1.00  0.00     0.174 HD
HETATM   18  N7  UNL     1      19.264  36.949  13.761  1.00  0.00    -0.179 N 
ATOM     19  H7  UNL     1      19.559  36.023  13.452  1.00  0.00     0.182 HD
ENDROOT
BRANCH   1  20
HETATM   20  C2  UNL     1      22.666  37.210  16.450  1.00  0.00     0.066 C 
HETATM   21  C1  UNL     1      23.933  36.912  16.521  1.00  0.00     0.017 C 
ENDBRANCH   1  20
BRANCH   5  22
HETATM   22  C5  UNL     1      17.211  34.929  16.037  1.00  0.00     0.409 C 
BRANCH  22  23
HETATM   23  N2  UNL     1      16.452  35.314  14.898  1.00  0.00    -0.048 N 
ATOM     24  H23 UNL     1      16.262  36.316  14.927  1.00  0.00     0.276 HD
ATOM     25  H22 UNL     1      17.030  35.265  14.059  1.00  0.00     0.276 HD
ATOM     26  H21 UNL     1      15.583  34.798  14.755  1.00  0.00     0.276 HD
ENDBRANCH  22  23
BRANCH  22  27
HETATM   27  N3  UNL     1      16.418  34.965  17.243  1.00  0.00    -0.048 N 
ATOM     28  H33 UNL     1      16.754  35.660  17.911  1.00  0.00     0.276 HD
ATOM     29  H32 UNL     1      15.488  35.357  17.089  1.00  0.00     0.276 HD
ATOM     30  H31 UNL     1      16.386  34.025  17.640  1.00  0.00     0.276 HD
ENDBRANCH  22  27
ENDBRANCH   5  22
TORSDOF 4
ENDMDL
