MODEL 1
REMARK VINA RESULT: -5.976783286      0.000      0.000
REMARK  1 active torsions:
REMARK  status: ('A' for Active; 'I' for Inactive)
REMARK       I    between atoms: N2_3  and  C2_5 
REMARK    1  A    between atoms: C2_5  and  C3_7 
ROOT
HETATM    1  N1  UNL     1      19.031  42.033  12.089  1.00  0.00    -0.172 NA
HETATM    2  C1  UNL     1      19.328  41.074  12.673  1.00  0.00     0.184 C 
HETATM    3  N2  UNL     1      19.667  39.921  13.378  1.00  0.00    -0.261 N 
ATOM      4  H2  UNL     1      20.393  39.942  14.093  1.00  0.00     0.181 HD
HETATM    5  C2  UNL     1      18.967  38.697  13.071  1.00  0.00     0.281 C 
HETATM    6  O1  UNL     1      18.072  38.676  12.188  1.00  0.00    -0.268 OA
ENDROOT
BRANCH   5   7
HETATM    7  C3  UNL     1      19.285  37.439  13.789  1.00  0.00     0.385 C 
HETATM    8  N3  UNL     1      18.081  36.854  14.268  1.00  0.00    -0.307 N 
HETATM    9  C4  UNL     1      17.896  36.371  15.598  1.00  0.00     0.320 C 
ATOM     10  H3  UNL     1      17.299  36.775  13.619  1.00  0.00     0.166 HD
HETATM   11  O2  UNL     1      16.809  35.849  15.987  1.00  0.00    -0.247 OA
HETATM   12  N4  UNL     1      19.010  36.512  16.474  1.00  0.00    -0.301 N 
HETATM   13  C5  UNL     1      20.298  36.790  15.878  1.00  0.00     0.262 C 
ATOM     14  H4  UNL     1      18.903  36.420  17.484  1.00  0.00     0.167 HD
HETATM   15  C6  UNL     1      20.883  35.467  15.443  1.00  0.00     0.094 C 
HETATM   16  S1  UNL     1      21.364  37.476  17.178  1.00  0.00    -0.034 SA
HETATM   17  N7  UNL     1      20.244  37.750  14.812  1.00  0.00    -0.009 N 
HETATM   18  C7  UNL     1      22.256  35.605  14.867  1.00  0.00     0.127 C 
HETATM   19  N5  UNL     1      23.254  36.006  15.833  1.00  0.00    -0.371 N 
HETATM   20  C8  UNL     1      23.050  37.092  16.725  1.00  0.00     0.137 C 
ATOM     21  H5  UNL     1      24.134  35.491  15.876  1.00  0.00     0.161 HD
HETATM   22  N6  UNL     1      24.049  37.788  17.199  1.00  0.00    -0.380 N 
ATOM     23  H62 UNL     1      25.011  37.569  16.940  1.00  0.00     0.158 HD
ATOM     24  H61 UNL     1      23.902  38.568  17.839  1.00  0.00     0.158 HD
ATOM     25  H72 UNL     1      21.170  37.884  14.405  1.00  0.00     0.284 HD
ATOM     26  H71 UNL     1      20.081  38.686  15.182  1.00  0.00     0.284 HD
ENDBRANCH   5   7
TORSDOF 1
ENDMDL
MODEL 2
REMARK VINA RESULT: -5.581822122      1.652      1.689
REMARK  1 active torsions:
REMARK  status: ('A' for Active; 'I' for Inactive)
REMARK       I    between atoms: N2_3  and  C2_5 
REMARK    1  A    between atoms: C2_5  and  C3_7 
ROOT
HETATM    1  N1  UNL     1      19.918  42.485  13.628  1.00  0.00    -0.172 NA
HETATM    2  C1  UNL     1      19.986  41.339  13.802  1.00  0.00     0.184 C 
HETATM    3  N2  UNL     1      20.051  39.964  14.012  1.00  0.00    -0.261 N 
ATOM      4  H2  UNL     1      20.657  39.574  14.734  1.00  0.00     0.181 HD
HETATM    5  C2  UNL     1      19.240  39.103  13.184  1.00  0.00     0.281 C 
HETATM    6  O1  UNL     1      18.494  39.588  12.296  1.00  0.00    -0.268 OA
ENDROOT
BRANCH   5   7
HETATM    7  C3  UNL     1      19.267  37.631  13.363  1.00  0.00     0.385 C 
HETATM    8  N3  UNL     1      18.007  37.089  12.991  1.00  0.00    -0.307 N 
HETATM    9  C4  UNL     1      17.273  36.149  13.775  1.00  0.00     0.320 C 
ATOM     10  H3  UNL     1      17.600  37.393  12.106  1.00  0.00     0.166 HD
HETATM   11  O2  UNL     1      16.153  35.683  13.407  1.00  0.00    -0.247 OA
HETATM   12  N4  UNL     1      17.872  35.762  15.007  1.00  0.00    -0.301 N 
HETATM   13  C5  UNL     1      19.275  36.060  15.191  1.00  0.00     0.262 C 
ATOM     14  H4  UNL     1      17.331  35.292  15.733  1.00  0.00     0.167 HD
HETATM   15  C6  UNL     1      20.057  34.949  14.531  1.00  0.00     0.094 C 
HETATM   16  S1  UNL     1      19.615  36.004  16.974  1.00  0.00    -0.034 SA
HETATM   17  N7  UNL     1      19.654  37.361  14.720  1.00  0.00    -0.009 N 
HETATM   18  C7  UNL     1      21.535  35.100  14.707  1.00  0.00     0.127 C 
HETATM   19  N5  UNL     1      21.977  34.929  16.073  1.00  0.00    -0.371 N 
HETATM   20  C8  UNL     1      21.344  35.587  17.161  1.00  0.00     0.137 C 
ATOM     21  H5  UNL     1      22.770  34.316  16.262  1.00  0.00     0.161 HD
HETATM   22  N6  UNL     1      21.992  35.879  18.257  1.00  0.00    -0.380 N 
ATOM     23  H62 UNL     1      22.977  35.642  18.364  1.00  0.00     0.158 HD
ATOM     24  H61 UNL     1      21.536  36.352  19.038  1.00  0.00     0.158 HD
ATOM     25  H72 UNL     1      20.657  37.508  14.842  1.00  0.00     0.284 HD
ATOM     26  H71 UNL     1      19.297  38.085  15.343  1.00  0.00     0.284 HD
ENDBRANCH   5   7
TORSDOF 1
ENDMDL
MODEL 3
REMARK VINA RESULT: -5.390770974      2.705      4.569
REMARK  1 active torsions:
REMARK  status: ('A' for Active; 'I' for Inactive)
REMARK       I    between atoms: N2_3  and  C2_5 
REMARK    1  A    between atoms: C2_5  and  C3_7 
ROOT
HETATM    1  N1  UNL     1      20.361  42.977  13.198  1.00  0.00    -0.172 NA
HETATM    2  C1  UNL     1      20.337  41.990  13.809  1.00  0.00     0.184 C 
HETATM    3  N2  UNL     1      20.291  40.805  14.538  1.00  0.00    -0.261 N 
ATOM      4  H2  UNL     1      20.686  40.754  15.477  1.00  0.00     0.181 HD
HETATM    5  C2  UNL     1      19.672  39.650  13.934  1.00  0.00     0.281 C 
HETATM    6  O1  UNL     1      19.186  39.716  12.777  1.00  0.00    -0.268 OA
ENDROOT
BRANCH   5   7
HETATM    7  C3  UNL     1      19.593  38.360  14.663  1.00  0.00     0.385 C 
HETATM    8  N3  UNL     1      20.903  37.835  14.831  1.00  0.00    -0.307 N 
HETATM    9  C4  UNL     1      21.270  36.485  14.547  1.00  0.00     0.320 C 
ATOM     10  H3  UNL     1      21.629  38.463  15.176  1.00  0.00     0.166 HD
HETATM   11  O2  UNL     1      22.449  36.051  14.715  1.00  0.00    -0.247 OA
HETATM   12  N4  UNL     1      20.231  35.646  14.056  1.00  0.00    -0.301 N 
HETATM   13  C5  UNL     1      18.869  36.105  14.217  1.00  0.00     0.262 C 
ATOM     14  H4  UNL     1      20.439  34.754  13.608  1.00  0.00     0.167 HD
HETATM   15  C6  UNL     1      18.433  35.727  15.613  1.00  0.00     0.094 C 
HETATM   16  S1  UNL     1      17.840  35.183  13.038  1.00  0.00    -0.034 SA
HETATM   17  N7  UNL     1      18.696  37.503  13.940  1.00  0.00    -0.009 N 
HETATM   18  C7  UNL     1      17.008  36.087  15.890  1.00  0.00     0.127 C 
HETATM   19  N5  UNL     1      16.054  35.318  15.122  1.00  0.00    -0.371 N 
HETATM   20  C8  UNL     1      16.187  35.131  13.720  1.00  0.00     0.137 C 
ATOM     21  H5  UNL     1      15.260  34.895  15.603  1.00  0.00     0.161 HD
HETATM   22  N6  UNL     1      15.149  34.930  12.953  1.00  0.00    -0.380 N 
ATOM     23  H62 UNL     1      14.207  34.900  13.342  1.00  0.00     0.158 HD
ATOM     24  H61 UNL     1      15.246  34.796  11.947  1.00  0.00     0.158 HD
ATOM     25  H72 UNL     1      17.727  37.782  14.101  1.00  0.00     0.284 HD
ATOM     26  H71 UNL     1      18.762  37.680  12.938  1.00  0.00     0.284 HD
ENDBRANCH   5   7
TORSDOF 1
ENDMDL
MODEL 4
REMARK VINA RESULT: -5.305099730      2.709      4.547
REMARK  1 active torsions:
REMARK  status: ('A' for Active; 'I' for Inactive)
REMARK       I    between atoms: N2_3  and  C2_5 
REMARK    1  A    between atoms: C2_5  and  C3_7 
ROOT
HETATM    1  N1  UNL     1      19.471  42.062  11.807  1.00  0.00    -0.172 NA
HETATM    2  C1  UNL     1      19.320  41.036  12.329  1.00  0.00     0.184 C 
HETATM    3  N2  UNL     1      19.156  39.803  12.954  1.00  0.00    -0.261 N 
ATOM      4  H2  UNL     1      18.509  39.109  12.579  1.00  0.00     0.181 HD
HETATM    5  C2  UNL     1      19.921  39.530  14.147  1.00  0.00     0.281 C 
HETATM    6  O1  UNL     1      20.717  40.387  14.606  1.00  0.00    -0.268 OA
ENDROOT
BRANCH   5   7
HETATM    7  C3  UNL     1      19.788  38.233  14.856  1.00  0.00     0.385 C 
HETATM    8  N3  UNL     1      21.079  37.675  15.061  1.00  0.00    -0.307 N 
HETATM    9  C4  UNL     1      21.425  36.321  14.771  1.00  0.00     0.320 C 
ATOM     10  H3  UNL     1      21.806  38.282  15.439  1.00  0.00     0.166 HD
HETATM   11  O2  UNL     1      22.587  35.857  14.974  1.00  0.00    -0.247 OA
HETATM   12  N4  UNL     1      20.383  35.512  14.234  1.00  0.00    -0.301 N 
HETATM   13  C5  UNL     1      19.028  36.001  14.354  1.00  0.00     0.262 C 
ATOM     14  H4  UNL     1      20.586  34.621  13.781  1.00  0.00     0.167 HD
HETATM   15  C6  UNL     1      18.535  35.616  15.730  1.00  0.00     0.094 C 
HETATM   16  S1  UNL     1      18.019  35.119  13.129  1.00  0.00    -0.034 SA
HETATM   17  N7  UNL     1      18.896  37.406  14.091  1.00  0.00    -0.009 N 
HETATM   18  C7  UNL     1      17.110  36.006  15.962  1.00  0.00     0.127 C 
HETATM   19  N5  UNL     1      16.166  35.269  15.152  1.00  0.00    -0.371 N 
HETATM   20  C8  UNL     1      16.343  35.097  13.753  1.00  0.00     0.137 C 
ATOM     21  H5  UNL     1      15.347  34.859  15.600  1.00  0.00     0.161 HD
HETATM   22  N6  UNL     1      15.328  34.929  12.949  1.00  0.00    -0.380 N 
ATOM     23  H62 UNL     1      14.373  34.917  13.305  1.00  0.00     0.158 HD
ATOM     24  H61 UNL     1      15.456  34.806  11.944  1.00  0.00     0.158 HD
ATOM     25  H72 UNL     1      17.930  37.706  14.222  1.00  0.00     0.284 HD
ATOM     26  H71 UNL     1      19.002  37.594  13.094  1.00  0.00     0.284 HD
ENDBRANCH   5   7
TORSDOF 1
ENDMDL
MODEL 5
REMARK VINA RESULT: -4.674417833      4.514      6.735
REMARK  1 active torsions:
REMARK  status: ('A' for Active; 'I' for Inactive)
REMARK       I    between atoms: N2_3  and  C2_5 
REMARK    1  A    between atoms: C2_5  and  C3_7 
ROOT
HETATM    1  N1  UNL     1      19.688  36.435  16.510  1.00  0.00    -0.172 NA
HETATM    2  C1  UNL     1      20.815  36.213  16.341  1.00  0.00     0.184 C 
HETATM    3  N2  UNL     1      22.168  35.962  16.128  1.00  0.00    -0.261 N 
ATOM      4  H2  UNL     1      22.483  35.050  15.797  1.00  0.00     0.181 HD
HETATM    5  C2  UNL     1      23.113  37.021  16.387  1.00  0.00     0.281 C 
HETATM    6  O1  UNL     1      22.720  38.143  16.794  1.00  0.00    -0.268 OA
ENDROOT
BRANCH   5   7
HETATM    7  C3  UNL     1      24.567  36.811  16.177  1.00  0.00     0.385 C 
HETATM    8  N3  UNL     1      25.022  35.780  17.043  1.00  0.00    -0.307 N 
HETATM    9  C4  UNL     1      26.188  35.874  17.861  1.00  0.00     0.320 C 
ATOM     10  H3  UNL     1      24.480  34.917  17.084  1.00  0.00     0.166 HD
HETATM   11  O2  UNL     1      26.567  34.929  18.617  1.00  0.00    -0.247 OA
HETATM   12  N4  UNL     1      26.908  37.099  17.783  1.00  0.00    -0.301 N 
HETATM   13  C5  UNL     1      26.621  37.973  16.668  1.00  0.00     0.262 C 
ATOM     14  H4  UNL     1      27.601  37.351  18.487  1.00  0.00     0.167 HD
HETATM   15  C6  UNL     1      27.441  37.486  15.496  1.00  0.00     0.094 C 
HETATM   16  S1  UNL     1      27.206  39.634  17.111  1.00  0.00    -0.034 SA
HETATM   17  N7  UNL     1      25.222  38.076  16.361  1.00  0.00    -0.009 N 
HETATM   18  C7  UNL     1      27.288  38.351  14.285  1.00  0.00     0.127 C 
HETATM   19  N5  UNL     1      27.850  39.674  14.441  1.00  0.00    -0.371 N 
HETATM   20  C8  UNL     1      27.585  40.478  15.581  1.00  0.00     0.137 C 
ATOM     21  H5  UNL     1      28.456  40.041  13.708  1.00  0.00     0.161 HD
HETATM   22  N6  UNL     1      27.615  41.783  15.522  1.00  0.00    -0.380 N 
ATOM     23  H62 UNL     1      27.831  42.264  14.650  1.00  0.00     0.158 HD
ATOM     24  H61 UNL     1      27.425  42.360  16.341  1.00  0.00     0.158 HD
ATOM     25  H72 UNL     1      25.077  38.676  15.549  1.00  0.00     0.284 HD
ATOM     26  H71 UNL     1      24.740  38.628  17.071  1.00  0.00     0.284 HD
ENDBRANCH   5   7
TORSDOF 1
ENDMDL
