MODEL 1
REMARK VINA RESULT: -1.658157827      0.000      0.000
REMARK  7 active torsions:
REMARK  status: ('A' for Active; 'I' for Inactive)
REMARK       I    between atoms: C2_2  and  N1_4 
REMARK    1  A    between atoms: N1_4  and  C3_6 
REMARK    2  A    between atoms: C5_8  and  N2_9 
REMARK    3  A    between atoms: C7_14  and  N3_15 
REMARK    4  A    between atoms: C7_14  and  C8_19 
REMARK    5  A    between atoms: C9_22  and  O4_23 
REMARK    6  A    between atoms: C9_22  and  C10_25 
REMARK    7  A    between atoms: C11_26  and  N4_27 
ROOT
HETATM    1  C3  UNL     1      20.101  37.931  15.098  1.00  0.00     0.136 C 
HETATM    2  C4  UNL     1      19.549  38.659  13.917  1.00  0.00     0.062 C 
HETATM    3  C5  UNL     1      18.891  37.771  12.899  1.00  0.00     0.188 C 
HETATM    4  C6  UNL     1      17.929  36.787  13.481  1.00  0.00     0.087 C 
HETATM    5  C7  UNL     1      18.445  36.066  14.694  1.00  0.00     0.255 C 
HETATM    6  C9  UNL     1      19.096  36.997  15.687  1.00  0.00     0.186 C 
ENDROOT
BRANCH   5   7
HETATM    7  N3  UNL     1      19.292  34.959  14.318  1.00  0.00    -0.056 N 
ATOM      8  H33 UNL     1      18.745  34.158  14.004  1.00  0.00     0.276 HD
ATOM      9  H32 UNL     1      19.799  35.150  13.454  1.00  0.00     0.276 HD
ATOM     10  H31 UNL     1      19.925  34.707  15.078  1.00  0.00     0.276 HD
ENDBRANCH   5   7
BRANCH   5  11
HETATM   11  C8  UNL     1      17.271  35.478  15.373  1.00  0.00     0.214 C 
HETATM   12  O2  UNL     1      17.341  34.929  16.500  1.00  0.00    -0.646 OA
HETATM   13  O3  UNL     1      16.044  35.527  14.755  1.00  0.00    -0.646 OA
ENDBRANCH   5  11
BRANCH   6  14
HETATM   14  O4  UNL     1      18.043  37.789  16.168  1.00  0.00    -0.372 OA
ATOM     15  H4  UNL     1      18.061  37.720  17.115  1.00  0.00     0.212 HD
ENDBRANCH   6  14
BRANCH   6  16
HETATM   16  C10 UNL     1      19.616  36.241  16.802  1.00  0.00    -0.040 C 
HETATM   17  C11 UNL     1      20.048  35.623  17.748  1.00  0.00     0.006 C 
BRANCH  17  18
HETATM   18  N4  UNL     1      20.553  34.929  18.854  1.00  0.00    -0.359 N 
ATOM     19  H42 UNL     1      19.859  35.655  18.673  1.00  0.00     0.166 HD
ATOM     20  H41 UNL     1      20.931  34.414  19.649  1.00  0.00     0.166 HD
ENDBRANCH  17  18
ENDBRANCH   6  16
BRANCH   3  21
HETATM   21  N2  UNL     1      18.141  38.643  12.008  1.00  0.00    -0.075 N 
ATOM     22  H23 UNL     1      17.199  38.847  12.343  1.00  0.00     0.274 HD
ATOM     23  H22 UNL     1      18.485  39.603  12.000  1.00  0.00     0.274 HD
ATOM     24  H21 UNL     1      18.154  38.202  11.088  1.00  0.00     0.274 HD
ENDBRANCH   3  21
BRANCH   1  25
HETATM   25  N1  UNL     1      21.403  37.358  14.869  1.00  0.00    -0.353 N 
HETATM   26  C2  UNL     1      22.489  37.353  15.734  1.00  0.00     0.214 C 
HETATM   27  C1  UNL     1      23.781  36.731  15.389  1.00  0.00     0.117 C 
HETATM   28  O1  UNL     1      22.398  37.890  16.859  1.00  0.00    -0.274 OA
ATOM     29  H1  UNL     1      21.543  36.902  13.968  1.00  0.00     0.163 HD
ENDBRANCH   1  25
TORSDOF 7
ENDMDL
MODEL 2
REMARK VINA RESULT: -1.023567632      9.374     11.528
REMARK  7 active torsions:
REMARK  status: ('A' for Active; 'I' for Inactive)
REMARK       I    between atoms: C2_2  and  N1_4 
REMARK    1  A    between atoms: N1_4  and  C3_6 
REMARK    2  A    between atoms: C5_8  and  N2_9 
REMARK    3  A    between atoms: C7_14  and  N3_15 
REMARK    4  A    between atoms: C7_14  and  C8_19 
REMARK    5  A    between atoms: C9_22  and  O4_23 
REMARK    6  A    between atoms: C9_22  and  C10_25 
REMARK    7  A    between atoms: C11_26  and  N4_27 
ROOT
HETATM    1  C3  UNL     1      20.100  45.498   9.841  1.00  0.00     0.136 C 
HETATM    2  C4  UNL     1      19.367  45.845   8.588  1.00  0.00     0.062 C 
HETATM    3  C5  UNL     1      18.447  47.026   8.718  1.00  0.00     0.188 C 
HETATM    4  C6  UNL     1      19.071  48.212   9.377  1.00  0.00     0.087 C 
HETATM    5  C7  UNL     1      19.846  47.888  10.622  1.00  0.00     0.255 C 
HETATM    6  C9  UNL     1      20.755  46.698  10.444  1.00  0.00     0.186 C 
ENDROOT
BRANCH   5   7
HETATM    7  N3  UNL     1      18.969  47.763  11.762  1.00  0.00    -0.056 N 
ATOM      8  H33 UNL     1      18.624  48.672  12.071  1.00  0.00     0.276 HD
ATOM      9  H32 UNL     1      18.079  47.337  11.506  1.00  0.00     0.276 HD
ATOM     10  H31 UNL     1      19.425  47.257  12.522  1.00  0.00     0.276 HD
ENDBRANCH   5   7
BRANCH   5  11
HETATM   11  C8  UNL     1      20.719  49.049  10.896  1.00  0.00     0.214 C 
HETATM   12  O2  UNL     1      20.310  50.088  11.470  1.00  0.00    -0.646 OA
HETATM   13  O3  UNL     1      22.038  49.003  10.510  1.00  0.00    -0.646 OA
ENDBRANCH   5  11
BRANCH   6  14
HETATM   14  O4  UNL     1      21.724  47.130   9.526  1.00  0.00    -0.372 OA
ATOM     15  H4  UNL     1      21.571  48.057   9.385  1.00  0.00     0.212 HD
ENDBRANCH   6  14
BRANCH   6  16
HETATM   16  C10 UNL     1      21.431  46.405  11.685  1.00  0.00    -0.040 C 
HETATM   17  C11 UNL     1      21.986  46.173  12.735  1.00  0.00     0.006 C 
BRANCH  17  18
HETATM   18  N4  UNL     1      22.623  45.927  13.957  1.00  0.00    -0.359 N 
ATOM     19  H42 UNL     1      22.148  46.706  13.499  1.00  0.00     0.166 HD
ATOM     20  H41 UNL     1      23.090  45.731  14.843  1.00  0.00     0.166 HD
ENDBRANCH  17  18
ENDBRANCH   6  16
BRANCH   3  21
HETATM   21  N2  UNL     1      18.078  47.418   7.366  1.00  0.00    -0.075 N 
ATOM     22  H23 UNL     1      18.874  47.717   6.803  1.00  0.00     0.274 HD
ATOM     23  H22 UNL     1      17.794  46.632   6.781  1.00  0.00     0.274 HD
ATOM     24  H21 UNL     1      17.357  48.134   7.457  1.00  0.00     0.274 HD
ENDBRANCH   3  21
BRANCH   1  25
HETATM   25  N1  UNL     1      19.330  44.700  10.762  1.00  0.00    -0.353 N 
HETATM   26  C2  UNL     1      19.669  43.467  11.300  1.00  0.00     0.214 C 
HETATM   27  C1  UNL     1      18.795  42.738  12.239  1.00  0.00     0.117 C 
HETATM   28  O1  UNL     1      20.755  42.926  10.996  1.00  0.00    -0.274 OA
ATOM     29  H1  UNL     1      18.431  45.086  11.051  1.00  0.00     0.163 HD
ENDBRANCH   1  25
TORSDOF 7
ENDMDL
MODEL 3
REMARK VINA RESULT: -0.793802115     14.189     16.003
REMARK  7 active torsions:
REMARK  status: ('A' for Active; 'I' for Inactive)
REMARK       I    between atoms: C2_2  and  N1_4 
REMARK    1  A    between atoms: N1_4  and  C3_6 
REMARK    2  A    between atoms: C5_8  and  N2_9 
REMARK    3  A    between atoms: C7_14  and  N3_15 
REMARK    4  A    between atoms: C7_14  and  C8_19 
REMARK    5  A    between atoms: C9_22  and  O4_23 
REMARK    6  A    between atoms: C9_22  and  C10_25 
REMARK    7  A    between atoms: C11_26  and  N4_27 
ROOT
HETATM    1  C3  UNL     1      23.247  52.198  17.469  1.00  0.00     0.136 C 
HETATM    2  C4  UNL     1      23.958  53.467  17.807  1.00  0.00     0.062 C 
HETATM    3  C5  UNL     1      23.928  53.820  19.267  1.00  0.00     0.188 C 
HETATM    4  C6  UNL     1      24.288  52.688  20.174  1.00  0.00     0.087 C 
HETATM    5  C7  UNL     1      23.614  51.389  19.834  1.00  0.00     0.255 C 
HETATM    6  C9  UNL     1      23.670  51.076  18.360  1.00  0.00     0.186 C 
ENDROOT
BRANCH   5   7
HETATM    7  N3  UNL     1      22.274  51.343  20.371  1.00  0.00    -0.056 N 
ATOM      8  H33 UNL     1      22.279  51.192  21.380  1.00  0.00     0.276 HD
ATOM      9  H32 UNL     1      21.831  52.262  20.353  1.00  0.00     0.276 HD
ATOM     10  H31 UNL     1      21.710  50.643  19.889  1.00  0.00     0.276 HD
ENDBRANCH   5   7
BRANCH   5  11
HETATM   11  C8  UNL     1      24.372  50.322  20.521  1.00  0.00     0.214 C 
HETATM   12  O2  UNL     1      23.827  49.473  21.268  1.00  0.00    -0.646 OA
HETATM   13  O3  UNL     1      25.733  50.245  20.343  1.00  0.00    -0.646 OA
ENDBRANCH   5  11
BRANCH   6  14
HETATM   14  O4  UNL     1      25.029  50.849  18.100  1.00  0.00    -0.372 OA
ATOM     15  H4  UNL     1      25.512  51.518  18.570  1.00  0.00     0.212 HD
ENDBRANCH   6  14
BRANCH   6  16
HETATM   16  C10 UNL     1      22.963  49.847  18.090  1.00  0.00    -0.040 C 
HETATM   17  C11 UNL     1      22.372  48.820  17.844  1.00  0.00     0.006 C 
BRANCH  17  18
HETATM   18  N4  UNL     1      21.684  47.641  17.538  1.00  0.00    -0.359 N 
ATOM     19  H42 UNL     1      21.671  48.351  18.271  1.00  0.00     0.166 HD
ATOM     20  H41 UNL     1      21.191  46.780  17.299  1.00  0.00     0.166 HD
ENDBRANCH  17  18
ENDBRANCH   6  16
BRANCH   3  21
HETATM   21  N2  UNL     1      24.916  54.870  19.464  1.00  0.00    -0.075 N 
ATOM     22  H23 UNL     1      25.862  54.583  19.215  1.00  0.00     0.274 HD
ATOM     23  H22 UNL     1      24.832  55.633  18.791  1.00  0.00     0.274 HD
ATOM     24  H21 UNL     1      24.829  55.175  20.433  1.00  0.00     0.274 HD
ENDBRANCH   3  21
BRANCH   1  25
HETATM   25  N1  UNL     1      21.821  52.354  17.323  1.00  0.00    -0.353 N 
HETATM   26  C2  UNL     1      20.980  51.670  16.457  1.00  0.00     0.214 C 
HETATM   27  C1  UNL     1      19.527  51.916  16.396  1.00  0.00     0.117 C 
HETATM   28  O1  UNL     1      21.444  50.803  15.685  1.00  0.00    -0.274 OA
ATOM     29  H1  UNL     1      21.379  53.047  17.927  1.00  0.00     0.163 HD
ENDBRANCH   1  25
TORSDOF 7
ENDMDL
MODEL 4
REMARK VINA RESULT: -0.663972262      2.161      4.051
REMARK  7 active torsions:
REMARK  status: ('A' for Active; 'I' for Inactive)
REMARK       I    between atoms: C2_2  and  N1_4 
REMARK    1  A    between atoms: N1_4  and  C3_6 
REMARK    2  A    between atoms: C5_8  and  N2_9 
REMARK    3  A    between atoms: C7_14  and  N3_15 
REMARK    4  A    between atoms: C7_14  and  C8_19 
REMARK    5  A    between atoms: C9_22  and  O4_23 
REMARK    6  A    between atoms: C9_22  and  C10_25 
REMARK    7  A    between atoms: C11_26  and  N4_27 
ROOT
HETATM    1  C3  UNL     1      19.696  36.982  13.753  1.00  0.00     0.136 C 
HETATM    2  C4  UNL     1      20.948  37.382  14.462  1.00  0.00     0.062 C 
HETATM    3  C5  UNL     1      20.724  37.937  15.840  1.00  0.00     0.188 C 
HETATM    4  C6  UNL     1      19.811  37.112  16.687  1.00  0.00     0.087 C 
HETATM    5  C7  UNL     1      18.560  36.665  15.987  1.00  0.00     0.255 C 
HETATM    6  C9  UNL     1      18.833  36.115  14.609  1.00  0.00     0.186 C 
ENDROOT
BRANCH   5   7
HETATM    7  N3  UNL     1      17.561  37.707  15.992  1.00  0.00    -0.056 N 
ATOM      8  H33 UNL     1      17.862  38.518  15.451  1.00  0.00     0.276 HD
ATOM      9  H32 UNL     1      16.744  37.446  15.440  1.00  0.00     0.276 HD
ATOM     10  H31 UNL     1      17.304  37.966  16.945  1.00  0.00     0.276 HD
ENDBRANCH   5   7
BRANCH   5  11
HETATM   11  C8  UNL     1      18.001  35.551  16.782  1.00  0.00     0.214 C 
HETATM   12  O2  UNL     1      18.668  34.929  17.646  1.00  0.00    -0.646 OA
HETATM   13  O3  UNL     1      16.696  35.168  16.577  1.00  0.00    -0.646 OA
ENDBRANCH   5  11
BRANCH   6  14
HETATM   14  O4  UNL     1      19.552  34.933  14.838  1.00  0.00    -0.372 OA
ATOM     15  H4  UNL     1      18.921  34.279  15.115  1.00  0.00     0.212 HD
ENDBRANCH   6  14
BRANCH   6  16
HETATM   16  C10 UNL     1      17.590  35.752  13.969  1.00  0.00    -0.040 C 
HETATM   17  C11 UNL     1      16.555  35.458  13.417  1.00  0.00     0.006 C 
BRANCH  17  18
HETATM   18  N4  UNL     1      15.359  35.139  12.763  1.00  0.00    -0.359 N 
ATOM     19  H42 UNL     1      16.119  35.812  12.656  1.00  0.00     0.166 HD
ATOM     20  H41 UNL     1      14.484  34.893  12.299  1.00  0.00     0.166 HD
ENDBRANCH  17  18
ENDBRANCH   6  16
BRANCH   3  21
HETATM   21  N2  UNL     1      22.023  37.965  16.495  1.00  0.00    -0.075 N 
ATOM     22  H23 UNL     1      22.566  38.801  16.278  1.00  0.00     0.274 HD
ATOM     23  H22 UNL     1      21.964  38.109  17.503  1.00  0.00     0.274 HD
ATOM     24  H21 UNL     1      22.498  37.099  16.239  1.00  0.00     0.274 HD
ENDBRANCH   3  21
BRANCH   1  25
HETATM   25  N1  UNL     1      19.013  38.081  13.117  1.00  0.00    -0.353 N 
HETATM   26  C2  UNL     1      19.179  39.437  13.364  1.00  0.00     0.214 C 
HETATM   27  C1  UNL     1      18.420  40.477  12.646  1.00  0.00     0.117 C 
HETATM   28  O1  UNL     1      20.000  39.822  14.225  1.00  0.00    -0.274 OA
ATOM     29  H1  UNL     1      18.329  37.834  12.403  1.00  0.00     0.163 HD
ENDBRANCH   1  25
TORSDOF 7
ENDMDL
MODEL 5
REMARK VINA RESULT: -0.596832562     15.547     17.190
REMARK  7 active torsions:
REMARK  status: ('A' for Active; 'I' for Inactive)
REMARK       I    between atoms: C2_2  and  N1_4 
REMARK    1  A    between atoms: N1_4  and  C3_6 
REMARK    2  A    between atoms: C5_8  and  N2_9 
REMARK    3  A    between atoms: C7_14  and  N3_15 
REMARK    4  A    between atoms: C7_14  and  C8_19 
REMARK    5  A    between atoms: C9_22  and  O4_23 
REMARK    6  A    between atoms: C9_22  and  C10_25 
REMARK    7  A    between atoms: C11_26  and  N4_27 
ROOT
HETATM    1  C3  UNL     1      25.259  52.418  19.601  1.00  0.00     0.136 C 
HETATM    2  C4  UNL     1      25.675  51.194  20.347  1.00  0.00     0.062 C 
HETATM    3  C5  UNL     1      24.533  50.397  20.911  1.00  0.00     0.188 C 
HETATM    4  C6  UNL     1      23.431  50.140  19.935  1.00  0.00     0.087 C 
HETATM    5  C7  UNL     1      23.016  51.347  19.144  1.00  0.00     0.255 C 
HETATM    6  C9  UNL     1      24.195  52.114  18.597  1.00  0.00     0.186 C 
ENDROOT
BRANCH   5   7
HETATM    7  N3  UNL     1      22.104  52.174  19.898  1.00  0.00    -0.056 N 
ATOM      8  H33 UNL     1      21.456  52.672  19.287  1.00  0.00     0.276 HD
ATOM      9  H32 UNL     1      21.429  51.613  20.416  1.00  0.00     0.276 HD
ATOM     10  H31 UNL     1      22.610  52.815  20.510  1.00  0.00     0.276 HD
ENDBRANCH   5   7
BRANCH   5  11
HETATM   11  C8  UNL     1      22.258  50.852  17.976  1.00  0.00     0.214 C 
HETATM   12  O2  UNL     1      22.521  49.765  17.404  1.00  0.00    -0.646 OA
HETATM   13  O3  UNL     1      21.218  51.604  17.482  1.00  0.00    -0.646 OA
ENDBRANCH   5  11
BRANCH   6  14
HETATM   14  O4  UNL     1      24.768  51.252  17.652  1.00  0.00    -0.372 OA
ATOM     15  H4  UNL     1      24.999  51.786  16.901  1.00  0.00     0.212 HD
ENDBRANCH   6  14
BRANCH   6  16
HETATM   16  C10 UNL     1      23.735  53.288  17.894  1.00  0.00    -0.040 C 
HETATM   17  C11 UNL     1      23.335  54.275  17.319  1.00  0.00     0.006 C 
BRANCH  17  18
HETATM   18  N4  UNL     1      22.851  55.413  16.664  1.00  0.00    -0.359 N 
ATOM     19  H42 UNL     1      23.493  54.646  16.463  1.00  0.00     0.166 HD
ATOM     20  H41 UNL     1      22.488  56.247  16.201  1.00  0.00     0.166 HD
ENDBRANCH  17  18
ENDBRANCH   6  16
BRANCH   3  21
HETATM   21  N2  UNL     1      25.078  49.107  21.306  1.00  0.00    -0.075 N 
ATOM     22  H23 UNL     1      25.507  48.598  20.533  1.00  0.00     0.274 HD
ATOM     23  H22 UNL     1      25.913  49.184  21.887  1.00  0.00     0.274 HD
ATOM     24  H21 UNL     1      24.320  48.595  21.755  1.00  0.00     0.274 HD
ENDBRANCH   3  21
BRANCH   1  25
HETATM   25  N1  UNL     1      24.988  53.551  20.450  1.00  0.00    -0.353 N 
HETATM   26  C2  UNL     1      25.550  54.817  20.376  1.00  0.00     0.214 C 
HETATM   27  C1  UNL     1      25.193  55.905  21.306  1.00  0.00     0.117 C 
HETATM   28  O1  UNL     1      26.397  55.077  19.493  1.00  0.00    -0.274 OA
ATOM     29  H1  UNL     1      24.303  53.405  21.192  1.00  0.00     0.163 HD
ENDBRANCH   1  25
TORSDOF 7
ENDMDL
