MODEL 1
REMARK VINA RESULT: -6.075043806      0.000      0.000
REMARK  3 active torsions:
REMARK  status: ('A' for Active; 'I' for Inactive)
REMARK    1  A    between atoms: C4_9  and  N4_10 
REMARK    2  A    between atoms: C4_9  and  C7_15 
REMARK       I    between atoms: N4_10  and  C5_12 
REMARK       I    between atoms: C7_15  and  N5_17 
REMARK    3  A    between atoms: C9_21  and  O3_22 
ROOT
HETATM    1  C7  UNL     1      18.502  36.683  15.355  1.00  0.00     0.263 C 
HETATM    2  O2  UNL     1      17.838  37.179  16.287  1.00  0.00    -0.270 OA
HETATM    3  N5  UNL     1      17.925  35.690  14.533  1.00  0.00    -0.262 N 
ATOM      4  H5  UNL     1      18.467  35.279  13.774  1.00  0.00     0.181 HD
HETATM    5  C8  UNL     1      16.583  35.260  14.766  1.00  0.00     0.184 C 
HETATM    6  N6  UNL     1      15.489  34.929  14.946  1.00  0.00    -0.172 NA
ENDROOT
BRANCH   1   7
HETATM    7  C4  UNL     1      19.919  37.119  15.082  1.00  0.00     0.162 C 
HETATM    8  C3  UNL     1      20.449  36.174  14.048  1.00  0.00     0.179 C 
HETATM    9  N3  UNL     1      20.917  34.931  14.560  1.00  0.00    -0.137 NA
HETATM   10  N2  UNL     1      22.037  35.182  15.379  1.00  0.00    -0.291 N 
HETATM   11  C2  UNL     1      22.018  36.349  16.228  1.00  0.00     0.120 C 
ATOM     12  H2  UNL     1      22.842  34.555  15.371  1.00  0.00     0.183 HD
HETATM   13  N1  UNL     1      23.050  36.710  16.875  1.00  0.00    -0.381 N 
HETATM   14  C9  UNL     1      20.745  37.107  16.314  1.00  0.00     0.225 C 
HETATM   15  C1  UNL     1      24.332  36.092  16.898  1.00  0.00     0.147 C 
ATOM     16  H1  UNL     1      22.947  37.546  17.449  1.00  0.00     0.160 HD
BRANCH  14  17
HETATM   17  O3  UNL     1      20.011  36.689  17.441  1.00  0.00    -0.385 OA
ATOM     18  H3  UNL     1      19.091  36.893  17.323  1.00  0.00     0.210 HD
ENDBRANCH  14  17
BRANCH   7  19
HETATM   19  N4  UNL     1      19.859  38.484  14.556  1.00  0.00    -0.340 N 
HETATM   20  C5  UNL     1      19.131  38.892  13.431  1.00  0.00     0.214 C 
HETATM   21  C6  UNL     1      19.134  40.301  12.989  1.00  0.00     0.117 C 
HETATM   22  O1  UNL     1      18.455  38.086  12.762  1.00  0.00    -0.274 OA
ATOM     23  H4  UNL     1      20.393  39.198  15.051  1.00  0.00     0.163 HD
ENDBRANCH   7  19
ENDBRANCH   1   7
TORSDOF 3
ENDMDL
MODEL 2
REMARK VINA RESULT: -5.875619604      1.794      4.667
REMARK  3 active torsions:
REMARK  status: ('A' for Active; 'I' for Inactive)
REMARK    1  A    between atoms: C4_9  and  N4_10 
REMARK    2  A    between atoms: C4_9  and  C7_15 
REMARK       I    between atoms: N4_10  and  C5_12 
REMARK       I    between atoms: C7_15  and  N5_17 
REMARK    3  A    between atoms: C9_21  and  O3_22 
ROOT
HETATM    1  C7  UNL     1      21.379  36.324  15.261  1.00  0.00     0.263 C 
HETATM    2  O2  UNL     1      22.040  36.340  14.202  1.00  0.00    -0.270 OA
HETATM    3  N5  UNL     1      21.958  35.808  16.441  1.00  0.00    -0.262 N 
ATOM      4  H5  UNL     1      21.418  35.790  17.307  1.00  0.00     0.181 HD
HETATM    5  C8  UNL     1      23.297  35.312  16.424  1.00  0.00     0.184 C 
HETATM    6  N6  UNL     1      24.389  34.929  16.409  1.00  0.00    -0.172 NA
ENDROOT
BRANCH   1   7
HETATM    7  C4  UNL     1      19.965  36.844  15.311  1.00  0.00     0.162 C 
HETATM    8  C3  UNL     1      19.552  36.775  16.748  1.00  0.00     0.179 C 
HETATM    9  N3  UNL     1      19.109  35.492  17.181  1.00  0.00    -0.137 NA
HETATM   10  N2  UNL     1      17.925  35.175  16.484  1.00  0.00    -0.291 N 
HETATM   11  C2  UNL     1      17.831  35.537  15.090  1.00  0.00     0.120 C 
ATOM     12  H2  UNL     1      17.153  34.701  16.953  1.00  0.00     0.183 HD
HETATM   13  N1  UNL     1      16.742  35.413  14.448  1.00  0.00    -0.381 N 
HETATM   14  C9  UNL     1      19.059  36.059  14.438  1.00  0.00     0.225 C 
HETATM   15  C1  UNL     1      15.491  34.930  14.927  1.00  0.00     0.147 C 
ATOM     16  H1  UNL     1      16.766  35.694  13.468  1.00  0.00     0.160 HD
BRANCH  14  17
HETATM   17  O3  UNL     1      19.733  35.016  13.776  1.00  0.00    -0.385 OA
ATOM     18  H3  UNL     1      19.669  35.133  12.836  1.00  0.00     0.210 HD
ENDBRANCH  14  17
BRANCH   7  19
HETATM   19  N4  UNL     1      19.998  38.232  14.847  1.00  0.00    -0.340 N 
HETATM   20  C5  UNL     1      19.256  38.750  13.777  1.00  0.00     0.214 C 
HETATM   21  C6  UNL     1      19.359  40.173  13.394  1.00  0.00     0.117 C 
HETATM   22  O1  UNL     1      18.484  38.035  13.108  1.00  0.00    -0.274 OA
ATOM     23  H4  UNL     1      20.612  38.876  15.344  1.00  0.00     0.163 HD
ENDBRANCH   7  19
ENDBRANCH   1   7
TORSDOF 3
ENDMDL
MODEL 3
REMARK VINA RESULT: -5.609793493      1.802      3.638
REMARK  3 active torsions:
REMARK  status: ('A' for Active; 'I' for Inactive)
REMARK    1  A    between atoms: C4_9  and  N4_10 
REMARK    2  A    between atoms: C4_9  and  C7_15 
REMARK       I    between atoms: N4_10  and  C5_12 
REMARK       I    between atoms: C7_15  and  N5_17 
REMARK    3  A    between atoms: C9_21  and  O3_22 
ROOT
HETATM    1  C7  UNL     1      19.884  37.126  14.534  1.00  0.00     0.263 C 
HETATM    2  O2  UNL     1      19.569  36.471  13.519  1.00  0.00    -0.270 OA
HETATM    3  N5  UNL     1      19.732  38.530  14.538  1.00  0.00    -0.262 N 
ATOM      4  H5  UNL     1      19.994  39.068  15.365  1.00  0.00     0.181 HD
HETATM    5  C8  UNL     1      19.213  39.197  13.387  1.00  0.00     0.184 C 
HETATM    6  N6  UNL     1      18.774  39.731  12.459  1.00  0.00    -0.172 NA
ENDROOT
BRANCH   1   7
HETATM    7  C4  UNL     1      20.431  36.450  15.765  1.00  0.00     0.162 C 
HETATM    8  C3  UNL     1      20.745  37.548  16.733  1.00  0.00     0.179 C 
HETATM    9  N3  UNL     1      21.996  38.193  16.517  1.00  0.00    -0.137 NA
HETATM   10  N2  UNL     1      23.024  37.254  16.742  1.00  0.00    -0.291 N 
HETATM   11  C2  UNL     1      22.825  35.899  16.289  1.00  0.00     0.120 C 
ATOM     12  H2  UNL     1      23.886  37.526  17.214  1.00  0.00     0.183 HD
HETATM   13  N1  UNL     1      23.645  34.976  16.591  1.00  0.00    -0.381 N 
HETATM   14  C9  UNL     1      21.626  35.628  15.456  1.00  0.00     0.225 C 
HETATM   15  C1  UNL     1      24.832  35.077  17.371  1.00  0.00     0.147 C 
ATOM     16  H1  UNL     1      23.426  34.048  16.229  1.00  0.00     0.160 HD
BRANCH  14  17
HETATM   17  O3  UNL     1      21.967  35.678  14.091  1.00  0.00    -0.385 OA
ATOM     18  H3  UNL     1      21.444  35.054  13.603  1.00  0.00     0.210 HD
ENDBRANCH  14  17
BRANCH   7  19
HETATM   19  N4  UNL     1      19.374  35.583  16.289  1.00  0.00    -0.340 N 
HETATM   20  C5  UNL     1      18.005  35.881  16.294  1.00  0.00     0.214 C 
HETATM   21  C6  UNL     1      17.018  34.929  16.843  1.00  0.00     0.117 C 
HETATM   22  O1  UNL     1      17.567  36.955  15.838  1.00  0.00    -0.274 OA
ATOM     23  H4  UNL     1      19.658  34.687  16.684  1.00  0.00     0.163 HD
ENDBRANCH   7  19
ENDBRANCH   1   7
TORSDOF 3
ENDMDL
MODEL 4
REMARK VINA RESULT: -5.189936626      1.274      1.334
REMARK  3 active torsions:
REMARK  status: ('A' for Active; 'I' for Inactive)
REMARK    1  A    between atoms: C4_9  and  N4_10 
REMARK    2  A    between atoms: C4_9  and  C7_15 
REMARK       I    between atoms: N4_10  and  C5_12 
REMARK       I    between atoms: C7_15  and  N5_17 
REMARK    3  A    between atoms: C9_21  and  O3_22 
ROOT
HETATM    1  C7  UNL     1      19.249  35.990  15.836  1.00  0.00     0.263 C 
HETATM    2  O2  UNL     1      19.436  34.929  16.467  1.00  0.00    -0.270 OA
HETATM    3  N5  UNL     1      17.936  36.385  15.503  1.00  0.00    -0.262 N 
ATOM      4  H5  UNL     1      17.780  37.249  14.983  1.00  0.00     0.181 HD
HETATM    5  C8  UNL     1      16.824  35.577  15.892  1.00  0.00     0.184 C 
HETATM    6  N6  UNL     1      15.926  34.929  16.227  1.00  0.00    -0.172 NA
ENDROOT
BRANCH   1   7
HETATM    7  C4  UNL     1      20.402  36.865  15.414  1.00  0.00     0.162 C 
HETATM    8  C3  UNL     1      21.275  36.009  14.551  1.00  0.00     0.179 C 
HETATM    9  N3  UNL     1      22.166  35.157  15.263  1.00  0.00    -0.137 NA
HETATM   10  N2  UNL     1      23.087  35.964  15.962  1.00  0.00    -0.291 N 
HETATM   11  C2  UNL     1      22.607  37.178  16.576  1.00  0.00     0.120 C 
ATOM     12  H2  UNL     1      24.069  35.697  16.031  1.00  0.00     0.183 HD
HETATM   13  N1  UNL     1      23.409  38.019  17.090  1.00  0.00    -0.381 N 
HETATM   14  C9  UNL     1      21.139  37.403  16.583  1.00  0.00     0.225 C 
HETATM   15  C1  UNL     1      24.829  37.946  17.164  1.00  0.00     0.147 C 
ATOM     16  H1  UNL     1      22.983  38.849  17.501  1.00  0.00     0.160 HD
BRANCH  14  17
HETATM   17  O3  UNL     1      20.591  36.966  17.804  1.00  0.00    -0.385 OA
ATOM     18  H3  UNL     1      19.643  36.991  17.762  1.00  0.00     0.210 HD
ENDBRANCH  14  17
BRANCH   7  19
HETATM   19  N4  UNL     1      19.842  37.978  14.645  1.00  0.00    -0.340 N 
HETATM   20  C5  UNL     1      19.142  37.862  13.437  1.00  0.00     0.214 C 
HETATM   21  C6  UNL     1      18.612  39.053  12.743  1.00  0.00     0.117 C 
HETATM   22  O1  UNL     1      18.940  36.755  12.901  1.00  0.00    -0.274 OA
ATOM     23  H4  UNL     1      19.973  38.917  15.020  1.00  0.00     0.163 HD
ENDBRANCH   7  19
ENDBRANCH   1   7
TORSDOF 3
ENDMDL
MODEL 5
REMARK VINA RESULT: -5.126902280     15.241     16.984
REMARK  3 active torsions:
REMARK  status: ('A' for Active; 'I' for Inactive)
REMARK    1  A    between atoms: C4_9  and  N4_10 
REMARK    2  A    between atoms: C4_9  and  C7_15 
REMARK       I    between atoms: N4_10  and  C5_12 
REMARK       I    between atoms: C7_15  and  N5_17 
REMARK    3  A    between atoms: C9_21  and  O3_22 
ROOT
HETATM    1  C7  UNL     1      22.880  51.317  18.892  1.00  0.00     0.263 C 
HETATM    2  O2  UNL     1      21.750  51.847  18.910  1.00  0.00    -0.270 OA
HETATM    3  N5  UNL     1      23.180  50.337  17.921  1.00  0.00    -0.262 N 
ATOM      4  H5  UNL     1      24.101  49.899  17.907  1.00  0.00     0.181 HD
HETATM    5  C8  UNL     1      22.195  49.958  16.958  1.00  0.00     0.184 C 
HETATM    6  N6  UNL     1      21.401  49.669  16.168  1.00  0.00    -0.172 NA
ENDROOT
BRANCH   1   7
HETATM    7  C4  UNL     1      23.941  51.699  19.892  1.00  0.00     0.162 C 
HETATM    8  C3  UNL     1      23.210  52.233  21.084  1.00  0.00     0.179 C 
HETATM    9  N3  UNL     1      22.804  53.593  20.976  1.00  0.00    -0.137 NA
HETATM   10  N2  UNL     1      23.962  54.396  20.915  1.00  0.00    -0.291 N 
HETATM   11  C2  UNL     1      25.089  53.918  20.152  1.00  0.00     0.120 C 
ATOM     12  H2  UNL     1      24.001  55.294  21.398  1.00  0.00     0.183 HD
HETATM   13  N1  UNL     1      26.207  54.521  20.179  1.00  0.00    -0.381 N 
HETATM   14  C9  UNL     1      24.889  52.695  19.335  1.00  0.00     0.225 C 
HETATM   15  C1  UNL     1      26.553  55.697  20.904  1.00  0.00     0.147 C 
ATOM     16  H1  UNL     1      26.949  54.113  19.610  1.00  0.00     0.160 HD
BRANCH  14  17
HETATM   17  O3  UNL     1      24.570  53.047  18.010  1.00  0.00    -0.385 OA
ATOM     18  H3  UNL     1      25.306  52.864  17.439  1.00  0.00     0.210 HD
ENDBRANCH  14  17
BRANCH   7  19
HETATM   19  N4  UNL     1      24.673  50.478  20.235  1.00  0.00    -0.340 N 
HETATM   20  C5  UNL     1      25.892  50.426  20.923  1.00  0.00     0.214 C 
HETATM   21  C6  UNL     1      26.545  49.136  21.225  1.00  0.00     0.117 C 
HETATM   22  O1  UNL     1      26.473  51.460  21.305  1.00  0.00    -0.274 OA
ATOM     23  H4  UNL     1      24.259  49.591  19.950  1.00  0.00     0.163 HD
ENDBRANCH   7  19
ENDBRANCH   1   7
TORSDOF 3
ENDMDL
