MODEL 1
REMARK VINA RESULT: -5.340937038      0.000      0.000
REMARK  4 active torsions:
REMARK  status: ('A' for Active; 'I' for Inactive)
REMARK    1  A    between atoms: C4_9  and  N2_10 
REMARK    2  A    between atoms: C4_9  and  C8_18 
REMARK    3  A    between atoms: N2_10  and  S2_12 
REMARK    4  A    between atoms: S2_12  and  C5_15 
ROOT
HETATM    1  C1  UNL     1     -30.478 -21.614 -18.946  1.00  0.00     0.039 C 
HETATM    2  C2  UNL     1     -31.222 -22.655 -18.598  1.00  0.00     0.015 C 
HETATM    3  C3  UNL     1     -32.027 -23.323 -19.680  1.00  0.00     0.219 C 
HETATM    4  S1  UNL     1     -33.553 -23.792 -18.958  1.00  0.00     0.235 S 
HETATM    5  O1  UNL     1     -34.542 -22.682 -19.156  1.00  0.00    -0.205 OA
HETATM    6  O2  UNL     1     -34.091 -24.970 -19.762  1.00  0.00    -0.205 OA
HETATM    7  N1  UNL     1     -33.420 -24.261 -17.330  1.00  0.00    -0.267 N 
ATOM      8  H1  UNL     1     -34.011 -24.988 -16.928  1.00  0.00     0.177 HD
HETATM    9  C4  UNL     1     -32.438 -23.582 -16.560  1.00  0.00     0.260 C 
HETATM   10  N5  UNL     1     -31.284 -23.150 -17.279  1.00  0.00    -0.343 N 
ATOM     11  H5  UNL     1     -30.397 -23.205 -16.778  1.00  0.00     0.164 HD
ENDROOT
BRANCH   9  12
HETATM   12  N2  UNL     1     -32.064 -24.237 -15.356  1.00  0.00    -0.263 N 
ATOM     13  H2  UNL     1     -31.082 -24.273 -15.081  1.00  0.00     0.177 HD
BRANCH  12  14
HETATM   14  S2  UNL     1     -33.228 -24.950 -14.388  1.00  0.00     0.257 S 
HETATM   15  O3  UNL     1     -34.542 -25.179 -15.092  1.00  0.00    -0.201 OA
HETATM   16  O4  UNL     1     -32.737 -26.334 -13.964  1.00  0.00    -0.201 OA
BRANCH  14  17
HETATM   17  C5  UNL     1     -33.449 -24.037 -12.918  1.00  0.00     0.044 C 
HETATM   18  C6  UNL     1     -32.627 -24.272 -11.881  1.00  0.00     0.033 C 
HETATM   19  C7  UNL     1     -34.491 -23.003 -12.718  1.00  0.00     0.062 C 
ENDBRANCH  14  17
ENDBRANCH  12  14
ENDBRANCH   9  12
BRANCH   9  20
HETATM   20  C8  UNL     1     -33.092 -22.297 -16.063  1.00  0.00     0.159 C 
HETATM   21  N3  UNL     1     -34.331 -22.055 -16.222  1.00  0.00    -0.386 N 
ATOM     22  H32 UNL     1     -34.983 -22.681 -16.693  1.00  0.00     0.157 HD
ATOM     23  H31 UNL     1     -34.769 -21.196 -15.890  1.00  0.00     0.157 HD
HETATM   24  N4  UNL     1     -32.186 -21.427 -15.409  1.00  0.00    -0.081 NA
ENDBRANCH   9  20
TORSDOF 4
ENDMDL
MODEL 2
REMARK VINA RESULT: -4.831879780      1.813      2.091
REMARK  4 active torsions:
REMARK  status: ('A' for Active; 'I' for Inactive)
REMARK    1  A    between atoms: C4_9  and  N2_10 
REMARK    2  A    between atoms: C4_9  and  C8_18 
REMARK    3  A    between atoms: N2_10  and  S2_12 
REMARK    4  A    between atoms: S2_12  and  C5_15 
ROOT
HETATM    1  C1  UNL     1     -30.165 -19.774 -15.944  1.00  0.00     0.039 C 
HETATM    2  C2  UNL     1     -30.477 -21.003 -16.333  1.00  0.00     0.015 C 
HETATM    3  C3  UNL     1     -30.339 -21.322 -17.797  1.00  0.00     0.219 C 
HETATM    4  S1  UNL     1     -31.676 -22.378 -18.212  1.00  0.00     0.235 S 
HETATM    5  O1  UNL     1     -32.825 -21.538 -18.686  1.00  0.00    -0.205 OA
HETATM    6  O2  UNL     1     -31.244 -23.202 -19.418  1.00  0.00    -0.205 OA
HETATM    7  N1  UNL     1     -32.120 -23.438 -16.960  1.00  0.00    -0.267 N 
ATOM      8  H1  UNL     1     -32.466 -24.378 -17.148  1.00  0.00     0.177 HD
HETATM    9  C4  UNL     1     -31.980 -22.940 -15.637  1.00  0.00     0.260 C 
HETATM   10  N5  UNL     1     -30.923 -22.001 -15.442  1.00  0.00    -0.343 N 
ATOM     11  H5  UNL     1     -30.430 -22.060 -14.550  1.00  0.00     0.164 HD
ENDROOT
BRANCH   9  12
HETATM   12  N2  UNL     1     -31.963 -23.934 -14.622  1.00  0.00    -0.263 N 
ATOM     13  H2  UNL     1     -31.227 -23.926 -13.916  1.00  0.00     0.177 HD
BRANCH  12  14
HETATM   14  S2  UNL     1     -33.145 -25.118 -14.583  1.00  0.00     0.257 S 
HETATM   15  O3  UNL     1     -34.289 -24.861 -15.532  1.00  0.00    -0.201 OA
HETATM   16  O4  UNL     1     -32.528 -26.445 -15.023  1.00  0.00    -0.201 OA
BRANCH  14  17
HETATM   17  C5  UNL     1     -33.718 -25.360 -12.953  1.00  0.00     0.044 C 
HETATM   18  C6  UNL     1     -34.542 -26.392 -12.704  1.00  0.00     0.033 C 
HETATM   19  C7  UNL     1     -33.363 -24.502 -11.799  1.00  0.00     0.062 C 
ENDBRANCH  14  17
ENDBRANCH  12  14
ENDBRANCH   9  12
BRANCH   9  20
HETATM   20  C8  UNL     1     -33.254 -22.160 -15.333  1.00  0.00     0.159 C 
HETATM   21  N3  UNL     1     -34.189 -22.018 -16.184  1.00  0.00    -0.386 N 
ATOM     22  H32 UNL     1     -34.168 -22.399 -17.130  1.00  0.00     0.157 HD
ATOM     23  H31 UNL     1     -35.042 -21.497 -15.981  1.00  0.00     0.157 HD
HETATM   24  N4  UNL     1     -33.285 -21.631 -14.020  1.00  0.00    -0.081 NA
ENDBRANCH   9  20
TORSDOF 4
ENDMDL
MODEL 3
REMARK VINA RESULT: -4.723016386     10.225     12.120
REMARK  4 active torsions:
REMARK  status: ('A' for Active; 'I' for Inactive)
REMARK    1  A    between atoms: C4_9  and  N2_10 
REMARK    2  A    between atoms: C4_9  and  C8_18 
REMARK    3  A    between atoms: N2_10  and  S2_12 
REMARK    4  A    between atoms: S2_12  and  C5_15 
ROOT
HETATM    1  C1  UNL     1     -20.592 -17.500 -20.448  1.00  0.00     0.039 C 
HETATM    2  C2  UNL     1     -21.866 -17.177 -20.275  1.00  0.00     0.015 C 
HETATM    3  C3  UNL     1     -22.163 -15.855 -19.618  1.00  0.00     0.219 C 
HETATM    4  S1  UNL     1     -23.558 -16.106 -18.587  1.00  0.00     0.235 S 
HETATM    5  O1  UNL     1     -23.083 -16.480 -17.214  1.00  0.00    -0.205 OA
HETATM    6  O2  UNL     1     -24.252 -14.759 -18.430  1.00  0.00    -0.205 OA
HETATM    7  N1  UNL     1     -24.675 -17.223 -19.214  1.00  0.00    -0.267 N 
ATOM      8  H1  UNL     1     -25.678 -17.126 -19.060  1.00  0.00     0.177 HD
HETATM    9  C4  UNL     1     -24.132 -18.301 -19.964  1.00  0.00     0.260 C 
HETATM   10  N5  UNL     1     -22.932 -18.009 -20.678  1.00  0.00    -0.343 N 
ATOM     11  H5  UNL     1     -22.832 -18.455 -21.590  1.00  0.00     0.164 HD
ENDROOT
BRANCH   9  12
HETATM   12  N2  UNL     1     -25.062 -18.977 -20.798  1.00  0.00    -0.263 N 
ATOM     13  H2  UNL     1     -25.449 -19.874 -20.505  1.00  0.00     0.177 HD
BRANCH  12  14
HETATM   14  S2  UNL     1     -25.524 -18.307 -22.260  1.00  0.00     0.257 S 
HETATM   15  O3  UNL     1     -25.664 -16.806 -22.220  1.00  0.00    -0.201 OA
HETATM   16  O4  UNL     1     -24.441 -18.596 -23.299  1.00  0.00    -0.201 OA
BRANCH  14  17
HETATM   17  C5  UNL     1     -26.982 -19.063 -22.849  1.00  0.00     0.044 C 
HETATM   18  C6  UNL     1     -27.740 -19.764 -21.989  1.00  0.00     0.033 C 
HETATM   19  C7  UNL     1     -27.461 -18.992 -24.250  1.00  0.00     0.062 C 
ENDBRANCH  14  17
ENDBRANCH  12  14
ENDBRANCH   9  12
BRANCH   9  20
HETATM   20  C8  UNL     1     -23.734 -19.371 -18.954  1.00  0.00     0.159 C 
HETATM   21  N3  UNL     1     -22.679 -19.289 -18.249  1.00  0.00    -0.386 N 
ATOM     22  H32 UNL     1     -22.012 -18.519 -18.300  1.00  0.00     0.157 HD
ATOM     23  H31 UNL     1     -22.413 -20.005 -17.573  1.00  0.00     0.157 HD
HETATM   24  N4  UNL     1     -24.659 -20.441 -18.882  1.00  0.00    -0.081 NA
ENDBRANCH   9  20
TORSDOF 4
ENDMDL
MODEL 4
REMARK VINA RESULT: -4.354662945     10.059     11.837
REMARK  4 active torsions:
REMARK  status: ('A' for Active; 'I' for Inactive)
REMARK    1  A    between atoms: C4_9  and  N2_10 
REMARK    2  A    between atoms: C4_9  and  C8_18 
REMARK    3  A    between atoms: N2_10  and  S2_12 
REMARK    4  A    between atoms: S2_12  and  C5_15 
ROOT
HETATM    1  C1  UNL     1     -22.928 -15.444 -19.717  1.00  0.00     0.039 C 
HETATM    2  C2  UNL     1     -23.831 -16.339 -19.341  1.00  0.00     0.015 C 
HETATM    3  C3  UNL     1     -24.018 -16.555 -17.863  1.00  0.00     0.219 C 
HETATM    4  S1  UNL     1     -24.300 -18.270 -17.636  1.00  0.00     0.235 S 
HETATM    5  O1  UNL     1     -22.985 -18.947 -17.388  1.00  0.00    -0.205 OA
HETATM    6  O2  UNL     1     -25.095 -18.431 -16.346  1.00  0.00    -0.205 OA
HETATM    7  N1  UNL     1     -25.172 -18.990 -18.905  1.00  0.00    -0.267 N 
ATOM      8  H1  UNL     1     -25.826 -19.755 -18.743  1.00  0.00     0.177 HD
HETATM    9  C4  UNL     1     -24.938 -18.465 -20.204  1.00  0.00     0.260 C 
HETATM   10  N5  UNL     1     -24.608 -17.078 -20.257  1.00  0.00    -0.343 N 
ATOM     11  H5  UNL     1     -24.980 -16.559 -21.052  1.00  0.00     0.164 HD
ENDROOT
BRANCH   9  12
HETATM   12  N2  UNL     1     -25.934 -18.782 -21.166  1.00  0.00    -0.263 N 
ATOM     13  H2  UNL     1     -26.689 -19.424 -20.922  1.00  0.00     0.177 HD
BRANCH  12  14
HETATM   14  S2  UNL     1     -25.874 -18.108 -22.695  1.00  0.00     0.257 S 
HETATM   15  O3  UNL     1     -26.018 -16.606 -22.700  1.00  0.00    -0.201 OA
HETATM   16  O4  UNL     1     -24.505 -18.396 -23.308  1.00  0.00    -0.201 OA
BRANCH  14  17
HETATM   17  C5  UNL     1     -27.049 -18.858 -23.745  1.00  0.00     0.044 C 
HETATM   18  C6  UNL     1     -27.893 -19.766 -23.226  1.00  0.00     0.033 C 
HETATM   19  C7  UNL     1     -27.193 -18.568 -25.191  1.00  0.00     0.062 C 
ENDBRANCH  14  17
ENDBRANCH  12  14
ENDBRANCH   9  12
BRANCH   9  20
HETATM   20  C8  UNL     1     -23.703 -19.180 -20.741  1.00  0.00     0.159 C 
HETATM   21  N3  UNL     1     -22.586 -18.592 -20.899  1.00  0.00    -0.386 N 
ATOM     22  H32 UNL     1     -22.421 -17.607 -20.692  1.00  0.00     0.157 HD
ATOM     23  H31 UNL     1     -21.760 -19.070 -21.258  1.00  0.00     0.157 HD
HETATM   24  N4  UNL     1     -23.931 -20.548 -21.029  1.00  0.00    -0.081 NA
ENDBRANCH   9  20
TORSDOF 4
ENDMDL
MODEL 5
REMARK VINA RESULT: -4.309464271      1.807      5.221
REMARK  4 active torsions:
REMARK  status: ('A' for Active; 'I' for Inactive)
REMARK    1  A    between atoms: C4_9  and  N2_10 
REMARK    2  A    between atoms: C4_9  and  C8_18 
REMARK    3  A    between atoms: N2_10  and  S2_12 
REMARK    4  A    between atoms: S2_12  and  C5_15 
ROOT
HETATM    1  C1  UNL     1     -34.522 -21.200 -13.543  1.00  0.00     0.039 C 
HETATM    2  C2  UNL     1     -34.122 -22.198 -14.319  1.00  0.00     0.015 C 
HETATM    3  C3  UNL     1     -34.316 -23.598 -13.800  1.00  0.00     0.219 C 
HETATM    4  S1  UNL     1     -32.915 -24.522 -14.306  1.00  0.00     0.235 S 
HETATM    5  O1  UNL     1     -31.878 -24.456 -13.225  1.00  0.00    -0.205 OA
HETATM    6  O2  UNL     1     -33.340 -25.983 -14.380  1.00  0.00    -0.205 OA
HETATM    7  N1  UNL     1     -32.304 -24.057 -15.822  1.00  0.00    -0.267 N 
ATOM      8  H1  UNL     1     -31.884 -24.729 -16.463  1.00  0.00     0.177 HD
HETATM    9  C4  UNL     1     -32.410 -22.677 -16.145  1.00  0.00     0.260 C 
HETATM   10  N5  UNL     1     -33.535 -22.000 -15.586  1.00  0.00    -0.343 N 
ATOM     11  H5  UNL     1     -33.968 -21.288 -16.174  1.00  0.00     0.164 HD
ENDROOT
BRANCH   9  12
HETATM   12  N2  UNL     1     -32.277 -22.375 -17.526  1.00  0.00    -0.263 N 
ATOM     13  H2  UNL     1     -31.546 -21.735 -17.837  1.00  0.00     0.177 HD
BRANCH  12  14
HETATM   14  S2  UNL     1     -33.314 -23.063 -18.644  1.00  0.00     0.257 S 
HETATM   15  O3  UNL     1     -32.698 -24.203 -19.418  1.00  0.00    -0.201 OA
HETATM   16  O4  UNL     1     -34.510 -23.661 -17.904  1.00  0.00    -0.201 OA
BRANCH  14  17
HETATM   17  C5  UNL     1     -33.958 -21.846 -19.716  1.00  0.00     0.044 C 
HETATM   18  C6  UNL     1     -34.016 -22.110 -21.032  1.00  0.00     0.033 C 
HETATM   19  C7  UNL     1     -34.455 -20.520 -19.282  1.00  0.00     0.062 C 
ENDBRANCH  14  17
ENDBRANCH  12  14
ENDBRANCH   9  12
BRANCH   9  20
HETATM   20  C8  UNL     1     -31.197 -21.994 -15.524  1.00  0.00     0.159 C 
HETATM   21  N3  UNL     1     -31.067 -21.838 -14.268  1.00  0.00    -0.386 N 
ATOM     22  H32 UNL     1     -31.753 -22.143 -13.577  1.00  0.00     0.157 HD
ATOM     23  H31 UNL     1     -30.255 -21.382 -13.853  1.00  0.00     0.157 HD
HETATM   24  N4  UNL     1     -30.244 -21.571 -16.483  1.00  0.00    -0.081 NA
ENDBRANCH   9  20
TORSDOF 4
ENDMDL
