MODEL 1
REMARK VINA RESULT: -8.832400260      0.000      0.000
REMARK  6 active torsions:
REMARK  status: ('A' for Active; 'I' for Inactive)
REMARK    1  A    between atoms: C4_5  and  N1_6 
REMARK    2  A    between atoms: N1_6  and  C5_8 
REMARK    3  A    between atoms: C5_8  and  N2_10 
REMARK    4  A    between atoms: N2_10  and  C6_12 
REMARK    5  A    between atoms: C6_12  and  C7_13 
REMARK    6  A    between atoms: N3_15  and  N4_17 
REMARK       I    between atoms: N4_17  and  C8_19 
ROOT
HETATM    1  N2  UNL     1     -25.976 -17.972 -21.994  1.00  0.00    -0.316 N 
ATOM      2  H2  UNL     1     -26.180 -17.039 -21.634  1.00  0.00     0.170 HD
ENDROOT
BRANCH   1   3
HETATM    3  C5  UNL     1     -25.263 -18.890 -21.216  1.00  0.00     0.174 C 
HETATM    4  S1  UNL     1     -26.058 -20.116 -20.510  1.00  0.00    -0.041 SA
BRANCH   3   5
HETATM    5  N1  UNL     1     -23.882 -18.766 -21.038  1.00  0.00    -0.351 N 
ATOM      6  H1  UNL     1     -23.280 -19.222 -21.725  1.00  0.00     0.163 HD
BRANCH   5   7
HETATM    7  C4  UNL     1     -23.239 -18.052 -19.972  1.00  0.00     0.103 A 
HETATM    8  C3  UNL     1     -21.986 -17.316 -20.297  1.00  0.00     0.204 C 
HETATM    9  O1  UNL     1     -22.239 -15.949 -20.098  1.00  0.00    -0.381 OA
HETATM   10  C2  UNL     1     -23.138 -15.878 -19.043  1.00  0.00     0.149 C 
HETATM   11  C1  UNL     1     -22.381 -15.970 -17.741  1.00  0.00     0.042 C 
HETATM   12  C10 UNL     1     -24.075 -17.049 -19.236  1.00  0.00     0.182 A 
HETATM   13  O3  UNL     1     -24.052 -17.870 -18.126  1.00  0.00    -0.378 OA
HETATM   14  C9  UNL     1     -23.265 -18.844 -18.689  1.00  0.00     0.204 A 
ENDBRANCH   5   7
ENDBRANCH   3   5
ENDBRANCH   1   3
BRANCH   1  15
HETATM   15  C6  UNL     1     -26.414 -18.353 -23.287  1.00  0.00     0.160 C 
HETATM   16  N3  UNL     1     -25.916 -17.754 -24.306  1.00  0.00    -0.281 N 
ATOM     17  H3  UNL     1     -25.224 -17.027 -24.124  1.00  0.00     0.188 HD
BRANCH  15  18
HETATM   18  C7  UNL     1     -27.398 -19.395 -23.476  1.00  0.00     0.308 C 
HETATM   19  O2  UNL     1     -28.264 -19.263 -24.366  1.00  0.00    -0.298 OA
ENDBRANCH  15  18
BRANCH  16  20
HETATM   20  N4  UNL     1     -26.234 -18.005 -25.626  1.00  0.00    -0.272 N 
HETATM   21  C8  UNL     1     -25.810 -17.055 -26.607  1.00  0.00     0.200 C 
HETATM   22  N5  UNL     1     -24.662 -16.510 -26.600  1.00  0.00    -0.372 N 
HETATM   23  N6  UNL     1     -26.721 -16.694 -27.654  1.00  0.00    -0.062 NA
ATOM     24  H52 UNL     1     -24.014 -16.768 -25.855  1.00  0.00     0.158 HD
ATOM     25  H51 UNL     1     -24.359 -15.833 -27.300  1.00  0.00     0.158 HD
ATOM     26  H4  UNL     1     -26.754 -18.841 -25.892  1.00  0.00     0.189 HD
ENDBRANCH  16  20
ENDBRANCH   1  15
TORSDOF 6
ENDMDL
MODEL 2
REMARK VINA RESULT: -7.788378606      0.879      1.661
REMARK  6 active torsions:
REMARK  status: ('A' for Active; 'I' for Inactive)
REMARK    1  A    between atoms: C4_5  and  N1_6 
REMARK    2  A    between atoms: N1_6  and  C5_8 
REMARK    3  A    between atoms: C5_8  and  N2_10 
REMARK    4  A    between atoms: N2_10  and  C6_12 
REMARK    5  A    between atoms: C6_12  and  C7_13 
REMARK    6  A    between atoms: N3_15  and  N4_17 
REMARK       I    between atoms: N4_17  and  C8_19 
ROOT
HETATM    1  N2  UNL     1     -26.752 -18.459 -21.799  1.00  0.00    -0.316 N 
ATOM      2  H2  UNL     1     -27.284 -17.718 -21.341  1.00  0.00     0.170 HD
ENDROOT
BRANCH   1   3
HETATM    3  C5  UNL     1     -25.907 -19.287 -21.053  1.00  0.00     0.174 C 
HETATM    4  S1  UNL     1     -26.476 -20.698 -20.489  1.00  0.00    -0.041 SA
BRANCH   3   5
HETATM    5  N1  UNL     1     -24.585 -18.917 -20.787  1.00  0.00    -0.351 N 
ATOM      6  H1  UNL     1     -23.849 -19.441 -21.262  1.00  0.00     0.163 HD
BRANCH   5   7
HETATM    7  C4  UNL     1     -24.175 -17.865 -19.901  1.00  0.00     0.103 A 
HETATM    8  C3  UNL     1     -24.679 -17.912 -18.501  1.00  0.00     0.204 C 
HETATM    9  O1  UNL     1     -23.567 -18.079 -17.660  1.00  0.00    -0.381 OA
HETATM   10  C2  UNL     1     -22.522 -17.402 -18.272  1.00  0.00     0.149 C 
HETATM   11  C1  UNL     1     -22.614 -15.936 -17.929  1.00  0.00     0.042 C 
HETATM   12  C10 UNL     1     -22.699 -17.648 -19.754  1.00  0.00     0.182 A 
HETATM   13  O3  UNL     1     -22.826 -16.450 -20.427  1.00  0.00    -0.378 OA
HETATM   14  C9  UNL     1     -24.186 -16.528 -20.597  1.00  0.00     0.204 A 
ENDBRANCH   5   7
ENDBRANCH   3   5
ENDBRANCH   1   3
BRANCH   1  15
HETATM   15  C6  UNL     1     -26.862 -18.663 -23.198  1.00  0.00     0.160 C 
HETATM   16  N3  UNL     1     -26.147 -17.942 -23.981  1.00  0.00    -0.281 N 
ATOM     17  H3  UNL     1     -25.531 -17.255 -23.546  1.00  0.00     0.188 HD
BRANCH  15  18
HETATM   18  C7  UNL     1     -27.754 -19.657 -23.749  1.00  0.00     0.308 C 
HETATM   19  O2  UNL     1     -28.453 -19.366 -24.743  1.00  0.00    -0.298 OA
ENDBRANCH  15  18
BRANCH  16  20
HETATM   20  N4  UNL     1     -26.136 -18.014 -25.360  1.00  0.00    -0.272 N 
HETATM   21  C8  UNL     1     -25.271 -17.123 -26.069  1.00  0.00     0.200 C 
HETATM   22  N5  UNL     1     -24.081 -16.869 -25.702  1.00  0.00    -0.372 N 
HETATM   23  N6  UNL     1     -25.765 -16.482 -27.252  1.00  0.00    -0.062 NA
ATOM     24  H52 UNL     1     -23.730 -17.326 -24.860  1.00  0.00     0.158 HD
ATOM     25  H51 UNL     1     -23.464 -16.234 -26.208  1.00  0.00     0.158 HD
ATOM     26  H4  UNL     1     -26.727 -18.682 -25.856  1.00  0.00     0.189 HD
ENDBRANCH  16  20
ENDBRANCH   1  15
TORSDOF 6
ENDMDL
MODEL 3
REMARK VINA RESULT: -6.840628119      1.216      1.442
REMARK  6 active torsions:
REMARK  status: ('A' for Active; 'I' for Inactive)
REMARK    1  A    between atoms: C4_5  and  N1_6 
REMARK    2  A    between atoms: N1_6  and  C5_8 
REMARK    3  A    between atoms: C5_8  and  N2_10 
REMARK    4  A    between atoms: N2_10  and  C6_12 
REMARK    5  A    between atoms: C6_12  and  C7_13 
REMARK    6  A    between atoms: N3_15  and  N4_17 
REMARK       I    between atoms: N4_17  and  C8_19 
ROOT
HETATM    1  N2  UNL     1     -25.250 -19.413 -21.989  1.00  0.00    -0.316 N 
ATOM      2  H2  UNL     1     -24.414 -19.922 -22.276  1.00  0.00     0.170 HD
ENDROOT
BRANCH   1   3
HETATM    3  C5  UNL     1     -25.784 -19.593 -20.709  1.00  0.00     0.174 C 
HETATM    4  S1  UNL     1     -26.698 -20.900 -20.409  1.00  0.00    -0.041 SA
BRANCH   3   5
HETATM    5  N1  UNL     1     -25.544 -18.667 -19.689  1.00  0.00    -0.351 N 
ATOM      6  H1  UNL     1     -26.295 -18.507 -19.018  1.00  0.00     0.163 HD
BRANCH   5   7
HETATM    7  C4  UNL     1     -24.330 -17.923 -19.508  1.00  0.00     0.103 A 
HETATM    8  C3  UNL     1     -24.132 -16.717 -20.358  1.00  0.00     0.204 C 
HETATM    9  O1  UNL     1     -24.099 -15.603 -19.503  1.00  0.00    -0.381 OA
HETATM   10  C2  UNL     1     -23.513 -16.043 -18.326  1.00  0.00     0.149 C 
HETATM   11  C1  UNL     1     -22.012 -16.020 -18.481  1.00  0.00     0.042 C 
HETATM   12  C10 UNL     1     -24.038 -17.445 -18.117  1.00  0.00     0.182 A 
HETATM   13  O3  UNL     1     -22.992 -18.344 -18.047  1.00  0.00    -0.378 OA
HETATM   14  C9  UNL     1     -23.149 -18.839 -19.317  1.00  0.00     0.204 A 
ENDBRANCH   5   7
ENDBRANCH   3   5
ENDBRANCH   1   3
BRANCH   1  15
HETATM   15  C6  UNL     1     -25.884 -18.514 -22.883  1.00  0.00     0.160 C 
HETATM   16  N3  UNL     1     -25.160 -17.869 -23.722  1.00  0.00    -0.281 N 
ATOM     17  H3  UNL     1     -24.155 -18.043 -23.698  1.00  0.00     0.188 HD
BRANCH  15  18
HETATM   18  C7  UNL     1     -27.316 -18.315 -22.867  1.00  0.00     0.308 C 
HETATM   19  O2  UNL     1     -28.052 -19.129 -23.463  1.00  0.00    -0.298 OA
ENDBRANCH  15  18
BRANCH  16  20
HETATM   20  N4  UNL     1     -25.620 -16.961 -24.656  1.00  0.00    -0.272 N 
HETATM   21  C8  UNL     1     -26.125 -17.472 -25.892  1.00  0.00     0.200 C 
HETATM   22  N5  UNL     1     -26.876 -18.495 -25.969  1.00  0.00    -0.372 N 
HETATM   23  N6  UNL     1     -25.770 -16.802 -27.109  1.00  0.00    -0.062 NA
ATOM     24  H52 UNL     1     -27.128 -18.971 -25.103  1.00  0.00     0.158 HD
ATOM     25  H51 UNL     1     -27.236 -18.859 -26.851  1.00  0.00     0.158 HD
ATOM     26  H4  UNL     1     -25.601 -15.958 -24.468  1.00  0.00     0.189 HD
ENDBRANCH  16  20
ENDBRANCH   1  15
TORSDOF 6
ENDMDL
MODEL 4
REMARK VINA RESULT: -6.677717333      1.589      1.731
REMARK  6 active torsions:
REMARK  status: ('A' for Active; 'I' for Inactive)
REMARK    1  A    between atoms: C4_5  and  N1_6 
REMARK    2  A    between atoms: N1_6  and  C5_8 
REMARK    3  A    between atoms: C5_8  and  N2_10 
REMARK    4  A    between atoms: N2_10  and  C6_12 
REMARK    5  A    between atoms: C6_12  and  C7_13 
REMARK    6  A    between atoms: N3_15  and  N4_17 
REMARK       I    between atoms: N4_17  and  C8_19 
ROOT
HETATM    1  N2  UNL     1     -24.385 -19.066 -22.557  1.00  0.00    -0.316 N 
ATOM      2  H2  UNL     1     -23.528 -19.484 -22.922  1.00  0.00     0.170 HD
ENDROOT
BRANCH   1   3
HETATM    3  C5  UNL     1     -24.928 -19.509 -21.347  1.00  0.00     0.174 C 
HETATM    4  S1  UNL     1     -26.522 -19.805 -21.256  1.00  0.00    -0.041 SA
BRANCH   3   5
HETATM    5  N1  UNL     1     -24.123 -19.697 -20.220  1.00  0.00    -0.351 N 
ATOM      6  H1  UNL     1     -23.879 -20.657 -19.976  1.00  0.00     0.163 HD
BRANCH   5   7
HETATM    7  C4  UNL     1     -23.612 -18.654 -19.376  1.00  0.00     0.103 A 
HETATM    8  C3  UNL     1     -22.377 -17.954 -19.824  1.00  0.00     0.204 C 
HETATM    9  O1  UNL     1     -22.718 -16.612 -20.061  1.00  0.00    -0.381 OA
HETATM   10  C2  UNL     1     -23.705 -16.302 -19.137  1.00  0.00     0.149 C 
HETATM   11  C1  UNL     1     -23.059 -15.948 -17.821  1.00  0.00     0.042 C 
HETATM   12  C10 UNL     1     -24.560 -17.545 -19.032  1.00  0.00     0.182 A 
HETATM   13  O3  UNL     1     -24.588 -17.998 -17.728  1.00  0.00    -0.378 OA
HETATM   14  C9  UNL     1     -23.706 -19.032 -17.920  1.00  0.00     0.204 A 
ENDBRANCH   5   7
ENDBRANCH   3   5
ENDBRANCH   1   3
BRANCH   1  15
HETATM   15  C6  UNL     1     -25.038 -18.030 -23.272  1.00  0.00     0.160 C 
HETATM   16  N3  UNL     1     -24.836 -17.934 -24.534  1.00  0.00    -0.281 N 
ATOM     17  H3  UNL     1     -24.209 -18.618 -24.958  1.00  0.00     0.188 HD
BRANCH  15  18
HETATM   18  C7  UNL     1     -25.917 -17.094 -22.610  1.00  0.00     0.308 C 
HETATM   19  O2  UNL     1     -25.425 -16.200 -21.889  1.00  0.00    -0.298 OA
ENDBRANCH  15  18
BRANCH  16  20
HETATM   20  N4  UNL     1     -25.393 -16.986 -25.371  1.00  0.00    -0.272 N 
HETATM   21  C8  UNL     1     -26.358 -17.426 -26.330  1.00  0.00     0.200 C 
HETATM   22  N5  UNL     1     -27.272 -18.268 -26.063  1.00  0.00    -0.372 N 
HETATM   23  N6  UNL     1     -26.296 -16.896 -27.661  1.00  0.00    -0.062 NA
ATOM     24  H52 UNL     1     -27.316 -18.645 -25.117  1.00  0.00     0.158 HD
ATOM     25  H51 UNL     1     -27.961 -18.582 -26.747  1.00  0.00     0.158 HD
ATOM     26  H4  UNL     1     -25.125 -16.004 -25.306  1.00  0.00     0.189 HD
ENDBRANCH  16  20
ENDBRANCH   1  15
TORSDOF 6
ENDMDL
MODEL 5
REMARK VINA RESULT: -6.631464693      2.814      4.434
REMARK  6 active torsions:
REMARK  status: ('A' for Active; 'I' for Inactive)
REMARK    1  A    between atoms: C4_5  and  N1_6 
REMARK    2  A    between atoms: N1_6  and  C5_8 
REMARK    3  A    between atoms: C5_8  and  N2_10 
REMARK    4  A    between atoms: N2_10  and  C6_12 
REMARK    5  A    between atoms: C6_12  and  C7_13 
REMARK    6  A    between atoms: N3_15  and  N4_17 
REMARK       I    between atoms: N4_17  and  C8_19 
ROOT
HETATM    1  N2  UNL     1     -26.560 -18.275 -22.096  1.00  0.00    -0.316 N 
ATOM      2  H2  UNL     1     -26.892 -17.453 -21.591  1.00  0.00     0.170 HD
ENDROOT
BRANCH   1   3
HETATM    3  C5  UNL     1     -25.292 -18.279 -22.685  1.00  0.00     0.174 C 
HETATM    4  S1  UNL     1     -25.121 -17.718 -24.199  1.00  0.00    -0.041 SA
BRANCH   3   5
HETATM    5  N1  UNL     1     -24.176 -18.757 -21.993  1.00  0.00    -0.351 N 
ATOM      6  H1  UNL     1     -23.434 -19.188 -22.545  1.00  0.00     0.163 HD
BRANCH   5   7
HETATM    7  C4  UNL     1     -23.985 -18.693 -20.572  1.00  0.00     0.103 A 
HETATM    8  C3  UNL     1     -22.685 -18.163 -20.078  1.00  0.00     0.204 C 
HETATM    9  O1  UNL     1     -22.957 -16.978 -19.373  1.00  0.00    -0.381 OA
HETATM   10  C2  UNL     1     -24.196 -17.165 -18.778  1.00  0.00     0.149 C 
HETATM   11  C1  UNL     1     -24.017 -17.937 -17.494  1.00  0.00     0.042 C 
HETATM   12  C10 UNL     1     -25.015 -17.934 -19.790  1.00  0.00     0.182 A 
HETATM   13  O3  UNL     1     -25.455 -19.124 -19.247  1.00  0.00    -0.378 OA
HETATM   14  C9  UNL     1     -24.539 -19.918 -19.890  1.00  0.00     0.204 A 
ENDBRANCH   5   7
ENDBRANCH   3   5
ENDBRANCH   1   3
BRANCH   1  15
HETATM   15  C6  UNL     1     -27.380 -19.427 -22.210  1.00  0.00     0.160 C 
HETATM   16  N3  UNL     1     -27.745 -20.028 -21.138  1.00  0.00    -0.281 N 
ATOM     17  H3  UNL     1     -27.421 -19.638 -20.253  1.00  0.00     0.188 HD
BRANCH  15  18
HETATM   18  C7  UNL     1     -27.807 -19.927 -23.497  1.00  0.00     0.308 C 
HETATM   19  O2  UNL     1     -28.330 -19.141 -24.314  1.00  0.00    -0.298 OA
ENDBRANCH  15  18
BRANCH  16  20
HETATM   20  N4  UNL     1     -28.538 -21.157 -21.076  1.00  0.00    -0.272 N 
HETATM   21  C8  UNL     1     -29.261 -21.400 -19.866  1.00  0.00     0.200 C 
HETATM   22  N5  UNL     1     -29.865 -20.487 -19.220  1.00  0.00    -0.372 N 
HETATM   23  N6  UNL     1     -29.311 -22.737 -19.351  1.00  0.00    -0.062 NA
ATOM     24  H52 UNL     1     -29.830 -19.536 -19.587  1.00  0.00     0.158 HD
ATOM     25  H51 UNL     1     -30.381 -20.659 -18.357  1.00  0.00     0.158 HD
ATOM     26  H4  UNL     1     -28.606 -21.797 -21.868  1.00  0.00     0.189 HD
ENDBRANCH  16  20
ENDBRANCH   1  15
TORSDOF 6
ENDMDL
