MODEL 1
REMARK VINA RESULT: -7.874194579      0.000      0.000
REMARK  5 active torsions:
REMARK  status: ('A' for Active; 'I' for Inactive)
REMARK    1  A    between atoms: C2_2  and  N1_3 
REMARK    2  A    between atoms: C2_2  and  C10_20 
REMARK    3  A    between atoms: C2_2  and  C11_23 
REMARK       I    between atoms: N1_3  and  C3_5 
REMARK       I    between atoms: C3_5  and  N2_7 
REMARK    4  A    between atoms: N2_7  and  N3_9 
REMARK       I    between atoms: N3_9  and  C4_11 
REMARK    5  A    between atoms: C4_11  and  C5_13 
ROOT
HETATM    1  N1  UNL     1     -31.364 -22.655 -18.308  1.00  0.00    -0.317 N 
ATOM      2  H1  UNL     1     -31.246 -23.553 -18.777  1.00  0.00     0.166 HD
HETATM    3  C3  UNL     1     -30.538 -21.598 -18.709  1.00  0.00     0.336 C 
HETATM    4  O1  UNL     1     -30.658 -20.483 -18.147  1.00  0.00    -0.246 OA
HETATM    5  N2  UNL     1     -29.566 -21.740 -19.729  1.00  0.00    -0.249 N 
ATOM      6  H2  UNL     1     -29.450 -22.643 -20.190  1.00  0.00     0.192 HD
ENDROOT
BRANCH   5   7
HETATM    7  N3  UNL     1     -28.758 -20.659 -20.116  1.00  0.00    -0.262 N 
HETATM    8  C4  UNL     1     -27.412 -20.830 -20.492  1.00  0.00     0.270 C 
HETATM    9  O2  UNL     1     -26.950 -22.013 -20.466  1.00  0.00    -0.266 OA
ATOM     10  H3  UNL     1     -29.158 -19.721 -20.126  1.00  0.00     0.190 HD
BRANCH   8  11
HETATM   11  C5  UNL     1     -26.532 -19.752 -20.902  1.00  0.00     0.036 A 
HETATM   12  C6  UNL     1     -26.688 -19.146 -22.147  1.00  0.00     0.034 A 
HETATM   13  C7  UNL     1     -25.857 -18.135 -22.513  1.00  0.00     0.088 A 
HETATM   14  N4  UNL     1     -24.887 -17.714 -21.690  1.00  0.00    -0.375 N 
HETATM   15  C8  UNL     1     -24.716 -18.280 -20.490  1.00  0.00     0.088 A 
ATOM     16  H4  UNL     1     -24.272 -16.955 -21.982  1.00  0.00     0.164 HD
HETATM   17  C9  UNL     1     -25.541 -19.319 -20.064  1.00  0.00     0.034 A 
ENDBRANCH   8  11
ENDBRANCH   5   7
BRANCH   1  18
HETATM   18  C2  UNL     1     -32.369 -22.566 -17.280  1.00  0.00     0.188 C 
HETATM   19  C1  UNL     1     -31.829 -21.822 -16.094  1.00  0.00     0.059 C 
BRANCH  18  20
HETATM   20  C10 UNL     1     -32.773 -23.940 -16.836  1.00  0.00     0.268 C 
HETATM   21  N5  UNL     1     -33.632 -24.700 -17.674  1.00  0.00    -0.059 NA
HETATM   22  O3  UNL     1     -32.343 -24.380 -15.741  1.00  0.00    -0.274 OA
ENDBRANCH  18  20
BRANCH  18  23
HETATM   23  C11 UNL     1     -33.607 -21.886 -17.775  1.00  0.00     0.268 C 
HETATM   24  N6  UNL     1     -33.755 -21.614 -19.149  1.00  0.00    -0.059 NA
HETATM   25  O4  UNL     1     -34.540 -21.539 -17.006  1.00  0.00    -0.274 OA
ENDBRANCH  18  23
ENDBRANCH   1  18
TORSDOF 5
ENDMDL
MODEL 2
REMARK VINA RESULT: -7.866643254      0.042      1.029
REMARK  5 active torsions:
REMARK  status: ('A' for Active; 'I' for Inactive)
REMARK    1  A    between atoms: C2_2  and  N1_3 
REMARK    2  A    between atoms: C2_2  and  C10_20 
REMARK    3  A    between atoms: C2_2  and  C11_23 
REMARK       I    between atoms: N1_3  and  C3_5 
REMARK       I    between atoms: C3_5  and  N2_7 
REMARK    4  A    between atoms: N2_7  and  N3_9 
REMARK       I    between atoms: N3_9  and  C4_11 
REMARK    5  A    between atoms: C4_11  and  C5_13 
ROOT
HETATM    1  N1  UNL     1     -31.377 -22.653 -18.301  1.00  0.00    -0.317 N 
ATOM      2  H1  UNL     1     -31.273 -23.546 -18.782  1.00  0.00     0.166 HD
HETATM    3  C3  UNL     1     -30.542 -21.599 -18.697  1.00  0.00     0.336 C 
HETATM    4  O1  UNL     1     -30.645 -20.490 -18.120  1.00  0.00    -0.246 OA
HETATM    5  N2  UNL     1     -29.580 -21.740 -19.726  1.00  0.00    -0.249 N 
ATOM      6  H2  UNL     1     -29.479 -22.639 -20.199  1.00  0.00     0.192 HD
ENDROOT
BRANCH   5   7
HETATM    7  N3  UNL     1     -28.764 -20.664 -20.108  1.00  0.00    -0.262 N 
HETATM    8  C4  UNL     1     -27.417 -20.844 -20.477  1.00  0.00     0.270 C 
HETATM    9  O2  UNL     1     -26.963 -22.030 -20.451  1.00  0.00    -0.266 OA
ATOM     10  H3  UNL     1     -29.158 -19.723 -20.118  1.00  0.00     0.190 HD
BRANCH   8  11
HETATM   11  C5  UNL     1     -26.528 -19.771 -20.881  1.00  0.00     0.036 A 
HETATM   12  C6  UNL     1     -25.506 -19.343 -20.035  1.00  0.00     0.034 A 
HETATM   13  C7  UNL     1     -24.681 -18.338 -20.431  1.00  0.00     0.088 A 
HETATM   14  N4  UNL     1     -24.839 -17.753 -21.626  1.00  0.00    -0.375 N 
HETATM   15  C8  UNL     1     -25.812 -18.145 -22.456  1.00  0.00     0.088 A 
ATOM     16  H4  UNL     1     -24.210 -17.001 -21.906  1.00  0.00     0.164 HD
HETATM   17  C9  UNL     1     -26.686 -19.171 -22.100  1.00  0.00     0.034 A 
ENDBRANCH   8  11
ENDBRANCH   5   7
BRANCH   1  18
HETATM   18  C2  UNL     1     -32.371 -22.564 -17.263  1.00  0.00     0.188 C 
HETATM   19  C1  UNL     1     -31.818 -21.826 -16.080  1.00  0.00     0.059 C 
BRANCH  18  20
HETATM   20  C10 UNL     1     -32.775 -23.938 -16.821  1.00  0.00     0.268 C 
HETATM   21  N5  UNL     1     -33.637 -24.697 -17.657  1.00  0.00    -0.059 NA
HETATM   22  O3  UNL     1     -32.343 -24.381 -15.727  1.00  0.00    -0.274 OA
ENDBRANCH  18  20
BRANCH  18  23
HETATM   23  C11 UNL     1     -33.613 -21.879 -17.744  1.00  0.00     0.268 C 
HETATM   24  N6  UNL     1     -33.767 -21.590 -19.114  1.00  0.00    -0.059 NA
HETATM   25  O4  UNL     1     -34.542 -21.543 -16.967  1.00  0.00    -0.274 OA
ENDBRANCH  18  23
ENDBRANCH   1  18
TORSDOF 5
ENDMDL
MODEL 3
REMARK VINA RESULT: -7.768747674      1.590      1.866
REMARK  5 active torsions:
REMARK  status: ('A' for Active; 'I' for Inactive)
REMARK    1  A    between atoms: C2_2  and  N1_3 
REMARK    2  A    between atoms: C2_2  and  C10_20 
REMARK    3  A    between atoms: C2_2  and  C11_23 
REMARK       I    between atoms: N1_3  and  C3_5 
REMARK       I    between atoms: C3_5  and  N2_7 
REMARK    4  A    between atoms: N2_7  and  N3_9 
REMARK       I    between atoms: N3_9  and  C4_11 
REMARK    5  A    between atoms: C4_11  and  C5_13 
ROOT
HETATM    1  N1  UNL     1     -30.845 -23.011 -19.447  1.00  0.00    -0.317 N 
ATOM      2  H1  UNL     1     -30.666 -23.897 -19.918  1.00  0.00     0.166 HD
HETATM    3  C3  UNL     1     -29.817 -22.060 -19.436  1.00  0.00     0.336 C 
HETATM    4  O1  UNL     1     -30.008 -20.962 -18.861  1.00  0.00    -0.246 OA
HETATM    5  N2  UNL     1     -28.563 -22.292 -20.051  1.00  0.00    -0.249 N 
ATOM      6  H2  UNL     1     -28.390 -23.184 -20.516  1.00  0.00     0.192 HD
ENDROOT
BRANCH   5   7
HETATM    7  N3  UNL     1     -27.554 -21.317 -20.032  1.00  0.00    -0.262 N 
HETATM    8  C4  UNL     1     -27.350 -20.432 -21.108  1.00  0.00     0.270 C 
HETATM    9  O2  UNL     1     -28.123 -20.551 -22.109  1.00  0.00    -0.266 OA
ATOM     10  H3  UNL     1     -26.949 -21.246 -19.213  1.00  0.00     0.190 HD
BRANCH   8  11
HETATM   11  C5  UNL     1     -26.326 -19.405 -21.142  1.00  0.00     0.036 A 
HETATM   12  C6  UNL     1     -26.126 -18.643 -22.292  1.00  0.00     0.034 A 
HETATM   13  C7  UNL     1     -25.164 -17.684 -22.305  1.00  0.00     0.088 A 
HETATM   14  N4  UNL     1     -24.404 -17.461 -21.225  1.00  0.00    -0.375 N 
HETATM   15  C8  UNL     1     -24.575 -18.179 -20.109  1.00  0.00     0.088 A 
ATOM     16  H4  UNL     1     -23.686 -16.737 -21.253  1.00  0.00     0.164 HD
HETATM   17  C9  UNL     1     -25.548 -19.175 -20.041  1.00  0.00     0.034 A 
ENDBRANCH   8  11
ENDBRANCH   5   7
BRANCH   1  18
HETATM   18  C2  UNL     1     -32.139 -22.826 -18.841  1.00  0.00     0.188 C 
HETATM   19  C1  UNL     1     -32.740 -21.527 -19.292  1.00  0.00     0.059 C 
BRANCH  18  20
HETATM   20  C10 UNL     1     -32.007 -22.796 -17.348  1.00  0.00     0.268 C 
HETATM   21  N5  UNL     1     -32.696 -21.787 -16.624  1.00  0.00    -0.059 NA
HETATM   22  O3  UNL     1     -31.294 -23.660 -16.779  1.00  0.00    -0.274 OA
ENDBRANCH  18  20
BRANCH  18  23
HETATM   23  C11 UNL     1     -33.071 -23.950 -19.173  1.00  0.00     0.268 C 
HETATM   24  N6  UNL     1     -33.038 -24.529 -20.457  1.00  0.00    -0.059 NA
HETATM   25  O4  UNL     1     -33.897 -24.410 -18.345  1.00  0.00    -0.274 OA
ENDBRANCH  18  23
ENDBRANCH   1  18
TORSDOF 5
ENDMDL
MODEL 4
REMARK VINA RESULT: -7.738584180      1.596      2.119
REMARK  5 active torsions:
REMARK  status: ('A' for Active; 'I' for Inactive)
REMARK    1  A    between atoms: C2_2  and  N1_3 
REMARK    2  A    between atoms: C2_2  and  C10_20 
REMARK    3  A    between atoms: C2_2  and  C11_23 
REMARK       I    between atoms: N1_3  and  C3_5 
REMARK       I    between atoms: C3_5  and  N2_7 
REMARK    4  A    between atoms: N2_7  and  N3_9 
REMARK       I    between atoms: N3_9  and  C4_11 
REMARK    5  A    between atoms: C4_11  and  C5_13 
ROOT
HETATM    1  N1  UNL     1     -30.850 -23.011 -19.446  1.00  0.00    -0.317 N 
ATOM      2  H1  UNL     1     -30.666 -23.900 -19.911  1.00  0.00     0.166 HD
HETATM    3  C3  UNL     1     -29.824 -22.057 -19.434  1.00  0.00     0.336 C 
HETATM    4  O1  UNL     1     -30.022 -20.957 -18.866  1.00  0.00    -0.246 OA
HETATM    5  N2  UNL     1     -28.566 -22.290 -20.041  1.00  0.00    -0.249 N 
ATOM      6  H2  UNL     1     -28.388 -23.183 -20.500  1.00  0.00     0.192 HD
ENDROOT
BRANCH   5   7
HETATM    7  N3  UNL     1     -27.560 -21.311 -20.021  1.00  0.00    -0.262 N 
HETATM    8  C4  UNL     1     -27.350 -20.435 -21.103  1.00  0.00     0.270 C 
HETATM    9  O2  UNL     1     -28.113 -20.565 -22.109  1.00  0.00    -0.266 OA
ATOM     10  H3  UNL     1     -26.963 -21.233 -19.198  1.00  0.00     0.190 HD
BRANCH   8  11
HETATM   11  C5  UNL     1     -26.328 -19.406 -21.137  1.00  0.00     0.036 A 
HETATM   12  C6  UNL     1     -25.533 -19.160 -20.019  1.00  0.00     0.034 A 
HETATM   13  C7  UNL     1     -24.579 -18.194 -20.070  1.00  0.00     0.088 A 
HETATM   14  N4  UNL     1     -24.393 -17.474 -21.184  1.00  0.00    -0.375 N 
HETATM   15  C8  UNL     1     -25.142 -17.690 -22.271  1.00  0.00     0.088 A 
ATOM     16  H4  UNL     1     -23.672 -16.753 -21.204  1.00  0.00     0.164 HD
HETATM   17  C9  UNL     1     -26.135 -18.668 -22.273  1.00  0.00     0.034 A 
ENDBRANCH   8  11
ENDBRANCH   5   7
BRANCH   1  18
HETATM   18  C2  UNL     1     -32.148 -22.828 -18.848  1.00  0.00     0.188 C 
HETATM   19  C1  UNL     1     -32.743 -21.525 -19.298  1.00  0.00     0.059 C 
BRANCH  18  20
HETATM   20  C10 UNL     1     -32.026 -22.804 -17.354  1.00  0.00     0.268 C 
HETATM   21  N5  UNL     1     -32.725 -21.802 -16.630  1.00  0.00    -0.059 NA
HETATM   22  O3  UNL     1     -31.314 -23.669 -16.785  1.00  0.00    -0.274 OA
ENDBRANCH  18  20
BRANCH  18  23
HETATM   23  C11 UNL     1     -33.080 -23.948 -19.193  1.00  0.00     0.268 C 
HETATM   24  N6  UNL     1     -33.047 -24.513 -20.483  1.00  0.00    -0.059 NA
HETATM   25  O4  UNL     1     -33.905 -24.417 -18.369  1.00  0.00    -0.274 OA
ENDBRANCH  18  23
ENDBRANCH   1  18
TORSDOF 5
ENDMDL
MODEL 5
REMARK VINA RESULT: -7.670053818      1.067      1.940
REMARK  5 active torsions:
REMARK  status: ('A' for Active; 'I' for Inactive)
REMARK    1  A    between atoms: C2_2  and  N1_3 
REMARK    2  A    between atoms: C2_2  and  C10_20 
REMARK    3  A    between atoms: C2_2  and  C11_23 
REMARK       I    between atoms: N1_3  and  C3_5 
REMARK       I    between atoms: C3_5  and  N2_7 
REMARK    4  A    between atoms: N2_7  and  N3_9 
REMARK       I    between atoms: N3_9  and  C4_11 
REMARK    5  A    between atoms: C4_11  and  C5_13 
ROOT
HETATM    1  N1  UNL     1     -31.442 -22.921 -18.361  1.00  0.00    -0.317 N 
ATOM      2  H1  UNL     1     -31.207 -23.838 -18.741  1.00  0.00     0.166 HD
HETATM    3  C3  UNL     1     -30.659 -21.831 -18.762  1.00  0.00     0.336 C 
HETATM    4  O1  UNL     1     -30.923 -20.692 -18.309  1.00  0.00    -0.246 OA
HETATM    5  N2  UNL     1     -29.576 -21.967 -19.663  1.00  0.00    -0.249 N 
ATOM      6  H2  UNL     1     -29.344 -22.889 -20.034  1.00  0.00     0.192 HD
ENDROOT
BRANCH   5   7
HETATM    7  N3  UNL     1     -28.814 -20.855 -20.054  1.00  0.00    -0.262 N 
HETATM    8  C4  UNL     1     -27.473 -20.975 -20.466  1.00  0.00     0.270 C 
HETATM    9  O2  UNL     1     -26.972 -22.142 -20.470  1.00  0.00    -0.266 OA
ATOM     10  H3  UNL     1     -29.245 -19.930 -20.039  1.00  0.00     0.190 HD
BRANCH   8  11
HETATM   11  C5  UNL     1     -26.640 -19.862 -20.881  1.00  0.00     0.036 A 
HETATM   12  C6  UNL     1     -25.647 -19.368 -20.037  1.00  0.00     0.034 A 
HETATM   13  C7  UNL     1     -24.874 -18.327 -20.443  1.00  0.00     0.088 A 
HETATM   14  N4  UNL     1     -25.055 -17.770 -21.648  1.00  0.00    -0.375 N 
HETATM   15  C8  UNL     1     -26.002 -18.225 -22.477  1.00  0.00     0.088 A 
ATOM     16  H4  UNL     1     -24.466 -16.989 -21.936  1.00  0.00     0.164 HD
HETATM   17  C9  UNL     1     -26.822 -19.291 -22.110  1.00  0.00     0.034 A 
ENDBRANCH   8  11
ENDBRANCH   5   7
BRANCH   1  18
HETATM   18  C2  UNL     1     -32.556 -22.840 -17.452  1.00  0.00     0.188 C 
HETATM   19  C1  UNL     1     -33.505 -21.764 -17.892  1.00  0.00     0.059 C 
BRANCH  18  20
HETATM   20  C10 UNL     1     -32.070 -22.511 -16.072  1.00  0.00     0.268 C 
HETATM   21  N5  UNL     1     -32.851 -21.643 -15.264  1.00  0.00    -0.059 NA
HETATM   22  O3  UNL     1     -30.990 -23.010 -15.669  1.00  0.00    -0.274 OA
ENDBRANCH  18  20
BRANCH  18  23
HETATM   23  C11 UNL     1     -33.289 -24.143 -17.357  1.00  0.00     0.268 C 
HETATM   24  N6  UNL     1     -33.804 -24.742 -18.522  1.00  0.00    -0.059 NA
HETATM   25  O4  UNL     1     -33.469 -24.738 -16.264  1.00  0.00    -0.274 OA
ENDBRANCH  18  23
ENDBRANCH   1  18
TORSDOF 5
ENDMDL
