MODEL 1
REMARK VINA RESULT: -7.556670132      0.000      0.000
REMARK  9 active torsions:
REMARK  status: ('A' for Active; 'I' for Inactive)
REMARK    1  A    between atoms: C2_2  and  O1_3 
REMARK    2  A    between atoms: O1_3  and  C3_4 
REMARK       I    between atoms: C3_4  and  N1_6 
REMARK    3  A    between atoms: N1_6  and  N2_7 
REMARK    4  A    between atoms: N2_7  and  C4_9 
REMARK    5  A    between atoms: C4_9  and  N3_11 
REMARK    6  A    between atoms: N3_11  and  N4_13 
REMARK    7  A    between atoms: N4_13  and  C5_15 
REMARK    8  A    between atoms: C5_15  and  C6_16 
REMARK    9  A    between atoms: C6_16  and  C7_17 
ROOT
HETATM    1  C5  UNL     1     -23.831 -18.468 -20.211  1.00  0.00     0.113 C 
HETATM    2  N6  UNL     1     -24.776 -18.776 -19.422  1.00  0.00    -0.281 N 
ATOM      3  H6  UNL     1     -25.604 -19.174 -19.867  1.00  0.00     0.179 HD
HETATM    4  C8  UNL     1     -24.847 -18.652 -18.046  1.00  0.00     0.183 C 
HETATM    5  N7  UNL     1     -24.900 -18.519 -16.886  1.00  0.00    -0.172 NA
ENDROOT
BRANCH   1   6
HETATM    6  N4  UNL     1     -24.079 -18.736 -21.618  1.00  0.00    -0.286 N 
ATOM      7  H4  UNL     1     -23.690 -19.544 -22.103  1.00  0.00     0.188 HD
BRANCH   6   8
HETATM    8  N3  UNL     1     -24.888 -17.802 -22.245  1.00  0.00    -0.273 N 
ATOM      9  H3  UNL     1     -24.775 -16.813 -22.019  1.00  0.00     0.189 HD
BRANCH   8  10
HETATM   10  C4  UNL     1     -25.857 -18.182 -23.180  1.00  0.00     0.216 C 
HETATM   11  S1  UNL     1     -25.636 -17.739 -24.762  1.00  0.00    -0.037 SA
BRANCH  10  12
HETATM   12  N2  UNL     1     -27.006 -18.975 -22.840  1.00  0.00    -0.202 N 
ATOM     13  H2  UNL     1     -27.789 -18.950 -23.492  1.00  0.00     0.204 HD
BRANCH  12  14
HETATM   14  N1  UNL     1     -27.148 -19.719 -21.787  1.00  0.00    -0.256 NA
HETATM   15  C3  UNL     1     -27.283 -20.504 -20.682  1.00  0.00     0.458 C 
HETATM   16  O2  UNL     1     -26.452 -21.234 -20.081  1.00  0.00    -0.219 OA
BRANCH  15  17
HETATM   17  O1  UNL     1     -28.620 -20.498 -20.099  1.00  0.00    -0.292 OA
BRANCH  17  18
HETATM   18  C2  UNL     1     -29.150 -21.743 -19.655  1.00  0.00     0.177 C 
HETATM   19  C1  UNL     1     -30.434 -21.480 -18.877  1.00  0.00     0.034 C 
ENDBRANCH  17  18
ENDBRANCH  15  17
ENDBRANCH  12  14
ENDBRANCH  10  12
ENDBRANCH   8  10
ENDBRANCH   6   8
ENDBRANCH   1   6
BRANCH   1  20
HETATM   20  C6  UNL     1     -22.522 -17.914 -19.798  1.00  0.00     0.177 C 
BRANCH  20  21
HETATM   21  C7  UNL     1     -22.524 -16.432 -19.690  1.00  0.00     0.238 C 
HETATM   22  N5  UNL     1     -23.542 -15.734 -20.387  1.00  0.00    -0.062 NA
HETATM   23  O3  UNL     1     -21.639 -15.851 -18.993  1.00  0.00    -0.276 OA
ENDBRANCH  20  21
ENDBRANCH   1  20
TORSDOF 9
ENDMDL
MODEL 2
REMARK VINA RESULT: -7.013453166      2.830      4.678
REMARK  9 active torsions:
REMARK  status: ('A' for Active; 'I' for Inactive)
REMARK    1  A    between atoms: C2_2  and  O1_3 
REMARK    2  A    between atoms: O1_3  and  C3_4 
REMARK       I    between atoms: C3_4  and  N1_6 
REMARK    3  A    between atoms: N1_6  and  N2_7 
REMARK    4  A    between atoms: N2_7  and  C4_9 
REMARK    5  A    between atoms: C4_9  and  N3_11 
REMARK    6  A    between atoms: N3_11  and  N4_13 
REMARK    7  A    between atoms: N4_13  and  C5_15 
REMARK    8  A    between atoms: C5_15  and  C6_16 
REMARK    9  A    between atoms: C6_16  and  C7_17 
ROOT
HETATM    1  C5  UNL     1     -23.896 -18.416 -20.157  1.00  0.00     0.113 C 
HETATM    2  N6  UNL     1     -23.737 -17.334 -20.802  1.00  0.00    -0.281 N 
ATOM      3  H6  UNL     1     -24.194 -17.298 -21.714  1.00  0.00     0.179 HD
HETATM    4  C8  UNL     1     -23.033 -16.197 -20.448  1.00  0.00     0.183 C 
HETATM    5  N7  UNL     1     -22.415 -15.253 -20.144  1.00  0.00    -0.172 NA
ENDROOT
BRANCH   1   6
HETATM    6  N4  UNL     1     -24.708 -19.423 -20.819  1.00  0.00    -0.286 N 
ATOM      7  H4  UNL     1     -24.436 -19.861 -21.699  1.00  0.00     0.188 HD
BRANCH   6   8
HETATM    8  N3  UNL     1     -25.883 -19.740 -20.156  1.00  0.00    -0.273 N 
ATOM      9  H3  UNL     1     -25.923 -19.647 -19.141  1.00  0.00     0.189 HD
BRANCH   8  10
HETATM   10  C4  UNL     1     -27.017 -20.183 -20.846  1.00  0.00     0.216 C 
HETATM   11  S1  UNL     1     -27.995 -21.302 -20.111  1.00  0.00    -0.037 SA
BRANCH  10  12
HETATM   12  N2  UNL     1     -27.394 -19.681 -22.139  1.00  0.00    -0.202 N 
ATOM     13  H2  UNL     1     -28.292 -19.994 -22.507  1.00  0.00     0.204 HD
BRANCH  12  14
HETATM   14  N1  UNL     1     -26.709 -18.870 -22.883  1.00  0.00    -0.256 NA
HETATM   15  C3  UNL     1     -25.983 -18.013 -23.654  1.00  0.00     0.458 C 
HETATM   16  O2  UNL     1     -25.153 -17.120 -23.339  1.00  0.00    -0.219 OA
BRANCH  15  17
HETATM   17  O1  UNL     1     -26.208 -18.155 -25.088  1.00  0.00    -0.292 OA
BRANCH  17  18
HETATM   18  C2  UNL     1     -25.538 -17.243 -25.953  1.00  0.00     0.177 C 
HETATM   19  C1  UNL     1     -26.340 -17.108 -27.241  1.00  0.00     0.034 C 
ENDBRANCH  17  18
ENDBRANCH  15  17
ENDBRANCH  12  14
ENDBRANCH  10  12
ENDBRANCH   8  10
ENDBRANCH   6   8
ENDBRANCH   1   6
BRANCH   1  20
HETATM   20  C6  UNL     1     -23.365 -18.688 -18.803  1.00  0.00     0.177 C 
BRANCH  20  21
HETATM   21  C7  UNL     1     -24.131 -18.006 -17.728  1.00  0.00     0.238 C 
HETATM   22  N5  UNL     1     -25.078 -18.784 -17.015  1.00  0.00    -0.062 NA
HETATM   23  O3  UNL     1     -23.919 -16.780 -17.484  1.00  0.00    -0.276 OA
ENDBRANCH  20  21
ENDBRANCH   1  20
TORSDOF 9
ENDMDL
MODEL 3
REMARK VINA RESULT: -6.928063465      1.966      3.008
REMARK  9 active torsions:
REMARK  status: ('A' for Active; 'I' for Inactive)
REMARK    1  A    between atoms: C2_2  and  O1_3 
REMARK    2  A    between atoms: O1_3  and  C3_4 
REMARK       I    between atoms: C3_4  and  N1_6 
REMARK    3  A    between atoms: N1_6  and  N2_7 
REMARK    4  A    between atoms: N2_7  and  C4_9 
REMARK    5  A    between atoms: C4_9  and  N3_11 
REMARK    6  A    between atoms: N3_11  and  N4_13 
REMARK    7  A    between atoms: N4_13  and  C5_15 
REMARK    8  A    between atoms: C5_15  and  C6_16 
REMARK    9  A    between atoms: C6_16  and  C7_17 
ROOT
HETATM    1  C5  UNL     1     -23.879 -17.875 -20.309  1.00  0.00     0.113 C 
HETATM    2  N6  UNL     1     -22.728 -17.343 -20.384  1.00  0.00    -0.281 N 
ATOM      3  H6  UNL     1     -22.222 -17.519 -21.252  1.00  0.00     0.179 HD
HETATM    4  C8  UNL     1     -22.063 -16.558 -19.460  1.00  0.00     0.183 C 
HETATM    5  N7  UNL     1     -21.504 -15.916 -18.659  1.00  0.00    -0.172 NA
ENDROOT
BRANCH   1   6
HETATM    6  N4  UNL     1     -24.288 -18.643 -21.473  1.00  0.00    -0.286 N 
ATOM      7  H4  UNL     1     -23.669 -19.301 -21.946  1.00  0.00     0.188 HD
BRANCH   6   8
HETATM    8  N3  UNL     1     -25.590 -18.406 -21.887  1.00  0.00    -0.273 N 
ATOM      9  H3  UNL     1     -25.842 -17.479 -22.231  1.00  0.00     0.189 HD
BRANCH   8  10
HETATM   10  C4  UNL     1     -26.565 -19.408 -21.845  1.00  0.00     0.216 C 
HETATM   11  S1  UNL     1     -27.656 -19.494 -23.091  1.00  0.00    -0.037 SA
BRANCH  10  12
HETATM   12  N2  UNL     1     -26.636 -20.390 -20.798  1.00  0.00    -0.202 N 
ATOM     13  H2  UNL     1     -25.765 -20.858 -20.549  1.00  0.00     0.204 HD
BRANCH  12  14
HETATM   14  N1  UNL     1     -27.695 -20.741 -20.138  1.00  0.00    -0.256 NA
HETATM   15  C3  UNL     1     -28.811 -21.119 -19.453  1.00  0.00     0.458 C 
HETATM   16  O2  UNL     1     -29.656 -22.023 -19.687  1.00  0.00    -0.219 OA
BRANCH  15  17
HETATM   17  O1  UNL     1     -29.069 -20.343 -18.246  1.00  0.00    -0.292 OA
BRANCH  17  18
HETATM   18  C2  UNL     1     -30.242 -20.656 -17.501  1.00  0.00     0.177 C 
HETATM   19  C1  UNL     1     -30.022 -20.255 -16.048  1.00  0.00     0.034 C 
ENDBRANCH  17  18
ENDBRANCH  15  17
ENDBRANCH  12  14
ENDBRANCH  10  12
ENDBRANCH   8  10
ENDBRANCH   6   8
ENDBRANCH   1   6
BRANCH   1  20
HETATM   20  C6  UNL     1     -24.813 -17.729 -19.171  1.00  0.00     0.177 C 
BRANCH  20  21
HETATM   21  C7  UNL     1     -24.774 -18.880 -18.233  1.00  0.00     0.238 C 
HETATM   22  N5  UNL     1     -24.930 -18.596 -16.853  1.00  0.00    -0.062 NA
HETATM   23  O3  UNL     1     -24.609 -20.054 -18.683  1.00  0.00    -0.276 OA
ENDBRANCH  20  21
ENDBRANCH   1  20
TORSDOF 9
ENDMDL
MODEL 4
REMARK VINA RESULT: -6.895715188      1.432      2.357
REMARK  9 active torsions:
REMARK  status: ('A' for Active; 'I' for Inactive)
REMARK    1  A    between atoms: C2_2  and  O1_3 
REMARK    2  A    between atoms: O1_3  and  C3_4 
REMARK       I    between atoms: C3_4  and  N1_6 
REMARK    3  A    between atoms: N1_6  and  N2_7 
REMARK    4  A    between atoms: N2_7  and  C4_9 
REMARK    5  A    between atoms: C4_9  and  N3_11 
REMARK    6  A    between atoms: N3_11  and  N4_13 
REMARK    7  A    between atoms: N4_13  and  C5_15 
REMARK    8  A    between atoms: C5_15  and  C6_16 
REMARK    9  A    between atoms: C6_16  and  C7_17 
ROOT
HETATM    1  C5  UNL     1     -23.966 -17.727 -20.268  1.00  0.00     0.113 C 
HETATM    2  N6  UNL     1     -22.816 -17.191 -20.320  1.00  0.00    -0.281 N 
ATOM      3  H6  UNL     1     -22.323 -17.300 -21.207  1.00  0.00     0.179 HD
HETATM    4  C8  UNL     1     -22.134 -16.482 -19.348  1.00  0.00     0.183 C 
HETATM    5  N7  UNL     1     -21.561 -15.905 -18.507  1.00  0.00    -0.172 NA
ENDROOT
BRANCH   1   6
HETATM    6  N4  UNL     1     -24.395 -18.401 -21.482  1.00  0.00    -0.286 N 
ATOM      7  H4  UNL     1     -24.182 -19.380 -21.674  1.00  0.00     0.188 HD
BRANCH   6   8
HETATM    8  N3  UNL     1     -25.117 -17.604 -22.356  1.00  0.00    -0.273 N 
ATOM      9  H3  UNL     1     -25.001 -16.591 -22.318  1.00  0.00     0.189 HD
BRANCH   8  10
HETATM   10  C4  UNL     1     -26.001 -18.156 -23.289  1.00  0.00     0.216 C 
HETATM   11  S1  UNL     1     -25.746 -17.835 -24.896  1.00  0.00    -0.037 SA
BRANCH  10  12
HETATM   12  N2  UNL     1     -27.088 -19.021 -22.923  1.00  0.00    -0.202 N 
ATOM     13  H2  UNL     1     -27.861 -19.090 -23.584  1.00  0.00     0.204 HD
BRANCH  12  14
HETATM   14  N1  UNL     1     -27.186 -19.723 -21.837  1.00  0.00    -0.256 NA
HETATM   15  C3  UNL     1     -27.275 -20.463 -20.697  1.00  0.00     0.458 C 
HETATM   16  O2  UNL     1     -26.406 -21.128 -20.074  1.00  0.00    -0.219 OA
BRANCH  15  17
HETATM   17  O1  UNL     1     -28.604 -20.489 -20.098  1.00  0.00    -0.292 OA
BRANCH  17  18
HETATM   18  C2  UNL     1     -29.116 -21.753 -19.688  1.00  0.00     0.177 C 
HETATM   19  C1  UNL     1     -30.405 -21.530 -18.905  1.00  0.00     0.034 C 
ENDBRANCH  17  18
ENDBRANCH  15  17
ENDBRANCH  12  14
ENDBRANCH  10  12
ENDBRANCH   8  10
ENDBRANCH   6   8
ENDBRANCH   1   6
BRANCH   1  20
HETATM   20  C6  UNL     1     -24.882 -17.670 -19.107  1.00  0.00     0.177 C 
BRANCH  20  21
HETATM   21  C7  UNL     1     -24.635 -18.749 -18.116  1.00  0.00     0.238 C 
HETATM   22  N5  UNL     1     -23.842 -19.846 -18.538  1.00  0.00    -0.062 NA
HETATM   23  O3  UNL     1     -25.126 -18.658 -16.951  1.00  0.00    -0.276 OA
ENDBRANCH  20  21
ENDBRANCH   1  20
TORSDOF 9
ENDMDL
MODEL 5
REMARK VINA RESULT: -6.746563026      3.802      5.294
REMARK  9 active torsions:
REMARK  status: ('A' for Active; 'I' for Inactive)
REMARK    1  A    between atoms: C2_2  and  O1_3 
REMARK    2  A    between atoms: O1_3  and  C3_4 
REMARK       I    between atoms: C3_4  and  N1_6 
REMARK    3  A    between atoms: N1_6  and  N2_7 
REMARK    4  A    between atoms: N2_7  and  C4_9 
REMARK    5  A    between atoms: C4_9  and  N3_11 
REMARK    6  A    between atoms: N3_11  and  N4_13 
REMARK    7  A    between atoms: N4_13  and  C5_15 
REMARK    8  A    between atoms: C5_15  and  C6_16 
REMARK    9  A    between atoms: C6_16  and  C7_17 
ROOT
HETATM    1  C5  UNL     1     -23.836 -18.409 -20.201  1.00  0.00     0.113 C 
HETATM    2  N6  UNL     1     -24.787 -18.738 -19.427  1.00  0.00    -0.281 N 
ATOM      3  H6  UNL     1     -25.606 -19.138 -19.886  1.00  0.00     0.179 HD
HETATM    4  C8  UNL     1     -24.873 -18.635 -18.050  1.00  0.00     0.183 C 
HETATM    5  N7  UNL     1     -24.940 -18.519 -16.889  1.00  0.00    -0.172 NA
ENDROOT
BRANCH   1   6
HETATM    6  N4  UNL     1     -24.067 -18.659 -21.614  1.00  0.00    -0.286 N 
ATOM      7  H4  UNL     1     -23.723 -19.493 -22.091  1.00  0.00     0.188 HD
BRANCH   6   8
HETATM    8  N3  UNL     1     -24.792 -17.670 -22.260  1.00  0.00    -0.273 N 
ATOM      9  H3  UNL     1     -24.799 -16.726 -21.875  1.00  0.00     0.189 HD
BRANCH   8  10
HETATM   10  C4  UNL     1     -25.515 -17.938 -23.428  1.00  0.00     0.216 C 
HETATM   11  S1  UNL     1     -26.904 -18.834 -23.303  1.00  0.00    -0.037 SA
BRANCH  10  12
HETATM   12  N2  UNL     1     -25.134 -17.434 -24.718  1.00  0.00    -0.202 N 
ATOM     13  H2  UNL     1     -24.191 -17.054 -24.802  1.00  0.00     0.204 HD
BRANCH  12  14
HETATM   14  N1  UNL     1     -25.867 -17.413 -25.788  1.00  0.00    -0.256 NA
HETATM   15  C3  UNL     1     -26.648 -17.399 -26.904  1.00  0.00     0.458 C 
HETATM   16  O2  UNL     1     -27.777 -17.909 -27.129  1.00  0.00    -0.219 OA
BRANCH  15  17
HETATM   17  O1  UNL     1     -26.075 -16.670 -28.030  1.00  0.00    -0.292 OA
BRANCH  17  18
HETATM   18  C2  UNL     1     -26.210 -17.246 -29.325  1.00  0.00     0.177 C 
HETATM   19  C1  UNL     1     -26.325 -16.127 -30.352  1.00  0.00     0.034 C 
ENDBRANCH  17  18
ENDBRANCH  15  17
ENDBRANCH  12  14
ENDBRANCH  10  12
ENDBRANCH   8  10
ENDBRANCH   6   8
ENDBRANCH   1   6
BRANCH   1  20
HETATM   20  C6  UNL     1     -22.537 -17.848 -19.766  1.00  0.00     0.177 C 
BRANCH  20  21
HETATM   21  C7  UNL     1     -22.543 -16.365 -19.676  1.00  0.00     0.238 C 
HETATM   22  N5  UNL     1     -23.562 -15.678 -20.383  1.00  0.00    -0.062 NA
HETATM   23  O3  UNL     1     -21.661 -15.773 -18.984  1.00  0.00    -0.276 OA
ENDBRANCH  20  21
ENDBRANCH   1  20
TORSDOF 9
ENDMDL
