MODEL 1
REMARK VINA RESULT: -7.651443115      0.000      0.000
REMARK  8 active torsions:
REMARK  status: ('A' for Active; 'I' for Inactive)
REMARK       I    between atoms: C2_2  and  N1_4 
REMARK    1  A    between atoms: N1_4  and  N2_6 
REMARK    2  A    between atoms: N2_6  and  C3_8 
REMARK    3  A    between atoms: C3_8  and  N3_10 
REMARK    4  A    between atoms: N3_10  and  N4_12 
REMARK       I    between atoms: N4_12  and  C4_14 
REMARK    5  A    between atoms: C4_14  and  C5_16 
REMARK    6  A    between atoms: C5_16  and  O3_17 
REMARK    7  A    between atoms: C5_16  and  C8_21 
REMARK    8  A    between atoms: O3_17  and  C6_18 
ROOT
HETATM    1  N4  UNL     1     -24.539 -18.259 -21.640  1.00  0.00    -0.265 N 
ATOM      2  H4  UNL     1     -24.112 -19.154 -21.877  1.00  0.00     0.190 HD
HETATM    3  C4  UNL     1     -23.921 -17.404 -20.708  1.00  0.00     0.274 C 
HETATM    4  O2  UNL     1     -24.443 -16.281 -20.409  1.00  0.00    -0.268 OA
ENDROOT
BRANCH   1   5
HETATM    5  N3  UNL     1     -25.736 -17.873 -22.235  1.00  0.00    -0.272 N 
ATOM      6  H3  UNL     1     -25.953 -16.878 -22.272  1.00  0.00     0.189 HD
BRANCH   5   7
HETATM    7  C3  UNL     1     -26.680 -18.785 -22.798  1.00  0.00     0.205 C 
HETATM    8  S1  UNL     1     -27.505 -19.830 -21.838  1.00  0.00    -0.038 SA
BRANCH   7   9
HETATM    9  N2  UNL     1     -26.938 -18.826 -24.184  1.00  0.00    -0.273 N 
ATOM     10  H2  UNL     1     -27.641 -19.452 -24.577  1.00  0.00     0.189 HD
BRANCH   9  11
HETATM   11  N1  UNL     1     -26.176 -17.958 -25.007  1.00  0.00    -0.268 N 
HETATM   12  C2  UNL     1     -26.664 -17.712 -26.303  1.00  0.00     0.232 C 
HETATM   13  C1  UNL     1     -25.904 -16.806 -27.232  1.00  0.00     0.119 C 
HETATM   14  O1  UNL     1     -27.721 -18.202 -26.767  1.00  0.00    -0.272 OA
ATOM     15  H1  UNL     1     -25.311 -17.532 -24.674  1.00  0.00     0.190 HD
ENDBRANCH   9  11
ENDBRANCH   7   9
ENDBRANCH   5   7
ENDBRANCH   1   5
BRANCH   3  16
HETATM   16  C5  UNL     1     -22.642 -17.844 -20.080  1.00  0.00     0.313 C 
BRANCH  16  17
HETATM   17  O3  UNL     1     -22.942 -18.735 -19.038  1.00  0.00    -0.297 OA
BRANCH  17  18
HETATM   18  C6  UNL     1     -24.191 -18.990 -18.514  1.00  0.00     0.256 C 
HETATM   19  C7  UNL     1     -24.619 -18.219 -17.314  1.00  0.00     0.126 C 
HETATM   20  O4  UNL     1     -24.904 -19.862 -19.078  1.00  0.00    -0.266 OA
ENDBRANCH  17  18
ENDBRANCH  16  17
BRANCH  16  21
HETATM   21  C8  UNL     1     -21.838 -16.682 -19.627  1.00  0.00     0.270 C 
HETATM   22  N5  UNL     1     -21.904 -16.121 -18.345  1.00  0.00    -0.059 NA
HETATM   23  O5  UNL     1     -21.042 -16.172 -20.459  1.00  0.00    -0.273 OA
ENDBRANCH  16  21
ENDBRANCH   3  16
TORSDOF 8
ENDMDL
MODEL 2
REMARK VINA RESULT: -7.338326313      2.521      3.766
REMARK  8 active torsions:
REMARK  status: ('A' for Active; 'I' for Inactive)
REMARK       I    between atoms: C2_2  and  N1_4 
REMARK    1  A    between atoms: N1_4  and  N2_6 
REMARK    2  A    between atoms: N2_6  and  C3_8 
REMARK    3  A    between atoms: C3_8  and  N3_10 
REMARK    4  A    between atoms: N3_10  and  N4_12 
REMARK       I    between atoms: N4_12  and  C4_14 
REMARK    5  A    between atoms: C4_14  and  C5_16 
REMARK    6  A    between atoms: C5_16  and  O3_17 
REMARK    7  A    between atoms: C5_16  and  C8_21 
REMARK    8  A    between atoms: O3_17  and  C6_18 
ROOT
HETATM    1  N4  UNL     1     -24.186 -18.638 -21.682  1.00  0.00    -0.265 N 
ATOM      2  H4  UNL     1     -23.602 -19.457 -21.851  1.00  0.00     0.190 HD
HETATM    3  C4  UNL     1     -23.807 -17.684 -20.719  1.00  0.00     0.274 C 
HETATM    4  O2  UNL     1     -24.528 -16.655 -20.504  1.00  0.00    -0.268 OA
ENDROOT
BRANCH   1   5
HETATM    5  N3  UNL     1     -25.363 -18.457 -22.401  1.00  0.00    -0.272 N 
ATOM      6  H3  UNL     1     -25.374 -17.741 -23.127  1.00  0.00     0.189 HD
BRANCH   5   7
HETATM    7  C3  UNL     1     -26.557 -19.211 -22.187  1.00  0.00     0.205 C 
HETATM    8  S1  UNL     1     -27.642 -19.418 -23.401  1.00  0.00    -0.038 SA
BRANCH   7   9
HETATM    9  N2  UNL     1     -26.851 -19.799 -20.939  1.00  0.00    -0.273 N 
ATOM     10  H2  UNL     1     -26.434 -19.452 -20.075  1.00  0.00     0.189 HD
BRANCH   9  11
HETATM   11  N1  UNL     1     -27.753 -20.893 -20.938  1.00  0.00    -0.268 N 
HETATM   12  C2  UNL     1     -28.526 -21.086 -19.779  1.00  0.00     0.232 C 
HETATM   13  C1  UNL     1     -29.499 -22.230 -19.707  1.00  0.00     0.119 C 
HETATM   14  O1  UNL     1     -28.470 -20.356 -18.761  1.00  0.00    -0.272 OA
ATOM     15  H1  UNL     1     -27.837 -21.513 -21.743  1.00  0.00     0.190 HD
ENDBRANCH   9  11
ENDBRANCH   7   9
ENDBRANCH   5   7
ENDBRANCH   1   5
BRANCH   3  16
HETATM   16  C5  UNL     1     -22.545 -17.906 -19.957  1.00  0.00     0.313 C 
BRANCH  16  17
HETATM   17  O3  UNL     1     -22.825 -18.743 -18.866  1.00  0.00    -0.297 OA
BRANCH  17  18
HETATM   18  C6  UNL     1     -24.075 -19.067 -18.383  1.00  0.00     0.256 C 
HETATM   19  C7  UNL     1     -24.626 -18.255 -17.264  1.00  0.00     0.126 C 
HETATM   20  O4  UNL     1     -24.684 -20.033 -18.915  1.00  0.00    -0.266 OA
ENDBRANCH  17  18
ENDBRANCH  16  17
BRANCH  16  21
HETATM   21  C8  UNL     1     -21.930 -16.619 -19.549  1.00  0.00     0.270 C 
HETATM   22  N5  UNL     1     -21.980 -16.089 -18.253  1.00  0.00    -0.059 NA
HETATM   23  O5  UNL     1     -21.322 -15.964 -20.435  1.00  0.00    -0.273 OA
ENDBRANCH  16  21
ENDBRANCH   3  16
TORSDOF 8
ENDMDL
MODEL 3
REMARK VINA RESULT: -7.261882871      2.730      4.162
REMARK  8 active torsions:
REMARK  status: ('A' for Active; 'I' for Inactive)
REMARK       I    between atoms: C2_2  and  N1_4 
REMARK    1  A    between atoms: N1_4  and  N2_6 
REMARK    2  A    between atoms: N2_6  and  C3_8 
REMARK    3  A    between atoms: C3_8  and  N3_10 
REMARK    4  A    between atoms: N3_10  and  N4_12 
REMARK       I    between atoms: N4_12  and  C4_14 
REMARK    5  A    between atoms: C4_14  and  C5_16 
REMARK    6  A    between atoms: C5_16  and  O3_17 
REMARK    7  A    between atoms: C5_16  and  C8_21 
REMARK    8  A    between atoms: O3_17  and  C6_18 
ROOT
HETATM    1  N4  UNL     1     -24.182 -18.548 -20.782  1.00  0.00    -0.265 N 
ATOM      2  H4  UNL     1     -23.850 -19.290 -20.166  1.00  0.00     0.190 HD
HETATM    3  C4  UNL     1     -24.364 -17.244 -20.286  1.00  0.00     0.274 C 
HETATM    4  O2  UNL     1     -24.773 -16.309 -21.050  1.00  0.00    -0.268 OA
ENDROOT
BRANCH   1   5
HETATM    5  N3  UNL     1     -24.459 -18.819 -22.119  1.00  0.00    -0.272 N 
ATOM      6  H3  UNL     1     -23.760 -19.330 -22.657  1.00  0.00     0.189 HD
BRANCH   5   7
HETATM    7  C3  UNL     1     -25.660 -18.427 -22.783  1.00  0.00     0.205 C 
HETATM    8  S1  UNL     1     -25.611 -17.832 -24.313  1.00  0.00    -0.038 SA
BRANCH   7   9
HETATM    9  N2  UNL     1     -26.922 -18.530 -22.161  1.00  0.00    -0.273 N 
ATOM     10  H2  UNL     1     -27.432 -17.703 -21.852  1.00  0.00     0.189 HD
BRANCH   9  11
HETATM   11  N1  UNL     1     -27.448 -19.834 -21.984  1.00  0.00    -0.268 N 
HETATM   12  C2  UNL     1     -27.174 -20.475 -20.762  1.00  0.00     0.232 C 
HETATM   13  C1  UNL     1     -27.696 -21.862 -20.507  1.00  0.00     0.119 C 
HETATM   14  O1  UNL     1     -26.506 -19.967 -19.830  1.00  0.00    -0.272 OA
ATOM     15  H1  UNL     1     -28.001 -20.288 -22.711  1.00  0.00     0.190 HD
ENDBRANCH   9  11
ENDBRANCH   7   9
ENDBRANCH   5   7
ENDBRANCH   1   5
BRANCH   3  16
HETATM   16  C5  UNL     1     -24.067 -16.982 -18.850  1.00  0.00     0.313 C 
BRANCH  16  17
HETATM   17  O3  UNL     1     -22.866 -16.260 -18.767  1.00  0.00    -0.297 OA
BRANCH  17  18
HETATM   18  C6  UNL     1     -21.977 -16.032 -19.796  1.00  0.00     0.256 C 
HETATM   19  C7  UNL     1     -20.935 -17.061 -20.063  1.00  0.00     0.126 C 
HETATM   20  O4  UNL     1     -22.094 -14.964 -20.455  1.00  0.00    -0.266 OA
ENDBRANCH  17  18
ENDBRANCH  16  17
BRANCH  16  21
HETATM   21  C8  UNL     1     -24.031 -18.244 -18.069  1.00  0.00     0.270 C 
HETATM   22  N5  UNL     1     -25.001 -18.629 -17.135  1.00  0.00    -0.059 NA
HETATM   23  O5  UNL     1     -23.058 -19.017 -18.268  1.00  0.00    -0.273 OA
ENDBRANCH  16  21
ENDBRANCH   3  16
TORSDOF 8
ENDMDL
MODEL 4
REMARK VINA RESULT: -7.199031446      1.326      2.682
REMARK  8 active torsions:
REMARK  status: ('A' for Active; 'I' for Inactive)
REMARK       I    between atoms: C2_2  and  N1_4 
REMARK    1  A    between atoms: N1_4  and  N2_6 
REMARK    2  A    between atoms: N2_6  and  C3_8 
REMARK    3  A    between atoms: C3_8  and  N3_10 
REMARK    4  A    between atoms: N3_10  and  N4_12 
REMARK       I    between atoms: N4_12  and  C4_14 
REMARK    5  A    between atoms: C4_14  and  C5_16 
REMARK    6  A    between atoms: C5_16  and  O3_17 
REMARK    7  A    between atoms: C5_16  and  C8_21 
REMARK    8  A    between atoms: O3_17  and  C6_18 
ROOT
HETATM    1  N4  UNL     1     -24.885 -18.614 -21.082  1.00  0.00    -0.265 N 
ATOM      2  H4  UNL     1     -24.770 -19.514 -20.615  1.00  0.00     0.190 HD
HETATM    3  C4  UNL     1     -24.641 -17.417 -20.384  1.00  0.00     0.274 C 
HETATM    4  O2  UNL     1     -24.777 -16.289 -20.961  1.00  0.00    -0.268 OA
ENDROOT
BRANCH   1   5
HETATM    5  N3  UNL     1     -25.285 -18.563 -22.414  1.00  0.00    -0.272 N 
ATOM      6  H3  UNL     1     -24.624 -18.196 -23.097  1.00  0.00     0.189 HD
BRANCH   5   7
HETATM    7  C3  UNL     1     -26.563 -18.993 -22.883  1.00  0.00     0.205 C 
HETATM    8  S1  UNL     1     -27.597 -19.785 -21.883  1.00  0.00    -0.038 SA
BRANCH   7   9
HETATM    9  N2  UNL     1     -26.985 -18.761 -24.209  1.00  0.00    -0.273 N 
ATOM     10  H2  UNL     1     -27.834 -19.185 -24.580  1.00  0.00     0.189 HD
BRANCH   9  11
HETATM   11  N1  UNL     1     -26.174 -17.911 -25.003  1.00  0.00    -0.268 N 
HETATM   12  C2  UNL     1     -26.611 -17.649 -26.314  1.00  0.00     0.232 C 
HETATM   13  C1  UNL     1     -25.798 -16.760 -27.214  1.00  0.00     0.119 C 
HETATM   14  O1  UNL     1     -27.664 -18.111 -26.815  1.00  0.00    -0.272 OA
ATOM     15  H1  UNL     1     -25.310 -17.507 -24.640  1.00  0.00     0.190 HD
ENDBRANCH   9  11
ENDBRANCH   7   9
ENDBRANCH   5   7
ENDBRANCH   1   5
BRANCH   3  16
HETATM   16  C5  UNL     1     -24.221 -17.500 -18.957  1.00  0.00     0.313 C 
BRANCH  16  17
HETATM   17  O3  UNL     1     -22.831 -17.690 -18.912  1.00  0.00    -0.297 OA
BRANCH  17  18
HETATM   18  C6  UNL     1     -21.866 -16.725 -19.111  1.00  0.00     0.256 C 
HETATM   19  C7  UNL     1     -21.046 -16.799 -20.351  1.00  0.00     0.126 C 
HETATM   20  O4  UNL     1     -21.730 -15.833 -18.232  1.00  0.00    -0.266 OA
ENDBRANCH  17  18
ENDBRANCH  16  17
BRANCH  16  21
HETATM   21  C8  UNL     1     -24.968 -18.560 -18.236  1.00  0.00     0.270 C 
HETATM   22  N5  UNL     1     -25.018 -18.691 -16.842  1.00  0.00    -0.059 NA
HETATM   23  O5  UNL     1     -25.599 -19.396 -18.934  1.00  0.00    -0.273 OA
ENDBRANCH  16  21
ENDBRANCH   3  16
TORSDOF 8
ENDMDL
MODEL 5
REMARK VINA RESULT: -7.128428485      2.253      3.233
REMARK  8 active torsions:
REMARK  status: ('A' for Active; 'I' for Inactive)
REMARK       I    between atoms: C2_2  and  N1_4 
REMARK    1  A    between atoms: N1_4  and  N2_6 
REMARK    2  A    between atoms: N2_6  and  C3_8 
REMARK    3  A    between atoms: C3_8  and  N3_10 
REMARK    4  A    between atoms: N3_10  and  N4_12 
REMARK       I    between atoms: N4_12  and  C4_14 
REMARK    5  A    between atoms: C4_14  and  C5_16 
REMARK    6  A    between atoms: C5_16  and  O3_17 
REMARK    7  A    between atoms: C5_16  and  C8_21 
REMARK    8  A    between atoms: O3_17  and  C6_18 
ROOT
HETATM    1  N4  UNL     1     -25.638 -19.848 -19.620  1.00  0.00    -0.265 N 
ATOM      2  H4  UNL     1     -25.802 -19.816 -18.614  1.00  0.00     0.190 HD
HETATM    3  C4  UNL     1     -24.729 -18.956 -20.218  1.00  0.00     0.274 C 
HETATM    4  O2  UNL     1     -24.513 -18.992 -21.473  1.00  0.00    -0.268 OA
ENDROOT
BRANCH   1   5
HETATM    5  N3  UNL     1     -26.311 -20.775 -20.410  1.00  0.00    -0.272 N 
ATOM      6  H3  UNL     1     -25.782 -21.568 -20.771  1.00  0.00     0.189 HD
BRANCH   5   7
HETATM    7  C3  UNL     1     -27.695 -20.685 -20.747  1.00  0.00     0.205 C 
HETATM    8  S1  UNL     1     -28.815 -21.547 -19.911  1.00  0.00    -0.038 SA
BRANCH   7   9
HETATM    9  N2  UNL     1     -28.152 -19.865 -21.800  1.00  0.00    -0.273 N 
ATOM     10  H2  UNL     1     -29.141 -19.809 -22.040  1.00  0.00     0.189 HD
BRANCH   9  11
HETATM   11  N1  UNL     1     -27.174 -19.123 -22.509  1.00  0.00    -0.268 N 
HETATM   12  C2  UNL     1     -27.340 -19.011 -23.901  1.00  0.00     0.232 C 
HETATM   13  C1  UNL     1     -26.337 -18.242 -24.717  1.00  0.00     0.119 C 
HETATM   14  O1  UNL     1     -28.290 -19.517 -24.545  1.00  0.00    -0.272 OA
ATOM     15  H1  UNL     1     -26.385 -18.689 -22.030  1.00  0.00     0.190 HD
ENDBRANCH   9  11
ENDBRANCH   7   9
ENDBRANCH   5   7
ENDBRANCH   1   5
BRANCH   3  16
HETATM   16  C5  UNL     1     -24.027 -17.968 -19.350  1.00  0.00     0.313 C 
BRANCH  16  17
HETATM   17  O3  UNL     1     -22.775 -17.688 -19.917  1.00  0.00    -0.297 OA
BRANCH  17  18
HETATM   18  C6  UNL     1     -22.155 -16.457 -19.964  1.00  0.00     0.256 C 
HETATM   19  C7  UNL     1     -22.985 -15.245 -19.721  1.00  0.00     0.126 C 
HETATM   20  O4  UNL     1     -20.920 -16.423 -20.210  1.00  0.00    -0.266 OA
ENDBRANCH  17  18
ENDBRANCH  16  17
BRANCH  16  21
HETATM   21  C8  UNL     1     -23.927 -18.456 -17.952  1.00  0.00     0.270 C 
HETATM   22  N5  UNL     1     -25.013 -18.583 -17.075  1.00  0.00    -0.059 NA
HETATM   23  O5  UNL     1     -22.785 -18.778 -17.534  1.00  0.00    -0.273 OA
ENDBRANCH  16  21
ENDBRANCH   3  16
TORSDOF 8
ENDMDL
