MODEL 1
REMARK VINA RESULT: -4.857336706      0.000      0.000
REMARK  5 active torsions:
REMARK  status: ('A' for Active; 'I' for Inactive)
REMARK    1  A    between atoms: N1_1  and  N2_4 
REMARK    2  A    between atoms: N2_4  and  C1_6 
REMARK    3  A    between atoms: C2_8  and  C3_9 
REMARK    4  A    between atoms: C3_9  and  N3_10 
REMARK    5  A    between atoms: N3_10  and  C4_13 
ROOT
HETATM    1  C3  UNL     1      17.255 -35.021 -21.129  1.00  0.00     0.269 C 
ENDROOT
BRANCH   1   2
HETATM    2  C2  UNL     1      16.458 -36.246 -21.405  1.00  0.00     0.199 A 
HETATM    3  C1  UNL     1      16.839 -37.611 -21.345  1.00  0.00     0.266 A 
HETATM    4  O1  UNL     1      16.665 -36.908 -22.648  1.00  0.00    -0.351 OA
BRANCH   3   5
HETATM    5  N2  UNL     1      18.106 -38.224 -21.310  1.00  0.00    -0.311 N 
ATOM      6  H2  UNL     1      18.184 -39.203 -21.586  1.00  0.00     0.182 HD
BRANCH   5   7
HETATM    7  N1  UNL     1      19.200 -37.579 -20.933  1.00  0.00    -0.347 N 
ATOM      8  H12 UNL     1      19.552 -36.843 -21.546  1.00  0.00     0.176 HD
ATOM      9  H11 UNL     1      19.691 -37.792 -20.065  1.00  0.00     0.176 HD
ENDBRANCH   5   7
ENDBRANCH   3   5
ENDBRANCH   1   2
BRANCH   1  10
HETATM   10  N3  UNL     1      16.426 -33.841 -20.932  1.00  0.00    -0.068 N 
ATOM     11  H32 UNL     1      15.844 -33.929 -20.099  1.00  0.00     0.277 HD
ATOM     12  H31 UNL     1      16.985 -33.035 -20.649  1.00  0.00     0.277 HD
BRANCH  10  13
HETATM   13  C4  UNL     1      15.631 -33.549 -22.108  1.00  0.00     0.186 C 
HETATM   14  C5  UNL     1      16.559 -33.246 -23.264  1.00  0.00     0.033 C 
HETATM   15  C6  UNL     1      15.576 -32.551 -24.217  1.00  0.00     0.002 C 
HETATM   16  C7  UNL     1      15.002 -31.497 -23.260  1.00  0.00     0.002 C 
HETATM   17  C8  UNL     1      14.865 -32.253 -21.954  1.00  0.00     0.033 C 
ENDBRANCH  10  13
ENDBRANCH   1  10
TORSDOF 5
ENDMDL
MODEL 2
REMARK VINA RESULT: -4.832383713      0.347      1.187
REMARK  5 active torsions:
REMARK  status: ('A' for Active; 'I' for Inactive)
REMARK    1  A    between atoms: N1_1  and  N2_4 
REMARK    2  A    between atoms: N2_4  and  C1_6 
REMARK    3  A    between atoms: C2_8  and  C3_9 
REMARK    4  A    between atoms: C3_9  and  N3_10 
REMARK    5  A    between atoms: N3_10  and  C4_13 
ROOT
HETATM    1  C3  UNL     1      17.019 -35.107 -21.138  1.00  0.00     0.269 C 
ENDROOT
BRANCH   1   2
HETATM    2  C2  UNL     1      16.419 -36.443 -21.398  1.00  0.00     0.199 A 
HETATM    3  C1  UNL     1      17.004 -37.732 -21.323  1.00  0.00     0.266 A 
HETATM    4  O1  UNL     1      16.724 -37.080 -22.633  1.00  0.00    -0.351 OA
BRANCH   3   5
HETATM    5  N2  UNL     1      18.350 -38.145 -21.283  1.00  0.00    -0.311 N 
ATOM      6  H2  UNL     1      18.578 -39.099 -21.559  1.00  0.00     0.182 HD
BRANCH   5   7
HETATM    7  N1  UNL     1      19.331 -37.340 -20.901  1.00  0.00    -0.347 N 
ATOM      8  H12 UNL     1      19.235 -36.345 -21.108  1.00  0.00     0.176 HD
ATOM      9  H11 UNL     1      20.161 -37.679 -20.417  1.00  0.00     0.176 HD
ENDBRANCH   5   7
ENDBRANCH   3   5
ENDBRANCH   1   2
BRANCH   1  10
HETATM   10  N3  UNL     1      16.020 -34.064 -20.962  1.00  0.00    -0.068 N 
ATOM     11  H32 UNL     1      15.075 -34.448 -20.964  1.00  0.00     0.277 HD
ATOM     12  H31 UNL     1      16.036 -33.687 -20.014  1.00  0.00     0.277 HD
BRANCH  10  13
HETATM   13  C4  UNL     1      16.169 -33.015 -21.952  1.00  0.00     0.186 C 
HETATM   14  C5  UNL     1      14.898 -32.196 -21.994  1.00  0.00     0.033 C 
HETATM   15  C6  UNL     1      15.083 -31.488 -23.344  1.00  0.00     0.002 C 
HETATM   16  C7  UNL     1      15.365 -32.709 -24.230  1.00  0.00     0.002 C 
HETATM   17  C8  UNL     1      16.242 -33.578 -23.354  1.00  0.00     0.033 C 
ENDBRANCH  10  13
ENDBRANCH   1  10
TORSDOF 5
ENDMDL
MODEL 3
REMARK VINA RESULT: -4.704938445      2.457      5.347
REMARK  5 active torsions:
REMARK  status: ('A' for Active; 'I' for Inactive)
REMARK    1  A    between atoms: N1_1  and  N2_4 
REMARK    2  A    between atoms: N2_4  and  C1_6 
REMARK    3  A    between atoms: C2_8  and  C3_9 
REMARK    4  A    between atoms: C3_9  and  N3_10 
REMARK    5  A    between atoms: N3_10  and  C4_13 
ROOT
HETATM    1  C3  UNL     1      16.007 -33.302 -21.859  1.00  0.00     0.269 C 
ENDROOT
BRANCH   1   2
HETATM    2  C2  UNL     1      16.445 -32.873 -23.214  1.00  0.00     0.199 A 
HETATM    3  C1  UNL     1      15.882 -31.909 -24.088  1.00  0.00     0.266 A 
HETATM    4  O1  UNL     1      15.721 -33.369 -24.335  1.00  0.00    -0.351 OA
BRANCH   3   5
HETATM    5  N2  UNL     1      14.617 -31.290 -24.103  1.00  0.00    -0.311 N 
ATOM      6  H2  UNL     1      14.351 -30.699 -23.316  1.00  0.00     0.182 HD
BRANCH   5   7
HETATM    7  N1  UNL     1      13.760 -31.444 -25.102  1.00  0.00    -0.347 N 
ATOM      8  H12 UNL     1      13.953 -32.179 -25.782  1.00  0.00     0.176 HD
ATOM      9  H11 UNL     1      12.929 -30.863 -25.207  1.00  0.00     0.176 HD
ENDBRANCH   5   7
ENDBRANCH   3   5
ENDBRANCH   1   2
BRANCH   1  10
HETATM   10  N3  UNL     1      17.101 -33.816 -21.048  1.00  0.00    -0.068 N 
ATOM     11  H32 UNL     1      18.006 -33.608 -21.469  1.00  0.00     0.277 HD
ATOM     12  H31 UNL     1      17.204 -33.287 -20.182  1.00  0.00     0.277 HD
BRANCH  10  13
HETATM   13  C4  UNL     1      16.948 -35.234 -20.789  1.00  0.00     0.186 C 
HETATM   14  C5  UNL     1      18.303 -35.899 -20.891  1.00  0.00     0.033 C 
HETATM   15  C6  UNL     1      17.868 -37.365 -21.039  1.00  0.00     0.002 C 
HETATM   16  C7  UNL     1      16.879 -37.216 -22.203  1.00  0.00     0.002 C 
HETATM   17  C8  UNL     1      16.163 -35.919 -21.887  1.00  0.00     0.033 C 
ENDBRANCH  10  13
ENDBRANCH   1  10
TORSDOF 5
ENDMDL
MODEL 4
REMARK VINA RESULT: -4.412798546      2.871      5.054
REMARK  5 active torsions:
REMARK  status: ('A' for Active; 'I' for Inactive)
REMARK    1  A    between atoms: N1_1  and  N2_4 
REMARK    2  A    between atoms: N2_4  and  C1_6 
REMARK    3  A    between atoms: C2_8  and  C3_9 
REMARK    4  A    between atoms: C3_9  and  N3_10 
REMARK    5  A    between atoms: N3_10  and  C4_13 
ROOT
HETATM    1  C3  UNL     1      15.377 -32.604 -22.219  1.00  0.00     0.269 C 
ENDROOT
BRANCH   1   2
HETATM    2  C2  UNL     1      15.456 -32.397 -23.689  1.00  0.00     0.199 A 
HETATM    3  C1  UNL     1      16.589 -32.213 -24.522  1.00  0.00     0.266 A 
HETATM    4  O1  UNL     1      15.695 -31.076 -24.163  1.00  0.00    -0.351 OA
BRANCH   3   5
HETATM    5  N2  UNL     1      17.922 -31.873 -24.221  1.00  0.00    -0.311 N 
ATOM      6  H2  UNL     1      18.487 -32.533 -23.687  1.00  0.00     0.182 HD
BRANCH   5   7
HETATM    7  N1  UNL     1      18.470 -30.730 -24.605  1.00  0.00    -0.347 N 
ATOM      8  H12 UNL     1      19.387 -30.770 -25.050  1.00  0.00     0.176 HD
ATOM      9  H11 UNL     1      18.011 -29.829 -24.471  1.00  0.00     0.176 HD
ENDBRANCH   5   7
ENDBRANCH   3   5
ENDBRANCH   1   2
BRANCH   1  10
HETATM   10  N3  UNL     1      16.561 -33.255 -21.677  1.00  0.00    -0.068 N 
ATOM     11  H32 UNL     1      17.355 -33.175 -22.313  1.00  0.00     0.277 HD
ATOM     12  H31 UNL     1      16.942 -32.738 -20.884  1.00  0.00     0.277 HD
BRANCH  10  13
HETATM   13  C4  UNL     1      16.295 -34.637 -21.330  1.00  0.00     0.186 C 
HETATM   14  C5  UNL     1      17.572 -35.271 -20.826  1.00  0.00     0.033 C 
HETATM   15  C6  UNL     1      17.200 -36.755 -20.955  1.00  0.00     0.002 C 
HETATM   16  C7  UNL     1      16.736 -36.771 -22.418  1.00  0.00     0.002 C 
HETATM   17  C8  UNL     1      15.978 -35.467 -22.555  1.00  0.00     0.033 C 
ENDBRANCH  10  13
ENDBRANCH   1  10
TORSDOF 5
ENDMDL
MODEL 5
REMARK VINA RESULT: -4.380300007      2.330      5.367
REMARK  5 active torsions:
REMARK  status: ('A' for Active; 'I' for Inactive)
REMARK    1  A    between atoms: N1_1  and  N2_4 
REMARK    2  A    between atoms: N2_4  and  C1_6 
REMARK    3  A    between atoms: C2_8  and  C3_9 
REMARK    4  A    between atoms: C3_9  and  N3_10 
REMARK    5  A    between atoms: N3_10  and  C4_13 
ROOT
HETATM    1  C3  UNL     1      15.969 -33.409 -21.476  1.00  0.00     0.269 C 
ENDROOT
BRANCH   1   2
HETATM    2  C2  UNL     1      16.445 -33.163 -22.863  1.00  0.00     0.199 A 
HETATM    3  C1  UNL     1      15.997 -32.223 -23.825  1.00  0.00     0.266 A 
HETATM    4  O1  UNL     1      15.659 -33.671 -23.936  1.00  0.00    -0.351 OA
BRANCH   3   5
HETATM    5  N2  UNL     1      14.816 -31.460 -23.903  1.00  0.00    -0.311 N 
ATOM      6  H2  UNL     1      14.548 -30.890 -23.101  1.00  0.00     0.182 HD
BRANCH   5   7
HETATM    7  N1  UNL     1      14.040 -31.455 -24.977  1.00  0.00    -0.347 N 
ATOM      8  H12 UNL     1      13.157 -30.947 -24.922  1.00  0.00     0.176 HD
ATOM      9  H11 UNL     1      14.295 -31.934 -25.841  1.00  0.00     0.176 HD
ENDBRANCH   5   7
ENDBRANCH   3   5
ENDBRANCH   1   2
BRANCH   1  10
HETATM   10  N3  UNL     1      16.890 -34.224 -20.698  1.00  0.00    -0.068 N 
ATOM     11  H32 UNL     1      17.675 -33.673 -20.352  1.00  0.00     0.277 HD
ATOM     12  H31 UNL     1      16.483 -34.498 -19.804  1.00  0.00     0.277 HD
BRANCH  10  13
HETATM   13  C4  UNL     1      17.342 -35.378 -21.451  1.00  0.00     0.186 C 
HETATM   14  C5  UNL     1      16.256 -36.430 -21.434  1.00  0.00     0.033 C 
HETATM   15  C6  UNL     1      17.072 -37.661 -21.857  1.00  0.00     0.002 C 
HETATM   16  C7  UNL     1      18.213 -37.567 -20.834  1.00  0.00     0.002 C 
HETATM   17  C8  UNL     1      18.489 -36.080 -20.758  1.00  0.00     0.033 C 
ENDBRANCH  10  13
ENDBRANCH   1  10
TORSDOF 5
ENDMDL
