MODEL 1
REMARK VINA RESULT: -4.300846436      0.000      0.000
REMARK  3 active torsions:
REMARK  status: ('A' for Active; 'I' for Inactive)
REMARK    1  A    between atoms: C2_2  and  C3_3 
REMARK    2  A    between atoms: C3_3  and  C4_4 
REMARK    3  A    between atoms: C4_4  and  N1_5 
ROOT
HETATM    1  N1  UNL     1      21.537 -34.206 -15.719  1.00  0.00    -0.180 N 
HETATM    2  C5  UNL     1      22.980 -34.344 -15.670  1.00  0.00     0.200 C 
HETATM    3  N2  UNL     1      23.727 -33.346 -16.306  1.00  0.00    -0.364 N 
ATOM      4  H2  UNL     1      24.541 -33.618 -16.857  1.00  0.00     0.165 HD
HETATM    5  C6  UNL     1      23.397 -31.994 -16.213  1.00  0.00     0.081 C 
HETATM    6  C7  UNL     1      22.828 -31.498 -14.916  1.00  0.00     0.182 C 
HETATM    7  N3  UNL     1      21.385 -31.763 -14.964  1.00  0.00    -0.222 N 
ATOM      8  H3  UNL     1      20.748 -31.039 -14.634  1.00  0.00     0.178 HD
HETATM    9  C8  UNL     1      20.825 -32.997 -15.455  1.00  0.00     0.675 C 
HETATM   10  N4  UNL     1      19.535 -33.008 -15.668  1.00  0.00    -0.235 N 
ATOM     11  H41 UNL     1      19.026 -32.145 -15.479  1.00  0.00     0.174 HD
ATOM     12  H42 UNL     1      19.138 -33.881 -16.016  1.00  0.00     0.174 HD
ENDROOT
BRANCH   1  13
HETATM   13  C4  UNL     1      20.755 -35.384 -16.042  1.00  0.00     0.148 C 
BRANCH  13  14
HETATM   14  C3  UNL     1      21.550 -36.394 -16.807  1.00  0.00     0.020 C 
BRANCH  14  15
HETATM   15  C2  UNL     1      21.412 -36.190 -18.296  1.00  0.00    -0.003 C 
HETATM   16  C1  UNL     1      22.725 -36.014 -19.001  1.00  0.00     0.005 C 
ENDBRANCH  14  15
ENDBRANCH  13  14
ENDBRANCH   1  13
TORSDOF 3
ENDMDL
MODEL 2
REMARK VINA RESULT: -3.952602626      1.297      1.628
REMARK  3 active torsions:
REMARK  status: ('A' for Active; 'I' for Inactive)
REMARK    1  A    between atoms: C2_2  and  C3_3 
REMARK    2  A    between atoms: C3_3  and  C4_4 
REMARK    3  A    between atoms: C4_4  and  N1_5 
ROOT
HETATM    1  N1  UNL     1      22.084 -34.453 -16.770  1.00  0.00    -0.180 N 
HETATM    2  C5  UNL     1      23.305 -33.708 -17.011  1.00  0.00     0.200 C 
HETATM    3  N2  UNL     1      23.167 -32.335 -17.235  1.00  0.00    -0.364 N 
ATOM      4  H2  UNL     1      23.727 -31.897 -17.967  1.00  0.00     0.165 HD
HETATM    5  C6  UNL     1      22.291 -31.542 -16.493  1.00  0.00     0.081 C 
HETATM    6  C7  UNL     1      22.103 -31.873 -15.041  1.00  0.00     0.182 C 
HETATM    7  N3  UNL     1      21.076 -32.921 -14.981  1.00  0.00    -0.222 N 
ATOM      8  H3  UNL     1      20.352 -32.850 -14.266  1.00  0.00     0.178 HD
HETATM    9  C8  UNL     1      21.041 -34.044 -15.883  1.00  0.00     0.675 C 
HETATM   10  N4  UNL     1      19.950 -34.764 -15.878  1.00  0.00    -0.235 N 
ATOM     11  H41 UNL     1      19.206 -34.472 -15.244  1.00  0.00     0.174 HD
ATOM     12  H42 UNL     1      19.925 -35.559 -16.516  1.00  0.00     0.174 HD
ENDROOT
BRANCH   1  13
HETATM   13  C4  UNL     1      21.912 -35.714 -17.464  1.00  0.00     0.148 C 
BRANCH  13  14
HETATM   14  C3  UNL     1      22.625 -35.733 -18.780  1.00  0.00     0.020 C 
BRANCH  14  15
HETATM   15  C2  UNL     1      21.992 -36.718 -19.734  1.00  0.00    -0.003 C 
HETATM   16  C1  UNL     1      20.534 -36.464 -19.977  1.00  0.00     0.005 C 
ENDBRANCH  14  15
ENDBRANCH  13  14
ENDBRANCH   1  13
TORSDOF 3
ENDMDL
MODEL 3
REMARK VINA RESULT: -3.682194114      3.618      5.969
REMARK  3 active torsions:
REMARK  status: ('A' for Active; 'I' for Inactive)
REMARK    1  A    between atoms: C2_2  and  C3_3 
REMARK    2  A    between atoms: C3_3  and  C4_4 
REMARK    3  A    between atoms: C4_4  and  N1_5 
ROOT
HETATM    1  N1  UNL     1      22.046 -36.966 -18.703  1.00  0.00    -0.180 N 
HETATM    2  C5  UNL     1      23.008 -37.955 -18.256  1.00  0.00     0.200 C 
HETATM    3  N2  UNL     1      22.621 -39.295 -18.357  1.00  0.00    -0.364 N 
ATOM      4  H2  UNL     1      22.845 -39.931 -17.591  1.00  0.00     0.165 HD
HETATM    5  C6  UNL     1      21.942 -39.794 -19.469  1.00  0.00     0.081 C 
HETATM    6  C7  UNL     1      22.289 -39.229 -20.815  1.00  0.00     0.182 C 
HETATM    7  N3  UNL     1      21.489 -38.009 -20.975  1.00  0.00    -0.222 N 
ATOM      8  H3  UNL     1      21.039 -37.838 -21.875  1.00  0.00     0.178 HD
HETATM    9  C8  UNL     1      21.310 -37.039 -19.924  1.00  0.00     0.675 C 
HETATM   10  N4  UNL     1      20.387 -36.132 -20.118  1.00  0.00    -0.235 N 
ATOM     11  H41 UNL     1      19.862 -36.185 -20.991  1.00  0.00     0.174 HD
ATOM     12  H42 UNL     1      20.260 -35.446 -19.374  1.00  0.00     0.174 HD
ENDROOT
BRANCH   1  13
HETATM   13  C4  UNL     1      21.825 -35.807 -17.860  1.00  0.00     0.148 C 
BRANCH  13  14
HETATM   14  C3  UNL     1      21.330 -36.187 -16.500  1.00  0.00     0.020 C 
BRANCH  14  15
HETATM   15  C2  UNL     1      20.814 -34.985 -15.746  1.00  0.00    -0.003 C 
HETATM   16  C1  UNL     1      19.537 -35.248 -15.003  1.00  0.00     0.005 C 
ENDBRANCH  14  15
ENDBRANCH  13  14
ENDBRANCH   1  13
TORSDOF 3
ENDMDL
MODEL 4
REMARK VINA RESULT: -3.609089275      3.566      5.795
REMARK  3 active torsions:
REMARK  status: ('A' for Active; 'I' for Inactive)
REMARK    1  A    between atoms: C2_2  and  C3_3 
REMARK    2  A    between atoms: C3_3  and  C4_4 
REMARK    3  A    between atoms: C4_4  and  N1_5 
ROOT
HETATM    1  N1  UNL     1      22.436 -36.565 -19.078  1.00  0.00    -0.180 N 
HETATM    2  C5  UNL     1      23.714 -37.243 -18.968  1.00  0.00     0.200 C 
HETATM    3  N2  UNL     1      23.725 -38.610 -19.261  1.00  0.00    -0.364 N 
ATOM      4  H2  UNL     1      24.271 -39.235 -18.667  1.00  0.00     0.165 HD
HETATM    5  C6  UNL     1      23.018 -39.149 -20.335  1.00  0.00     0.081 C 
HETATM    6  C7  UNL     1      22.914 -38.329 -21.588  1.00  0.00     0.182 C 
HETATM    7  N3  UNL     1      21.777 -37.420 -21.401  1.00  0.00    -0.222 N 
ATOM      8  H3  UNL     1      21.130 -37.286 -22.177  1.00  0.00     0.178 HD
HETATM    9  C8  UNL     1      21.530 -36.708 -20.172  1.00  0.00     0.675 C 
HETATM   10  N4  UNL     1      20.363 -36.129 -20.057  1.00  0.00    -0.235 N 
ATOM     11  H41 UNL     1      19.716 -36.231 -20.839  1.00  0.00     0.174 HD
ATOM     12  H42 UNL     1      20.188 -35.625 -19.188  1.00  0.00     0.174 HD
ENDROOT
BRANCH   1  13
HETATM   13  C4  UNL     1      22.055 -35.661 -18.010  1.00  0.00     0.148 C 
BRANCH  13  14
HETATM   14  C3  UNL     1      21.763 -36.388 -16.735  1.00  0.00     0.020 C 
BRANCH  14  15
HETATM   15  C2  UNL     1      20.646 -35.725 -15.966  1.00  0.00    -0.003 C 
HETATM   16  C1  UNL     1      20.946 -34.307 -15.579  1.00  0.00     0.005 C 
ENDBRANCH  14  15
ENDBRANCH  13  14
ENDBRANCH   1  13
TORSDOF 3
ENDMDL
MODEL 5
REMARK VINA RESULT: -3.553334941      1.125      1.186
REMARK  3 active torsions:
REMARK  status: ('A' for Active; 'I' for Inactive)
REMARK    1  A    between atoms: C2_2  and  C3_3 
REMARK    2  A    between atoms: C3_3  and  C4_4 
REMARK    3  A    between atoms: C4_4  and  N1_5 
ROOT
HETATM    1  N1  UNL     1      22.247 -33.827 -15.637  1.00  0.00    -0.180 N 
HETATM    2  C5  UNL     1      23.591 -33.418 -15.998  1.00  0.00     0.200 C 
HETATM    3  N2  UNL     1      23.727 -32.687 -17.182  1.00  0.00    -0.364 N 
ATOM      4  H2  UNL     1      24.507 -32.900 -17.805  1.00  0.00     0.165 HD
HETATM    5  C6  UNL     1      22.835 -31.677 -17.543  1.00  0.00     0.081 C 
HETATM    6  C7  UNL     1      22.256 -30.829 -16.448  1.00  0.00     0.182 C 
HETATM    7  N3  UNL     1      21.094 -31.557 -15.924  1.00  0.00    -0.222 N 
ATOM      8  H3  UNL     1      20.241 -31.034 -15.730  1.00  0.00     0.178 HD
HETATM    9  C8  UNL     1      21.100 -32.976 -15.671  1.00  0.00     0.675 C 
HETATM   10  N4  UNL     1      19.940 -33.533 -15.439  1.00  0.00    -0.235 N 
ATOM     11  H41 UNL     1      19.121 -32.925 -15.463  1.00  0.00     0.174 HD
ATOM     12  H42 UNL     1      19.944 -34.537 -15.260  1.00  0.00     0.174 HD
ENDROOT
BRANCH   1  13
HETATM   13  C4  UNL     1      22.051 -35.192 -15.192  1.00  0.00     0.148 C 
BRANCH  13  14
HETATM   14  C3  UNL     1      22.722 -36.180 -16.094  1.00  0.00     0.020 C 
BRANCH  14  15
HETATM   15  C2  UNL     1      21.819 -36.586 -17.234  1.00  0.00    -0.003 C 
HETATM   16  C1  UNL     1      22.551 -36.826 -18.521  1.00  0.00     0.005 C 
ENDBRANCH  14  15
ENDBRANCH  13  14
ENDBRANCH   1  13
TORSDOF 3
ENDMDL
