MODEL 1
REMARK VINA RESULT: -4.806567025      0.000      0.000
REMARK  3 active torsions:
REMARK  status: ('A' for Active; 'I' for Inactive)
REMARK    1  A    between atoms: N1_2  and  C2_5 
REMARK    2  A    between atoms: C5_8  and  N2_9 
REMARK    3  A    between atoms: N2_9  and  C6_12 
ROOT
HETATM    1  C6  UNL     1      22.102 -31.461 -15.480  1.00  0.00     0.355 C 
HETATM    2  C7  UNL     1      22.155 -30.605 -16.695  1.00  0.00     0.086 C 
HETATM    3  N3  UNL     1      22.220 -29.937 -17.648  1.00  0.00    -0.196 NA
ENDROOT
BRANCH   1   4
HETATM    4  N2  UNL     1      20.945 -32.321 -15.641  1.00  0.00    -0.059 N 
ATOM      5  H22 UNL     1      20.727 -32.447 -16.629  1.00  0.00     0.278 HD
ATOM      6  H21 UNL     1      20.098 -31.842 -15.337  1.00  0.00     0.278 HD
BRANCH   4   7
HETATM    7  C5  UNL     1      21.067 -33.590 -14.987  1.00  0.00     0.187 C 
HETATM    8  C4  UNL     1      22.434 -34.175 -15.329  1.00  0.00     0.035 C 
HETATM    9  C3  UNL     1      22.432 -34.717 -16.745  1.00  0.00     0.035 C 
HETATM   10  C2  UNL     1      21.475 -35.868 -16.872  1.00  0.00     0.185 C 
HETATM   11  C9  UNL     1      20.495 -35.863 -15.714  1.00  0.00     0.035 C 
HETATM   12  C8  UNL     1      19.958 -34.490 -15.386  1.00  0.00     0.035 C 
BRANCH  10  13
HETATM   13  N1  UNL     1      22.136 -37.154 -16.767  1.00  0.00    -0.075 N 
HETATM   14  C1  UNL     1      22.579 -37.657 -18.049  1.00  0.00     0.267 C 
ATOM     15  H12 UNL     1      21.542 -37.834 -16.292  1.00  0.00     0.277 HD
ATOM     16  H11 UNL     1      22.908 -37.117 -16.101  1.00  0.00     0.277 HD
ENDBRANCH  10  13
ENDBRANCH   4   7
ENDBRANCH   1   4
TORSDOF 3
ENDMDL
MODEL 2
REMARK VINA RESULT: -4.591496291      7.590      8.015
REMARK  3 active torsions:
REMARK  status: ('A' for Active; 'I' for Inactive)
REMARK    1  A    between atoms: N1_2  and  C2_5 
REMARK    2  A    between atoms: C5_8  and  N2_9 
REMARK    3  A    between atoms: N2_9  and  C6_12 
ROOT
HETATM    1  C6  UNL     1      16.045 -32.218 -23.885  1.00  0.00     0.355 C 
HETATM    2  C7  UNL     1      17.397 -31.697 -24.222  1.00  0.00     0.086 C 
HETATM    3  N3  UNL     1      18.447 -31.274 -24.502  1.00  0.00    -0.196 NA
ENDROOT
BRANCH   1   4
HETATM    4  N2  UNL     1      16.060 -32.488 -22.459  1.00  0.00    -0.059 N 
ATOM      5  H22 UNL     1      15.645 -31.712 -21.944  1.00  0.00     0.278 HD
ATOM      6  H21 UNL     1      17.012 -32.445 -22.097  1.00  0.00     0.278 HD
BRANCH   4   7
HETATM    7  C5  UNL     1      15.437 -33.725 -22.094  1.00  0.00     0.187 C 
HETATM    8  C4  UNL     1      15.872 -34.079 -20.675  1.00  0.00     0.035 C 
HETATM    9  C3  UNL     1      17.295 -34.604 -20.680  1.00  0.00     0.035 C 
HETATM   10  C2  UNL     1      17.383 -35.894 -21.446  1.00  0.00     0.185 C 
HETATM   11  C9  UNL     1      16.167 -36.054 -22.339  1.00  0.00     0.035 C 
HETATM   12  C8  UNL     1      15.783 -34.789 -23.068  1.00  0.00     0.035 C 
BRANCH  10  13
HETATM   13  N1  UNL     1      17.341 -37.057 -20.582  1.00  0.00    -0.075 N 
HETATM   14  C1  UNL     1      17.305 -38.298 -21.324  1.00  0.00     0.267 C 
ATOM     15  H12 UNL     1      16.562 -36.999 -19.926  1.00  0.00     0.277 HD
ATOM     16  H11 UNL     1      18.116 -37.049 -19.918  1.00  0.00     0.277 HD
ENDBRANCH  10  13
ENDBRANCH   4   7
ENDBRANCH   1   4
TORSDOF 3
ENDMDL
MODEL 3
REMARK VINA RESULT: -4.301336137      7.822      8.242
REMARK  3 active torsions:
REMARK  status: ('A' for Active; 'I' for Inactive)
REMARK    1  A    between atoms: N1_2  and  C2_5 
REMARK    2  A    between atoms: C5_8  and  N2_9 
REMARK    3  A    between atoms: N2_9  and  C6_12 
ROOT
HETATM    1  C6  UNL     1      14.742 -31.538 -22.361  1.00  0.00     0.355 C 
HETATM    2  C7  UNL     1      13.738 -30.773 -21.574  1.00  0.00     0.086 C 
HETATM    3  N3  UNL     1      12.941 -30.167 -20.977  1.00  0.00    -0.196 NA
ENDROOT
BRANCH   1   4
HETATM    4  N2  UNL     1      14.983 -32.765 -21.625  1.00  0.00    -0.059 N 
ATOM      5  H22 UNL     1      14.295 -33.474 -21.877  1.00  0.00     0.278 HD
ATOM      6  H21 UNL     1      14.752 -32.643 -20.639  1.00  0.00     0.278 HD
BRANCH   4   7
HETATM    7  C5  UNL     1      16.312 -33.280 -21.770  1.00  0.00     0.187 C 
HETATM    8  C4  UNL     1      16.332 -34.225 -22.968  1.00  0.00     0.035 C 
HETATM    9  C3  UNL     1      15.681 -35.545 -22.602  1.00  0.00     0.035 C 
HETATM   10  C2  UNL     1      16.473 -36.251 -21.539  1.00  0.00     0.185 C 
HETATM   11  C9  UNL     1      17.402 -35.273 -20.843  1.00  0.00     0.035 C 
HETATM   12  C8  UNL     1      16.751 -33.948 -20.522  1.00  0.00     0.035 C 
BRANCH  10  13
HETATM   13  N1  UNL     1      17.365 -37.256 -22.083  1.00  0.00    -0.075 N 
HETATM   14  C1  UNL     1      17.666 -38.305 -21.134  1.00  0.00     0.267 C 
ATOM     15  H12 UNL     1      18.219 -36.830 -22.444  1.00  0.00     0.277 HD
ATOM     16  H11 UNL     1      16.995 -37.642 -22.952  1.00  0.00     0.277 HD
ENDBRANCH  10  13
ENDBRANCH   4   7
ENDBRANCH   1   4
TORSDOF 3
ENDMDL
MODEL 4
REMARK VINA RESULT: -4.298686940      1.432      1.701
REMARK  3 active torsions:
REMARK  status: ('A' for Active; 'I' for Inactive)
REMARK    1  A    between atoms: N1_2  and  C2_5 
REMARK    2  A    between atoms: C5_8  and  N2_9 
REMARK    3  A    between atoms: N2_9  and  C6_12 
ROOT
HETATM    1  C6  UNL     1      21.876 -31.798 -15.667  1.00  0.00     0.355 C 
HETATM    2  C7  UNL     1      22.096 -30.813 -16.759  1.00  0.00     0.086 C 
HETATM    3  N3  UNL     1      22.286 -30.030 -17.602  1.00  0.00    -0.196 NA
ENDROOT
BRANCH   1   4
HETATM    4  N2  UNL     1      21.689 -33.084 -16.313  1.00  0.00    -0.059 N 
ATOM      5  H22 UNL     1      21.341 -32.959 -17.264  1.00  0.00     0.278 HD
ATOM      6  H21 UNL     1      20.897 -33.578 -15.903  1.00  0.00     0.278 HD
BRANCH   4   7
HETATM    7  C5  UNL     1      22.857 -33.914 -16.310  1.00  0.00     0.187 C 
HETATM    8  C4  UNL     1      22.957 -34.604 -17.667  1.00  0.00     0.035 C 
HETATM    9  C3  UNL     1      21.950 -35.736 -17.753  1.00  0.00     0.035 C 
HETATM   10  C2  UNL     1      22.266 -36.806 -16.748  1.00  0.00     0.185 C 
HETATM   11  C9  UNL     1      23.191 -36.260 -15.675  1.00  0.00     0.035 C 
HETATM   12  C8  UNL     1      22.802 -34.883 -15.190  1.00  0.00     0.035 C 
BRANCH  10  13
HETATM   13  N1  UNL     1      23.010 -37.908 -17.325  1.00  0.00    -0.075 N 
HETATM   14  C1  UNL     1      22.541 -38.263 -18.647  1.00  0.00     0.267 C 
ATOM     15  H12 UNL     1      23.006 -38.718 -16.705  1.00  0.00     0.277 HD
ATOM     16  H11 UNL     1      24.011 -37.712 -17.332  1.00  0.00     0.277 HD
ENDBRANCH  10  13
ENDBRANCH   4   7
ENDBRANCH   1   4
TORSDOF 3
ENDMDL
MODEL 5
REMARK VINA RESULT: -4.291646454      7.685      8.122
REMARK  3 active torsions:
REMARK  status: ('A' for Active; 'I' for Inactive)
REMARK    1  A    between atoms: N1_2  and  C2_5 
REMARK    2  A    between atoms: C5_8  and  N2_9 
REMARK    3  A    between atoms: N2_9  and  C6_12 
ROOT
HETATM    1  C6  UNL     1      14.795 -31.862 -22.088  1.00  0.00     0.355 C 
HETATM    2  C7  UNL     1      15.103 -31.846 -23.543  1.00  0.00     0.086 C 
HETATM    3  N3  UNL     1      15.354 -31.811 -24.681  1.00  0.00    -0.196 NA
ENDROOT
BRANCH   1   4
HETATM    4  N2  UNL     1      15.055 -33.215 -21.634  1.00  0.00    -0.059 N 
ATOM      5  H22 UNL     1      14.405 -33.869 -22.069  1.00  0.00     0.278 HD
ATOM      6  H21 UNL     1      14.782 -33.323 -20.657  1.00  0.00     0.278 HD
BRANCH   4   7
HETATM    7  C5  UNL     1      16.408 -33.645 -21.828  1.00  0.00     0.187 C 
HETATM    8  C4  UNL     1      16.415 -34.732 -22.898  1.00  0.00     0.035 C 
HETATM    9  C3  UNL     1      15.907 -36.039 -22.319  1.00  0.00     0.035 C 
HETATM   10  C2  UNL     1      16.833 -36.542 -21.249  1.00  0.00     0.185 C 
HETATM   11  C9  UNL     1      17.727 -35.416 -20.761  1.00  0.00     0.035 C 
HETATM   12  C8  UNL     1      16.994 -34.113 -20.549  1.00  0.00     0.035 C 
BRANCH  10  13
HETATM   13  N1  UNL     1      17.762 -37.540 -21.742  1.00  0.00    -0.075 N 
HETATM   14  C1  UNL     1      17.759 -38.745 -20.941  1.00  0.00     0.267 C 
ATOM     15  H12 UNL     1      18.704 -37.156 -21.823  1.00  0.00     0.277 HD
ATOM     16  H11 UNL     1      17.586 -37.752 -22.724  1.00  0.00     0.277 HD
ENDBRANCH  10  13
ENDBRANCH   4   7
ENDBRANCH   1   4
TORSDOF 3
ENDMDL
