MODEL 1
REMARK VINA RESULT: -4.544873315      0.000      0.000
REMARK  4 active torsions:
REMARK  status: ('A' for Active; 'I' for Inactive)
REMARK    1  A    between atoms: N3_8  and  C4_10 
REMARK    2  A    between atoms: C4_10  and  C5_11 
REMARK    3  A    between atoms: C5_11  and  C6_12 
REMARK    4  A    between atoms: C6_12  and  N4_13 
ROOT
HETATM    1  C1  UNL     1      18.666 -39.700 -20.870  1.00  0.00     0.070 C 
HETATM    2  C2  UNL     1      17.991 -38.368 -20.979  1.00  0.00     0.031 A 
HETATM    3  N1  UNL     1      16.686 -38.251 -21.271  1.00  0.00    -0.303 N 
ATOM      4  H1  UNL     1      16.043 -39.024 -21.442  1.00  0.00     0.186 HD
HETATM    5  N2  UNL     1      16.374 -36.970 -21.301  1.00  0.00    -0.285 N 
ATOM      6  H2  UNL     1      15.448 -36.593 -21.499  1.00  0.00     0.188 HD
HETATM    7  C3  UNL     1      17.458 -36.248 -21.031  1.00  0.00     0.123 A 
HETATM    8  N3  UNL     1      17.483 -34.940 -20.983  1.00  0.00    -0.375 N 
ATOM      9  H3  UNL     1      18.366 -34.477 -20.768  1.00  0.00     0.161 HD
HETATM   10  C7  UNL     1      18.497 -37.119 -20.824  1.00  0.00     0.007 A 
HETATM   11  C8  UNL     1      19.892 -36.784 -20.497  1.00  0.00     0.054 C 
ENDROOT
BRANCH   8  12
HETATM   12  C4  UNL     1      16.334 -34.133 -21.217  1.00  0.00     0.123 C 
BRANCH  12  13
HETATM   13  C5  UNL     1      15.983 -34.009 -22.685  1.00  0.00     0.047 C 
BRANCH  13  14
HETATM   14  C6  UNL     1      15.921 -32.576 -23.129  1.00  0.00     0.231 C 
BRANCH  14  15
HETATM   15  N4  UNL     1      16.722 -32.435 -24.330  1.00  0.00    -0.079 N 
ATOM     16  H43 UNL     1      17.701 -32.231 -24.128  1.00  0.00     0.274 HD
ATOM     17  H42 UNL     1      16.863 -33.321 -24.815  1.00  0.00     0.274 HD
ATOM     18  H41 UNL     1      16.289 -31.727 -24.924  1.00  0.00     0.274 HD
ENDBRANCH  14  15
ENDBRANCH  13  14
ENDBRANCH  12  13
ENDBRANCH   8  12
TORSDOF 4
ENDMDL
MODEL 2
REMARK VINA RESULT: -4.375814277      2.094      3.775
REMARK  4 active torsions:
REMARK  status: ('A' for Active; 'I' for Inactive)
REMARK    1  A    between atoms: N3_8  and  C4_10 
REMARK    2  A    between atoms: C4_10  and  C5_11 
REMARK    3  A    between atoms: C5_11  and  C6_12 
REMARK    4  A    between atoms: C6_12  and  N4_13 
ROOT
HETATM    1  C1  UNL     1      20.027 -42.659 -21.135  1.00  0.00     0.070 C 
HETATM    2  C2  UNL     1      19.429 -41.288 -21.065  1.00  0.00     0.031 A 
HETATM    3  N1  UNL     1      20.176 -40.193 -20.850  1.00  0.00    -0.303 N 
ATOM      4  H1  UNL     1      21.187 -40.180 -20.718  1.00  0.00     0.186 HD
HETATM    5  N2  UNL     1      19.384 -39.139 -20.839  1.00  0.00    -0.285 N 
ATOM      6  H2  UNL     1      19.686 -38.176 -20.695  1.00  0.00     0.188 HD
HETATM    7  C3  UNL     1      18.129 -39.530 -21.044  1.00  0.00     0.123 A 
HETATM    8  N3  UNL     1      17.100 -38.721 -21.090  1.00  0.00    -0.375 N 
ATOM      9  H3  UNL     1      16.175 -39.119 -21.252  1.00  0.00     0.161 HD
HETATM   10  C7  UNL     1      18.137 -40.893 -21.189  1.00  0.00     0.007 A 
HETATM   11  C8  UNL     1      16.982 -41.772 -21.433  1.00  0.00     0.054 C 
ENDROOT
BRANCH   8  12
HETATM   12  C4  UNL     1      17.213 -37.312 -20.923  1.00  0.00     0.123 C 
BRANCH  12  13
HETATM   13  C5  UNL     1      16.501 -36.526 -22.005  1.00  0.00     0.047 C 
BRANCH  13  14
HETATM   14  C6  UNL     1      16.245 -35.106 -21.591  1.00  0.00     0.231 C 
BRANCH  14  15
HETATM   15  N4  UNL     1      17.334 -34.677 -20.733  1.00  0.00    -0.079 N 
ATOM     16  H43 UNL     1      18.151 -35.284 -20.803  1.00  0.00     0.274 HD
ATOM     17  H42 UNL     1      17.773 -33.816 -21.058  1.00  0.00     0.274 HD
ATOM     18  H41 UNL     1      16.981 -34.602 -19.779  1.00  0.00     0.274 HD
ENDBRANCH  14  15
ENDBRANCH  13  14
ENDBRANCH  12  13
ENDBRANCH   8  12
TORSDOF 4
ENDMDL
MODEL 3
REMARK VINA RESULT: -4.262830646      5.728      6.896
REMARK  4 active torsions:
REMARK  status: ('A' for Active; 'I' for Inactive)
REMARK    1  A    between atoms: N3_8  and  C4_10 
REMARK    2  A    between atoms: C4_10  and  C5_11 
REMARK    3  A    between atoms: C5_11  and  C6_12 
REMARK    4  A    between atoms: C6_12  and  N4_13 
ROOT
HETATM    1  C1  UNL     1      22.902 -38.967 -19.242  1.00  0.00     0.070 C 
HETATM    2  C2  UNL     1      22.564 -37.883 -18.266  1.00  0.00     0.031 A 
HETATM    3  N1  UNL     1      23.021 -37.892 -17.004  1.00  0.00    -0.303 N 
ATOM      4  H1  UNL     1      23.621 -38.607 -16.593  1.00  0.00     0.186 HD
HETATM    5  N2  UNL     1      22.564 -36.821 -16.384  1.00  0.00    -0.285 N 
ATOM      6  H2  UNL     1      22.755 -36.576 -15.413  1.00  0.00     0.188 HD
HETATM    7  C3  UNL     1      21.816 -36.112 -17.224  1.00  0.00     0.123 A 
HETATM    8  N3  UNL     1      21.216 -34.991 -16.914  1.00  0.00    -0.375 N 
ATOM      9  H3  UNL     1      20.662 -34.521 -17.631  1.00  0.00     0.161 HD
HETATM   10  C7  UNL     1      21.803 -36.772 -18.426  1.00  0.00     0.007 A 
HETATM   11  C8  UNL     1      21.107 -36.368 -19.659  1.00  0.00     0.054 C 
ENDROOT
BRANCH   8  12
HETATM   12  C4  UNL     1      21.300 -34.396 -15.624  1.00  0.00     0.123 C 
BRANCH  12  13
HETATM   13  C5  UNL     1      21.047 -32.903 -15.639  1.00  0.00     0.047 C 
BRANCH  13  14
HETATM   14  C6  UNL     1      22.160 -32.151 -16.309  1.00  0.00     0.231 C 
BRANCH  14  15
HETATM   15  N4  UNL     1      21.966 -30.734 -16.065  1.00  0.00    -0.079 N 
ATOM     16  H43 UNL     1      22.413 -30.149 -16.771  1.00  0.00     0.274 HD
ATOM     17  H42 UNL     1      21.004 -30.436 -16.227  1.00  0.00     0.274 HD
ATOM     18  H41 UNL     1      22.288 -30.524 -15.120  1.00  0.00     0.274 HD
ENDBRANCH  14  15
ENDBRANCH  13  14
ENDBRANCH  12  13
ENDBRANCH   8  12
TORSDOF 4
ENDMDL
MODEL 4
REMARK VINA RESULT: -4.225914055      5.585      6.587
REMARK  4 active torsions:
REMARK  status: ('A' for Active; 'I' for Inactive)
REMARK    1  A    between atoms: N3_8  and  C4_10 
REMARK    2  A    between atoms: C4_10  and  C5_11 
REMARK    3  A    between atoms: C5_11  and  C6_12 
REMARK    4  A    between atoms: C6_12  and  N4_13 
ROOT
HETATM    1  C1  UNL     1      22.943 -39.156 -19.625  1.00  0.00     0.070 C 
HETATM    2  C2  UNL     1      22.565 -38.125 -18.606  1.00  0.00     0.031 A 
HETATM    3  N1  UNL     1      22.991 -38.188 -17.335  1.00  0.00    -0.303 N 
ATOM      4  H1  UNL     1      23.593 -38.913 -16.944  1.00  0.00     0.186 HD
HETATM    5  N2  UNL     1      22.502 -37.156 -16.676  1.00  0.00    -0.285 N 
ATOM      6  H2  UNL     1      22.665 -36.955 -15.690  1.00  0.00     0.188 HD
HETATM    7  C3  UNL     1      21.763 -36.419 -17.500  1.00  0.00     0.123 A 
HETATM    8  N3  UNL     1      21.137 -35.322 -17.152  1.00  0.00    -0.375 N 
ATOM      9  H3  UNL     1      20.593 -34.827 -17.859  1.00  0.00     0.161 HD
HETATM   10  C7  UNL     1      21.790 -37.020 -18.732  1.00  0.00     0.007 A 
HETATM   11  C8  UNL     1      21.117 -36.568 -19.961  1.00  0.00     0.054 C 
ENDROOT
BRANCH   8  12
HETATM   12  C4  UNL     1      21.181 -34.789 -15.833  1.00  0.00     0.123 C 
BRANCH  12  13
HETATM   13  C5  UNL     1      19.909 -35.037 -15.049  1.00  0.00     0.047 C 
BRANCH  13  14
HETATM   14  C6  UNL     1      18.887 -33.962 -15.284  1.00  0.00     0.231 C 
BRANCH  14  15
HETATM   15  N4  UNL     1      19.581 -32.746 -15.663  1.00  0.00    -0.079 N 
ATOM     16  H43 UNL     1      18.992 -31.917 -15.584  1.00  0.00     0.274 HD
ATOM     17  H42 UNL     1      20.294 -32.474 -14.987  1.00  0.00     0.274 HD
ATOM     18  H41 UNL     1      19.958 -32.871 -16.603  1.00  0.00     0.274 HD
ENDBRANCH  14  15
ENDBRANCH  13  14
ENDBRANCH  12  13
ENDBRANCH   8  12
TORSDOF 4
ENDMDL
MODEL 5
REMARK VINA RESULT: -4.176530426      2.265      5.767
REMARK  4 active torsions:
REMARK  status: ('A' for Active; 'I' for Inactive)
REMARK    1  A    between atoms: N3_8  and  C4_10 
REMARK    2  A    between atoms: C4_10  and  C5_11 
REMARK    3  A    between atoms: C5_11  and  C6_12 
REMARK    4  A    between atoms: C6_12  and  N4_13 
ROOT
HETATM    1  C1  UNL     1      17.233 -35.033 -21.033  1.00  0.00     0.070 C 
HETATM    2  C2  UNL     1      17.465 -36.513 -21.078  1.00  0.00     0.031 A 
HETATM    3  N1  UNL     1      16.488 -37.379 -21.388  1.00  0.00    -0.303 N 
ATOM      4  H1  UNL     1      15.525 -37.133 -21.617  1.00  0.00     0.186 HD
HETATM    5  N2  UNL     1      16.981 -38.601 -21.347  1.00  0.00    -0.285 N 
ATOM      6  H2  UNL     1      16.458 -39.455 -21.540  1.00  0.00     0.188 HD
HETATM    7  C3  UNL     1      18.268 -38.545 -21.015  1.00  0.00     0.123 A 
HETATM    8  N3  UNL     1      19.046 -39.591 -20.889  1.00  0.00    -0.375 N 
ATOM      9  H3  UNL     1      20.021 -39.443 -20.629  1.00  0.00     0.161 HD
HETATM   10  C7  UNL     1      18.594 -37.225 -20.838  1.00  0.00     0.007 A 
HETATM   11  C8  UNL     1      19.906 -36.671 -20.464  1.00  0.00     0.054 C 
ENDROOT
BRANCH   8  12
HETATM   12  C4  UNL     1      18.594 -40.924 -21.098  1.00  0.00     0.123 C 
BRANCH  12  13
HETATM   13  C5  UNL     1      18.059 -41.575 -19.839  1.00  0.00     0.047 C 
BRANCH  13  14
HETATM   14  C6  UNL     1      17.049 -42.643 -20.145  1.00  0.00     0.231 C 
BRANCH  14  15
HETATM   15  N4  UNL     1      16.273 -42.222 -21.296  1.00  0.00    -0.079 N 
ATOM     16  H43 UNL     1      16.392 -41.231 -21.508  1.00  0.00     0.274 HD
ATOM     17  H42 UNL     1      16.636 -42.596 -22.172  1.00  0.00     0.274 HD
ATOM     18  H41 UNL     1      15.298 -42.474 -21.135  1.00  0.00     0.274 HD
ENDBRANCH  14  15
ENDBRANCH  13  14
ENDBRANCH  12  13
ENDBRANCH   8  12
TORSDOF 4
ENDMDL
