MODEL 1
REMARK VINA RESULT: -5.138313493      0.000      0.000
REMARK  5 active torsions:
REMARK  status: ('A' for Active; 'I' for Inactive)
REMARK    1  A    between atoms: N1_1  and  C1_5 
REMARK    2  A    between atoms: C1_5  and  C2_6 
REMARK    3  A    between atoms: C2_6  and  C3_7 
REMARK    4  A    between atoms: C3_7  and  N2_8 
REMARK    5  A    between atoms: N2_8  and  C4_10 
ROOT
HETATM    1  N2  UNL     1      16.162 -34.803 -20.950  1.00  0.00    -0.376 N 
ATOM      2  H2  UNL     1      15.640 -34.945 -20.086  1.00  0.00     0.161 HD
ENDROOT
BRANCH   1   3
HETATM    3  C3  UNL     1      17.217 -35.710 -21.260  1.00  0.00     0.123 C 
BRANCH   3   4
HETATM    4  C2  UNL     1      16.589 -37.075 -21.558  1.00  0.00     0.047 C 
BRANCH   4   5
HETATM    5  C1  UNL     1      17.584 -38.128 -21.129  1.00  0.00     0.231 C 
BRANCH   5   6
HETATM    6  N1  UNL     1      18.887 -37.496 -21.050  1.00  0.00    -0.079 N 
ATOM      7  H13 UNL     1      19.648 -38.120 -21.315  1.00  0.00     0.274 HD
ATOM      8  H12 UNL     1      19.031 -36.793 -21.775  1.00  0.00     0.274 HD
ATOM      9  H11 UNL     1      18.992 -37.121 -20.107  1.00  0.00     0.274 HD
ENDBRANCH   5   6
ENDBRANCH   4   5
ENDBRANCH   3   4
ENDBRANCH   1   3
BRANCH   1  10
HETATM   10  C4  UNL     1      15.837 -33.811 -21.707  1.00  0.00     0.102 A 
HETATM   11  C5  UNL     1      16.415 -33.692 -22.962  1.00  0.00     0.074 A 
HETATM   12  C6  UNL     1      16.087 -32.640 -23.802  1.00  0.00     0.051 A 
HETATM   13  N3  UNL     1      16.688 -32.535 -25.080  1.00  0.00    -0.102 NA
HETATM   14  C7  UNL     1      15.176 -31.684 -23.407  1.00  0.00     0.043 A 
HETATM   15  C8  UNL     1      14.613 -31.821 -22.157  1.00  0.00     0.091 A 
HETATM   16  N4  UNL     1      14.953 -32.863 -21.355  1.00  0.00    -0.352 N 
ATOM     17  H4  UNL     1      14.514 -32.929 -20.436  1.00  0.00     0.166 HD
ENDBRANCH   1  10
TORSDOF 5
ENDMDL
MODEL 2
REMARK VINA RESULT: -5.106774071      1.181      2.044
REMARK  5 active torsions:
REMARK  status: ('A' for Active; 'I' for Inactive)
REMARK    1  A    between atoms: N1_1  and  C1_5 
REMARK    2  A    between atoms: C1_5  and  C2_6 
REMARK    3  A    between atoms: C2_6  and  C3_7 
REMARK    4  A    between atoms: C3_7  and  N2_8 
REMARK    5  A    between atoms: N2_8  and  C4_10 
ROOT
HETATM    1  N2  UNL     1      16.302 -35.092 -21.364  1.00  0.00    -0.376 N 
ATOM      2  H2  UNL     1      16.480 -34.967 -20.368  1.00  0.00     0.161 HD
ENDROOT
BRANCH   1   3
HETATM    3  C3  UNL     1      16.421 -36.402 -21.914  1.00  0.00     0.123 C 
BRANCH   3   4
HETATM    4  C2  UNL     1      17.672 -37.050 -21.313  1.00  0.00     0.047 C 
BRANCH   4   5
HETATM    5  C1  UNL     1      17.367 -38.519 -21.125  1.00  0.00     0.231 C 
BRANCH   5   6
HETATM    6  N1  UNL     1      18.631 -39.215 -20.982  1.00  0.00    -0.079 N 
ATOM      7  H13 UNL     1      19.169 -39.244 -21.848  1.00  0.00     0.274 HD
ATOM      8  H12 UNL     1      19.308 -38.698 -20.422  1.00  0.00     0.274 HD
ATOM      9  H11 UNL     1      18.433 -40.143 -20.608  1.00  0.00     0.274 HD
ENDBRANCH   5   6
ENDBRANCH   4   5
ENDBRANCH   3   4
ENDBRANCH   1   3
BRANCH   1  10
HETATM   10  C4  UNL     1      15.981 -34.058 -22.064  1.00  0.00     0.102 A 
HETATM   11  C5  UNL     1      15.200 -33.063 -21.494  1.00  0.00     0.074 A 
HETATM   12  C6  UNL     1      14.838 -31.938 -22.217  1.00  0.00     0.051 A 
HETATM   13  N3  UNL     1      14.041 -30.933 -21.619  1.00  0.00    -0.102 NA
HETATM   14  C7  UNL     1      15.245 -31.783 -23.525  1.00  0.00     0.043 A 
HETATM   15  C8  UNL     1      16.020 -32.782 -24.072  1.00  0.00     0.091 A 
HETATM   16  N4  UNL     1      16.361 -33.874 -23.339  1.00  0.00    -0.352 N 
ATOM     17  H4  UNL     1      16.935 -34.592 -23.781  1.00  0.00     0.166 HD
ENDBRANCH   1  10
TORSDOF 5
ENDMDL
MODEL 3
REMARK VINA RESULT: -4.370594167      1.626      2.307
REMARK  5 active torsions:
REMARK  status: ('A' for Active; 'I' for Inactive)
REMARK    1  A    between atoms: N1_1  and  C1_5 
REMARK    2  A    between atoms: C1_5  and  C2_6 
REMARK    3  A    between atoms: C2_6  and  C3_7 
REMARK    4  A    between atoms: C3_7  and  N2_8 
REMARK    5  A    between atoms: N2_8  and  C4_10 
ROOT
HETATM    1  N2  UNL     1      16.628 -37.173 -21.610  1.00  0.00    -0.376 N 
ATOM      2  H2  UNL     1      15.805 -37.733 -21.831  1.00  0.00     0.161 HD
ENDROOT
BRANCH   1   3
HETATM    3  C3  UNL     1      17.818 -37.846 -21.209  1.00  0.00     0.123 C 
BRANCH   3   4
HETATM    4  C2  UNL     1      17.462 -39.312 -20.949  1.00  0.00     0.047 C 
BRANCH   4   5
HETATM    5  C1  UNL     1      18.761 -40.084 -20.887  1.00  0.00     0.231 C 
BRANCH   5   6
HETATM    6  N1  UNL     1      19.844 -39.119 -20.857  1.00  0.00    -0.079 N 
ATOM      7  H13 UNL     1      19.597 -38.261 -20.364  1.00  0.00     0.274 HD
ATOM      8  H12 UNL     1      20.613 -39.406 -20.251  1.00  0.00     0.274 HD
ATOM      9  H11 UNL     1      20.138 -38.954 -21.819  1.00  0.00     0.274 HD
ENDBRANCH   5   6
ENDBRANCH   4   5
ENDBRANCH   3   4
ENDBRANCH   1   3
BRANCH   1  10
HETATM   10  C4  UNL     1      16.540 -35.890 -21.708  1.00  0.00     0.102 A 
HETATM   11  C5  UNL     1      16.026 -35.327 -22.867  1.00  0.00     0.074 A 
HETATM   12  C6  UNL     1      15.916 -33.953 -23.005  1.00  0.00     0.051 A 
HETATM   13  N3  UNL     1      15.389 -33.397 -24.195  1.00  0.00    -0.102 NA
HETATM   14  C7  UNL     1      16.318 -33.111 -21.990  1.00  0.00     0.043 A 
HETATM   15  C8  UNL     1      16.825 -33.690 -20.848  1.00  0.00     0.091 A 
HETATM   16  N4  UNL     1      16.920 -35.041 -20.740  1.00  0.00    -0.352 N 
ATOM     17  H4  UNL     1      17.302 -35.430 -19.878  1.00  0.00     0.166 HD
ENDBRANCH   1  10
TORSDOF 5
ENDMDL
MODEL 4
REMARK VINA RESULT: -4.305621006      1.449      5.389
REMARK  5 active torsions:
REMARK  status: ('A' for Active; 'I' for Inactive)
REMARK    1  A    between atoms: N1_1  and  C1_5 
REMARK    2  A    between atoms: C1_5  and  C2_6 
REMARK    3  A    between atoms: C2_6  and  C3_7 
REMARK    4  A    between atoms: C3_7  and  N2_8 
REMARK    5  A    between atoms: N2_8  and  C4_10 
ROOT
HETATM    1  N2  UNL     1      16.148 -34.398 -21.124  1.00  0.00    -0.376 N 
ATOM      2  H2  UNL     1      15.284 -34.427 -20.583  1.00  0.00     0.161 HD
ENDROOT
BRANCH   1   3
HETATM    3  C3  UNL     1      16.411 -33.244 -21.918  1.00  0.00     0.123 C 
BRANCH   3   4
HETATM    4  C2  UNL     1      15.826 -33.492 -23.312  1.00  0.00     0.047 C 
BRANCH   4   5
HETATM    5  C1  UNL     1      16.056 -32.237 -24.124  1.00  0.00     0.231 C 
BRANCH   5   6
HETATM    6  N1  UNL     1      14.822 -31.476 -24.116  1.00  0.00    -0.079 N 
ATOM      7  H13 UNL     1      14.060 -31.961 -23.643  1.00  0.00     0.274 HD
ATOM      8  H12 UNL     1      14.863 -30.662 -23.504  1.00  0.00     0.274 HD
ATOM      9  H11 UNL     1      14.601 -31.236 -25.082  1.00  0.00     0.274 HD
ENDBRANCH   5   6
ENDBRANCH   4   5
ENDBRANCH   3   4
ENDBRANCH   1   3
BRANCH   1  10
HETATM   10  C4  UNL     1      16.949 -35.406 -21.055  1.00  0.00     0.102 A 
HETATM   11  C5  UNL     1      16.499 -36.663 -21.432  1.00  0.00     0.074 A 
HETATM   12  C6  UNL     1      17.332 -37.767 -21.371  1.00  0.00     0.051 A 
HETATM   13  N3  UNL     1      16.855 -39.042 -21.760  1.00  0.00    -0.102 NA
HETATM   14  C7  UNL     1      18.633 -37.641 -20.931  1.00  0.00     0.043 A 
HETATM   15  C8  UNL     1      19.061 -36.386 -20.562  1.00  0.00     0.091 A 
HETATM   16  N4  UNL     1      18.221 -35.320 -20.632  1.00  0.00    -0.352 N 
ATOM     17  H4  UNL     1      18.575 -34.406 -20.349  1.00  0.00     0.166 HD
ENDBRANCH   1  10
TORSDOF 5
ENDMDL
MODEL 5
REMARK VINA RESULT: -4.187510056      1.344      5.308
REMARK  5 active torsions:
REMARK  status: ('A' for Active; 'I' for Inactive)
REMARK    1  A    between atoms: N1_1  and  C1_5 
REMARK    2  A    between atoms: C1_5  and  C2_6 
REMARK    3  A    between atoms: C2_6  and  C3_7 
REMARK    4  A    between atoms: C3_7  and  N2_8 
REMARK    5  A    between atoms: N2_8  and  C4_10 
ROOT
HETATM    1  N2  UNL     1      16.004 -34.306 -21.137  1.00  0.00    -0.376 N 
ATOM      2  H2  UNL     1      15.193 -34.249 -20.521  1.00  0.00     0.161 HD
ENDROOT
BRANCH   1   3
HETATM    3  C3  UNL     1      16.331 -33.170 -21.933  1.00  0.00     0.123 C 
BRANCH   3   4
HETATM    4  C2  UNL     1      15.877 -33.455 -23.367  1.00  0.00     0.047 C 
BRANCH   4   5
HETATM    5  C1  UNL     1      16.045 -32.175 -24.153  1.00  0.00     0.231 C 
BRANCH   5   6
HETATM    6  N1  UNL     1      14.790 -31.452 -24.089  1.00  0.00    -0.079 N 
ATOM      7  H13 UNL     1      14.652 -30.974 -23.199  1.00  0.00     0.274 HD
ATOM      8  H12 UNL     1      14.778 -30.626 -24.687  1.00  0.00     0.274 HD
ATOM      9  H11 UNL     1      14.042 -32.110 -24.306  1.00  0.00     0.274 HD
ENDBRANCH   5   6
ENDBRANCH   4   5
ENDBRANCH   3   4
ENDBRANCH   1   3
BRANCH   1  10
HETATM   10  C4  UNL     1      16.682 -35.403 -21.158  1.00  0.00     0.102 A 
HETATM   11  C5  UNL     1      17.995 -35.402 -20.711  1.00  0.00     0.074 A 
HETATM   12  C6  UNL     1      18.752 -36.562 -20.719  1.00  0.00     0.051 A 
HETATM   13  N3  UNL     1      20.090 -36.543 -20.259  1.00  0.00    -0.102 NA
HETATM   14  C7  UNL     1      18.214 -37.748 -21.173  1.00  0.00     0.043 A 
HETATM   15  C8  UNL     1      16.909 -37.727 -21.612  1.00  0.00     0.091 A 
HETATM   16  N4  UNL     1      16.191 -36.574 -21.593  1.00  0.00    -0.352 N 
ATOM     17  H4  UNL     1      15.227 -36.600 -21.927  1.00  0.00     0.166 HD
ENDBRANCH   1  10
TORSDOF 5
ENDMDL
