MODEL 1
REMARK VINA RESULT: -6.467206865      0.000      0.000
REMARK  0 active torsions:
REMARK  status: ('A' for Active; 'I' for Inactive)
ROOT
HETATM    1  C1  UNL     1       2.876  10.178   1.521  1.00  0.00    -0.030 C 
HETATM    2  C2  UNL     1       3.651   9.879   0.997  1.00  0.00    -0.030 C 
HETATM    3  C3  UNL     1       4.463   9.040   0.260  1.00  0.00     0.026 C 
HETATM    4  C4  UNL     1       3.467   7.690   0.508  1.00  0.00     0.004 C 
HETATM    5  C5  UNL     1       2.089   8.293   0.515  1.00  0.00     0.001 C 
HETATM    6  C6  UNL     1       1.428   8.484   1.849  1.00  0.00     0.004 C 
HETATM    7  C7  UNL     1       1.657  10.120   2.158  1.00  0.00     0.026 C 
ENDROOT
TORSDOF 0
ENDMDL
MODEL 2
REMARK VINA RESULT: -6.350535503      0.521      3.016
REMARK  0 active torsions:
REMARK  status: ('A' for Active; 'I' for Inactive)
ROOT
HETATM    1  C1  UNL     1       3.211   8.082   0.613  1.00  0.00    -0.030 C 
HETATM    2  C2  UNL     1       2.336   8.089   1.061  1.00  0.00    -0.030 C 
HETATM    3  C3  UNL     1       1.270   8.562   1.798  1.00  0.00     0.026 C 
HETATM    4  C4  UNL     1       2.052  10.014   2.192  1.00  0.00     0.004 C 
HETATM    5  C5  UNL     1       2.852  10.305   0.952  1.00  0.00     0.001 C 
HETATM    6  C6  UNL     1       4.322  10.005   0.994  1.00  0.00     0.004 C 
HETATM    7  C7  UNL     1       4.436   8.538   0.180  1.00  0.00     0.026 C 
ENDROOT
TORSDOF 0
ENDMDL
MODEL 3
REMARK VINA RESULT: -6.063876317      0.688      2.385
REMARK  0 active torsions:
REMARK  status: ('A' for Active; 'I' for Inactive)
ROOT
HETATM    1  C1  UNL     1       3.015  10.374   1.921  1.00  0.00    -0.030 C 
HETATM    2  C2  UNL     1       2.197   9.833   1.978  1.00  0.00    -0.030 C 
HETATM    3  C3  UNL     1       1.295   8.826   1.698  1.00  0.00     0.026 C 
HETATM    4  C4  UNL     1       2.208   8.228   0.401  1.00  0.00     0.004 C 
HETATM    5  C5  UNL     1       3.622   8.451   0.861  1.00  0.00     0.001 C 
HETATM    6  C6  UNL     1       4.359   9.621   0.277  1.00  0.00     0.004 C 
HETATM    7  C7  UNL     1       4.257  10.781   1.489  1.00  0.00     0.026 C 
ENDROOT
TORSDOF 0
ENDMDL
MODEL 4
REMARK VINA RESULT: -5.960233024      0.831      2.304
REMARK  0 active torsions:
REMARK  status: ('A' for Active; 'I' for Inactive)
ROOT
HETATM    1  C1  UNL     1       4.051   9.529   0.665  1.00  0.00    -0.030 C 
HETATM    2  C2  UNL     1       3.500   8.739   0.472  1.00  0.00    -0.030 C 
HETATM    3  C3  UNL     1       2.437   7.861   0.541  1.00  0.00     0.026 C 
HETATM    4  C4  UNL     1       1.689   8.703   1.808  1.00  0.00     0.004 C 
HETATM    5  C5  UNL     1       2.018  10.136   1.492  1.00  0.00     0.001 C 
HETATM    6  C6  UNL     1       3.115  10.783   2.286  1.00  0.00     0.004 C 
HETATM    7  C7  UNL     1       4.431  10.720   1.241  1.00  0.00     0.026 C 
ENDROOT
TORSDOF 0
ENDMDL
MODEL 5
REMARK VINA RESULT: -5.953615014      0.500      2.980
REMARK  0 active torsions:
REMARK  status: ('A' for Active; 'I' for Inactive)
ROOT
HETATM    1  C1  UNL     1       2.330   8.236   1.023  1.00  0.00    -0.030 C 
HETATM    2  C2  UNL     1       1.815   8.900   1.533  1.00  0.00    -0.030 C 
HETATM    3  C3  UNL     1       1.531  10.074   2.202  1.00  0.00     0.026 C 
HETATM    4  C4  UNL     1       3.120  10.652   2.076  1.00  0.00     0.004 C 
HETATM    5  C5  UNL     1       3.555  10.135   0.733  1.00  0.00     0.001 C 
HETATM    6  C6  UNL     1       4.451   8.931   0.716  1.00  0.00     0.004 C 
HETATM    7  C7  UNL     1       3.395   7.673   0.357  1.00  0.00     0.026 C 
ENDROOT
TORSDOF 0
ENDMDL
