MODEL 1
REMARK VINA RESULT: -5.787763172      0.000      0.000
REMARK  0 active torsions:
REMARK  status: ('A' for Active; 'I' for Inactive)
ROOT
HETATM    1  C1  UNL     1       2.995  10.542   2.158  1.00  0.00     0.001 C 
HETATM    2  C2  UNL     1       3.845  10.041   1.018  1.00  0.00     0.004 C 
HETATM    3  C3  UNL     1       3.341   8.763   0.418  1.00  0.00    -0.014 C 
HETATM    4  C4  UNL     1       1.875   8.782   0.096  1.00  0.00     0.009 C 
HETATM    5  C5  UNL     1       1.646   8.515   1.590  1.00  0.00    -0.014 C 
HETATM    6  C6  UNL     1       1.671   9.861   2.266  1.00  0.00     0.004 C 
HETATM    7  C7  UNL     1       2.995   7.835   1.591  1.00  0.00     0.009 C 
ENDROOT
TORSDOF 0
ENDMDL
MODEL 2
REMARK VINA RESULT: -5.715610759      0.419      2.077
REMARK  0 active torsions:
REMARK  status: ('A' for Active; 'I' for Inactive)
ROOT
HETATM    1  C1  UNL     1       2.523  10.460   2.194  1.00  0.00     0.001 C 
HETATM    2  C2  UNL     1       1.575   9.296   2.336  1.00  0.00     0.004 C 
HETATM    3  C3  UNL     1       1.808   8.214   1.325  1.00  0.00    -0.014 C 
HETATM    4  C4  UNL     1       3.245   7.793   1.209  1.00  0.00     0.009 C 
HETATM    5  C5  UNL     1       3.437   9.047   0.346  1.00  0.00    -0.014 C 
HETATM    6  C6  UNL     1       3.688  10.183   1.304  1.00  0.00     0.004 C 
HETATM    7  C7  UNL     1       1.981   8.911  -0.031  1.00  0.00     0.009 C 
ENDROOT
TORSDOF 0
ENDMDL
MODEL 3
REMARK VINA RESULT: -5.533772554      0.618      2.091
REMARK  0 active torsions:
REMARK  status: ('A' for Active; 'I' for Inactive)
ROOT
HETATM    1  C1  UNL     1       3.770  10.457   1.366  1.00  0.00     0.001 C 
HETATM    2  C2  UNL     1       2.417  10.348   2.022  1.00  0.00     0.004 C 
HETATM    3  C3  UNL     1       1.703   9.069   1.701  1.00  0.00    -0.014 C 
HETATM    4  C4  UNL     1       2.549   7.841   1.884  1.00  0.00     0.009 C 
HETATM    5  C5  UNL     1       3.164   8.184   0.520  1.00  0.00    -0.014 C 
HETATM    6  C6  UNL     1       4.269   9.172   0.794  1.00  0.00     0.004 C 
HETATM    7  C7  UNL     1       1.851   8.853   0.188  1.00  0.00     0.009 C 
ENDROOT
TORSDOF 0
ENDMDL
MODEL 4
REMARK VINA RESULT: -5.200348261      0.893      2.147
REMARK  0 active torsions:
REMARK  status: ('A' for Active; 'I' for Inactive)
ROOT
HETATM    1  C1  UNL     1       4.483   9.131   0.734  1.00  0.00     0.001 C 
HETATM    2  C2  UNL     1       3.788  10.319   1.351  1.00  0.00     0.004 C 
HETATM    3  C3  UNL     1       2.327  10.090   1.597  1.00  0.00    -0.014 C 
HETATM    4  C4  UNL     1       2.026   8.799   2.302  1.00  0.00     0.009 C 
HETATM    5  C5  UNL     1       2.202   8.128   0.933  1.00  0.00    -0.014 C 
HETATM    6  C6  UNL     1       3.679   7.875   0.775  1.00  0.00     0.004 C 
HETATM    7  C7  UNL     1       1.765   9.440   0.325  1.00  0.00     0.009 C 
ENDROOT
TORSDOF 0
ENDMDL
MODEL 5
REMARK VINA RESULT: -4.892840516      0.916      1.867
REMARK  0 active torsions:
REMARK  status: ('A' for Active; 'I' for Inactive)
ROOT
HETATM    1  C1  UNL     1       4.615   9.145   0.845  1.00  0.00     0.001 C 
HETATM    2  C2  UNL     1       3.824   7.874   0.657  1.00  0.00     0.004 C 
HETATM    3  C3  UNL     1       2.360   8.039   0.935  1.00  0.00    -0.014 C 
HETATM    4  C4  UNL     1       1.744   9.225   0.250  1.00  0.00     0.009 C 
HETATM    5  C5  UNL     1       2.353  10.067   1.379  1.00  0.00    -0.014 C 
HETATM    6  C6  UNL     1       3.769  10.369   0.960  1.00  0.00     0.004 C 
HETATM    7  C7  UNL     1       2.250   8.833   2.244  1.00  0.00     0.009 C 
ENDROOT
TORSDOF 0
ENDMDL
