MODEL 1
REMARK VINA RESULT: -5.848584718      0.000      0.000
REMARK  0 active torsions:
REMARK  status: ('A' for Active; 'I' for Inactive)
ROOT
HETATM    1  C1  UNL     1       1.805   8.371   1.528  1.00  0.00     0.001 C 
HETATM    2  C2  UNL     1       1.544   9.648   2.337  1.00  0.00     0.001 C 
HETATM    3  C3  UNL     1       2.823  10.439   2.112  1.00  0.00     0.009 C 
HETATM    4  C4  UNL     1       3.495   9.831   0.928  1.00  0.00    -0.040 A 
HETATM    5  C5  UNL     1       2.415   9.016   0.273  1.00  0.00     0.009 C 
HETATM    6  C6  UNL     1       4.815   9.131   1.057  1.00  0.00     0.010 A 
HETATM    7  C7  UNL     1       4.635  10.384   0.244  1.00  0.00     0.010 A 
ENDROOT
TORSDOF 0
ENDMDL
MODEL 2
REMARK VINA RESULT: -5.410229554      0.832      2.753
REMARK  0 active torsions:
REMARK  status: ('A' for Active; 'I' for Inactive)
ROOT
HETATM    1  C1  UNL     1       4.784  10.035   0.309  1.00  0.00     0.001 C 
HETATM    2  C2  UNL     1       4.487  10.922   1.525  1.00  0.00     0.001 C 
HETATM    3  C3  UNL     1       3.106  10.440   1.944  1.00  0.00     0.009 C 
HETATM    4  C4  UNL     1       2.902   9.117   1.289  1.00  0.00    -0.040 A 
HETATM    5  C5  UNL     1       4.284   8.696   0.875  1.00  0.00     0.009 C 
HETATM    6  C6  UNL     1       1.848   8.924   0.239  1.00  0.00     0.010 A 
HETATM    7  C7  UNL     1       1.815   8.212   1.564  1.00  0.00     0.010 A 
ENDROOT
TORSDOF 0
ENDMDL
MODEL 3
REMARK VINA RESULT: -5.180295913      0.982      3.036
REMARK  0 active torsions:
REMARK  status: ('A' for Active; 'I' for Inactive)
ROOT
HETATM    1  C1  UNL     1       4.469  10.032   0.892  1.00  0.00     0.001 C 
HETATM    2  C2  UNL     1       4.586   8.630   0.278  1.00  0.00     0.001 C 
HETATM    3  C3  UNL     1       3.343   7.940   0.818  1.00  0.00     0.009 C 
HETATM    4  C4  UNL     1       2.431   9.018   1.294  1.00  0.00    -0.040 A 
HETATM    5  C5  UNL     1       2.970  10.265   0.649  1.00  0.00     0.009 C 
HETATM    6  C6  UNL     1       2.090   9.163   2.748  1.00  0.00     0.010 A 
HETATM    7  C7  UNL     1       1.062   8.830   1.701  1.00  0.00     0.010 A 
ENDROOT
TORSDOF 0
ENDMDL
MODEL 4
REMARK VINA RESULT: -5.108088631      0.969      2.899
REMARK  0 active torsions:
REMARK  status: ('A' for Active; 'I' for Inactive)
ROOT
HETATM    1  C1  UNL     1       4.121  10.775   1.831  1.00  0.00     0.001 C 
HETATM    2  C2  UNL     1       5.067  10.088   0.838  1.00  0.00     0.001 C 
HETATM    3  C3  UNL     1       4.258   8.871   0.414  1.00  0.00     0.009 C 
HETATM    4  C4  UNL     1       2.845   9.145   0.802  1.00  0.00    -0.040 A 
HETATM    5  C5  UNL     1       2.812  10.629   1.040  1.00  0.00     0.009 C 
HETATM    6  C6  UNL     1       2.155   8.327   1.853  1.00  0.00     0.010 A 
HETATM    7  C7  UNL     1       1.708   8.349   0.417  1.00  0.00     0.010 A 
ENDROOT
TORSDOF 0
ENDMDL
MODEL 5
REMARK VINA RESULT: -5.061818284      1.119      1.418
REMARK  0 active torsions:
REMARK  status: ('A' for Active; 'I' for Inactive)
ROOT
HETATM    1  C1  UNL     1       3.292   7.901   1.162  1.00  0.00     0.001 C 
HETATM    2  C2  UNL     1       1.980   8.665   0.937  1.00  0.00     0.001 C 
HETATM    3  C3  UNL     1       2.455  10.109   0.878  1.00  0.00     0.009 C 
HETATM    4  C4  UNL     1       3.926  10.062   0.637  1.00  0.00    -0.040 A 
HETATM    5  C5  UNL     1       4.173   8.659   0.157  1.00  0.00     0.009 C 
HETATM    6  C6  UNL     1       4.899  10.551   1.668  1.00  0.00     0.010 A 
HETATM    7  C7  UNL     1       4.753  11.197   0.318  1.00  0.00     0.010 A 
ENDROOT
TORSDOF 0
ENDMDL
