MODEL 1
REMARK VINA RESULT: -6.190538300      0.000      0.000
REMARK  0 active torsions:
REMARK  status: ('A' for Active; 'I' for Inactive)
ROOT
HETATM    1  C1  UNL     1       1.220   8.940   1.817  1.00  0.00     0.006 C 
HETATM    2  C2  UNL     1       2.359   9.803   2.289  1.00  0.00     0.011 C 
HETATM    3  C3  UNL     1       2.883   9.974   0.880  1.00  0.00    -0.033 A 
HETATM    4  C4  UNL     1       4.264  10.336   0.896  1.00  0.00     0.015 A 
HETATM    5  C5  UNL     1       4.038   9.055   0.344  1.00  0.00    -0.005 A 
HETATM    6  C6  UNL     1       3.281   7.918   0.959  1.00  0.00     0.011 C 
HETATM    7  C7  UNL     1       2.104   8.778   0.579  1.00  0.00    -0.005 C 
ENDROOT
TORSDOF 0
ENDMDL
MODEL 2
REMARK VINA RESULT: -5.943089742      0.542      2.348
REMARK  0 active torsions:
REMARK  status: ('A' for Active; 'I' for Inactive)
ROOT
HETATM    1  C1  UNL     1       4.324   8.931   0.258  1.00  0.00     0.006 C 
HETATM    2  C2  UNL     1       3.673  10.152   0.848  1.00  0.00     0.011 C 
HETATM    3  C3  UNL     1       2.913   9.322   1.860  1.00  0.00    -0.033 A 
HETATM    4  C4  UNL     1       1.768  10.031   2.337  1.00  0.00     0.015 A 
HETATM    5  C5  UNL     1       1.430   8.887   1.580  1.00  0.00    -0.005 A 
HETATM    6  C6  UNL     1       1.902   8.532   0.203  1.00  0.00     0.011 C 
HETATM    7  C7  UNL     1       3.168   8.209   0.953  1.00  0.00    -0.005 C 
ENDROOT
TORSDOF 0
ENDMDL
MODEL 3
REMARK VINA RESULT: -5.921867358      0.641      2.705
REMARK  0 active torsions:
REMARK  status: ('A' for Active; 'I' for Inactive)
ROOT
HETATM    1  C1  UNL     1       4.140   9.200   0.207  1.00  0.00     0.006 C 
HETATM    2  C2  UNL     1       3.439   8.127   0.996  1.00  0.00     0.011 C 
HETATM    3  C3  UNL     1       2.121   8.868   0.932  1.00  0.00    -0.033 A 
HETATM    4  C4  UNL     1       1.253   8.444   1.984  1.00  0.00     0.015 A 
HETATM    5  C5  UNL     1       1.667   9.787   2.122  1.00  0.00    -0.005 A 
HETATM    6  C6  UNL     1       3.069  10.315   2.115  1.00  0.00     0.011 C 
HETATM    7  C7  UNL     1       2.937  10.041   0.640  1.00  0.00    -0.005 C 
ENDROOT
TORSDOF 0
ENDMDL
MODEL 4
REMARK VINA RESULT: -5.437153306      0.863      2.423
REMARK  0 active torsions:
REMARK  status: ('A' for Active; 'I' for Inactive)
ROOT
HETATM    1  C1  UNL     1       3.581  10.968   2.143  1.00  0.00     0.006 C 
HETATM    2  C2  UNL     1       3.860   9.859   1.166  1.00  0.00     0.011 C 
HETATM    3  C3  UNL     1       2.396   9.740   0.803  1.00  0.00    -0.033 A 
HETATM    4  C4  UNL     1       2.117   8.455   0.245  1.00  0.00     0.015 A 
HETATM    5  C5  UNL     1       1.490   8.660   1.494  1.00  0.00    -0.005 A 
HETATM    6  C6  UNL     1       2.132   9.091   2.777  1.00  0.00     0.011 C 
HETATM    7  C7  UNL     1       2.155  10.421   2.070  1.00  0.00    -0.005 C 
ENDROOT
TORSDOF 0
ENDMDL
MODEL 5
REMARK VINA RESULT: -5.242649957      0.801      1.813
REMARK  0 active torsions:
REMARK  status: ('A' for Active; 'I' for Inactive)
ROOT
HETATM    1  C1  UNL     1       1.299   8.371   1.556  1.00  0.00     0.006 C 
HETATM    2  C2  UNL     1       2.114   8.689   0.332  1.00  0.00     0.011 C 
HETATM    3  C3  UNL     1       3.352   8.953   1.162  1.00  0.00    -0.033 A 
HETATM    4  C4  UNL     1       4.275   9.773   0.443  1.00  0.00     0.015 A 
HETATM    5  C5  UNL     1       3.734  10.419   1.576  1.00  0.00    -0.005 A 
HETATM    6  C6  UNL     1       2.287  10.588   1.926  1.00  0.00     0.011 C 
HETATM    7  C7  UNL     1       2.421   9.127   2.270  1.00  0.00    -0.005 C 
ENDROOT
TORSDOF 0
ENDMDL
