MODEL 1
REMARK VINA RESULT: -5.533434663      0.000      0.000
REMARK  0 active torsions:
REMARK  status: ('A' for Active; 'I' for Inactive)
ROOT
HETATM    1  C1  UNL     1       1.551   9.186   1.941  1.00  0.00     0.005 C 
HETATM    2  C2  UNL     1       1.585  10.710   2.028  1.00  0.00     0.002 C 
HETATM    3  C3  UNL     1       3.045  11.086   2.203  1.00  0.00     0.020 C 
HETATM    4  C4  UNL     1       3.768  10.917   0.886  1.00  0.00     0.118 C 
HETATM    5  N1  UNL     1       4.379   9.633   0.791  1.00  0.00    -0.402 N 
ATOM      6  H1  UNL     1       5.385   9.508   0.906  1.00  0.00     0.158 HD
HETATM    7  C5  UNL     1       3.522   8.545   0.529  1.00  0.00     0.055 C 
HETATM    8  C6  UNL     1       2.061   8.822   0.585  1.00  0.00     0.044 C 
ENDROOT
TORSDOF 0
ENDMDL
MODEL 2
REMARK VINA RESULT: -5.432632665      0.322      2.211
REMARK  0 active torsions:
REMARK  status: ('A' for Active; 'I' for Inactive)
ROOT
HETATM    1  C1  UNL     1       1.723  10.802   1.832  1.00  0.00     0.005 C 
HETATM    2  C2  UNL     1       1.430   9.304   1.872  1.00  0.00     0.002 C 
HETATM    3  C3  UNL     1       2.048   8.724   0.613  1.00  0.00     0.020 C 
HETATM    4  C4  UNL     1       3.550   8.666   0.772  1.00  0.00     0.118 C 
HETATM    5  N1  UNL     1       4.174   9.827   0.230  1.00  0.00    -0.402 N 
ATOM      6  H1  UNL     1       4.665   9.804  -0.664  1.00  0.00     0.158 HD
HETATM    7  C5  UNL     1       4.079  11.008   0.993  1.00  0.00     0.055 C 
HETATM    8  C6  UNL     1       3.169  10.966   2.171  1.00  0.00     0.044 C 
ENDROOT
TORSDOF 0
ENDMDL
MODEL 3
REMARK VINA RESULT: -5.428888900      1.182      2.587
REMARK  0 active torsions:
REMARK  status: ('A' for Active; 'I' for Inactive)
ROOT
HETATM    1  C1  UNL     1       3.754   8.936   0.643  1.00  0.00     0.005 C 
HETATM    2  C2  UNL     1       2.247   8.707   0.569  1.00  0.00     0.002 C 
HETATM    3  C3  UNL     1       1.687   9.181   1.898  1.00  0.00     0.020 C 
HETATM    4  C4  UNL     1       1.686  10.691   1.932  1.00  0.00     0.118 C 
HETATM    5  N1  UNL     1       2.868  11.198   2.546  1.00  0.00    -0.402 N 
ATOM      6  H1  UNL     1       2.861  11.571   3.495  1.00  0.00     0.158 HD
HETATM    7  C5  UNL     1       4.047  11.156   1.774  1.00  0.00     0.055 C 
HETATM    8  C6  UNL     1       3.973  10.406   0.491  1.00  0.00     0.044 C 
ENDROOT
TORSDOF 0
ENDMDL
MODEL 4
REMARK VINA RESULT: -5.012725680      1.203      2.261
REMARK  0 active torsions:
REMARK  status: ('A' for Active; 'I' for Inactive)
ROOT
HETATM    1  C1  UNL     1       3.762  10.930   0.938  1.00  0.00     0.005 C 
HETATM    2  C2  UNL     1       3.047  11.204   2.259  1.00  0.00     0.002 C 
HETATM    3  C3  UNL     1       1.612  10.750   2.060  1.00  0.00     0.020 C 
HETATM    4  C4  UNL     1       1.557   9.240   2.080  1.00  0.00     0.118 C 
HETATM    5  N1  UNL     1       1.636   8.700   0.763  1.00  0.00    -0.402 N 
ATOM      6  H1  UNL     1       0.815   8.329   0.285  1.00  0.00     0.158 HD
HETATM    7  C5  UNL     1       2.908   8.705   0.156  1.00  0.00     0.055 C 
HETATM    8  C6  UNL     1       3.980   9.454   0.866  1.00  0.00     0.044 C 
ENDROOT
TORSDOF 0
ENDMDL
MODEL 5
REMARK VINA RESULT: -4.948877502      1.190      2.633
REMARK  0 active torsions:
REMARK  status: ('A' for Active; 'I' for Inactive)
ROOT
HETATM    1  C1  UNL     1       3.268  11.121   2.155  1.00  0.00     0.005 C 
HETATM    2  C2  UNL     1       3.995  10.917   0.828  1.00  0.00     0.002 C 
HETATM    3  C3  UNL     1       3.975   9.422   0.566  1.00  0.00     0.020 C 
HETATM    4  C4  UNL     1       2.588   9.009   0.132  1.00  0.00     0.118 C 
HETATM    5  N1  UNL     1       1.808   8.562   1.238  1.00  0.00    -0.402 N 
ATOM      6  H1  UNL     1       1.623   7.572   1.399  1.00  0.00     0.158 HD
HETATM    7  C5  UNL     1       1.306   9.559   2.098  1.00  0.00     0.055 C 
HETATM    8  C6  UNL     1       1.811  10.942   1.878  1.00  0.00     0.044 C 
ENDROOT
TORSDOF 0
ENDMDL
