MODEL 1
REMARK VINA RESULT: -5.311598675      0.000      0.000
REMARK  1 active torsions:
REMARK  status: ('A' for Active; 'I' for Inactive)
REMARK    1  A    between atoms: C6_6  and  N1_7 
ROOT
HETATM    1  C1  UNL     1       4.831   9.899   0.936  1.00  0.00     0.012 C 
HETATM    2  C2  UNL     1       3.359  10.194   0.733  1.00  0.00     0.012 C 
HETATM    3  C3  UNL     1       2.897  10.981   1.946  1.00  0.00     0.006 C 
HETATM    4  C4  UNL     1       1.512  10.409   2.174  1.00  0.00     0.002 C 
HETATM    5  C5  UNL     1       1.840   8.913   2.057  1.00  0.00     0.033 C 
HETATM    6  C6  UNL     1       2.541   8.934   0.693  1.00  0.00     0.187 C 
ENDROOT
BRANCH   6   7
HETATM    7  N1  UNL     1       1.480   9.000  -0.297  1.00  0.00    -0.075 N 
ATOM      8  H13 UNL     1       0.895   9.823  -0.156  1.00  0.00     0.274 HD
ATOM      9  H12 UNL     1       1.851   9.222  -1.220  1.00  0.00     0.274 HD
ATOM     10  H11 UNL     1       0.920   8.148  -0.319  1.00  0.00     0.274 HD
ENDBRANCH   6   7
TORSDOF 1
ENDMDL
MODEL 2
REMARK VINA RESULT: -5.058705921      1.638      2.284
REMARK  1 active torsions:
REMARK  status: ('A' for Active; 'I' for Inactive)
REMARK    1  A    between atoms: C6_6  and  N1_7 
ROOT
HETATM    1  C1  UNL     1       4.695  11.501   0.151  1.00  0.00     0.012 C 
HETATM    2  C2  UNL     1       4.061  10.492   1.086  1.00  0.00     0.012 C 
HETATM    3  C3  UNL     1       4.344   9.117   0.506  1.00  0.00     0.006 C 
HETATM    4  C4  UNL     1       3.045   8.391   0.791  1.00  0.00     0.002 C 
HETATM    5  C5  UNL     1       2.053   9.460   0.310  1.00  0.00     0.033 C 
HETATM    6  C6  UNL     1       2.567  10.644   1.138  1.00  0.00     0.187 C 
ENDROOT
BRANCH   6   7
HETATM    7  N1  UNL     1       2.041  10.449   2.477  1.00  0.00    -0.075 N 
ATOM      8  H13 UNL     1       2.794  10.382   3.163  1.00  0.00     0.274 HD
ATOM      9  H12 UNL     1       1.585  11.294   2.820  1.00  0.00     0.274 HD
ATOM     10  H11 UNL     1       1.418   9.644   2.534  1.00  0.00     0.274 HD
ENDBRANCH   6   7
TORSDOF 1
ENDMDL
MODEL 3
REMARK VINA RESULT: -4.594961083      1.780      3.039
REMARK  1 active torsions:
REMARK  status: ('A' for Active; 'I' for Inactive)
REMARK    1  A    between atoms: C6_6  and  N1_7 
ROOT
HETATM    1  C1  UNL     1       1.942  10.550   2.307  1.00  0.00     0.012 C 
HETATM    2  C2  UNL     1       2.696  10.485   0.994  1.00  0.00     0.012 C 
HETATM    3  C3  UNL     1       2.634   9.043   0.523  1.00  0.00     0.006 C 
HETATM    4  C4  UNL     1       4.019   8.852  -0.062  1.00  0.00     0.002 C 
HETATM    5  C5  UNL     1       4.853   9.464   1.074  1.00  0.00     0.033 C 
HETATM    6  C6  UNL     1       4.149  10.823   1.172  1.00  0.00     0.187 C 
ENDROOT
BRANCH   6   7
HETATM    7  N1  UNL     1       4.666  11.618   0.071  1.00  0.00    -0.075 N 
ATOM      8  H13 UNL     1       4.493  11.164  -0.825  1.00  0.00     0.274 HD
ATOM      9  H12 UNL     1       4.111  12.463  -0.066  1.00  0.00     0.274 HD
ATOM     10  H11 UNL     1       5.655  11.841   0.188  1.00  0.00     0.274 HD
ENDBRANCH   6   7
TORSDOF 1
ENDMDL
MODEL 4
REMARK VINA RESULT: -4.356292596      1.804      2.285
REMARK  1 active torsions:
REMARK  status: ('A' for Active; 'I' for Inactive)
REMARK    1  A    between atoms: C6_6  and  N1_7 
ROOT
HETATM    1  C1  UNL     1       4.606   9.171  -0.109  1.00  0.00     0.012 C 
HETATM    2  C2  UNL     1       3.822   9.421   1.164  1.00  0.00     0.012 C 
HETATM    3  C3  UNL     1       2.652   8.454   1.155  1.00  0.00     0.006 C 
HETATM    4  C4  UNL     1       1.544   9.308   1.739  1.00  0.00     0.002 C 
HETATM    5  C5  UNL     1       1.753  10.583   0.909  1.00  0.00     0.033 C 
HETATM    6  C6  UNL     1       3.243  10.807   1.195  1.00  0.00     0.187 C 
ENDROOT
BRANCH   6   7
HETATM    7  N1  UNL     1       3.308  11.398   2.520  1.00  0.00    -0.075 N 
ATOM      8  H13 UNL     1       4.246  11.742   2.725  1.00  0.00     0.274 HD
ATOM      9  H12 UNL     1       2.801  12.283   2.555  1.00  0.00     0.274 HD
ATOM     10  H11 UNL     1       2.982  10.758   3.245  1.00  0.00     0.274 HD
ENDBRANCH   6   7
TORSDOF 1
ENDMDL
MODEL 5
REMARK VINA RESULT: -4.287010540      1.769      2.721
REMARK  1 active torsions:
REMARK  status: ('A' for Active; 'I' for Inactive)
REMARK    1  A    between atoms: C6_6  and  N1_7 
ROOT
HETATM    1  C1  UNL     1       1.667   9.203   0.174  1.00  0.00     0.012 C 
HETATM    2  C2  UNL     1       2.846   9.433   1.097  1.00  0.00     0.012 C 
HETATM    3  C3  UNL     1       2.541  10.688   1.896  1.00  0.00     0.006 C 
HETATM    4  C4  UNL     1       3.904  11.346   1.966  1.00  0.00     0.002 C 
HETATM    5  C5  UNL     1       4.318  11.213   0.493  1.00  0.00     0.033 C 
HETATM    6  C6  UNL     1       4.108   9.703   0.328  1.00  0.00     0.187 C 
ENDROOT
BRANCH   6   7
HETATM    7  N1  UNL     1       5.267   9.073   0.936  1.00  0.00    -0.075 N 
ATOM      8  H13 UNL     1       5.118   8.909   1.931  1.00  0.00     0.274 HD
ATOM      9  H12 UNL     1       5.366   8.107   0.626  1.00  0.00     0.274 HD
ATOM     10  H11 UNL     1       6.124   9.603   0.773  1.00  0.00     0.274 HD
ENDBRANCH   6   7
TORSDOF 1
ENDMDL
