MODEL 1
REMARK VINA RESULT: -4.973830377      0.000      0.000
REMARK  1 active torsions:
REMARK  status: ('A' for Active; 'I' for Inactive)
REMARK    1  A    between atoms: N1_2  and  C2_4 
ROOT
HETATM    1  C2  UNL     1       3.118  10.478   0.868  1.00  0.00     0.076 C 
HETATM    2  C3  UNL     1       2.437  10.859   2.128  1.00  0.00     0.024 C 
HETATM    3  C4  UNL     1       1.211   9.953   2.180  1.00  0.00     0.002 C 
HETATM    4  C5  UNL     1       1.762   8.676   1.596  1.00  0.00     0.002 C 
HETATM    5  C6  UNL     1       2.531   9.172   0.395  1.00  0.00     0.024 C 
ENDROOT
BRANCH   1   6
HETATM    6  N1  UNL     1       4.541  10.511   0.901  1.00  0.00    -0.421 N 
HETATM    7  C1  UNL     1       5.182  11.560   0.191  1.00  0.00     0.140 C 
ATOM      8  H1  UNL     1       5.078   9.810   1.413  1.00  0.00     0.153 HD
ENDBRANCH   1   6
TORSDOF 1
ENDMDL
MODEL 2
REMARK VINA RESULT: -4.737637864      0.677      1.608
REMARK  1 active torsions:
REMARK  status: ('A' for Active; 'I' for Inactive)
REMARK    1  A    between atoms: N1_2  and  C2_4 
ROOT
HETATM    1  C2  UNL     1       3.519   9.723   1.204  1.00  0.00     0.076 C 
HETATM    2  C3  UNL     1       2.447   8.761   0.853  1.00  0.00     0.024 C 
HETATM    3  C4  UNL     1       1.329   9.070   1.842  1.00  0.00     0.002 C 
HETATM    4  C5  UNL     1       1.437  10.570   1.952  1.00  0.00     0.002 C 
HETATM    5  C6  UNL     1       2.925  10.780   2.099  1.00  0.00     0.024 C 
ENDROOT
BRANCH   1   6
HETATM    6  N1  UNL     1       4.275  10.231   0.109  1.00  0.00    -0.421 N 
HETATM    7  C1  UNL     1       4.969  11.452   0.311  1.00  0.00     0.140 C 
ATOM      8  H1  UNL     1       4.317   9.737  -0.783  1.00  0.00     0.153 HD
ENDBRANCH   1   6
TORSDOF 1
ENDMDL
MODEL 3
REMARK VINA RESULT: -4.466956955      1.599      3.346
REMARK  1 active torsions:
REMARK  status: ('A' for Active; 'I' for Inactive)
REMARK    1  A    between atoms: N1_2  and  C2_4 
ROOT
HETATM    1  C2  UNL     1       2.808   9.554   0.398  1.00  0.00     0.076 C 
HETATM    2  C3  UNL     1       4.259   9.250   0.393  1.00  0.00     0.024 C 
HETATM    3  C4  UNL     1       4.922  10.592   0.684  1.00  0.00     0.002 C 
HETATM    4  C5  UNL     1       3.951  11.197   1.666  1.00  0.00     0.002 C 
HETATM    5  C6  UNL     1       2.616  10.913   1.020  1.00  0.00     0.024 C 
ENDROOT
BRANCH   1   6
HETATM    6  N1  UNL     1       1.965   8.535   0.927  1.00  0.00    -0.421 N 
HETATM    7  C1  UNL     1       1.185   8.866   2.065  1.00  0.00     0.140 C 
ATOM      8  H1  UNL     1       1.924   7.607   0.506  1.00  0.00     0.153 HD
ENDBRANCH   1   6
TORSDOF 1
ENDMDL
MODEL 4
REMARK VINA RESULT: -4.224058863      1.014      1.799
REMARK  1 active torsions:
REMARK  status: ('A' for Active; 'I' for Inactive)
REMARK    1  A    between atoms: N1_2  and  C2_4 
ROOT
HETATM    1  C2  UNL     1       3.860  10.531   1.166  1.00  0.00     0.076 C 
HETATM    2  C3  UNL     1       4.109   9.274   0.421  1.00  0.00     0.024 C 
HETATM    3  C4  UNL     1       2.926   8.383   0.786  1.00  0.00     0.002 C 
HETATM    4  C5  UNL     1       1.806   9.391   0.857  1.00  0.00     0.002 C 
HETATM    5  C6  UNL     1       2.431  10.517   1.644  1.00  0.00     0.024 C 
ENDROOT
BRANCH   1   6
HETATM    6  N1  UNL     1       4.251  11.729   0.503  1.00  0.00    -0.421 N 
HETATM    7  C1  UNL     1       5.484  11.709  -0.200  1.00  0.00     0.140 C 
ATOM      8  H1  UNL     1       3.670  12.567   0.531  1.00  0.00     0.153 HD
ENDBRANCH   1   6
TORSDOF 1
ENDMDL
MODEL 5
REMARK VINA RESULT: -4.211283780      1.759      3.350
REMARK  1 active torsions:
REMARK  status: ('A' for Active; 'I' for Inactive)
REMARK    1  A    between atoms: N1_2  and  C2_4 
ROOT
HETATM    1  C2  UNL     1       2.495   9.204   0.454  1.00  0.00     0.076 C 
HETATM    2  C3  UNL     1       3.629   8.266   0.637  1.00  0.00     0.024 C 
HETATM    3  C4  UNL     1       4.865   9.119   0.371  1.00  0.00     0.002 C 
HETATM    4  C5  UNL     1       4.450  10.439   0.970  1.00  0.00     0.002 C 
HETATM    5  C6  UNL     1       3.044  10.607   0.446  1.00  0.00     0.024 C 
ENDROOT
BRANCH   1   6
HETATM    6  N1  UNL     1       1.385   9.007   1.324  1.00  0.00    -0.421 N 
HETATM    7  C1  UNL     1       1.118  10.026   2.276  1.00  0.00     0.140 C 
ATOM      8  H1  UNL     1       0.806   8.169   1.266  1.00  0.00     0.153 HD
ENDBRANCH   1   6
TORSDOF 1
ENDMDL
