MODEL 1
REMARK VINA RESULT: -4.249380047      0.000      0.000
REMARK  1 active torsions:
REMARK  status: ('A' for Active; 'I' for Inactive)
REMARK    1  A    between atoms: C4_4  and  C5_5 
ROOT
HETATM    1  C1  UNL     1       6.037  12.039  -0.461  1.00  0.00     0.017 C 
HETATM    2  C2  UNL     1       5.131  11.574   0.192  1.00  0.00    -0.089 C 
HETATM    3  C3  UNL     1       4.032  11.022   0.954  1.00  0.00     0.065 C 
HETATM    4  C4  UNL     1       3.152  10.245   0.376  1.00  0.00     0.033 C 
ENDROOT
BRANCH   4   5
HETATM    5  C5  UNL     1       2.047   9.687   1.130  1.00  0.00    -0.001 C 
HETATM    6  C6  UNL     1       1.510  10.365   2.332  1.00  0.00     0.067 C 
HETATM    7  N1  UNL     1       1.517   8.581   0.749  1.00  0.00    -0.403 N 
ATOM      8  H12 UNL     1       1.887   8.113  -0.079  1.00  0.00     0.156 HD
ATOM      9  H11 UNL     1       0.739   8.188   1.280  1.00  0.00     0.156 HD
ENDBRANCH   4   5
TORSDOF 1
ENDMDL
MODEL 2
REMARK VINA RESULT: -3.980308305      1.217      1.320
REMARK  1 active torsions:
REMARK  status: ('A' for Active; 'I' for Inactive)
REMARK    1  A    between atoms: C4_4  and  C5_5 
ROOT
HETATM    1  C1  UNL     1       5.941  11.962  -0.541  1.00  0.00     0.017 C 
HETATM    2  C2  UNL     1       5.104  11.578   0.244  1.00  0.00    -0.089 C 
HETATM    3  C3  UNL     1       4.086  11.126   1.168  1.00  0.00     0.065 C 
HETATM    4  C4  UNL     1       3.040  10.474   0.729  1.00  0.00     0.033 C 
ENDROOT
BRANCH   4   5
HETATM    5  C5  UNL     1       2.013  10.017   1.645  1.00  0.00    -0.001 C 
HETATM    6  C6  UNL     1       1.615   8.591   1.711  1.00  0.00     0.067 C 
HETATM    7  N1  UNL     1       1.436  10.862   2.420  1.00  0.00    -0.403 N 
ATOM      8  H12 UNL     1       1.710  11.843   2.375  1.00  0.00     0.156 HD
ATOM      9  H11 UNL     1       0.713  10.540   3.065  1.00  0.00     0.156 HD
ENDBRANCH   4   5
TORSDOF 1
ENDMDL
MODEL 3
REMARK VINA RESULT: -2.755851899      2.189      4.222
REMARK  1 active torsions:
REMARK  status: ('A' for Active; 'I' for Inactive)
REMARK    1  A    between atoms: C4_4  and  C5_5 
ROOT
HETATM    1  C1  UNL     1       0.928   8.952   1.939  1.00  0.00     0.017 C 
HETATM    2  C2  UNL     1       1.837   9.736   1.789  1.00  0.00    -0.089 C 
HETATM    3  C3  UNL     1       2.938  10.656   1.602  1.00  0.00     0.065 C 
HETATM    4  C4  UNL     1       3.740  10.525   0.577  1.00  0.00     0.033 C 
ENDROOT
BRANCH   4   5
HETATM    5  C5  UNL     1       4.847  11.441   0.380  1.00  0.00    -0.001 C 
HETATM    6  C6  UNL     1       5.001  12.210  -0.877  1.00  0.00     0.067 C 
HETATM    7  N1  UNL     1       5.715  11.593   1.314  1.00  0.00    -0.403 N 
ATOM      8  H12 UNL     1       5.609  11.063   2.179  1.00  0.00     0.156 HD
ATOM      9  H11 UNL     1       6.494  12.238   1.176  1.00  0.00     0.156 HD
ENDBRANCH   4   5
TORSDOF 1
ENDMDL
MODEL 4
REMARK VINA RESULT: -2.454955474      1.827      4.155
REMARK  1 active torsions:
REMARK  status: ('A' for Active; 'I' for Inactive)
REMARK    1  A    between atoms: C4_4  and  C5_5 
ROOT
HETATM    1  C1  UNL     1       0.424   9.143   2.105  1.00  0.00     0.017 C 
HETATM    2  C2  UNL     1       1.523   9.186   1.601  1.00  0.00    -0.089 C 
HETATM    3  C3  UNL     1       2.832   9.261   0.989  1.00  0.00     0.065 C 
HETATM    4  C4  UNL     1       3.523  10.371   1.041  1.00  0.00     0.033 C 
ENDROOT
BRANCH   4   5
HETATM    5  C5  UNL     1       4.836  10.457   0.432  1.00  0.00    -0.001 C 
HETATM    6  C6  UNL     1       5.382  11.748  -0.050  1.00  0.00     0.067 C 
HETATM    7  N1  UNL     1       5.545   9.395   0.307  1.00  0.00    -0.403 N 
ATOM      8  H12 UNL     1       5.169   8.506   0.639  1.00  0.00     0.156 HD
ATOM      9  H11 UNL     1       6.469   9.455  -0.121  1.00  0.00     0.156 HD
ENDBRANCH   4   5
TORSDOF 1
ENDMDL
MODEL 5
REMARK VINA RESULT: -2.367450571      2.757      4.419
REMARK  1 active torsions:
REMARK  status: ('A' for Active; 'I' for Inactive)
REMARK    1  A    between atoms: C4_4  and  C5_5 
ROOT
HETATM    1  C1  UNL     1       2.826   8.490   1.188  1.00  0.00     0.017 C 
HETATM    2  C2  UNL     1       3.563   9.218   0.562  1.00  0.00    -0.089 C 
HETATM    3  C3  UNL     1       4.429  10.105  -0.184  1.00  0.00     0.065 C 
HETATM    4  C4  UNL     1       4.617  11.336   0.219  1.00  0.00     0.033 C 
ENDROOT
BRANCH   4   5
HETATM    5  C5  UNL     1       5.482  12.234  -0.520  1.00  0.00    -0.001 C 
HETATM    6  C6  UNL     1       4.941  13.170  -1.533  1.00  0.00     0.067 C 
HETATM    7  N1  UNL     1       6.745  12.224  -0.293  1.00  0.00    -0.403 N 
ATOM      8  H12 UNL     1       7.118  11.580   0.405  1.00  0.00     0.156 HD
ATOM      9  H11 UNL     1       7.354  12.856  -0.813  1.00  0.00     0.156 HD
ENDBRANCH   4   5
TORSDOF 1
ENDMDL
