MODEL 1
REMARK VINA RESULT: -4.730385688      0.000      0.000
REMARK  1 active torsions:
REMARK  status: ('A' for Active; 'I' for Inactive)
REMARK    1  A    between atoms: C5_5  and  N1_6 
ROOT
HETATM    1  C1  UNL     1       4.611  10.515   0.809  1.00  0.00     0.012 C 
HETATM    2  C2  UNL     1       3.122  10.695   0.931  1.00  0.00     0.012 C 
HETATM    3  C3  UNL     1       2.715  11.066   2.365  1.00  0.00     0.008 C 
HETATM    4  C4  UNL     1       1.465  10.213   2.111  1.00  0.00     0.033 C 
HETATM    5  C5  UNL     1       2.355   9.400   1.173  1.00  0.00     0.187 C 
ENDROOT
BRANCH   5   6
HETATM    6  N1  UNL     1       1.715   8.831   0.045  1.00  0.00    -0.075 N 
ATOM      7  H13 UNL     1       2.078   9.255  -0.808  1.00  0.00     0.274 HD
ATOM      8  H12 UNL     1       2.028   7.867  -0.079  1.00  0.00     0.274 HD
ATOM      9  H11 UNL     1       0.696   8.865   0.040  1.00  0.00     0.274 HD
ENDBRANCH   5   6
TORSDOF 1
ENDMDL
MODEL 2
REMARK VINA RESULT: -4.598210810      1.815      2.871
REMARK  1 active torsions:
REMARK  status: ('A' for Active; 'I' for Inactive)
REMARK    1  A    between atoms: C5_5  and  N1_6 
ROOT
HETATM    1  C1  UNL     1       1.574  10.494   2.063  1.00  0.00     0.012 C 
HETATM    2  C2  UNL     1       2.417  10.087   0.885  1.00  0.00     0.012 C 
HETATM    3  C3  UNL     1       2.710   8.578   0.896  1.00  0.00     0.008 C 
HETATM    4  C4  UNL     1       4.083   8.955   0.326  1.00  0.00     0.033 C 
HETATM    5  C5  UNL     1       3.916  10.261   1.100  1.00  0.00     0.187 C 
ENDROOT
BRANCH   5   6
HETATM    6  N1  UNL     1       4.503  11.410   0.517  1.00  0.00    -0.075 N 
ATOM      7  H13 UNL     1       5.220  11.129  -0.151  1.00  0.00     0.274 HD
ATOM      8  H12 UNL     1       3.833  11.860  -0.108  1.00  0.00     0.274 HD
ATOM      9  H11 UNL     1       4.887  12.098   1.164  1.00  0.00     0.274 HD
ENDBRANCH   5   6
TORSDOF 1
ENDMDL
MODEL 3
REMARK VINA RESULT: -4.388476403      1.825      2.216
REMARK  1 active torsions:
REMARK  status: ('A' for Active; 'I' for Inactive)
REMARK    1  A    between atoms: C5_5  and  N1_6 
ROOT
HETATM    1  C1  UNL     1       4.221   9.294   0.089  1.00  0.00     0.012 C 
HETATM    2  C2  UNL     1       3.297   9.340   1.276  1.00  0.00     0.012 C 
HETATM    3  C3  UNL     1       1.879   8.879   0.904  1.00  0.00     0.008 C 
HETATM    4  C4  UNL     1       1.394   9.941   1.899  1.00  0.00     0.033 C 
HETATM    5  C5  UNL     1       2.663  10.704   1.523  1.00  0.00     0.187 C 
ENDROOT
BRANCH   5   6
HETATM    6  N1  UNL     1       3.245  11.489   2.547  1.00  0.00    -0.075 N 
ATOM      7  H13 UNL     1       4.252  11.552   2.403  1.00  0.00     0.274 HD
ATOM      8  H12 UNL     1       2.979  12.467   2.425  1.00  0.00     0.274 HD
ATOM      9  H11 UNL     1       3.052  11.197   3.505  1.00  0.00     0.274 HD
ENDBRANCH   5   6
TORSDOF 1
ENDMDL
MODEL 4
REMARK VINA RESULT: -4.378465350      1.555      2.354
REMARK  1 active torsions:
REMARK  status: ('A' for Active; 'I' for Inactive)
REMARK    1  A    between atoms: C5_5  and  N1_6 
ROOT
HETATM    1  C1  UNL     1       1.738   8.968   0.133  1.00  0.00     0.012 C 
HETATM    2  C2  UNL     1       2.471   9.504   1.333  1.00  0.00     0.012 C 
HETATM    3  C3  UNL     1       1.622  10.529   2.101  1.00  0.00     0.008 C 
HETATM    4  C4  UNL     1       2.944  11.261   2.363  1.00  0.00     0.033 C 
HETATM    5  C5  UNL     1       3.397  10.676   1.027  1.00  0.00     0.187 C 
ENDROOT
BRANCH   5   6
HETATM    6  N1  UNL     1       4.775  10.374   0.915  1.00  0.00    -0.075 N 
ATOM      7  H13 UNL     1       4.972   9.486   1.376  1.00  0.00     0.274 HD
ATOM      8  H12 UNL     1       4.998  10.134  -0.052  1.00  0.00     0.274 HD
ATOM      9  H11 UNL     1       5.423  11.086   1.251  1.00  0.00     0.274 HD
ENDBRANCH   5   6
TORSDOF 1
ENDMDL
MODEL 5
REMARK VINA RESULT: -4.309728608      1.106      1.192
REMARK  1 active torsions:
REMARK  status: ('A' for Active; 'I' for Inactive)
REMARK    1  A    between atoms: C5_5  and  N1_6 
ROOT
HETATM    1  C1  UNL     1       3.960  11.304   1.671  1.00  0.00     0.012 C 
HETATM    2  C2  UNL     1       2.794  10.504   1.158  1.00  0.00     0.012 C 
HETATM    3  C3  UNL     1       1.592  10.585   2.113  1.00  0.00     0.008 C 
HETATM    4  C4  UNL     1       1.327   9.126   1.722  1.00  0.00     0.033 C 
HETATM    5  C5  UNL     1       2.839   9.026   1.527  1.00  0.00     0.187 C 
ENDROOT
BRANCH   5   6
HETATM    6  N1  UNL     1       3.279   8.140   0.514  1.00  0.00    -0.075 N 
ATOM      7  H13 UNL     1       2.950   7.196   0.715  1.00  0.00     0.274 HD
ATOM      8  H12 UNL     1       2.775   8.331  -0.353  1.00  0.00     0.274 HD
ATOM      9  H11 UNL     1       4.282   8.123   0.334  1.00  0.00     0.274 HD
ENDBRANCH   5   6
TORSDOF 1
ENDMDL
