MODEL 1
REMARK VINA RESULT: -6.735001930      0.000      0.000
REMARK  2 active torsions:
REMARK  status: ('A' for Active; 'I' for Inactive)
REMARK    1  A    between atoms: C1_2  and  C2_4 
REMARK    2  A    between atoms: C3_5  and  C4_6 
ROOT
HETATM    1  C4  UNL     1       3.459   8.088   1.097  1.00  0.00     0.008 C 
HETATM    2  C5  UNL     1       2.107   8.586   1.592  1.00  0.00     0.008 C 
HETATM    3  C6  UNL     1       1.407   7.229   1.764  1.00  0.00     0.001 C 
HETATM    4  C7  UNL     1       1.662   6.611   0.410  1.00  0.00     0.001 C 
HETATM    5  C8  UNL     1       3.108   7.021   0.128  1.00  0.00     0.008 C 
ENDROOT
BRANCH   1   6
HETATM    6  C3  UNL     1       4.334   9.143   0.596  1.00  0.00    -0.017 C 
HETATM    7  C2  UNL     1       4.530   9.509  -0.646  1.00  0.00     0.067 C 
BRANCH   7   8
HETATM    8  C1  UNL     1       5.451  10.593  -0.946  1.00  0.00     0.254 C 
HETATM    9  N1  UNL     1       6.763  10.611  -0.410  1.00  0.00    -0.058 NA
HETATM   10  O1  UNL     1       5.105  11.543  -1.692  1.00  0.00    -0.272 OA
ENDBRANCH   7   8
ENDBRANCH   1   6
TORSDOF 2
ENDMDL
MODEL 2
REMARK VINA RESULT: -6.622803594      1.038      1.038
REMARK  2 active torsions:
REMARK  status: ('A' for Active; 'I' for Inactive)
REMARK    1  A    between atoms: C1_2  and  C2_4 
REMARK    2  A    between atoms: C3_5  and  C4_6 
ROOT
HETATM    1  C4  UNL     1       3.440   8.058   1.266  1.00  0.00     0.008 C 
HETATM    2  C5  UNL     1       2.040   8.578   1.570  1.00  0.00     0.008 C 
HETATM    3  C6  UNL     1       1.341   7.233   1.828  1.00  0.00     0.001 C 
HETATM    4  C7  UNL     1       1.735   6.472   0.585  1.00  0.00     0.001 C 
HETATM    5  C8  UNL     1       3.197   6.880   0.397  1.00  0.00     0.008 C 
ENDROOT
BRANCH   1   6
HETATM    6  C3  UNL     1       4.346   9.069   0.734  1.00  0.00    -0.017 C 
HETATM    7  C2  UNL     1       4.469   9.474  -0.506  1.00  0.00     0.067 C 
BRANCH   7   8
HETATM    8  C1  UNL     1       5.440  10.501  -0.842  1.00  0.00     0.254 C 
HETATM    9  N1  UNL     1       5.129  11.532  -1.764  1.00  0.00    -0.058 NA
HETATM   10  O1  UNL     1       6.583  10.500  -0.320  1.00  0.00    -0.272 OA
ENDBRANCH   7   8
ENDBRANCH   1   6
TORSDOF 2
ENDMDL
MODEL 3
REMARK VINA RESULT: -6.132039871      0.538      1.340
REMARK  2 active torsions:
REMARK  status: ('A' for Active; 'I' for Inactive)
REMARK    1  A    between atoms: C1_2  and  C2_4 
REMARK    2  A    between atoms: C3_5  and  C4_6 
ROOT
HETATM    1  C4  UNL     1       2.904   8.320   0.229  1.00  0.00     0.008 C 
HETATM    2  C5  UNL     1       3.387   6.893   0.457  1.00  0.00     0.008 C 
HETATM    3  C6  UNL     1       2.049   6.256   0.865  1.00  0.00     0.001 C 
HETATM    4  C7  UNL     1       1.607   7.208   1.951  1.00  0.00     0.001 C 
HETATM    5  C8  UNL     1       1.991   8.570   1.371  1.00  0.00     0.008 C 
ENDROOT
BRANCH   1   6
HETATM    6  C3  UNL     1       3.979   9.289   0.046  1.00  0.00    -0.017 C 
HETATM    7  C2  UNL     1       4.469   9.751  -1.078  1.00  0.00     0.067 C 
BRANCH   7   8
HETATM    8  C1  UNL     1       5.551  10.721  -1.053  1.00  0.00     0.254 C 
HETATM    9  N1  UNL     1       6.733  10.484  -0.308  1.00  0.00    -0.058 NA
HETATM   10  O1  UNL     1       5.464  11.798  -1.695  1.00  0.00    -0.272 OA
ENDBRANCH   7   8
ENDBRANCH   1   6
TORSDOF 2
ENDMDL
MODEL 4
REMARK VINA RESULT: -5.619899223      1.274      1.773
REMARK  2 active torsions:
REMARK  status: ('A' for Active; 'I' for Inactive)
REMARK    1  A    between atoms: C1_2  and  C2_4 
REMARK    2  A    between atoms: C3_5  and  C4_6 
ROOT
HETATM    1  C4  UNL     1       2.514   8.103   0.222  1.00  0.00     0.008 C 
HETATM    2  C5  UNL     1       2.782   6.632   0.517  1.00  0.00     0.008 C 
HETATM    3  C6  UNL     1       1.542   6.336   1.375  1.00  0.00     0.001 C 
HETATM    4  C7  UNL     1       1.629   7.455   2.386  1.00  0.00     0.001 C 
HETATM    5  C8  UNL     1       2.053   8.645   1.524  1.00  0.00     0.008 C 
ENDROOT
BRANCH   1   6
HETATM    6  C3  UNL     1       3.636   8.798  -0.398  1.00  0.00    -0.017 C 
HETATM    7  C2  UNL     1       4.348   9.784   0.091  1.00  0.00     0.067 C 
BRANCH   7   8
HETATM    8  C1  UNL     1       5.436  10.350  -0.688  1.00  0.00     0.254 C 
HETATM    9  N1  UNL     1       5.214  10.875  -1.986  1.00  0.00    -0.058 NA
HETATM   10  O1  UNL     1       6.605  10.388  -0.228  1.00  0.00    -0.272 OA
ENDBRANCH   7   8
ENDBRANCH   1   6
TORSDOF 2
ENDMDL
MODEL 5
REMARK VINA RESULT: -4.954848418      3.182      4.995
REMARK  2 active torsions:
REMARK  status: ('A' for Active; 'I' for Inactive)
REMARK    1  A    between atoms: C1_2  and  C2_4 
REMARK    2  A    between atoms: C3_5  and  C4_6 
ROOT
HETATM    1  C4  UNL     1       4.687   9.738   0.054  1.00  0.00     0.008 C 
HETATM    2  C5  UNL     1       6.162   9.610  -0.307  1.00  0.00     0.008 C 
HETATM    3  C6  UNL     1       6.375  11.002  -0.922  1.00  0.00     0.001 C 
HETATM    4  C7  UNL     1       5.237  11.044  -1.915  1.00  0.00     0.001 C 
HETATM    5  C8  UNL     1       4.091  10.403  -1.130  1.00  0.00     0.008 C 
ENDROOT
BRANCH   1   6
HETATM    6  C3  UNL     1       4.065   8.485   0.465  1.00  0.00    -0.017 C 
HETATM    7  C2  UNL     1       2.816   8.117   0.321  1.00  0.00     0.067 C 
BRANCH   7   8
HETATM    8  C1  UNL     1       2.382   6.815   0.800  1.00  0.00     0.254 C 
HETATM    9  N1  UNL     1       1.314   6.691   1.724  1.00  0.00    -0.058 NA
HETATM   10  O1  UNL     1       2.947   5.764   0.406  1.00  0.00    -0.272 OA
ENDBRANCH   7   8
ENDBRANCH   1   6
TORSDOF 2
ENDMDL
