MODEL 1
REMARK VINA RESULT: -5.680726669      0.000      0.000
REMARK  2 active torsions:
REMARK  status: ('A' for Active; 'I' for Inactive)
REMARK    1  A    between atoms: N1_1  and  C1_5 
REMARK    2  A    between atoms: C4_8  and  C5_9 
ROOT
HETATM    1  C1  UNL     1       1.836   6.884   0.701  1.00  0.00     0.183 C 
HETATM    2  C2  UNL     1       2.023   8.380   0.471  1.00  0.00     0.033 C 
HETATM    3  C3  UNL     1       3.327   8.790   1.087  1.00  0.00     0.007 C 
HETATM    4  C4  UNL     1       4.467   8.268   0.257  1.00  0.00    -0.010 C 
HETATM    5  C8  UNL     1       4.025   6.934  -0.359  1.00  0.00     0.007 C 
HETATM    6  C9  UNL     1       3.214   6.233   0.713  1.00  0.00     0.033 C 
ENDROOT
BRANCH   1   7
HETATM    7  N1  UNL     1       1.149   6.714   1.948  1.00  0.00    -0.075 N 
ATOM      8  H13 UNL     1       1.215   7.533   2.551  1.00  0.00     0.274 HD
ATOM      9  H12 UNL     1       0.135   6.705   1.843  1.00  0.00     0.274 HD
ATOM     10  H11 UNL     1       1.509   5.867   2.390  1.00  0.00     0.274 HD
ENDBRANCH   1   7
BRANCH   4  11
HETATM   11  C5  UNL     1       4.925   9.179  -0.811  1.00  0.00    -0.010 A 
HETATM   12  C6  UNL     1       4.729  10.625  -0.820  1.00  0.00     0.005 A 
HETATM   13  C7  UNL     1       6.077  10.099  -0.415  1.00  0.00     0.005 A 
ENDBRANCH   4  11
TORSDOF 2
ENDMDL
MODEL 2
REMARK VINA RESULT: -5.079765863      2.384      4.355
REMARK  2 active torsions:
REMARK  status: ('A' for Active; 'I' for Inactive)
REMARK    1  A    between atoms: N1_1  and  C1_5 
REMARK    2  A    between atoms: C4_8  and  C5_9 
ROOT
HETATM    1  C1  UNL     1       5.300  10.243   0.005  1.00  0.00     0.183 C 
HETATM    2  C2  UNL     1       4.382   9.397  -0.873  1.00  0.00     0.033 C 
HETATM    3  C3  UNL     1       4.322   8.016  -0.293  1.00  0.00     0.007 C 
HETATM    4  C4  UNL     1       3.509   8.031   0.972  1.00  0.00    -0.010 C 
HETATM    5  C8  UNL     1       3.720   9.393   1.648  1.00  0.00     0.007 C 
HETATM    6  C9  UNL     1       5.181   9.736   1.437  1.00  0.00     0.033 C 
ENDROOT
BRANCH   1   7
HETATM    7  N1  UNL     1       6.635  10.114  -0.503  1.00  0.00    -0.075 N 
ATOM      8  H13 UNL     1       6.659   9.836  -1.484  1.00  0.00     0.274 HD
ATOM      9  H12 UNL     1       7.108  11.011  -0.606  1.00  0.00     0.274 HD
ATOM     10  H11 UNL     1       7.139   9.467   0.104  1.00  0.00     0.274 HD
ENDBRANCH   1   7
BRANCH   4  11
HETATM   11  C5  UNL     1       2.064   7.790   0.785  1.00  0.00    -0.010 A 
HETATM   12  C6  UNL     1       1.482   6.558   0.260  1.00  0.00     0.005 A 
HETATM   13  C7  UNL     1       1.457   6.772   1.748  1.00  0.00     0.005 A 
ENDBRANCH   4  11
TORSDOF 2
ENDMDL
MODEL 3
REMARK VINA RESULT: -4.685606431      0.989      1.810
REMARK  2 active torsions:
REMARK  status: ('A' for Active; 'I' for Inactive)
REMARK    1  A    between atoms: N1_1  and  C1_5 
REMARK    2  A    between atoms: C4_8  and  C5_9 
ROOT
HETATM    1  C1  UNL     1       2.089   6.958   1.799  1.00  0.00     0.183 C 
HETATM    2  C2  UNL     1       2.902   6.767   0.522  1.00  0.00     0.033 C 
HETATM    3  C3  UNL     1       2.641   7.937  -0.378  1.00  0.00     0.007 C 
HETATM    4  C4  UNL     1       3.323   9.161   0.168  1.00  0.00    -0.010 C 
HETATM    5  C8  UNL     1       3.319   9.055   1.699  1.00  0.00     0.007 C 
HETATM    6  C9  UNL     1       1.976   8.453   2.067  1.00  0.00     0.033 C 
ENDROOT
BRANCH   1   7
HETATM    7  N1  UNL     1       0.806   6.349   1.597  1.00  0.00    -0.075 N 
ATOM      8  H13 UNL     1       0.342   6.676   0.751  1.00  0.00     0.274 HD
ATOM      9  H12 UNL     1       0.872   5.363   1.344  1.00  0.00     0.274 HD
ATOM     10  H11 UNL     1       0.251   6.505   2.439  1.00  0.00     0.274 HD
ENDBRANCH   1   7
BRANCH   4  11
HETATM   11  C5  UNL     1       4.705   9.367  -0.309  1.00  0.00    -0.010 A 
HETATM   12  C6  UNL     1       5.110   9.401  -1.711  1.00  0.00     0.005 A 
HETATM   13  C7  UNL     1       4.949  10.711  -0.992  1.00  0.00     0.005 A 
ENDBRANCH   4  11
TORSDOF 2
ENDMDL
MODEL 4
REMARK VINA RESULT: -4.584674490      0.879      1.054
REMARK  2 active torsions:
REMARK  status: ('A' for Active; 'I' for Inactive)
REMARK    1  A    between atoms: N1_1  and  C1_5 
REMARK    2  A    between atoms: C4_8  and  C5_9 
ROOT
HETATM    1  C1  UNL     1       1.545   7.451   0.928  1.00  0.00     0.183 C 
HETATM    2  C2  UNL     1       2.139   8.709   1.556  1.00  0.00     0.033 C 
HETATM    3  C3  UNL     1       3.619   8.508   1.696  1.00  0.00     0.007 C 
HETATM    4  C4  UNL     1       4.271   8.575   0.343  1.00  0.00    -0.010 C 
HETATM    5  C8  UNL     1       3.277   8.015  -0.684  1.00  0.00     0.007 C 
HETATM    6  C9  UNL     1       2.591   6.849  -0.001  1.00  0.00     0.033 C 
ENDROOT
BRANCH   1   7
HETATM    7  N1  UNL     1       1.189   6.557   1.991  1.00  0.00    -0.075 N 
ATOM      8  H13 UNL     1       1.792   5.735   2.036  1.00  0.00     0.274 HD
ATOM      9  H12 UNL     1       1.406   6.933   2.915  1.00  0.00     0.274 HD
ATOM     10  H11 UNL     1       0.203   6.320   1.883  1.00  0.00     0.274 HD
ENDBRANCH   1   7
BRANCH   4  11
HETATM   11  C5  UNL     1       4.704   9.924  -0.071  1.00  0.00    -0.010 A 
HETATM   12  C6  UNL     1       6.063  10.282  -0.469  1.00  0.00     0.005 A 
HETATM   13  C7  UNL     1       5.046  10.057  -1.553  1.00  0.00     0.005 A 
ENDBRANCH   4  11
TORSDOF 2
ENDMDL
MODEL 5
REMARK VINA RESULT: -4.344062942      1.065      1.913
REMARK  2 active torsions:
REMARK  status: ('A' for Active; 'I' for Inactive)
REMARK    1  A    between atoms: N1_1  and  C1_5 
REMARK    2  A    between atoms: C4_8  and  C5_9 
ROOT
HETATM    1  C1  UNL     1       2.580   6.943   1.026  1.00  0.00     0.183 C 
HETATM    2  C2  UNL     1       3.859   6.941   0.194  1.00  0.00     0.033 C 
HETATM    3  C3  UNL     1       3.838   8.145  -0.700  1.00  0.00     0.007 C 
HETATM    4  C4  UNL     1       4.076   9.386   0.115  1.00  0.00    -0.010 C 
HETATM    5  C8  UNL     1       3.464   9.159   1.504  1.00  0.00     0.007 C 
HETATM    6  C9  UNL     1       2.178   8.392   1.268  1.00  0.00     0.033 C 
ENDROOT
BRANCH   1   7
HETATM    7  N1  UNL     1       1.580   6.221   0.296  1.00  0.00    -0.075 N 
ATOM      8  H13 UNL     1       1.140   5.485   0.849  1.00  0.00     0.274 HD
ATOM      9  H12 UNL     1       0.742   6.775   0.117  1.00  0.00     0.274 HD
ATOM     10  H11 UNL     1       2.011   5.869  -0.560  1.00  0.00     0.274 HD
ENDBRANCH   1   7
BRANCH   4  11
HETATM   11  C5  UNL     1       5.494   9.774   0.257  1.00  0.00    -0.010 A 
HETATM   12  C6  UNL     1       6.549   9.454  -0.700  1.00  0.00     0.005 A 
HETATM   13  C7  UNL     1       5.965  10.839  -0.731  1.00  0.00     0.005 A 
ENDBRANCH   4  11
TORSDOF 2
ENDMDL
