MODEL 1
REMARK VINA RESULT: -6.772316807      0.000      0.000
REMARK  1 active torsions:
REMARK  status: ('A' for Active; 'I' for Inactive)
REMARK    1  A    between atoms: C1_2  and  C2_4 
ROOT
HETATM    1  C2  UNL     1       3.496   8.633   0.707  1.00  0.00     0.075 C 
HETATM    2  C3  UNL     1       2.594   8.971   1.836  1.00  0.00     0.013 C 
HETATM    3  C4  UNL     1       1.389   8.155   2.000  1.00  0.00     0.001 C 
HETATM    4  C5  UNL     1       1.439   6.762   1.462  1.00  0.00     0.000 C 
HETATM    5  C6  UNL     1       1.781   6.669   0.015  1.00  0.00     0.000 C 
HETATM    6  C7  UNL     1       3.263   6.346  -0.093  1.00  0.00     0.001 C 
HETATM    7  C8  UNL     1       4.051   7.224   0.861  1.00  0.00     0.013 C 
ENDROOT
BRANCH   1   8
HETATM    8  C1  UNL     1       4.686   9.548   0.789  1.00  0.00     0.235 C 
HETATM    9  N1  UNL     1       5.254  10.092  -0.382  1.00  0.00    -0.062 NA
HETATM   10  O1  UNL     1       5.214   9.858   1.890  1.00  0.00    -0.277 OA
ENDBRANCH   1   8
TORSDOF 1
ENDMDL
MODEL 2
REMARK VINA RESULT: -6.583422380      1.176      1.176
REMARK  1 active torsions:
REMARK  status: ('A' for Active; 'I' for Inactive)
REMARK    1  A    between atoms: C1_2  and  C2_4 
ROOT
HETATM    1  C2  UNL     1       3.378   8.554   0.331  1.00  0.00     0.075 C 
HETATM    2  C3  UNL     1       2.757   9.150   1.540  1.00  0.00     0.013 C 
HETATM    3  C4  UNL     1       1.638   8.424   2.147  1.00  0.00     0.001 C 
HETATM    4  C5  UNL     1       1.590   6.948   1.920  1.00  0.00     0.000 C 
HETATM    5  C6  UNL     1       1.588   6.542   0.487  1.00  0.00     0.000 C 
HETATM    6  C7  UNL     1       3.010   6.159   0.110  1.00  0.00     0.001 C 
HETATM    7  C8  UNL     1       3.981   7.194   0.648  1.00  0.00     0.013 C 
ENDROOT
BRANCH   1   8
HETATM    8  C1  UNL     1       4.537   9.429  -0.060  1.00  0.00     0.235 C 
HETATM    9  N1  UNL     1       5.422   9.925   0.920  1.00  0.00    -0.062 NA
HETATM   10  O1  UNL     1       4.758   9.747  -1.258  1.00  0.00    -0.277 OA
ENDBRANCH   1   8
TORSDOF 1
ENDMDL
MODEL 3
REMARK VINA RESULT: -6.499107440      0.797      2.094
REMARK  1 active torsions:
REMARK  status: ('A' for Active; 'I' for Inactive)
REMARK    1  A    between atoms: C1_2  and  C2_4 
ROOT
HETATM    1  C2  UNL     1       3.758   8.430   0.815  1.00  0.00     0.075 C 
HETATM    2  C3  UNL     1       3.941   7.172   0.050  1.00  0.00     0.013 C 
HETATM    3  C4  UNL     1       3.043   6.058   0.364  1.00  0.00     0.001 C 
HETATM    4  C5  UNL     1       1.708   6.409   0.935  1.00  0.00     0.000 C 
HETATM    5  C6  UNL     1       1.763   7.230   2.177  1.00  0.00     0.000 C 
HETATM    6  C7  UNL     1       1.540   8.682   1.785  1.00  0.00     0.001 C 
HETATM    7  C8  UNL     1       2.377   9.018   0.565  1.00  0.00     0.013 C 
ENDROOT
BRANCH   1   8
HETATM    8  C1  UNL     1       4.732   9.437   0.270  1.00  0.00     0.235 C 
HETATM    9  N1  UNL     1       4.710   9.786  -1.097  1.00  0.00    -0.062 NA
HETATM   10  O1  UNL     1       5.591   9.998   1.000  1.00  0.00    -0.277 OA
ENDBRANCH   1   8
TORSDOF 1
ENDMDL
MODEL 4
REMARK VINA RESULT: -6.277651804      1.303      2.334
REMARK  1 active torsions:
REMARK  status: ('A' for Active; 'I' for Inactive)
REMARK    1  A    between atoms: C1_2  and  C2_4 
ROOT
HETATM    1  C2  UNL     1       3.751   8.422   0.662  1.00  0.00     0.075 C 
HETATM    2  C3  UNL     1       3.906   7.105  -0.005  1.00  0.00     0.013 C 
HETATM    3  C4  UNL     1       3.039   6.015   0.452  1.00  0.00     0.001 C 
HETATM    4  C5  UNL     1       1.734   6.404   1.066  1.00  0.00     0.000 C 
HETATM    5  C6  UNL     1       1.849   7.328   2.230  1.00  0.00     0.000 C 
HETATM    6  C7  UNL     1       1.588   8.740   1.731  1.00  0.00     0.001 C 
HETATM    7  C8  UNL     1       2.352   8.978   0.442  1.00  0.00     0.013 C 
ENDROOT
BRANCH   1   8
HETATM    8  C1  UNL     1       4.682   9.386  -0.021  1.00  0.00     0.235 C 
HETATM    9  N1  UNL     1       5.719  10.013   0.702  1.00  0.00    -0.062 NA
HETATM   10  O1  UNL     1       4.572   9.667  -1.243  1.00  0.00    -0.277 OA
ENDBRANCH   1   8
TORSDOF 1
ENDMDL
MODEL 5
REMARK VINA RESULT: -4.975439095      1.144      1.185
REMARK  1 active torsions:
REMARK  status: ('A' for Active; 'I' for Inactive)
REMARK    1  A    between atoms: C1_2  and  C2_4 
ROOT
HETATM    1  C2  UNL     1       3.366   8.767   0.196  1.00  0.00     0.075 C 
HETATM    2  C3  UNL     1       3.279   9.271   1.590  1.00  0.00     0.013 C 
HETATM    3  C4  UNL     1       2.262   8.671   2.458  1.00  0.00     0.001 C 
HETATM    4  C5  UNL     1       1.828   7.280   2.126  1.00  0.00     0.000 C 
HETATM    5  C6  UNL     1       1.310   7.108   0.739  1.00  0.00     0.000 C 
HETATM    6  C7  UNL     1       2.436   6.540  -0.110  1.00  0.00     0.001 C 
HETATM    7  C8  UNL     1       3.724   7.289   0.177  1.00  0.00     0.013 C 
ENDROOT
BRANCH   1   8
HETATM    8  C1  UNL     1       4.517   9.471  -0.467  1.00  0.00     0.235 C 
HETATM    9  N1  UNL     1       5.138   8.912  -1.604  1.00  0.00    -0.062 NA
HETATM   10  O1  UNL     1       4.964  10.568  -0.040  1.00  0.00    -0.277 OA
ENDBRANCH   1   8
TORSDOF 1
ENDMDL
