MODEL 1
REMARK VINA RESULT: -8.051810148      0.000      0.000
REMARK  15 active torsions:
REMARK  status: ('A' for Active; 'I' for Inactive)
REMARK    1  A    between atoms: O1_2  and  C2_3 
REMARK    2  A    between atoms: C2_3  and  C4_5 
REMARK    3  A    between atoms: C2_3  and  C5_7 
REMARK       I    between atoms: C5_7  and  N1_9 
REMARK    4  A    between atoms: N1_9  and  C6_11 
REMARK    5  A    between atoms: C6_11  and  C7_12 
REMARK    6  A    between atoms: C10_15  and  C11_16 
REMARK    7  A    between atoms: C11_16  and  N2_18 
REMARK    8  A    between atoms: N2_18  and  C12_20 
REMARK    9  A    between atoms: C12_20  and  C13_21 
REMARK   10  A    between atoms: C13_21  and  C14_22 
REMARK   11  A    between atoms: C14_22  and  O3_23 
REMARK   12  A    between atoms: O3_23  and  C15_24 
REMARK       I    between atoms: N3_26  and  C17_27 
REMARK       I    between atoms: C17_27  and  N4_29 
REMARK   13  A    between atoms: N4_29  and  C18_31 
REMARK   14  A    between atoms: C18_31  and  C19_32 
REMARK   15  A    between atoms: C19_32  and  N5_33 
ROOT
HETATM    1  N2  UNL     1      10.269  15.431  -2.423  1.00  0.00    -0.384 N 
ATOM      2  H2  UNL     1      10.761  14.564  -2.636  1.00  0.00     0.160 HD
ENDROOT
BRANCH   1   3
HETATM    3  C11 UNL     1      10.001  15.743  -1.101  1.00  0.00     0.077 C 
HETATM    4  S2  UNL     1      10.752  17.073  -0.467  1.00  0.00    -0.065 SA
BRANCH   3   5
HETATM    5  C10 UNL     1       9.088  14.939  -0.255  1.00  0.00     0.047 C 
HETATM    6  C9  UNL     1       7.673  15.513  -0.346  1.00  0.00     0.012 C 
HETATM    7  C8  UNL     1       7.389  16.540   0.698  1.00  0.00     0.007 C 
HETATM    8  C7  UNL     1       7.622  16.032   2.101  1.00  0.00     0.003 C 
HETATM    9  C26 UNL     1       8.477  14.790   2.111  1.00  0.00     0.007 C 
HETATM   10  C25 UNL     1       9.622  14.961   1.156  1.00  0.00     0.012 C 
BRANCH   8  11
HETATM   11  C6  UNL     1       8.327  17.107   2.883  1.00  0.00     0.127 C 
BRANCH  11  12
HETATM   12  N1  UNL     1       8.486  16.748   4.269  1.00  0.00    -0.358 N 
HETATM   13  C5  UNL     1       7.890  17.459   5.335  1.00  0.00     0.253 C 
HETATM   14  O2  UNL     1       7.180  18.452   5.161  1.00  0.00    -0.270 OA
ATOM     15  H1  UNL     1       9.060  15.935   4.494  1.00  0.00     0.162 HD
BRANCH  13  16
HETATM   16  C2  UNL     1       8.139  16.976   6.732  1.00  0.00     0.146 C 
HETATM   17  C3  UNL     1       7.222  15.716   6.828  1.00  0.00     0.057 C 
BRANCH  16  18
HETATM   18  O1  UNL     1       7.731  17.800   7.687  1.00  0.00    -0.375 OA
HETATM   19  C1  UNL     1       6.785  17.583   8.592  1.00  0.00     0.203 C 
ENDBRANCH  16  18
BRANCH  16  20
HETATM   20  C4  UNL     1       9.525  16.455   6.880  1.00  0.00     0.133 C 
HETATM   21  S1  UNL     1       9.801  15.373   8.284  1.00  0.00    -0.094 SA
ENDBRANCH  16  20
ENDBRANCH  13  16
ENDBRANCH  11  12
ENDBRANCH   8  11
ENDBRANCH   3   5
ENDBRANCH   1   3
BRANCH   1  22
HETATM   22  C12 UNL     1       9.867  16.306  -3.523  1.00  0.00     0.122 C 
BRANCH  22  23
HETATM   23  C13 UNL     1       8.543  15.959  -4.077  1.00  0.00     0.046 C 
BRANCH  23  24
HETATM   24  C14 UNL     1       8.581  14.927  -5.149  1.00  0.00     0.170 C 
BRANCH  24  25
HETATM   25  O3  UNL     1       9.756  14.555  -5.607  1.00  0.00    -0.383 OA
BRANCH  25  26
HETATM   26  C15 UNL     1      10.133  14.454  -6.884  1.00  0.00     0.157 C 
HETATM   27  C16 UNL     1      10.828  13.074  -7.077  1.00  0.00     0.161 C 
HETATM   28  N3  UNL     1      11.981  13.707  -6.490  1.00  0.00    -0.329 N 
HETATM   29  C17 UNL     1      13.034  13.338  -5.633  1.00  0.00     0.318 C 
HETATM   30  C24 UNL     1      11.577  14.908  -7.180  1.00  0.00     0.161 C 
HETATM   31  O4  UNL     1      13.932  14.140  -5.281  1.00  0.00    -0.247 OA
HETATM   32  N4  UNL     1      13.096  12.006  -5.135  1.00  0.00    -0.341 N 
ATOM     33  H4  UNL     1      12.385  11.324  -5.399  1.00  0.00     0.164 HD
BRANCH  32  34
HETATM   34  C18 UNL     1      14.177  11.628  -4.251  1.00  0.00     0.143 C 
BRANCH  34  35
HETATM   35  C19 UNL     1      13.604  11.374  -2.879  1.00  0.00     0.136 C 
BRANCH  35  36
HETATM   36  N5  UNL     1      13.126  12.593  -2.323  1.00  0.00    -0.407 N 
HETATM   37  C20 UNL     1      11.949  12.513  -1.524  1.00  0.00     0.143 C 
HETATM   38  C21 UNL     1      12.238  12.561  -0.037  1.00  0.00     0.187 C 
HETATM   39  O5  UNL     1      13.159  13.516   0.316  1.00  0.00    -0.388 OA
HETATM   40  C22 UNL     1      13.475  14.355  -0.758  1.00  0.00     0.187 C 
HETATM   41  C23 UNL     1      14.129  13.481  -1.810  1.00  0.00     0.143 C 
ENDBRANCH  35  36
ENDBRANCH  34  35
ENDBRANCH  32  34
ENDBRANCH  25  26
ENDBRANCH  24  25
ENDBRANCH  23  24
ENDBRANCH  22  23
ENDBRANCH   1  22
TORSDOF 15
ENDMDL
MODEL 2
REMARK VINA RESULT: -8.046870402      1.893      2.296
REMARK  15 active torsions:
REMARK  status: ('A' for Active; 'I' for Inactive)
REMARK    1  A    between atoms: O1_2  and  C2_3 
REMARK    2  A    between atoms: C2_3  and  C4_5 
REMARK    3  A    between atoms: C2_3  and  C5_7 
REMARK       I    between atoms: C5_7  and  N1_9 
REMARK    4  A    between atoms: N1_9  and  C6_11 
REMARK    5  A    between atoms: C6_11  and  C7_12 
REMARK    6  A    between atoms: C10_15  and  C11_16 
REMARK    7  A    between atoms: C11_16  and  N2_18 
REMARK    8  A    between atoms: N2_18  and  C12_20 
REMARK    9  A    between atoms: C12_20  and  C13_21 
REMARK   10  A    between atoms: C13_21  and  C14_22 
REMARK   11  A    between atoms: C14_22  and  O3_23 
REMARK   12  A    between atoms: O3_23  and  C15_24 
REMARK       I    between atoms: N3_26  and  C17_27 
REMARK       I    between atoms: C17_27  and  N4_29 
REMARK   13  A    between atoms: N4_29  and  C18_31 
REMARK   14  A    between atoms: C18_31  and  C19_32 
REMARK   15  A    between atoms: C19_32  and  N5_33 
ROOT
HETATM    1  N2  UNL     1       9.999  17.437  -1.070  1.00  0.00    -0.384 N 
ATOM      2  H2  UNL     1      10.105  18.414  -1.345  1.00  0.00     0.160 HD
ENDROOT
BRANCH   1   3
HETATM    3  C11 UNL     1       9.401  17.143   0.143  1.00  0.00     0.077 C 
HETATM    4  S2  UNL     1       7.826  17.604   0.345  1.00  0.00    -0.065 SA
BRANCH   3   5
HETATM    5  C10 UNL     1      10.112  16.449   1.242  1.00  0.00     0.047 C 
HETATM    6  C9  UNL     1       9.787  14.955   1.194  1.00  0.00     0.012 C 
HETATM    7  C8  UNL     1       8.600  14.586   2.018  1.00  0.00     0.007 C 
HETATM    8  C7  UNL     1       8.730  15.013   3.461  1.00  0.00     0.003 C 
HETATM    9  C26 UNL     1       9.798  16.062   3.639  1.00  0.00     0.007 C 
HETATM   10  C25 UNL     1       9.687  17.083   2.544  1.00  0.00     0.012 C 
BRANCH   8  11
HETATM   11  C6  UNL     1       7.413  15.588   3.907  1.00  0.00     0.127 C 
BRANCH  11  12
HETATM   12  N1  UNL     1       7.477  16.105   5.249  1.00  0.00    -0.358 N 
HETATM   13  C5  UNL     1       7.293  15.311   6.404  1.00  0.00     0.253 C 
HETATM   14  O2  UNL     1       7.062  14.101   6.352  1.00  0.00    -0.270 OA
ATOM     15  H1  UNL     1       7.667  17.100   5.374  1.00  0.00     0.162 HD
BRANCH  13  16
HETATM   16  C2  UNL     1       7.386  15.980   7.742  1.00  0.00     0.146 C 
HETATM   17  C3  UNL     1       7.830  17.430   7.370  1.00  0.00     0.057 C 
BRANCH  16  18
HETATM   18  O1  UNL     1       8.330  15.501   8.540  1.00  0.00    -0.375 OA
HETATM   19  C1  UNL     1       9.645  15.551   8.358  1.00  0.00     0.203 C 
ENDBRANCH  16  18
BRANCH  16  20
HETATM   20  C4  UNL     1       6.041  16.136   8.359  1.00  0.00     0.133 C 
HETATM   21  S1  UNL     1       4.994  17.396   7.626  1.00  0.00    -0.094 SA
ENDBRANCH  16  20
ENDBRANCH  13  16
ENDBRANCH  11  12
ENDBRANCH   8  11
ENDBRANCH   3   5
ENDBRANCH   1   3
BRANCH   1  22
HETATM   22  C12 UNL     1      10.484  16.392  -1.970  1.00  0.00     0.122 C 
BRANCH  22  23
HETATM   23  C13 UNL     1       9.425  15.444  -2.370  1.00  0.00     0.046 C 
BRANCH  23  24
HETATM   24  C14 UNL     1       8.595  15.904  -3.516  1.00  0.00     0.170 C 
BRANCH  24  25
HETATM   25  O3  UNL     1       9.212  16.387  -4.572  1.00  0.00    -0.383 OA
BRANCH  25  26
HETATM   26  C15 UNL     1       9.040  16.027  -5.846  1.00  0.00     0.157 C 
HETATM   27  C16 UNL     1       9.447  14.530  -5.985  1.00  0.00     0.161 C 
HETATM   28  N3  UNL     1      10.800  15.024  -6.011  1.00  0.00    -0.329 N 
HETATM   29  C17 UNL     1      12.058  14.603  -5.543  1.00  0.00     0.318 C 
HETATM   30  C24 UNL     1      10.290  16.160  -6.740  1.00  0.00     0.161 C 
HETATM   31  O4  UNL     1      13.104  15.272  -5.723  1.00  0.00    -0.247 OA
HETATM   32  N4  UNL     1      12.166  13.374  -4.835  1.00  0.00    -0.341 N 
ATOM     33  H4  UNL     1      11.338  12.801  -4.669  1.00  0.00     0.164 HD
BRANCH  32  34
HETATM   34  C18 UNL     1      13.459  12.943  -4.351  1.00  0.00     0.143 C 
BRANCH  34  35
HETATM   35  C19 UNL     1      13.270  12.277  -3.012  1.00  0.00     0.136 C 
BRANCH  35  36
HETATM   36  N5  UNL     1      12.768  13.219  -2.071  1.00  0.00    -0.407 N 
HETATM   37  C20 UNL     1      11.914  12.711  -1.051  1.00  0.00     0.143 C 
HETATM   38  C21 UNL     1      12.615  12.547   0.283  1.00  0.00     0.187 C 
HETATM   39  O5  UNL     1      13.414  13.611   0.621  1.00  0.00    -0.388 OA
HETATM   40  C22 UNL     1      13.242  14.688  -0.256  1.00  0.00     0.187 C 
HETATM   41  C23 UNL     1      13.702  14.209  -1.619  1.00  0.00     0.143 C 
ENDBRANCH  35  36
ENDBRANCH  34  35
ENDBRANCH  32  34
ENDBRANCH  25  26
ENDBRANCH  24  25
ENDBRANCH  23  24
ENDBRANCH  22  23
ENDBRANCH   1  22
TORSDOF 15
ENDMDL
MODEL 3
REMARK VINA RESULT: -8.035807636      2.452      3.540
REMARK  15 active torsions:
REMARK  status: ('A' for Active; 'I' for Inactive)
REMARK    1  A    between atoms: O1_2  and  C2_3 
REMARK    2  A    between atoms: C2_3  and  C4_5 
REMARK    3  A    between atoms: C2_3  and  C5_7 
REMARK       I    between atoms: C5_7  and  N1_9 
REMARK    4  A    between atoms: N1_9  and  C6_11 
REMARK    5  A    between atoms: C6_11  and  C7_12 
REMARK    6  A    between atoms: C10_15  and  C11_16 
REMARK    7  A    between atoms: C11_16  and  N2_18 
REMARK    8  A    between atoms: N2_18  and  C12_20 
REMARK    9  A    between atoms: C12_20  and  C13_21 
REMARK   10  A    between atoms: C13_21  and  C14_22 
REMARK   11  A    between atoms: C14_22  and  O3_23 
REMARK   12  A    between atoms: O3_23  and  C15_24 
REMARK       I    between atoms: N3_26  and  C17_27 
REMARK       I    between atoms: C17_27  and  N4_29 
REMARK   13  A    between atoms: N4_29  and  C18_31 
REMARK   14  A    between atoms: C18_31  and  C19_32 
REMARK   15  A    between atoms: C19_32  and  N5_33 
ROOT
HETATM    1  N2  UNL     1      10.689  17.540  -0.071  1.00  0.00    -0.384 N 
ATOM      2  H2  UNL     1      11.530  18.019   0.250  1.00  0.00     0.160 HD
ENDROOT
BRANCH   1   3
HETATM    3  C11 UNL     1       9.794  17.053   0.866  1.00  0.00     0.077 C 
HETATM    4  S2  UNL     1       8.302  17.764   0.933  1.00  0.00    -0.065 SA
BRANCH   3   5
HETATM    5  C10 UNL     1      10.125  15.945   1.792  1.00  0.00     0.047 C 
HETATM    6  C9  UNL     1       9.172  14.774   1.546  1.00  0.00     0.012 C 
HETATM    7  C8  UNL     1       7.945  14.830   2.393  1.00  0.00     0.007 C 
HETATM    8  C7  UNL     1       8.252  14.908   3.869  1.00  0.00     0.003 C 
HETATM    9  C26 UNL     1       9.675  15.340   4.122  1.00  0.00     0.007 C 
HETATM   10  C25 UNL     1      10.026  16.473   3.202  1.00  0.00     0.012 C 
BRANCH   8  11
HETATM   11  C6  UNL     1       7.326  15.917   4.493  1.00  0.00     0.127 C 
BRANCH  11  12
HETATM   12  N1  UNL     1       6.239  16.267   3.615  1.00  0.00    -0.358 N 
HETATM   13  C5  UNL     1       5.595  17.525   3.629  1.00  0.00     0.253 C 
HETATM   14  O2  UNL     1       5.918  18.431   4.400  1.00  0.00    -0.270 OA
ATOM     15  H1  UNL     1       5.916  15.568   2.947  1.00  0.00     0.162 HD
BRANCH  13  16
HETATM   16  C2  UNL     1       4.475  17.755   2.660  1.00  0.00     0.146 C 
HETATM   17  C3  UNL     1       4.895  19.087   1.961  1.00  0.00     0.057 C 
BRANCH  16  18
HETATM   18  O1  UNL     1       3.296  17.990   3.217  1.00  0.00    -0.375 OA
HETATM   19  C1  UNL     1       2.375  17.100   3.566  1.00  0.00     0.203 C 
ENDBRANCH  16  18
BRANCH  16  20
HETATM   20  C4  UNL     1       4.484  16.734   1.578  1.00  0.00     0.133 C 
HETATM   21  S1  UNL     1       4.052  17.333  -0.057  1.00  0.00    -0.094 SA
ENDBRANCH  16  20
ENDBRANCH  13  16
ENDBRANCH  11  12
ENDBRANCH   8  11
ENDBRANCH   3   5
ENDBRANCH   1   3
BRANCH   1  22
HETATM   22  C12 UNL     1      10.466  17.390  -1.508  1.00  0.00     0.122 C 
BRANCH  22  23
HETATM   23  C13 UNL     1      10.090  16.014  -1.889  1.00  0.00     0.046 C 
BRANCH  23  24
HETATM   24  C14 UNL     1       8.886  15.928  -2.760  1.00  0.00     0.170 C 
BRANCH  24  25
HETATM   25  O3  UNL     1       8.919  16.543  -3.922  1.00  0.00    -0.383 OA
BRANCH  25  26
HETATM   26  C15 UNL     1       8.450  16.095  -5.088  1.00  0.00     0.157 C 
HETATM   27  C16 UNL     1       8.862  14.600  -5.235  1.00  0.00     0.161 C 
HETATM   28  N3  UNL     1      10.147  15.117  -5.628  1.00  0.00    -0.329 N 
HETATM   29  C17 UNL     1      11.496  14.753  -5.464  1.00  0.00     0.318 C 
HETATM   30  C24 UNL     1       9.433  16.192  -6.273  1.00  0.00     0.161 C 
HETATM   31  O4  UNL     1      12.441  15.428  -5.940  1.00  0.00    -0.247 OA
HETATM   32  N4  UNL     1      11.820  13.576  -4.733  1.00  0.00    -0.341 N 
ATOM     33  H4  UNL     1      11.080  12.999  -4.332  1.00  0.00     0.164 HD
BRANCH  32  34
HETATM   34  C18 UNL     1      13.207  13.203  -4.563  1.00  0.00     0.143 C 
BRANCH  34  35
HETATM   35  C19 UNL     1      13.364  12.551  -3.212  1.00  0.00     0.136 C 
BRANCH  35  36
HETATM   36  N5  UNL     1      12.807  13.388  -2.205  1.00  0.00    -0.407 N 
HETATM   37  C20 UNL     1      11.922  12.770  -1.276  1.00  0.00     0.143 C 
HETATM   38  C21 UNL     1      12.571  12.484   0.063  1.00  0.00     0.187 C 
HETATM   39  O5  UNL     1      13.336  13.521   0.537  1.00  0.00    -0.388 OA
HETATM   40  C22 UNL     1      13.181  14.677  -0.236  1.00  0.00     0.187 C 
HETATM   41  C23 UNL     1      13.704  14.342  -1.619  1.00  0.00     0.143 C 
ENDBRANCH  35  36
ENDBRANCH  34  35
ENDBRANCH  32  34
ENDBRANCH  25  26
ENDBRANCH  24  25
ENDBRANCH  23  24
ENDBRANCH  22  23
ENDBRANCH   1  22
TORSDOF 15
ENDMDL
MODEL 4
REMARK VINA RESULT: -7.977250093      2.504     10.175
REMARK  15 active torsions:
REMARK  status: ('A' for Active; 'I' for Inactive)
REMARK    1  A    between atoms: O1_2  and  C2_3 
REMARK    2  A    between atoms: C2_3  and  C4_5 
REMARK    3  A    between atoms: C2_3  and  C5_7 
REMARK       I    between atoms: C5_7  and  N1_9 
REMARK    4  A    between atoms: N1_9  and  C6_11 
REMARK    5  A    between atoms: C6_11  and  C7_12 
REMARK    6  A    between atoms: C10_15  and  C11_16 
REMARK    7  A    between atoms: C11_16  and  N2_18 
REMARK    8  A    between atoms: N2_18  and  C12_20 
REMARK    9  A    between atoms: C12_20  and  C13_21 
REMARK   10  A    between atoms: C13_21  and  C14_22 
REMARK   11  A    between atoms: C14_22  and  O3_23 
REMARK   12  A    between atoms: O3_23  and  C15_24 
REMARK       I    between atoms: N3_26  and  C17_27 
REMARK       I    between atoms: C17_27  and  N4_29 
REMARK   13  A    between atoms: N4_29  and  C18_31 
REMARK   14  A    between atoms: C18_31  and  C19_32 
REMARK   15  A    between atoms: C19_32  and  N5_33 
ROOT
HETATM    1  N2  UNL     1       9.727  17.818   0.626  1.00  0.00    -0.384 N 
ATOM      2  H2  UNL     1       9.702  18.812   0.398  1.00  0.00     0.160 HD
ENDROOT
BRANCH   1   3
HETATM    3  C11 UNL     1       9.888  16.899  -0.397  1.00  0.00     0.077 C 
HETATM    4  S2  UNL     1      11.353  16.142  -0.516  1.00  0.00    -0.065 SA
BRANCH   3   5
HETATM    5  C10 UNL     1       8.814  16.585  -1.369  1.00  0.00     0.047 C 
HETATM    6  C9  UNL     1       8.466  15.098  -1.279  1.00  0.00     0.012 C 
HETATM    7  C8  UNL     1       9.265  14.251  -2.212  1.00  0.00     0.007 C 
HETATM    8  C7  UNL     1       9.151  14.694  -3.651  1.00  0.00     0.003 C 
HETATM    9  C26 UNL     1       8.627  16.104  -3.763  1.00  0.00     0.007 C 
HETATM   10  C25 UNL     1       9.303  16.973  -2.743  1.00  0.00     0.012 C 
BRANCH   8  11
HETATM   11  C6  UNL     1      10.520  14.640  -4.274  1.00  0.00     0.127 C 
BRANCH  11  12
HETATM   12  N1  UNL     1      11.436  13.848  -3.495  1.00  0.00    -0.358 N 
HETATM   13  C5  UNL     1      12.837  13.859  -3.684  1.00  0.00     0.253 C 
HETATM   14  O2  UNL     1      13.389  14.556  -4.538  1.00  0.00    -0.270 OA
ATOM     15  H1  UNL     1      11.053  13.246  -2.766  1.00  0.00     0.162 HD
BRANCH  13  16
HETATM   16  C2  UNL     1      13.675  12.984  -2.802  1.00  0.00     0.146 C 
HETATM   17  C3  UNL     1      14.377  14.015  -1.864  1.00  0.00     0.057 C 
BRANCH  16  18
HETATM   18  O1  UNL     1      14.647  12.333  -3.425  1.00  0.00    -0.375 OA
HETATM   19  C1  UNL     1      14.667  11.054  -3.779  1.00  0.00     0.203 C 
ENDBRANCH  16  18
BRANCH  16  20
HETATM   20  C4  UNL     1      12.824  12.161  -1.900  1.00  0.00     0.133 C 
HETATM   21  S1  UNL     1      12.973  12.525  -0.149  1.00  0.00    -0.094 SA
ENDBRANCH  16  20
ENDBRANCH  13  16
ENDBRANCH  11  12
ENDBRANCH   8  11
ENDBRANCH   3   5
ENDBRANCH   1   3
BRANCH   1  22
HETATM   22  C12 UNL     1       9.593  17.409   2.023  1.00  0.00     0.122 C 
BRANCH  22  23
HETATM   23  C13 UNL     1       8.620  16.314   2.208  1.00  0.00     0.046 C 
BRANCH  23  24
HETATM   24  C14 UNL     1       9.133  15.168   3.008  1.00  0.00     0.170 C 
BRANCH  24  25
HETATM   25  O3  UNL     1       9.602  15.417   4.211  1.00  0.00    -0.383 OA
BRANCH  25  26
HETATM   26  C15 UNL     1       9.364  14.730   5.330  1.00  0.00     0.157 C 
HETATM   27  C16 UNL     1       7.821  14.580   5.488  1.00  0.00     0.161 C 
HETATM   28  N3  UNL     1       7.861  15.930   5.988  1.00  0.00    -0.329 N 
HETATM   29  C17 UNL     1       7.046  17.075   5.926  1.00  0.00     0.318 C 
HETATM   30  C24 UNL     1       9.127  15.588   6.590  1.00  0.00     0.161 C 
HETATM   31  O4  UNL     1       7.355  18.155   6.484  1.00  0.00    -0.247 OA
HETATM   32  N4  UNL     1       5.820  17.022   5.206  1.00  0.00    -0.341 N 
ATOM     33  H4  UNL     1       5.533  16.161   4.739  1.00  0.00     0.164 HD
BRANCH  32  34
HETATM   34  C18 UNL     1       4.984  18.200   5.140  1.00  0.00     0.143 C 
BRANCH  34  35
HETATM   35  C19 UNL     1       4.146  18.122   3.888  1.00  0.00     0.136 C 
BRANCH  35  36
HETATM   36  N5  UNL     1       4.954  17.703   2.794  1.00  0.00    -0.407 N 
HETATM   37  C20 UNL     1       4.438  16.650   1.984  1.00  0.00     0.143 C 
HETATM   38  C21 UNL     1       3.847  17.141   0.678  1.00  0.00     0.187 C 
HETATM   39  O5  UNL     1       4.618  18.085   0.044  1.00  0.00    -0.388 OA
HETATM   40  C22 UNL     1       5.867  18.232   0.658  1.00  0.00     0.187 C 
HETATM   41  C23 UNL     1       5.600  18.750   2.057  1.00  0.00     0.143 C 
ENDBRANCH  35  36
ENDBRANCH  34  35
ENDBRANCH  32  34
ENDBRANCH  25  26
ENDBRANCH  24  25
ENDBRANCH  23  24
ENDBRANCH  22  23
ENDBRANCH   1  22
TORSDOF 15
ENDMDL
MODEL 5
REMARK VINA RESULT: -7.961985440      2.530      5.453
REMARK  15 active torsions:
REMARK  status: ('A' for Active; 'I' for Inactive)
REMARK    1  A    between atoms: O1_2  and  C2_3 
REMARK    2  A    between atoms: C2_3  and  C4_5 
REMARK    3  A    between atoms: C2_3  and  C5_7 
REMARK       I    between atoms: C5_7  and  N1_9 
REMARK    4  A    between atoms: N1_9  and  C6_11 
REMARK    5  A    between atoms: C6_11  and  C7_12 
REMARK    6  A    between atoms: C10_15  and  C11_16 
REMARK    7  A    between atoms: C11_16  and  N2_18 
REMARK    8  A    between atoms: N2_18  and  C12_20 
REMARK    9  A    between atoms: C12_20  and  C13_21 
REMARK   10  A    between atoms: C13_21  and  C14_22 
REMARK   11  A    between atoms: C14_22  and  O3_23 
REMARK   12  A    between atoms: O3_23  and  C15_24 
REMARK       I    between atoms: N3_26  and  C17_27 
REMARK       I    between atoms: C17_27  and  N4_29 
REMARK   13  A    between atoms: N4_29  and  C18_31 
REMARK   14  A    between atoms: C18_31  and  C19_32 
REMARK   15  A    between atoms: C19_32  and  N5_33 
ROOT
HETATM    1  N2  UNL     1       8.191  14.759   2.436  1.00  0.00    -0.384 N 
ATOM      2  H2  UNL     1       8.250  13.741   2.391  1.00  0.00     0.160 HD
ENDROOT
BRANCH   1   3
HETATM    3  C11 UNL     1       8.802  15.421   3.486  1.00  0.00     0.077 C 
HETATM    4  S2  UNL     1       9.088  17.039   3.301  1.00  0.00    -0.065 SA
BRANCH   3   5
HETATM    5  C10 UNL     1       9.203  14.740   4.740  1.00  0.00     0.047 C 
HETATM    6  C9  UNL     1       7.965  14.149   5.416  1.00  0.00     0.012 C 
HETATM    7  C8  UNL     1       7.322  15.085   6.383  1.00  0.00     0.007 C 
HETATM    8  C7  UNL     1       8.273  15.576   7.447  1.00  0.00     0.003 C 
HETATM    9  C26 UNL     1       9.713  15.362   7.052  1.00  0.00     0.007 C 
HETATM   10  C25 UNL     1       9.902  15.752   5.615  1.00  0.00     0.012 C 
BRANCH   8  11
HETATM   11  C6  UNL     1       8.043  17.050   7.646  1.00  0.00     0.127 C 
BRANCH  11  12
HETATM   12  N1  UNL     1       7.191  17.605   6.627  1.00  0.00    -0.358 N 
HETATM   13  C5  UNL     1       5.844  17.975   6.847  1.00  0.00     0.253 C 
HETATM   14  O2  UNL     1       5.290  17.851   7.941  1.00  0.00    -0.270 OA
ATOM     15  H1  UNL     1       7.580  17.739   5.693  1.00  0.00     0.162 HD
BRANCH  13  16
HETATM   16  C2  UNL     1       5.070  18.541   5.695  1.00  0.00     0.146 C 
HETATM   17  C3  UNL     1       5.955  19.747   5.247  1.00  0.00     0.057 C 
BRANCH  16  18
HETATM   18  O1  UNL     1       3.890  19.051   6.014  1.00  0.00    -0.375 OA
HETATM   19  C1  UNL     1       2.691  18.569   5.710  1.00  0.00     0.203 C 
ENDBRANCH  16  18
BRANCH  16  20
HETATM   20  C4  UNL     1       5.077  17.608   4.535  1.00  0.00     0.133 C 
HETATM   21  S1  UNL     1       5.369  18.364   2.935  1.00  0.00    -0.094 SA
ENDBRANCH  16  20
ENDBRANCH  13  16
ENDBRANCH  11  12
ENDBRANCH   8  11
ENDBRANCH   3   5
ENDBRANCH   1   3
BRANCH   1  22
HETATM   22  C12 UNL     1       7.463  15.472   1.387  1.00  0.00     0.122 C 
BRANCH  22  23
HETATM   23  C13 UNL     1       7.921  15.116   0.030  1.00  0.00     0.046 C 
BRANCH  23  24
HETATM   24  C14 UNL     1       9.352  15.431  -0.234  1.00  0.00     0.170 C 
BRANCH  24  25
HETATM   25  O3  UNL     1      10.261  14.596   0.217  1.00  0.00    -0.383 OA
BRANCH  25  26
HETATM   26  C15 UNL     1      11.463  14.898   0.713  1.00  0.00     0.157 C 
HETATM   27  C16 UNL     1      12.228  15.742  -0.350  1.00  0.00     0.161 C 
HETATM   28  N3  UNL     1      12.494  14.478  -0.987  1.00  0.00    -0.329 N 
HETATM   29  C17 UNL     1      12.608  13.993  -2.303  1.00  0.00     0.318 C 
HETATM   30  C24 UNL     1      12.593  13.917   0.338  1.00  0.00     0.161 C 
HETATM   31  O4  UNL     1      12.858  12.791  -2.560  1.00  0.00    -0.247 OA
HETATM   32  N4  UNL     1      12.436  14.888  -3.396  1.00  0.00    -0.341 N 
ATOM     33  H4  UNL     1      12.234  15.874  -3.227  1.00  0.00     0.164 HD
BRANCH  32  34
HETATM   34  C18 UNL     1      12.551  14.388  -4.748  1.00  0.00     0.143 C 
BRANCH  34  35
HETATM   35  C19 UNL     1      11.163  14.220  -5.314  1.00  0.00     0.136 C 
BRANCH  35  36
HETATM   36  N5  UNL     1      10.478  15.466  -5.289  1.00  0.00    -0.407 N 
HETATM   37  C20 UNL     1      10.479  16.221  -6.497  1.00  0.00     0.143 C 
HETATM   38  C21 UNL     1       9.175  16.118  -7.263  1.00  0.00     0.187 C 
HETATM   39  O5  UNL     1       8.060  16.227  -6.469  1.00  0.00    -0.388 OA
HETATM   40  C22 UNL     1       8.388  16.602  -5.162  1.00  0.00     0.187 C 
HETATM   41  C23 UNL     1       9.226  15.476  -4.589  1.00  0.00     0.143 C 
ENDBRANCH  35  36
ENDBRANCH  34  35
ENDBRANCH  32  34
ENDBRANCH  25  26
ENDBRANCH  24  25
ENDBRANCH  23  24
ENDBRANCH  22  23
ENDBRANCH   1  22
TORSDOF 15
ENDMDL
