MODEL 1
REMARK VINA RESULT: -8.405979149      0.000      0.000
REMARK  15 active torsions:
REMARK  status: ('A' for Active; 'I' for Inactive)
REMARK    1  A    between atoms: C2_2  and  C3_3 
REMARK    2  A    between atoms: C3_3  and  S1_4 
REMARK    3  A    between atoms: S1_4  and  C4_5 
REMARK    4  A    between atoms: C4_5  and  C5_6 
REMARK    5  A    between atoms: C5_6  and  C6_7 
REMARK    6  A    between atoms: C6_7  and  C7_8 
REMARK    7  A    between atoms: C7_8  and  C8_9 
REMARK    8  A    between atoms: C8_9  and  C9_10 
REMARK       I    between atoms: C9_10  and  N1_12 
REMARK    9  A    between atoms: C13_16  and  C14_17 
REMARK       I    between atoms: C14_17  and  N2_19 
REMARK   10  A    between atoms: C21_26  and  C22_27 
REMARK       I    between atoms: N4_30  and  C23_32 
REMARK   11  A    between atoms: C23_32  and  C24_34 
REMARK   12  A    between atoms: C24_34  and  N5_35 
REMARK   13  A    between atoms: C24_34  and  C25_39 
REMARK   14  A    between atoms: C25_39  and  C26_40 
REMARK   15  A    between atoms: C26_40  and  N6_41 
ROOT
HETATM    1  C6  UNL     1       9.424  15.415   0.202  1.00  0.00    -0.009 C 
HETATM    2  N4  UNL     1       8.573  16.231   0.775  1.00  0.00    -0.333 N 
ATOM      3  H4  UNL     1       7.678  16.371   0.305  1.00  0.00     0.168 HD
HETATM    4  C23 UNL     1       8.775  16.926   1.964  1.00  0.00     0.252 C 
HETATM    5  O4  UNL     1       9.655  17.806   2.050  1.00  0.00    -0.271 OA
ENDROOT
BRANCH   1   6
HETATM    6  C5  UNL     1      10.726  15.151   0.798  1.00  0.00     0.062 C 
BRANCH   6   7
HETATM    7  C4  UNL     1      11.927  15.659   0.087  1.00  0.00     0.079 C 
BRANCH   7   8
HETATM    8  S1  UNL     1      13.353  14.588   0.073  1.00  0.00    -0.169 SA
BRANCH   8   9
HETATM    9  C3  UNL     1      13.839  14.060  -1.570  1.00  0.00     0.073 C 
BRANCH   9  10
HETATM   10  C2  UNL     1      13.148  12.808  -2.025  1.00  0.00     0.006 C 
HETATM   11  C1  UNL     1      12.369  12.228  -0.884  1.00  0.00     0.006 C 
ENDBRANCH   9  10
ENDBRANCH   8   9
ENDBRANCH   7   8
ENDBRANCH   6   7
ENDBRANCH   1   6
BRANCH   1  12
HETATM   12  C7  UNL     1       8.961  14.825  -1.075  1.00  0.00     0.062 C 
BRANCH  12  13
HETATM   13  C8  UNL     1       8.740  15.898  -2.139  1.00  0.00     0.108 C 
BRANCH  13  14
HETATM   14  C9  UNL     1       9.619  15.607  -3.293  1.00  0.00     0.220 C 
HETATM   15  O1  UNL     1      10.834  15.306  -3.030  1.00  0.00    -0.273 OA
HETATM   16  N1  UNL     1       9.227  15.637  -4.647  1.00  0.00    -0.339 N 
HETATM   17  C10 UNL     1       7.918  15.933  -5.162  1.00  0.00     0.127 C 
HETATM   18  C13 UNL     1      10.071  15.381  -5.794  1.00  0.00     0.179 C 
HETATM   19  C11 UNL     1       8.257  16.903  -6.275  1.00  0.00     0.022 C 
HETATM   20  C12 UNL     1       9.442  16.217  -6.925  1.00  0.00     0.037 C 
BRANCH  18  21
HETATM   21  C14 UNL     1      10.077  13.951  -6.142  1.00  0.00     0.247 C 
HETATM   22  O2  UNL     1       9.027  13.283  -5.866  1.00  0.00    -0.271 OA
HETATM   23  N2  UNL     1      11.175  13.280  -6.758  1.00  0.00    -0.313 N 
HETATM   24  C15 UNL     1      11.069  11.897  -7.068  1.00  0.00     0.091 C 
HETATM   25  C21 UNL     1      12.406  13.943  -7.067  1.00  0.00     0.182 C 
HETATM   26  C16 UNL     1      11.800  11.367  -8.025  1.00  0.00    -0.001 C 
HETATM   27  C17 UNL     1      12.751  12.147  -8.822  1.00  0.00    -0.026 C 
HETATM   28  C18 UNL     1      13.981  11.276  -9.093  1.00  0.00     0.019 C 
HETATM   29  C19 UNL     1      12.100  12.370 -10.192  1.00  0.00     0.019 C 
HETATM   30  C20 UNL     1      13.118  13.481  -8.282  1.00  0.00     0.047 C 
BRANCH  25  31
HETATM   31  C22 UNL     1      13.353  13.891  -5.884  1.00  0.00     0.254 C 
HETATM   32  N3  UNL     1      13.584  15.065  -5.113  1.00  0.00    -0.060 NA
HETATM   33  O3  UNL     1      13.915  12.827  -5.607  1.00  0.00    -0.275 OA
ENDBRANCH  25  31
ENDBRANCH  18  21
ENDBRANCH  13  14
ENDBRANCH  12  13
ENDBRANCH   1  12
BRANCH   4  34
HETATM   34  C24 UNL     1       7.940  16.625   3.149  1.00  0.00     0.276 C 
BRANCH  34  35
HETATM   35  N5  UNL     1       7.700  17.803   3.962  1.00  0.00    -0.066 N 
ATOM     36  H53 UNL     1       8.482  18.456   3.906  1.00  0.00     0.275 HD
ATOM     37  H52 UNL     1       6.971  18.390   3.556  1.00  0.00     0.275 HD
ATOM     38  H51 UNL     1       7.487  17.565   4.930  1.00  0.00     0.275 HD
ENDBRANCH  34  35
BRANCH  34  39
HETATM   39  C25 UNL     1       8.486  15.468   3.936  1.00  0.00     0.062 C 
BRANCH  39  40
HETATM   40  C26 UNL     1       9.594  15.853   4.863  1.00  0.00     0.124 C 
BRANCH  40  41
HETATM   41  N6  UNL     1       9.291  15.402   6.190  1.00  0.00    -0.367 N 
HETATM   42  C27 UNL     1       8.918  16.148   7.170  1.00  0.00     0.196 C 
HETATM   43  N7  UNL     1       8.667  15.483   8.408  1.00  0.00    -0.067 NA
HETATM   44  N8  UNL     1       8.749  17.534   7.086  1.00  0.00    -0.067 NA
ATOM     45  H6  UNL     1       9.379  14.402   6.373  1.00  0.00     0.161 HD
ENDBRANCH  40  41
ENDBRANCH  39  40
ENDBRANCH  34  39
ENDBRANCH   4  34
TORSDOF 15
ENDMDL
MODEL 2
REMARK VINA RESULT: -8.326149661      3.091     10.783
REMARK  15 active torsions:
REMARK  status: ('A' for Active; 'I' for Inactive)
REMARK    1  A    between atoms: C2_2  and  C3_3 
REMARK    2  A    between atoms: C3_3  and  S1_4 
REMARK    3  A    between atoms: S1_4  and  C4_5 
REMARK    4  A    between atoms: C4_5  and  C5_6 
REMARK    5  A    between atoms: C5_6  and  C6_7 
REMARK    6  A    between atoms: C6_7  and  C7_8 
REMARK    7  A    between atoms: C7_8  and  C8_9 
REMARK    8  A    between atoms: C8_9  and  C9_10 
REMARK       I    between atoms: C9_10  and  N1_12 
REMARK    9  A    between atoms: C13_16  and  C14_17 
REMARK       I    between atoms: C14_17  and  N2_19 
REMARK   10  A    between atoms: C21_26  and  C22_27 
REMARK       I    between atoms: N4_30  and  C23_32 
REMARK   11  A    between atoms: C23_32  and  C24_34 
REMARK   12  A    between atoms: C24_34  and  N5_35 
REMARK   13  A    between atoms: C24_34  and  C25_39 
REMARK   14  A    between atoms: C25_39  and  C26_40 
REMARK   15  A    between atoms: C26_40  and  N6_41 
ROOT
HETATM    1  C6  UNL     1       8.569  16.365  -1.097  1.00  0.00    -0.009 C 
HETATM    2  N4  UNL     1       9.419  16.308  -0.101  1.00  0.00    -0.333 N 
ATOM      3  H4  UNL     1       9.047  16.038   0.810  1.00  0.00     0.168 HD
HETATM    4  C23 UNL     1      10.782  16.580  -0.169  1.00  0.00     0.252 C 
HETATM    5  O4  UNL     1      11.194  17.728  -0.437  1.00  0.00    -0.271 OA
ENDROOT
BRANCH   1   6
HETATM    6  C5  UNL     1       9.006  16.738  -2.435  1.00  0.00     0.062 C 
BRANCH   6   7
HETATM    7  C4  UNL     1       9.116  15.660  -3.450  1.00  0.00     0.079 C 
BRANCH   7   8
HETATM    8  S1  UNL     1       8.453  16.021  -5.066  1.00  0.00    -0.169 SA
BRANCH   8   9
HETATM    9  C3  UNL     1       9.709  16.284  -6.318  1.00  0.00     0.073 C 
BRANCH   9  10
HETATM   10  C2  UNL     1       9.721  15.228  -7.384  1.00  0.00     0.006 C 
HETATM   11  C1  UNL     1      10.031  13.899  -6.765  1.00  0.00     0.006 C 
ENDBRANCH   9  10
ENDBRANCH   8   9
ENDBRANCH   7   8
ENDBRANCH   6   7
ENDBRANCH   1   6
BRANCH   1  12
HETATM   12  C7  UNL     1       7.166  16.046  -0.740  1.00  0.00     0.062 C 
BRANCH  12  13
HETATM   13  C8  UNL     1       6.496  17.213  -0.018  1.00  0.00     0.108 C 
BRANCH  13  14
HETATM   14  C9  UNL     1       6.270  16.828   1.393  1.00  0.00     0.220 C 
HETATM   15  O1  UNL     1       6.990  15.875   1.852  1.00  0.00    -0.273 OA
HETATM   16  N1  UNL     1       5.334  17.422   2.264  1.00  0.00    -0.339 N 
HETATM   17  C10 UNL     1       4.442  18.509   1.962  1.00  0.00     0.127 C 
HETATM   18  C13 UNL     1       5.077  17.050   3.638  1.00  0.00     0.179 C 
HETATM   19  C11 UNL     1       3.141  17.983   2.533  1.00  0.00     0.022 C 
HETATM   20  C12 UNL     1       3.599  17.422   3.864  1.00  0.00     0.037 C 
BRANCH  18  21
HETATM   21  C14 UNL     1       5.950  17.791   4.562  1.00  0.00     0.247 C 
HETATM   22  O2  UNL     1       5.975  19.059   4.444  1.00  0.00    -0.271 OA
HETATM   23  N2  UNL     1       6.760  17.177   5.564  1.00  0.00    -0.313 N 
HETATM   24  C15 UNL     1       7.555  17.990   6.417  1.00  0.00     0.091 C 
HETATM   25  C21 UNL     1       6.822  15.758   5.741  1.00  0.00     0.182 C 
HETATM   26  C16 UNL     1       7.915  17.559   7.608  1.00  0.00    -0.001 C 
HETATM   27  C17 UNL     1       7.527  16.244   8.126  1.00  0.00    -0.026 C 
HETATM   28  C18 UNL     1       8.703  15.677   8.928  1.00  0.00     0.019 C 
HETATM   29  C19 UNL     1       6.414  16.484   9.153  1.00  0.00     0.019 C 
HETATM   30  C20 UNL     1       7.010  15.273   7.129  1.00  0.00     0.047 C 
BRANCH  25  31
HETATM   31  C22 UNL     1       7.893  15.156   4.853  1.00  0.00     0.254 C 
HETATM   32  N3  UNL     1       9.134  15.833   4.685  1.00  0.00    -0.060 NA
HETATM   33  O3  UNL     1       7.672  14.082   4.283  1.00  0.00    -0.275 OA
ENDBRANCH  25  31
ENDBRANCH  18  21
ENDBRANCH  13  14
ENDBRANCH  12  13
ENDBRANCH   1  12
BRANCH   4  34
HETATM   34  C24 UNL     1      11.767  15.502   0.076  1.00  0.00     0.276 C 
BRANCH  34  35
HETATM   35  N5  UNL     1      13.118  16.015   0.207  1.00  0.00    -0.066 N 
ATOM     36  H53 UNL     1      13.231  16.541   1.074  1.00  0.00     0.275 HD
ATOM     37  H52 UNL     1      13.784  15.263   0.387  1.00  0.00     0.275 HD
ATOM     38  H51 UNL     1      13.398  16.571  -0.600  1.00  0.00     0.275 HD
ENDBRANCH  34  35
BRANCH  34  39
HETATM   39  C25 UNL     1      11.652  14.400  -0.937  1.00  0.00     0.062 C 
BRANCH  39  40
HETATM   40  C26 UNL     1      12.899  14.199  -1.739  1.00  0.00     0.124 C 
BRANCH  40  41
HETATM   41  N6  UNL     1      12.751  14.819  -3.023  1.00  0.00    -0.367 N 
HETATM   42  C27 UNL     1      13.323  14.436  -4.111  1.00  0.00     0.196 C 
HETATM   43  N7  UNL     1      13.030  15.204  -5.279  1.00  0.00    -0.067 NA
HETATM   44  N8  UNL     1      14.187  13.341  -4.205  1.00  0.00    -0.067 NA
ATOM     45  H6  UNL     1      12.140  15.633  -3.079  1.00  0.00     0.161 HD
ENDBRANCH  40  41
ENDBRANCH  39  40
ENDBRANCH  34  39
ENDBRANCH   4  34
TORSDOF 15
ENDMDL
MODEL 3
REMARK VINA RESULT: -8.270365402      3.025      6.163
REMARK  15 active torsions:
REMARK  status: ('A' for Active; 'I' for Inactive)
REMARK    1  A    between atoms: C2_2  and  C3_3 
REMARK    2  A    between atoms: C3_3  and  S1_4 
REMARK    3  A    between atoms: S1_4  and  C4_5 
REMARK    4  A    between atoms: C4_5  and  C5_6 
REMARK    5  A    between atoms: C5_6  and  C6_7 
REMARK    6  A    between atoms: C6_7  and  C7_8 
REMARK    7  A    between atoms: C7_8  and  C8_9 
REMARK    8  A    between atoms: C8_9  and  C9_10 
REMARK       I    between atoms: C9_10  and  N1_12 
REMARK    9  A    between atoms: C13_16  and  C14_17 
REMARK       I    between atoms: C14_17  and  N2_19 
REMARK   10  A    between atoms: C21_26  and  C22_27 
REMARK       I    between atoms: N4_30  and  C23_32 
REMARK   11  A    between atoms: C23_32  and  C24_34 
REMARK   12  A    between atoms: C24_34  and  N5_35 
REMARK   13  A    between atoms: C24_34  and  C25_39 
REMARK   14  A    between atoms: C25_39  and  C26_40 
REMARK   15  A    between atoms: C26_40  and  N6_41 
ROOT
HETATM    1  C6  UNL     1       8.756  16.596   4.177  1.00  0.00    -0.009 C 
HETATM    2  N4  UNL     1       7.991  17.588   3.791  1.00  0.00    -0.333 N 
ATOM      3  H4  UNL     1       8.215  18.023   2.896  1.00  0.00     0.168 HD
HETATM    4  C23 UNL     1       6.901  18.103   4.486  1.00  0.00     0.252 C 
HETATM    5  O4  UNL     1       7.054  18.668   5.588  1.00  0.00    -0.271 OA
ENDROOT
BRANCH   1   6
HETATM    6  C5  UNL     1       8.514  15.910   5.438  1.00  0.00     0.062 C 
BRANCH   6   7
HETATM    7  C4  UNL     1       9.617  15.880   6.431  1.00  0.00     0.079 C 
BRANCH   7   8
HETATM    8  S1  UNL     1       9.141  15.906   8.149  1.00  0.00    -0.169 SA
BRANCH   8   9
HETATM    9  C3  UNL     1       7.791  17.031   8.505  1.00  0.00     0.073 C 
BRANCH   9  10
HETATM   10  C2  UNL     1       6.538  16.339   8.955  1.00  0.00     0.006 C 
HETATM   11  C1  UNL     1       5.696  16.008   7.761  1.00  0.00     0.006 C 
ENDBRANCH   9  10
ENDBRANCH   8   9
ENDBRANCH   7   8
ENDBRANCH   6   7
ENDBRANCH   1   6
BRANCH   1  12
HETATM   12  C7  UNL     1       9.865  16.265   3.252  1.00  0.00     0.062 C 
BRANCH  12  13
HETATM   13  C8  UNL     1       9.642  14.915   2.574  1.00  0.00     0.108 C 
BRANCH  13  14
HETATM   14  C9  UNL     1      10.157  14.992   1.188  1.00  0.00     0.220 C 
HETATM   15  O1  UNL     1      11.161  14.252   0.905  1.00  0.00    -0.273 OA
HETATM   16  N1  UNL     1       9.632  15.808   0.166  1.00  0.00    -0.339 N 
HETATM   17  C10 UNL     1       8.506  16.698   0.262  1.00  0.00     0.127 C 
HETATM   18  C13 UNL     1      10.129  15.921  -1.188  1.00  0.00     0.179 C 
HETATM   19  C11 UNL     1       9.062  17.941  -0.402  1.00  0.00     0.022 C 
HETATM   20  C12 UNL     1       9.756  17.353  -1.614  1.00  0.00     0.037 C 
BRANCH  18  21
HETATM   21  C14 UNL     1       9.495  14.929  -2.072  1.00  0.00     0.247 C 
HETATM   22  O2  UNL     1       8.619  14.165  -1.550  1.00  0.00    -0.271 OA
HETATM   23  N2  UNL     1       9.804  14.777  -3.457  1.00  0.00    -0.313 N 
HETATM   24  C15 UNL     1       9.117  13.797  -4.224  1.00  0.00     0.091 C 
HETATM   25  C21 UNL     1      10.801  15.565  -4.115  1.00  0.00     0.182 C 
HETATM   26  C16 UNL     1       8.999  13.931  -5.528  1.00  0.00    -0.001 C 
HETATM   27  C17 UNL     1       9.550  15.073  -6.263  1.00  0.00    -0.026 C 
HETATM   28  C18 UNL     1      10.084  14.569  -7.606  1.00  0.00     0.019 C 
HETATM   29  C19 UNL     1       8.368  15.986  -6.612  1.00  0.00     0.019 C 
HETATM   30  C20 UNL     1      10.548  15.898  -5.536  1.00  0.00     0.047 C 
BRANCH  25  31
HETATM   31  C22 UNL     1      12.165  14.915  -3.989  1.00  0.00     0.254 C 
HETATM   32  N3  UNL     1      13.186  15.230  -4.929  1.00  0.00    -0.060 NA
HETATM   33  O3  UNL     1      12.370  14.116  -3.070  1.00  0.00    -0.275 OA
ENDBRANCH  25  31
ENDBRANCH  18  21
ENDBRANCH  13  14
ENDBRANCH  12  13
ENDBRANCH   1  12
BRANCH   4  34
HETATM   34  C24 UNL     1       5.537  17.984   3.921  1.00  0.00     0.276 C 
BRANCH  34  35
HETATM   35  N5  UNL     1       5.262  16.645   3.435  1.00  0.00    -0.066 N 
ATOM     36  H53 UNL     1       5.947  16.357   2.736  1.00  0.00     0.275 HD
ATOM     37  H52 UNL     1       5.458  15.944   4.151  1.00  0.00     0.275 HD
ATOM     38  H51 UNL     1       4.311  16.553   3.079  1.00  0.00     0.275 HD
ENDBRANCH  34  35
BRANCH  34  39
HETATM   39  C25 UNL     1       5.262  19.049   2.900  1.00  0.00     0.062 C 
BRANCH  39  40
HETATM   40  C26 UNL     1       5.837  18.741   1.553  1.00  0.00     0.124 C 
BRANCH  40  41
HETATM   41  N6  UNL     1       4.776  18.577   0.604  1.00  0.00    -0.367 N 
HETATM   42  C27 UNL     1       4.429  17.468   0.050  1.00  0.00     0.196 C 
HETATM   43  N7  UNL     1       3.339  17.537  -0.870  1.00  0.00    -0.067 NA
HETATM   44  N8  UNL     1       5.043  16.237   0.297  1.00  0.00    -0.067 NA
ATOM     45  H6  UNL     1       4.251  19.412   0.343  1.00  0.00     0.161 HD
ENDBRANCH  40  41
ENDBRANCH  39  40
ENDBRANCH  34  39
ENDBRANCH   4  34
TORSDOF 15
ENDMDL
MODEL 4
REMARK VINA RESULT: -8.266099777      2.027     11.121
REMARK  15 active torsions:
REMARK  status: ('A' for Active; 'I' for Inactive)
REMARK    1  A    between atoms: C2_2  and  C3_3 
REMARK    2  A    between atoms: C3_3  and  S1_4 
REMARK    3  A    between atoms: S1_4  and  C4_5 
REMARK    4  A    between atoms: C4_5  and  C5_6 
REMARK    5  A    between atoms: C5_6  and  C6_7 
REMARK    6  A    between atoms: C6_7  and  C7_8 
REMARK    7  A    between atoms: C7_8  and  C8_9 
REMARK    8  A    between atoms: C8_9  and  C9_10 
REMARK       I    between atoms: C9_10  and  N1_12 
REMARK    9  A    between atoms: C13_16  and  C14_17 
REMARK       I    between atoms: C14_17  and  N2_19 
REMARK   10  A    between atoms: C21_26  and  C22_27 
REMARK       I    between atoms: N4_30  and  C23_32 
REMARK   11  A    between atoms: C23_32  and  C24_34 
REMARK   12  A    between atoms: C24_34  and  N5_35 
REMARK   13  A    between atoms: C24_34  and  C25_39 
REMARK   14  A    between atoms: C25_39  and  C26_40 
REMARK   15  A    between atoms: C26_40  and  N6_41 
ROOT
HETATM    1  C6  UNL     1       9.048  15.656  -2.936  1.00  0.00    -0.009 C 
HETATM    2  N4  UNL     1       8.478  15.818  -4.105  1.00  0.00    -0.333 N 
ATOM      3  H4  UNL     1       7.760  16.539  -4.174  1.00  0.00     0.168 HD
HETATM    4  C23 UNL     1       8.761  15.098  -5.262  1.00  0.00     0.252 C 
HETATM    5  O4  UNL     1       8.521  13.875  -5.330  1.00  0.00    -0.271 OA
ENDROOT
BRANCH   1   6
HETATM    6  C5  UNL     1      10.085  14.654  -2.740  1.00  0.00     0.062 C 
BRANCH   6   7
HETATM    7  C4  UNL     1      11.479  15.024  -3.093  1.00  0.00     0.079 C 
BRANCH   7   8
HETATM    8  S1  UNL     1      12.647  13.683  -3.229  1.00  0.00    -0.169 SA
BRANCH   8   9
HETATM    9  C3  UNL     1      13.977  13.763  -2.028  1.00  0.00     0.073 C 
BRANCH   9  10
HETATM   10  C2  UNL     1      13.542  14.277  -0.688  1.00  0.00     0.006 C 
HETATM   11  C1  UNL     1      13.001  13.143   0.129  1.00  0.00     0.006 C 
ENDBRANCH   9  10
ENDBRANCH   8   9
ENDBRANCH   7   8
ENDBRANCH   6   7
ENDBRANCH   1   6
BRANCH   1  12
HETATM   12  C7  UNL     1       8.540  16.545  -1.865  1.00  0.00     0.062 C 
BRANCH  12  13
HETATM   13  C8  UNL     1       7.488  15.842  -1.009  1.00  0.00     0.108 C 
BRANCH  13  14
HETATM   14  C9  UNL     1       7.627  16.311   0.388  1.00  0.00     0.220 C 
HETATM   15  O1  UNL     1       6.695  17.063   0.838  1.00  0.00    -0.273 OA
HETATM   16  N1  UNL     1       8.694  15.997   1.254  1.00  0.00    -0.339 N 
HETATM   17  C10 UNL     1       9.828  15.162   0.961  1.00  0.00     0.127 C 
HETATM   18  C13 UNL     1       8.866  16.460   2.614  1.00  0.00     0.179 C 
HETATM   19  C11 UNL     1      10.960  16.015   1.494  1.00  0.00     0.022 C 
HETATM   20  C12 UNL     1      10.393  16.479   2.820  1.00  0.00     0.037 C 
BRANCH  18  21
HETATM   21  C14 UNL     1       8.220  15.548   3.572  1.00  0.00     0.247 C 
HETATM   22  O2  UNL     1       7.948  14.373   3.161  1.00  0.00    -0.271 OA
HETATM   23  N2  UNL     1       7.884  15.902   4.913  1.00  0.00    -0.313 N 
HETATM   24  C15 UNL     1       7.277  14.937   5.762  1.00  0.00     0.091 C 
HETATM   25  C21 UNL     1       8.118  17.211   5.445  1.00  0.00     0.182 C 
HETATM   26  C16 UNL     1       7.390  15.031   7.070  1.00  0.00    -0.001 C 
HETATM   27  C17 UNL     1       8.135  16.109   7.727  1.00  0.00    -0.026 C 
HETATM   28  C18 UNL     1       7.386  16.502   9.003  1.00  0.00     0.019 C 
HETATM   29  C19 UNL     1       9.460  15.502   8.204  1.00  0.00     0.019 C 
HETATM   30  C20 UNL     1       8.464  17.286   6.884  1.00  0.00     0.047 C 
BRANCH  25  31
HETATM   31  C22 UNL     1       6.937  18.119   5.167  1.00  0.00     0.254 C 
HETATM   32  N3  UNL     1       6.045  17.811   4.102  1.00  0.00    -0.060 NA
HETATM   33  O3  UNL     1       6.766  19.120   5.871  1.00  0.00    -0.275 OA
ENDBRANCH  25  31
ENDBRANCH  18  21
ENDBRANCH  13  14
ENDBRANCH  12  13
ENDBRANCH   1  12
BRANCH   4  34
HETATM   34  C24 UNL     1       9.353  15.781  -6.435  1.00  0.00     0.276 C 
BRANCH  34  35
HETATM   35  N5  UNL     1       8.407  16.669  -7.086  1.00  0.00    -0.066 N 
ATOM     36  H53 UNL     1       7.549  16.176  -7.334  1.00  0.00     0.275 HD
ATOM     37  H52 UNL     1       8.021  17.345  -6.427  1.00  0.00     0.275 HD
ATOM     38  H51 UNL     1       8.813  17.134  -7.898  1.00  0.00     0.275 HD
ENDBRANCH  34  35
BRANCH  34  39
HETATM   39  C25 UNL     1       9.995  14.808  -7.381  1.00  0.00     0.062 C 
BRANCH  39  40
HETATM   40  C26 UNL     1      11.293  14.261  -6.877  1.00  0.00     0.124 C 
BRANCH  40  41
HETATM   41  N6  UNL     1      11.258  12.829  -6.914  1.00  0.00    -0.367 N 
HETATM   42  C27 UNL     1      11.697  12.091  -7.874  1.00  0.00     0.196 C 
HETATM   43  N7  UNL     1      11.561  10.681  -7.698  1.00  0.00    -0.067 NA
HETATM   44  N8  UNL     1      12.285  12.585  -9.043  1.00  0.00    -0.067 NA
ATOM     45  H6  UNL     1      10.849  12.352  -6.110  1.00  0.00     0.161 HD
ENDBRANCH  40  41
ENDBRANCH  39  40
ENDBRANCH  34  39
ENDBRANCH   4  34
TORSDOF 15
ENDMDL
MODEL 5
REMARK VINA RESULT: -8.236050407      3.246     10.630
REMARK  15 active torsions:
REMARK  status: ('A' for Active; 'I' for Inactive)
REMARK    1  A    between atoms: C2_2  and  C3_3 
REMARK    2  A    between atoms: C3_3  and  S1_4 
REMARK    3  A    between atoms: S1_4  and  C4_5 
REMARK    4  A    between atoms: C4_5  and  C5_6 
REMARK    5  A    between atoms: C5_6  and  C6_7 
REMARK    6  A    between atoms: C6_7  and  C7_8 
REMARK    7  A    between atoms: C7_8  and  C8_9 
REMARK    8  A    between atoms: C8_9  and  C9_10 
REMARK       I    between atoms: C9_10  and  N1_12 
REMARK    9  A    between atoms: C13_16  and  C14_17 
REMARK       I    between atoms: C14_17  and  N2_19 
REMARK   10  A    between atoms: C21_26  and  C22_27 
REMARK       I    between atoms: N4_30  and  C23_32 
REMARK   11  A    between atoms: C23_32  and  C24_34 
REMARK   12  A    between atoms: C24_34  and  N5_35 
REMARK   13  A    between atoms: C24_34  and  C25_39 
REMARK   14  A    between atoms: C25_39  and  C26_40 
REMARK   15  A    between atoms: C26_40  and  N6_41 
ROOT
HETATM    1  C6  UNL     1       9.649  15.929  -1.296  1.00  0.00    -0.009 C 
HETATM    2  N4  UNL     1      10.227  15.367  -0.263  1.00  0.00    -0.333 N 
ATOM      3  H4  UNL     1       9.630  15.135   0.532  1.00  0.00     0.168 HD
HETATM    4  C23 UNL     1      11.579  15.056  -0.147  1.00  0.00     0.252 C 
HETATM    5  O4  UNL     1      12.443  15.957  -0.123  1.00  0.00    -0.271 OA
ENDROOT
BRANCH   1   6
HETATM    6  C5  UNL     1      10.417  16.295  -2.477  1.00  0.00     0.062 C 
BRANCH   6   7
HETATM    7  C4  UNL     1      10.580  15.271  -3.539  1.00  0.00     0.079 C 
BRANCH   7   8
HETATM    8  S1  UNL     1       9.146  14.931  -4.543  1.00  0.00    -0.169 SA
BRANCH   8   9
HETATM    9  C3  UNL     1       8.286  16.406  -5.092  1.00  0.00     0.073 C 
BRANCH   9  10
HETATM   10  C2  UNL     1       8.341  16.613  -6.577  1.00  0.00     0.006 C 
HETATM   11  C1  UNL     1       9.523  15.881  -7.137  1.00  0.00     0.006 C 
ENDBRANCH   9  10
ENDBRANCH   8   9
ENDBRANCH   7   8
ENDBRANCH   6   7
ENDBRANCH   1   6
BRANCH   1  12
HETATM   12  C7  UNL     1       8.194  16.169  -1.144  1.00  0.00     0.062 C 
BRANCH  12  13
HETATM   13  C8  UNL     1       7.918  17.381  -0.258  1.00  0.00     0.108 C 
BRANCH  13  14
HETATM   14  C9  UNL     1       7.390  16.906   1.041  1.00  0.00     0.220 C 
HETATM   15  O1  UNL     1       8.136  16.110   1.708  1.00  0.00    -0.273 OA
HETATM   16  N1  UNL     1       6.142  17.258   1.595  1.00  0.00    -0.339 N 
HETATM   17  C10 UNL     1       5.162  18.143   1.025  1.00  0.00     0.127 C 
HETATM   18  C13 UNL     1       5.593  16.790   2.849  1.00  0.00     0.179 C 
HETATM   19  C11 UNL     1       3.896  17.334   1.217  1.00  0.00     0.022 C 
HETATM   20  C12 UNL     1       4.068  16.834   2.637  1.00  0.00     0.037 C 
BRANCH  18  21
HETATM   21  C14 UNL     1       5.993  17.664   3.963  1.00  0.00     0.247 C 
HETATM   22  O2  UNL     1       5.788  18.914   3.822  1.00  0.00    -0.271 OA
HETATM   23  N2  UNL     1       6.590  17.198   5.173  1.00  0.00    -0.313 N 
HETATM   24  C15 UNL     1       6.921  18.128   6.195  1.00  0.00     0.091 C 
HETATM   25  C21 UNL     1       6.891  15.817   5.400  1.00  0.00     0.182 C 
HETATM   26  C16 UNL     1       7.006  17.741   7.450  1.00  0.00    -0.001 C 
HETATM   27  C17 UNL     1       6.768  16.358   7.872  1.00  0.00    -0.026 C 
HETATM   28  C18 UNL     1       7.755  16.020   8.993  1.00  0.00     0.019 C 
HETATM   29  C19 UNL     1       5.382  16.330   8.529  1.00  0.00     0.019 C 
HETATM   30  C20 UNL     1       6.770  15.335   6.796  1.00  0.00     0.047 C 
BRANCH  25  31
HETATM   31  C22 UNL     1       8.272  15.478   4.873  1.00  0.00     0.254 C 
HETATM   32  N3  UNL     1       9.365  16.349   5.146  1.00  0.00    -0.060 NA
HETATM   33  O3  UNL     1       8.430  14.447   4.210  1.00  0.00    -0.275 OA
ENDBRANCH  25  31
ENDBRANCH  18  21
ENDBRANCH  13  14
ENDBRANCH  12  13
ENDBRANCH   1  12
BRANCH   4  34
HETATM   34  C24 UNL     1      12.009  13.643  -0.051  1.00  0.00     0.276 C 
BRANCH  34  35
HETATM   35  N5  UNL     1      13.430  13.522   0.218  1.00  0.00    -0.066 N 
ATOM     36  H53 UNL     1      13.760  12.573   0.042  1.00  0.00     0.275 HD
ATOM     37  H52 UNL     1      13.982  14.017  -0.483  1.00  0.00     0.275 HD
ATOM     38  H51 UNL     1      13.671  13.827   1.161  1.00  0.00     0.275 HD
ENDBRANCH  34  35
BRANCH  34  39
HETATM   39  C25 UNL     1      11.564  12.842  -1.240  1.00  0.00     0.062 C 
BRANCH  39  40
HETATM   40  C26 UNL     1      12.662  12.030  -1.851  1.00  0.00     0.124 C 
BRANCH  40  41
HETATM   41  N6  UNL     1      12.913  12.487  -3.186  1.00  0.00    -0.367 N 
HETATM   42  C27 UNL     1      13.757  13.400  -3.520  1.00  0.00     0.196 C 
HETATM   43  N7  UNL     1      13.844  13.697  -4.915  1.00  0.00    -0.067 NA
HETATM   44  N8  UNL     1      14.570  14.093  -2.617  1.00  0.00    -0.067 NA
ATOM     45  H6  UNL     1      12.376  12.052  -3.936  1.00  0.00     0.161 HD
ENDBRANCH  40  41
ENDBRANCH  39  40
ENDBRANCH  34  39
ENDBRANCH   4  34
TORSDOF 15
ENDMDL
