MODEL 1
REMARK VINA RESULT: -4.336471477      0.000      0.000
REMARK  5 active torsions:
REMARK  status: ('A' for Active; 'I' for Inactive)
REMARK    1  A    between atoms: C2_2  and  C3_3 
REMARK    2  A    between atoms: C3_3  and  C4_4 
REMARK    3  A    between atoms: C4_4  and  N1_5 
REMARK    4  A    between atoms: C5_10  and  C6_11 
REMARK    5  A    between atoms: C7_12  and  C8_13 
ROOT
HETATM    1  C3  UNL     1      11.029  13.928  45.591  1.00  0.00     0.056 A 
HETATM    2  S1  UNL     1      11.175  15.643  44.960  1.00  0.00    -0.136 SA
HETATM    3  C5  UNL     1      10.381  14.167  44.263  1.00  0.00     0.147 A 
ENDROOT
BRANCH   1   4
HETATM    4  C2  UNL     1      12.348  13.203  45.667  1.00  0.00     0.020 C 
HETATM    5  C1  UNL     1      12.053  11.722  45.782  1.00  0.00     0.007 C 
ENDBRANCH   1   4
BRANCH   1   6
HETATM    6  C4  UNL     1      10.116  13.697  46.764  1.00  0.00     0.252 C 
BRANCH   6   7
HETATM    7  N1  UNL     1      10.800  14.142  47.963  1.00  0.00    -0.078 N 
ATOM      8  H13 UNL     1      11.801  13.953  47.939  1.00  0.00     0.274 HD
ATOM      9  H12 UNL     1      10.854  15.159  48.032  1.00  0.00     0.274 HD
ATOM     10  H11 UNL     1      10.337  13.718  48.768  1.00  0.00     0.274 HD
ENDBRANCH   6   7
ENDBRANCH   1   6
BRANCH   3  11
HETATM   11  C6  UNL     1      11.130  13.585  43.123  1.00  0.00    -0.089 C 
HETATM   12  C7  UNL     1      11.728  13.128  42.186  1.00  0.00    -0.096 C 
BRANCH  12  13
HETATM   13  C8  UNL     1      12.453  12.593  41.032  1.00  0.00     0.013 C 
HETATM   14  C9  UNL     1      13.385  11.525  41.546  1.00  0.00     0.028 C 
HETATM   15  C10 UNL     1      11.513  11.958  40.031  1.00  0.00     0.028 C 
HETATM   16  C11 UNL     1      13.199  13.694  40.299  1.00  0.00     0.028 C 
ENDBRANCH  12  13
ENDBRANCH   3  11
TORSDOF 5
ENDMDL
MODEL 2
REMARK VINA RESULT: -4.282151449      1.308      1.515
REMARK  5 active torsions:
REMARK  status: ('A' for Active; 'I' for Inactive)
REMARK    1  A    between atoms: C2_2  and  C3_3 
REMARK    2  A    between atoms: C3_3  and  C4_4 
REMARK    3  A    between atoms: C4_4  and  N1_5 
REMARK    4  A    between atoms: C5_10  and  C6_11 
REMARK    5  A    between atoms: C7_12  and  C8_13 
ROOT
HETATM    1  C3  UNL     1      11.321  12.345  46.088  1.00  0.00     0.056 A 
HETATM    2  S1  UNL     1      12.574  13.678  46.211  1.00  0.00    -0.136 SA
HETATM    3  C5  UNL     1      11.157  13.455  45.098  1.00  0.00     0.147 A 
ENDROOT
BRANCH   1   4
HETATM    4  C2  UNL     1      11.894  11.022  45.651  1.00  0.00     0.020 C 
HETATM    5  C1  UNL     1      11.155   9.931  46.397  1.00  0.00     0.007 C 
ENDBRANCH   1   4
BRANCH   1   6
HETATM    6  C4  UNL     1      10.297  12.255  47.186  1.00  0.00     0.252 C 
BRANCH   6   7
HETATM    7  N1  UNL     1       9.234  13.197  46.891  1.00  0.00    -0.078 N 
ATOM      8  H13 UNL     1       8.895  13.120  45.933  1.00  0.00     0.274 HD
ATOM      9  H12 UNL     1       8.361  12.966  47.365  1.00  0.00     0.274 HD
ATOM     10  H11 UNL     1       9.569  14.134  47.117  1.00  0.00     0.274 HD
ENDBRANCH   6   7
ENDBRANCH   1   6
BRANCH   3  11
HETATM   11  C6  UNL     1      11.553  13.084  43.717  1.00  0.00    -0.089 C 
HETATM   12  C7  UNL     1      11.892  12.791  42.602  1.00  0.00    -0.096 C 
BRANCH  12  13
HETATM   13  C8  UNL     1      12.331  12.437  41.250  1.00  0.00     0.013 C 
HETATM   14  C9  UNL     1      13.356  11.340  41.387  1.00  0.00     0.028 C 
HETATM   15  C10 UNL     1      11.185  11.912  40.414  1.00  0.00     0.028 C 
HETATM   16  C11 UNL     1      12.887  13.648  40.524  1.00  0.00     0.028 C 
ENDBRANCH  12  13
ENDBRANCH   3  11
TORSDOF 5
ENDMDL
MODEL 3
REMARK VINA RESULT: -4.266202721      2.047      2.719
REMARK  5 active torsions:
REMARK  status: ('A' for Active; 'I' for Inactive)
REMARK    1  A    between atoms: C2_2  and  C3_3 
REMARK    2  A    between atoms: C3_3  and  C4_4 
REMARK    3  A    between atoms: C4_4  and  N1_5 
REMARK    4  A    between atoms: C5_10  and  C6_11 
REMARK    5  A    between atoms: C7_12  and  C8_13 
ROOT
HETATM    1  C3  UNL     1      10.607  12.818  47.235  1.00  0.00     0.056 A 
HETATM    2  S1  UNL     1      10.499  10.989  47.177  1.00  0.00    -0.136 SA
HETATM    3  C5  UNL     1      11.790  12.138  46.620  1.00  0.00     0.147 A 
ENDROOT
BRANCH   1   4
HETATM    4  C2  UNL     1       9.594  13.507  46.359  1.00  0.00     0.020 C 
HETATM    5  C1  UNL     1       9.686  14.994  46.629  1.00  0.00     0.007 C 
ENDBRANCH   1   4
BRANCH   1   6
HETATM    6  C4  UNL     1      10.812  13.457  48.581  1.00  0.00     0.252 C 
BRANCH   6   7
HETATM    7  N1  UNL     1      12.228  13.727  48.743  1.00  0.00    -0.078 N 
ATOM      8  H13 UNL     1      12.606  14.304  47.993  1.00  0.00     0.274 HD
ATOM      9  H12 UNL     1      12.422  14.362  49.517  1.00  0.00     0.274 HD
ATOM     10  H11 UNL     1      12.713  12.833  48.836  1.00  0.00     0.274 HD
ENDBRANCH   6   7
ENDBRANCH   1   6
BRANCH   3  11
HETATM   11  C6  UNL     1      11.854  12.274  45.145  1.00  0.00    -0.089 C 
HETATM   12  C7  UNL     1      11.898  12.365  43.947  1.00  0.00    -0.096 C 
BRANCH  12  13
HETATM   13  C8  UNL     1      11.934  12.456  42.486  1.00  0.00     0.013 C 
HETATM   14  C9  UNL     1      13.180  11.744  42.025  1.00  0.00     0.028 C 
HETATM   15  C10 UNL     1      10.739  11.774  41.857  1.00  0.00     0.028 C 
HETATM   16  C11 UNL     1      11.904  13.904  42.029  1.00  0.00     0.028 C 
ENDBRANCH  12  13
ENDBRANCH   3  11
TORSDOF 5
ENDMDL
MODEL 4
REMARK VINA RESULT: -4.252568784      5.053      7.100
REMARK  5 active torsions:
REMARK  status: ('A' for Active; 'I' for Inactive)
REMARK    1  A    between atoms: C2_2  and  C3_3 
REMARK    2  A    between atoms: C3_3  and  C4_4 
REMARK    3  A    between atoms: C4_4  and  N1_5 
REMARK    4  A    between atoms: C5_10  and  C6_11 
REMARK    5  A    between atoms: C7_12  and  C8_13 
ROOT
HETATM    1  C3  UNL     1       5.523  12.103  48.477  1.00  0.00     0.056 A 
HETATM    2  S1  UNL     1       5.558  13.716  47.606  1.00  0.00    -0.136 SA
HETATM    3  C5  UNL     1       6.408  12.147  47.270  1.00  0.00     0.147 A 
ENDROOT
BRANCH   1   4
HETATM    4  C2  UNL     1       6.126  12.153  49.856  1.00  0.00     0.020 C 
HETATM    5  C1  UNL     1       5.304  11.249  50.751  1.00  0.00     0.007 C 
ENDBRANCH   1   4
BRANCH   1   6
HETATM    6  C4  UNL     1       4.264  11.286  48.370  1.00  0.00     0.252 C 
BRANCH   6   7
HETATM    7  N1  UNL     1       4.486  10.242  47.388  1.00  0.00    -0.078 N 
ATOM      8  H13 UNL     1       4.987  10.575  46.565  1.00  0.00     0.274 HD
ATOM      9  H12 UNL     1       5.171   9.551  47.695  1.00  0.00     0.274 HD
ATOM     10  H11 UNL     1       3.583   9.825  47.158  1.00  0.00     0.274 HD
ENDBRANCH   6   7
ENDBRANCH   1   6
BRANCH   3  11
HETATM   11  C6  UNL     1       7.854  12.186  47.595  1.00  0.00    -0.089 C 
HETATM   12  C7  UNL     1       9.028  12.198  47.853  1.00  0.00    -0.096 C 
BRANCH  12  13
HETATM   13  C8  UNL     1      10.461  12.190  48.153  1.00  0.00     0.013 C 
HETATM   14  C9  UNL     1      10.726  10.994  49.032  1.00  0.00     0.028 C 
HETATM   15  C10 UNL     1      11.291  12.046  46.897  1.00  0.00     0.028 C 
HETATM   16  C11 UNL     1      10.887  13.488  48.816  1.00  0.00     0.028 C 
ENDBRANCH  12  13
ENDBRANCH   3  11
TORSDOF 5
ENDMDL
MODEL 5
REMARK VINA RESULT: -4.222274891      3.624      4.860
REMARK  5 active torsions:
REMARK  status: ('A' for Active; 'I' for Inactive)
REMARK    1  A    between atoms: C2_2  and  C3_3 
REMARK    2  A    between atoms: C3_3  and  C4_4 
REMARK    3  A    between atoms: C4_4  and  N1_5 
REMARK    4  A    between atoms: C5_10  and  C6_11 
REMARK    5  A    between atoms: C7_12  and  C8_13 
ROOT
HETATM    1  C3  UNL     1      11.870  12.487  42.351  1.00  0.00     0.056 A 
HETATM    2  S1  UNL     1      10.261  12.520  41.472  1.00  0.00    -0.136 SA
HETATM    3  C5  UNL     1      11.775  13.498  41.251  1.00  0.00     0.147 A 
ENDROOT
BRANCH   1   4
HETATM    4  C2  UNL     1      11.777  12.926  43.789  1.00  0.00     0.020 C 
HETATM    5  C1  UNL     1      12.674  12.020  44.606  1.00  0.00     0.007 C 
ENDBRANCH   1   4
BRANCH   1   6
HETATM    6  C4  UNL     1      12.765  11.302  42.112  1.00  0.00     0.252 C 
BRANCH   6   7
HETATM    7  N1  UNL     1      13.808  11.702  41.188  1.00  0.00    -0.078 N 
ATOM      8  H13 UNL     1      13.470  11.799  40.231  1.00  0.00     0.274 HD
ATOM      9  H12 UNL     1      14.108  12.667  41.327  1.00  0.00     0.274 HD
ATOM     10  H11 UNL     1      14.577  11.036  41.269  1.00  0.00     0.274 HD
ENDBRANCH   6   7
ENDBRANCH   1   6
BRANCH   3  11
HETATM   11  C6  UNL     1      11.644  14.893  41.736  1.00  0.00    -0.089 C 
HETATM   12  C7  UNL     1      11.556  16.023  42.137  1.00  0.00    -0.096 C 
BRANCH  12  13
HETATM   13  C8  UNL     1      11.476  17.399  42.631  1.00  0.00     0.013 C 
HETATM   14  C9  UNL     1      12.888  17.910  42.759  1.00  0.00     0.028 C 
HETATM   15  C10 UNL     1      10.735  18.294  41.662  1.00  0.00     0.028 C 
HETATM   16  C11 UNL     1      10.726  17.462  43.950  1.00  0.00     0.028 C 
ENDBRANCH  12  13
ENDBRANCH   3  11
TORSDOF 5
ENDMDL
