MODEL 1
REMARK VINA RESULT: -4.709527902      0.000      0.000
REMARK  3 active torsions:
REMARK  status: ('A' for Active; 'I' for Inactive)
REMARK    1  A    between atoms: C2_2  and  C3_3 
REMARK    2  A    between atoms: C3_3  and  C4_4 
REMARK    3  A    between atoms: C12_13  and  N2_14 
ROOT
HETATM    1  C4  UNL     1      11.882  12.939  45.226  1.00  0.00    -0.012 C 
HETATM    2  C5  UNL     1      13.053  13.783  45.755  1.00  0.00     0.017 C 
HETATM    3  C6  UNL     1      11.054  13.750  44.255  1.00  0.00     0.052 C 
HETATM    4  C7  UNL     1      10.430  14.966  44.898  1.00  0.00     0.153 C 
HETATM    5  C8  UNL     1      11.318  16.190  44.803  1.00  0.00     0.049 C 
HETATM    6  C9  UNL     1       9.172  15.281  44.079  1.00  0.00     0.049 C 
HETATM    7  N1  UNL     1      10.115  14.766  46.285  1.00  0.00     0.095 N 
HETATM    8  C10 UNL     1       9.033  15.598  46.752  1.00  0.00     0.310 C 
HETATM    9  C11 UNL     1       9.812  13.384  46.568  1.00  0.00     0.306 C 
HETATM   10  C12 UNL     1      11.070  12.521  46.404  1.00  0.00     0.220 C 
ENDROOT
BRANCH   1  11
HETATM   11  C3  UNL     1      12.518  11.806  44.472  1.00  0.00     0.011 C 
BRANCH  11  12
HETATM   12  C2  UNL     1      12.023  11.679  43.061  1.00  0.00    -0.004 C 
HETATM   13  C1  UNL     1      13.193  11.420  42.126  1.00  0.00     0.005 C 
ENDBRANCH  11  12
ENDBRANCH   1  11
BRANCH  10  14
HETATM   14  N2  UNL     1      11.869  12.618  47.634  1.00  0.00    -0.073 N 
ATOM     15  H23 UNL     1      12.817  12.268  47.501  1.00  0.00     0.274 HD
ATOM     16  H22 UNL     1      12.097  13.585  47.865  1.00  0.00     0.274 HD
ATOM     17  H21 UNL     1      11.394  12.146  48.403  1.00  0.00     0.274 HD
ENDBRANCH  10  14
TORSDOF 3
ENDMDL
MODEL 2
REMARK VINA RESULT: -4.568855993      1.968      3.015
REMARK  3 active torsions:
REMARK  status: ('A' for Active; 'I' for Inactive)
REMARK    1  A    between atoms: C2_2  and  C3_3 
REMARK    2  A    between atoms: C3_3  and  C4_4 
REMARK    3  A    between atoms: C12_13  and  N2_14 
ROOT
HETATM    1  C4  UNL     1      10.901  11.762  47.333  1.00  0.00    -0.012 C 
HETATM    2  C5  UNL     1      11.902  12.376  48.324  1.00  0.00     0.017 C 
HETATM    3  C6  UNL     1      11.380  11.968  45.914  1.00  0.00     0.052 C 
HETATM    4  C7  UNL     1      11.484  13.429  45.543  1.00  0.00     0.153 C 
HETATM    5  C8  UNL     1      12.853  14.004  45.843  1.00  0.00     0.049 C 
HETATM    6  C9  UNL     1      11.314  13.493  44.020  1.00  0.00     0.049 C 
HETATM    7  N1  UNL     1      10.514  14.247  46.214  1.00  0.00     0.095 N 
HETATM    8  C10 UNL     1      10.177  15.448  45.488  1.00  0.00     0.310 C 
HETATM    9  C11 UNL     1       9.307  13.511  46.505  1.00  0.00     0.306 C 
HETATM   10  C12 UNL     1       9.588  12.430  47.558  1.00  0.00     0.220 C 
ENDROOT
BRANCH   1  11
HETATM   11  C3  UNL     1      10.909  10.288  47.624  1.00  0.00     0.011 C 
BRANCH  11  12
HETATM   12  C2  UNL     1      11.135   9.442  46.405  1.00  0.00    -0.004 C 
HETATM   13  C1  UNL     1      10.684   8.017  46.674  1.00  0.00     0.005 C 
ENDBRANCH  11  12
ENDBRANCH   1  11
BRANCH  10  14
HETATM   14  N2  UNL     1       9.554  13.052  48.890  1.00  0.00    -0.073 N 
ATOM     15  H23 UNL     1      10.397  13.592  49.079  1.00  0.00     0.274 HD
ATOM     16  H22 UNL     1       8.874  13.811  48.938  1.00  0.00     0.274 HD
ATOM     17  H21 UNL     1       9.386  12.345  49.606  1.00  0.00     0.274 HD
ENDBRANCH  10  14
TORSDOF 3
ENDMDL
MODEL 3
REMARK VINA RESULT: -4.532023524      2.067      3.476
REMARK  3 active torsions:
REMARK  status: ('A' for Active; 'I' for Inactive)
REMARK    1  A    between atoms: C2_2  and  C3_3 
REMARK    2  A    between atoms: C3_3  and  C4_4 
REMARK    3  A    between atoms: C12_13  and  N2_14 
ROOT
HETATM    1  C4  UNL     1      10.860  11.820  47.309  1.00  0.00    -0.012 C 
HETATM    2  C5  UNL     1      11.864  12.414  48.309  1.00  0.00     0.017 C 
HETATM    3  C6  UNL     1      11.361  12.008  45.894  1.00  0.00     0.052 C 
HETATM    4  C7  UNL     1      11.507  13.464  45.519  1.00  0.00     0.153 C 
HETATM    5  C8  UNL     1      12.886  14.007  45.834  1.00  0.00     0.049 C 
HETATM    6  C9  UNL     1      11.357  13.526  43.994  1.00  0.00     0.049 C 
HETATM    7  N1  UNL     1      10.549  14.309  46.175  1.00  0.00     0.095 N 
HETATM    8  C10 UNL     1      10.252  15.515  45.440  1.00  0.00     0.310 C 
HETATM    9  C11 UNL     1       9.321  13.605  46.454  1.00  0.00     0.306 C 
HETATM   10  C12 UNL     1       9.561  12.522  47.514  1.00  0.00     0.220 C 
ENDROOT
BRANCH   1  11
HETATM   11  C3  UNL     1      10.827  10.348  47.605  1.00  0.00     0.011 C 
BRANCH  11  12
HETATM   12  C2  UNL     1      11.238  10.014  49.009  1.00  0.00    -0.004 C 
HETATM   13  C1  UNL     1      11.709   8.571  49.079  1.00  0.00     0.005 C 
ENDBRANCH  11  12
ENDBRANCH   1  11
BRANCH  10  14
HETATM   14  N2  UNL     1       9.526  13.150  48.843  1.00  0.00    -0.073 N 
ATOM     15  H23 UNL     1      10.047  14.026  48.864  1.00  0.00     0.274 HD
ATOM     16  H22 UNL     1       8.601  13.519  49.065  1.00  0.00     0.274 HD
ATOM     17  H21 UNL     1       9.855  12.495  49.553  1.00  0.00     0.274 HD
ENDBRANCH  10  14
TORSDOF 3
ENDMDL
MODEL 4
REMARK VINA RESULT: -4.444992293      1.823      3.901
REMARK  3 active torsions:
REMARK  status: ('A' for Active; 'I' for Inactive)
REMARK    1  A    between atoms: C2_2  and  C3_3 
REMARK    2  A    between atoms: C3_3  and  C4_4 
REMARK    3  A    between atoms: C12_13  and  N2_14 
ROOT
HETATM    1  C4  UNL     1      11.360  13.456  45.483  1.00  0.00    -0.012 C 
HETATM    2  C5  UNL     1      12.659  13.983  46.114  1.00  0.00     0.017 C 
HETATM    3  C6  UNL     1      10.245  13.467  46.504  1.00  0.00     0.052 C 
HETATM    4  C7  UNL     1      10.528  12.564  47.682  1.00  0.00     0.153 C 
HETATM    5  C8  UNL     1      11.247  13.286  48.803  1.00  0.00     0.049 C 
HETATM    6  C9  UNL     1       9.159  12.155  48.240  1.00  0.00     0.049 C 
HETATM    7  N1  UNL     1      11.315  11.416  47.330  1.00  0.00     0.095 N 
HETATM    8  C10 UNL     1      11.102  10.287  48.204  1.00  0.00     0.310 C 
HETATM    9  C11 UNL     1      11.086  11.011  45.963  1.00  0.00     0.306 C 
HETATM   10  C12 UNL     1      11.632  12.073  45.000  1.00  0.00     0.220 C 
ENDROOT
BRANCH   1  11
HETATM   11  C3  UNL     1      11.018  14.440  44.401  1.00  0.00     0.011 C 
BRANCH  11  12
HETATM   12  C2  UNL     1      11.575  15.812  44.645  1.00  0.00    -0.004 C 
HETATM   13  C1  UNL     1      10.441  16.801  44.853  1.00  0.00     0.005 C 
ENDBRANCH  11  12
ENDBRANCH   1  11
BRANCH  10  14
HETATM   14  N2  UNL     1      13.078  11.863  44.840  1.00  0.00    -0.073 N 
ATOM     15  H23 UNL     1      13.284  11.000  44.337  1.00  0.00     0.274 HD
ATOM     16  H22 UNL     1      13.488  12.524  44.179  1.00  0.00     0.274 HD
ATOM     17  H21 UNL     1      13.542  11.895  45.747  1.00  0.00     0.274 HD
ENDBRANCH  10  14
TORSDOF 3
ENDMDL
MODEL 5
REMARK VINA RESULT: -4.367926997      3.242      4.648
REMARK  3 active torsions:
REMARK  status: ('A' for Active; 'I' for Inactive)
REMARK    1  A    between atoms: C2_2  and  C3_3 
REMARK    2  A    between atoms: C3_3  and  C4_4 
REMARK    3  A    between atoms: C12_13  and  N2_14 
ROOT
HETATM    1  C4  UNL     1      11.963  12.600  42.218  1.00  0.00    -0.012 C 
HETATM    2  C5  UNL     1      10.699  11.819  41.827  1.00  0.00     0.017 C 
HETATM    3  C6  UNL     1      11.585  13.879  42.931  1.00  0.00     0.052 C 
HETATM    4  C7  UNL     1      10.776  14.811  42.060  1.00  0.00     0.153 C 
HETATM    5  C8  UNL     1       9.285  14.572  42.187  1.00  0.00     0.049 C 
HETATM    6  C9  UNL     1      11.033  16.224  42.598  1.00  0.00     0.049 C 
HETATM    7  N1  UNL     1      11.114  14.710  40.668  1.00  0.00     0.095 N 
HETATM    8  C10 UNL     1      10.848  15.920  39.926  1.00  0.00     0.310 C 
HETATM    9  C11 UNL     1      12.493  14.329  40.482  1.00  0.00     0.306 C 
HETATM   10  C12 UNL     1      12.713  12.888  40.963  1.00  0.00     0.220 C 
ENDROOT
BRANCH   1  11
HETATM   11  C3  UNL     1      12.691  11.716  43.191  1.00  0.00     0.011 C 
BRANCH  11  12
HETATM   12  C2  UNL     1      12.595  12.189  44.612  1.00  0.00    -0.004 C 
HETATM   13  C1  UNL     1      11.931  11.122  45.466  1.00  0.00     0.005 C 
ENDBRANCH  11  12
ENDBRANCH   1  11
BRANCH  10  14
HETATM   14  N2  UNL     1      12.293  11.968  39.896  1.00  0.00    -0.073 N 
ATOM     15  H23 UNL     1      13.068  11.399  39.558  1.00  0.00     0.274 HD
ATOM     16  H22 UNL     1      11.700  11.218  40.252  1.00  0.00     0.274 HD
ATOM     17  H21 UNL     1      11.842  12.484  39.141  1.00  0.00     0.274 HD
ENDBRANCH  10  14
TORSDOF 3
ENDMDL
