MODEL 1
REMARK VINA RESULT: -4.918745634      0.000      0.000
REMARK  2 active torsions:
REMARK  status: ('A' for Active; 'I' for Inactive)
REMARK    1  A    between atoms: N1_3  and  N2_5 
REMARK    2  A    between atoms: N2_5  and  C3_7 
ROOT
HETATM    1  C3  UNL     1      11.268  12.817  45.940  1.00  0.00     0.046 C 
HETATM    2  C4  UNL     1      10.045  13.687  46.174  1.00  0.00     0.037 C 
HETATM    3  C5  UNL     1       9.476  13.412  47.528  1.00  0.00    -0.012 C 
HETATM    4  C6  UNL     1       9.109  11.979  47.743  1.00  0.00     0.009 C 
HETATM    5  C7  UNL     1      10.358  11.146  47.583  1.00  0.00    -0.012 C 
HETATM    6  C8  UNL     1      11.424  11.562  48.587  1.00  0.00     0.009 C 
HETATM    7  C9  UNL     1      11.738  13.010  48.326  1.00  0.00    -0.012 C 
HETATM    8  C10 UNL     1      10.484  13.834  48.566  1.00  0.00     0.009 C 
HETATM    9  C11 UNL     1      12.307  13.239  46.950  1.00  0.00     0.037 C 
HETATM   10  C12 UNL     1      10.914  11.375  46.214  1.00  0.00     0.037 C 
ENDROOT
BRANCH   1  11
HETATM   11  N2  UNL     1      11.712  12.936  44.588  1.00  0.00    -0.327 N 
ATOM     12  H2  UNL     1      11.282  13.636  43.984  1.00  0.00     0.181 HD
BRANCH  11  13
HETATM   13  N1  UNL     1      12.732  12.110  44.065  1.00  0.00    -0.320 N 
HETATM   14  C2  UNL     1      12.596  11.557  42.919  1.00  0.00     0.075 C 
HETATM   15  C1  UNL     1      11.377  11.767  42.116  1.00  0.00     0.056 C 
ATOM     16  H1  UNL     1      13.583  11.953  44.604  1.00  0.00     0.185 HD
ENDBRANCH  11  13
ENDBRANCH   1  11
TORSDOF 2
ENDMDL
MODEL 2
REMARK VINA RESULT: -4.854958996      0.107      1.947
REMARK  2 active torsions:
REMARK  status: ('A' for Active; 'I' for Inactive)
REMARK    1  A    between atoms: N1_3  and  N2_5 
REMARK    2  A    between atoms: N2_5  and  C3_7 
ROOT
HETATM    1  C3  UNL     1      11.284  12.712  45.970  1.00  0.00     0.046 C 
HETATM    2  C4  UNL     1      12.290  13.139  47.025  1.00  0.00     0.037 C 
HETATM    3  C5  UNL     1      11.668  13.067  48.380  1.00  0.00    -0.012 C 
HETATM    4  C6  UNL     1      10.432  13.896  48.516  1.00  0.00     0.009 C 
HETATM    5  C7  UNL     1       9.421  13.398  47.511  1.00  0.00    -0.012 C 
HETATM    6  C8  UNL     1       9.088  11.933  47.752  1.00  0.00     0.009 C 
HETATM    7  C9  UNL     1      10.370  11.158  47.614  1.00  0.00    -0.012 C 
HETATM    8  C10 UNL     1      11.343  11.627  48.684  1.00  0.00     0.009 C 
HETATM    9  C11 UNL     1      10.962  11.261  46.232  1.00  0.00     0.037 C 
HETATM   10  C12 UNL     1      10.013  13.508  46.143  1.00  0.00     0.037 C 
ENDROOT
BRANCH   1  11
HETATM   11  N2  UNL     1      11.804  12.948  44.660  1.00  0.00    -0.327 N 
ATOM     12  H2  UNL     1      11.473  13.756  44.133  1.00  0.00     0.181 HD
BRANCH  11  13
HETATM   13  N1  UNL     1      12.764  12.092  44.076  1.00  0.00    -0.320 N 
HETATM   14  C2  UNL     1      12.548  11.558  42.934  1.00  0.00     0.075 C 
HETATM   15  C1  UNL     1      11.297  11.821  42.198  1.00  0.00     0.056 C 
ATOM     16  H1  UNL     1      13.636  11.899  44.569  1.00  0.00     0.185 HD
ENDBRANCH  11  13
ENDBRANCH   1  11
TORSDOF 2
ENDMDL
MODEL 3
REMARK VINA RESULT: -4.841467909      0.602      2.074
REMARK  2 active torsions:
REMARK  status: ('A' for Active; 'I' for Inactive)
REMARK    1  A    between atoms: N1_3  and  N2_5 
REMARK    2  A    between atoms: N2_5  and  C3_7 
ROOT
HETATM    1  C3  UNL     1      11.426  12.476  46.054  1.00  0.00     0.046 C 
HETATM    2  C4  UNL     1      10.931  11.100  46.468  1.00  0.00     0.037 C 
HETATM    3  C5  UNL     1      10.267  11.179  47.803  1.00  0.00    -0.012 C 
HETATM    4  C6  UNL     1      11.149  11.728  48.878  1.00  0.00     0.009 C 
HETATM    5  C7  UNL     1      11.561  13.125  48.478  1.00  0.00    -0.012 C 
HETATM    6  C8  UNL     1      10.346  14.023  48.300  1.00  0.00     0.009 C 
HETATM    7  C9  UNL     1       9.497  13.411  47.219  1.00  0.00    -0.012 C 
HETATM    8  C10 UNL     1       9.034  12.038  47.677  1.00  0.00     0.009 C 
HETATM    9  C11 UNL     1      10.208  13.351  45.891  1.00  0.00     0.037 C 
HETATM   10  C12 UNL     1      12.269  13.056  47.164  1.00  0.00     0.037 C 
ENDROOT
BRANCH   1  11
HETATM   11  N2  UNL     1      12.219  12.384  44.869  1.00  0.00    -0.327 N 
ATOM     12  H2  UNL     1      12.948  13.078  44.705  1.00  0.00     0.181 HD
BRANCH  11  13
HETATM   13  N1  UNL     1      12.021  11.358  43.919  1.00  0.00    -0.320 N 
HETATM   14  C2  UNL     1      11.739  11.643  42.704  1.00  0.00     0.075 C 
HETATM   15  C1  UNL     1      11.616  13.045  42.264  1.00  0.00     0.056 C 
ATOM     16  H1  UNL     1      12.102  10.381  44.204  1.00  0.00     0.185 HD
ENDBRANCH  11  13
ENDBRANCH   1  11
TORSDOF 2
ENDMDL
MODEL 4
REMARK VINA RESULT: -4.782087152      1.459      2.816
REMARK  2 active torsions:
REMARK  status: ('A' for Active; 'I' for Inactive)
REMARK    1  A    between atoms: N1_3  and  N2_5 
REMARK    2  A    between atoms: N2_5  and  C3_7 
ROOT
HETATM    1  C3  UNL     1      11.670  11.997  44.715  1.00  0.00     0.046 C 
HETATM    2  C4  UNL     1      12.995  12.604  45.144  1.00  0.00     0.037 C 
HETATM    3  C5  UNL     1      12.756  13.719  46.108  1.00  0.00    -0.012 C 
HETATM    4  C6  UNL     1      11.873  14.798  45.568  1.00  0.00     0.009 C 
HETATM    5  C7  UNL     1      10.538  14.182  45.225  1.00  0.00    -0.012 C 
HETATM    6  C8  UNL     1       9.894  13.556  46.454  1.00  0.00     0.009 C 
HETATM    7  C9  UNL     1      10.833  12.492  46.953  1.00  0.00    -0.012 C 
HETATM    8  C10 UNL     1      12.143  13.148  47.361  1.00  0.00     0.009 C 
HETATM    9  C11 UNL     1      11.046  11.391  45.947  1.00  0.00     0.037 C 
HETATM   10  C12 UNL     1      10.755  13.094  44.225  1.00  0.00     0.037 C 
ENDROOT
BRANCH   1  11
HETATM   11  N2  UNL     1      11.871  11.055  43.660  1.00  0.00    -0.327 N 
ATOM     12  H2  UNL     1      12.312  10.161  43.872  1.00  0.00     0.181 HD
BRANCH  11  13
HETATM   13  N1  UNL     1      11.476  11.330  42.332  1.00  0.00    -0.320 N 
HETATM   14  C2  UNL     1      12.348  11.415  41.399  1.00  0.00     0.075 C 
HETATM   15  C1  UNL     1      13.783  11.229  41.684  1.00  0.00     0.056 C 
ATOM     16  H1  UNL     1      10.488  11.462  42.115  1.00  0.00     0.185 HD
ENDBRANCH  11  13
ENDBRANCH   1  11
TORSDOF 2
ENDMDL
MODEL 5
REMARK VINA RESULT: -4.694693609      1.478      2.170
REMARK  2 active torsions:
REMARK  status: ('A' for Active; 'I' for Inactive)
REMARK    1  A    between atoms: N1_3  and  N2_5 
REMARK    2  A    between atoms: N2_5  and  C3_7 
ROOT
HETATM    1  C3  UNL     1      11.711  12.103  44.642  1.00  0.00     0.046 C 
HETATM    2  C4  UNL     1      10.839  13.233  44.121  1.00  0.00     0.037 C 
HETATM    3  C5  UNL     1      10.525  14.185  45.228  1.00  0.00    -0.012 C 
HETATM    4  C6  UNL     1       9.852  13.543  46.397  1.00  0.00     0.009 C 
HETATM    5  C7  UNL     1      10.774  12.480  46.944  1.00  0.00    -0.012 C 
HETATM    6  C8  UNL     1      12.102  13.081  47.380  1.00  0.00     0.009 C 
HETATM    7  C9  UNL     1      12.720  13.719  46.166  1.00  0.00    -0.012 C 
HETATM    8  C10 UNL     1      11.808  14.834  45.681  1.00  0.00     0.009 C 
HETATM    9  C11 UNL     1      13.017  12.721  45.077  1.00  0.00     0.037 C 
HETATM   10  C12 UNL     1      11.060  11.492  45.860  1.00  0.00     0.037 C 
ENDROOT
BRANCH   1  11
HETATM   11  N2  UNL     1      11.867  11.093  43.644  1.00  0.00    -0.327 N 
ATOM     12  H2  UNL     1      12.266  10.192  43.907  1.00  0.00     0.181 HD
BRANCH  11  13
HETATM   13  N1  UNL     1      11.484  11.309  42.302  1.00  0.00    -0.320 N 
HETATM   14  C2  UNL     1      12.366  11.372  41.376  1.00  0.00     0.075 C 
HETATM   15  C1  UNL     1      13.800  11.221  41.685  1.00  0.00     0.056 C 
ATOM     16  H1  UNL     1      10.497  11.415  42.068  1.00  0.00     0.185 HD
ENDBRANCH  11  13
ENDBRANCH   1  11
TORSDOF 2
ENDMDL
