MODEL 1
REMARK VINA RESULT: -8.838452913      0.000      0.000
REMARK  14 active torsions:
REMARK  status: ('A' for Active; 'I' for Inactive)
REMARK    1  A    between atoms: C2_2  and  O1_5 
REMARK    2  A    between atoms: O1_5  and  C5_6 
REMARK       I    between atoms: C5_6  and  N1_8 
REMARK    3  A    between atoms: N1_8  and  C6_10 
REMARK    4  A    between atoms: C6_10  and  C8_13 
REMARK       I    between atoms: C8_13  and  N3_15 
REMARK    5  A    between atoms: N3_15  and  C9_17 
REMARK    6  A    between atoms: C9_17  and  C10_18 
REMARK       I    between atoms: C10_18  and  N4_20 
REMARK    7  A    between atoms: N4_20  and  C11_21 
REMARK    8  A    between atoms: N4_20  and  C19_30 
REMARK    9  A    between atoms: C11_21  and  C12_22 
REMARK   10  A    between atoms: C12_22  and  C13_23 
REMARK   11  A    between atoms: C13_23  and  N5_24 
REMARK   12  A    between atoms: C19_30  and  C20_31 
REMARK   13  A    between atoms: C19_30  and  C25_40 
REMARK       I    between atoms: C20_31  and  N6_33 
REMARK   14  A    between atoms: N6_33  and  C21_35 
ROOT
HETATM    1  C6  UNL     1     -17.068   1.081  -6.473  1.00  0.00     0.286 C 
HETATM    2  C7  UNL     1     -18.390   1.164  -7.129  1.00  0.00     0.094 C 
HETATM    3  N2  UNL     1     -19.418   1.246  -7.647  1.00  0.00    -0.195 NA
ENDROOT
BRANCH   1   4
HETATM    4  N1  UNL     1     -16.590   2.415  -6.277  1.00  0.00    -0.312 N 
HETATM    5  C5  UNL     1     -16.285   3.225  -7.402  1.00  0.00     0.362 C 
HETATM    6  O2  UNL     1     -16.437   2.758  -8.585  1.00  0.00    -0.238 OA
ATOM      7  H1  UNL     1     -16.469   2.782  -5.333  1.00  0.00     0.166 HD
BRANCH   5   8
HETATM    8  O1  UNL     1     -15.824   4.515  -7.340  1.00  0.00    -0.294 OA
BRANCH   8   9
HETATM    9  C2  UNL     1     -16.563   5.629  -6.928  1.00  0.00     0.061 C 
HETATM   10  C1  UNL     1     -15.756   6.430  -5.908  1.00  0.00     0.046 C 
HETATM   11  C3  UNL     1     -16.883   6.527  -8.102  1.00  0.00     0.046 C 
HETATM   12  C4  UNL     1     -17.870   5.252  -6.268  1.00  0.00     0.046 C 
ENDBRANCH   8   9
ENDBRANCH   5   8
ENDBRANCH   1   4
BRANCH   1  13
HETATM   13  C8  UNL     1     -17.191   0.356  -5.184  1.00  0.00     0.255 C 
HETATM   14  O3  UNL     1     -16.257   0.388  -4.347  1.00  0.00    -0.270 OA
HETATM   15  N3  UNL     1     -18.356  -0.381  -4.874  1.00  0.00    -0.350 N 
ATOM     16  H3  UNL     1     -19.124  -0.416  -5.545  1.00  0.00     0.163 HD
BRANCH  15  17
HETATM   17  C9  UNL     1     -18.472  -1.084  -3.618  1.00  0.00     0.225 C 
BRANCH  17  18
HETATM   18  C10 UNL     1     -18.796  -0.167  -2.500  1.00  0.00     0.238 C 
HETATM   19  O4  UNL     1     -19.713   0.662  -2.710  1.00  0.00    -0.272 OA
HETATM   20  N4  UNL     1     -18.151  -0.179  -1.255  1.00  0.00    -0.337 N 
BRANCH  20  21
HETATM   21  C11 UNL     1     -17.090  -1.145  -1.081  1.00  0.00     0.132 C 
BRANCH  21  22
HETATM   22  C12 UNL     1     -17.525  -2.558  -0.926  1.00  0.00     0.064 C 
BRANCH  22  23
HETATM   23  C13 UNL     1     -16.812  -3.182   0.260  1.00  0.00     0.064 C 
BRANCH  23  24
HETATM   24  N5  UNL     1     -17.345  -4.417   0.665  1.00  0.00    -0.374 N 
HETATM   25  C14 UNL     1     -18.653  -4.469   1.183  1.00  0.00     0.063 C 
HETATM   26  C15 UNL     1     -18.631  -4.344   2.694  1.00  0.00     0.044 C 
HETATM   27  C16 UNL     1     -17.283  -4.776   3.220  1.00  0.00     0.007 C 
HETATM   28  C17 UNL     1     -16.809  -5.969   2.407  1.00  0.00     0.021 C 
HETATM   29  C18 UNL     1     -16.494  -5.484   0.990  1.00  0.00     0.127 C 
ENDBRANCH  23  24
ENDBRANCH  22  23
ENDBRANCH  21  22
ENDBRANCH  20  21
BRANCH  20  30
HETATM   30  C19 UNL     1     -18.474   0.669  -0.138  1.00  0.00     0.183 C 
BRANCH  30  31
HETATM   31  C20 UNL     1     -17.800   1.963  -0.435  1.00  0.00     0.242 C 
HETATM   32  O5  UNL     1     -16.543   2.087  -0.360  1.00  0.00    -0.271 OA
HETATM   33  N6  UNL     1     -18.541   3.097  -0.806  1.00  0.00    -0.337 N 
ATOM     34  H6  UNL     1     -19.556   3.022  -0.872  1.00  0.00     0.164 HD
BRANCH  33  35
HETATM   35  C21 UNL     1     -17.908   4.380  -1.100  1.00  0.00     0.122 A 
HETATM   36  C22 UNL     1     -17.329   5.021   0.080  1.00  0.00     0.091 C 
HETATM   37  N7  UNL     1     -16.877   5.553   1.028  1.00  0.00    -0.195 NA
HETATM   38  C23 UNL     1     -18.638   5.330  -2.048  1.00  0.00     0.050 A 
HETATM   39  C24 UNL     1     -17.333   4.658  -2.432  1.00  0.00     0.050 A 
ENDBRANCH  33  35
ENDBRANCH  30  31
BRANCH  30  40
HETATM   40  C25 UNL     1     -18.163   0.232   1.214  1.00  0.00     0.018 C 
HETATM   41  C26 UNL     1     -18.332   1.393   2.163  1.00  0.00     0.007 C 
HETATM   42  C27 UNL     1     -18.472   0.795   3.543  1.00  0.00     0.000 C 
HETATM   43  C28 UNL     1     -18.852  -0.621   3.307  1.00  0.00     0.000 C 
HETATM   44  C29 UNL     1     -19.100  -0.781   1.819  1.00  0.00     0.007 C 
ENDBRANCH  30  40
ENDBRANCH  20  30
ENDBRANCH  17  18
ENDBRANCH  15  17
ENDBRANCH   1  13
TORSDOF 14
ENDMDL
MODEL 2
REMARK VINA RESULT: -8.829411210      2.454      5.058
REMARK  14 active torsions:
REMARK  status: ('A' for Active; 'I' for Inactive)
REMARK    1  A    between atoms: C2_2  and  O1_5 
REMARK    2  A    between atoms: O1_5  and  C5_6 
REMARK       I    between atoms: C5_6  and  N1_8 
REMARK    3  A    between atoms: N1_8  and  C6_10 
REMARK    4  A    between atoms: C6_10  and  C8_13 
REMARK       I    between atoms: C8_13  and  N3_15 
REMARK    5  A    between atoms: N3_15  and  C9_17 
REMARK    6  A    between atoms: C9_17  and  C10_18 
REMARK       I    between atoms: C10_18  and  N4_20 
REMARK    7  A    between atoms: N4_20  and  C11_21 
REMARK    8  A    between atoms: N4_20  and  C19_30 
REMARK    9  A    between atoms: C11_21  and  C12_22 
REMARK   10  A    between atoms: C12_22  and  C13_23 
REMARK   11  A    between atoms: C13_23  and  N5_24 
REMARK   12  A    between atoms: C19_30  and  C20_31 
REMARK   13  A    between atoms: C19_30  and  C25_40 
REMARK       I    between atoms: C20_31  and  N6_33 
REMARK   14  A    between atoms: N6_33  and  C21_35 
ROOT
HETATM    1  C6  UNL     1     -18.495   3.983  -2.483  1.00  0.00     0.286 C 
HETATM    2  C7  UNL     1     -17.152   4.585  -2.620  1.00  0.00     0.094 C 
HETATM    3  N2  UNL     1     -16.104   5.053  -2.745  1.00  0.00    -0.195 NA
ENDROOT
BRANCH   1   4
HETATM    4  N1  UNL     1     -18.753   3.214  -3.661  1.00  0.00    -0.312 N 
HETATM    5  C5  UNL     1     -19.129   3.870  -4.863  1.00  0.00     0.362 C 
HETATM    6  O2  UNL     1     -19.236   5.146  -4.886  1.00  0.00    -0.238 OA
ATOM      7  H1  UNL     1     -18.668   2.198  -3.637  1.00  0.00     0.166 HD
BRANCH   5   8
HETATM    8  O1  UNL     1     -19.398   3.241  -6.050  1.00  0.00    -0.294 OA
BRANCH   8   9
HETATM    9  C2  UNL     1     -18.474   2.545  -6.836  1.00  0.00     0.061 C 
HETATM   10  C1  UNL     1     -18.620   1.045  -6.591  1.00  0.00     0.046 C 
HETATM   11  C3  UNL     1     -18.702   2.817  -8.306  1.00  0.00     0.046 C 
HETATM   12  C4  UNL     1     -17.042   2.912  -6.518  1.00  0.00     0.046 C 
ENDBRANCH   8   9
ENDBRANCH   5   8
ENDBRANCH   1   4
BRANCH   1  13
HETATM   13  C8  UNL     1     -18.547   3.140  -1.264  1.00  0.00     0.255 C 
HETATM   14  O3  UNL     1     -19.346   2.177  -1.192  1.00  0.00    -0.270 OA
HETATM   15  N3  UNL     1     -17.700   3.402  -0.164  1.00  0.00    -0.350 N 
ATOM     16  H3  UNL     1     -17.044   4.183  -0.207  1.00  0.00     0.163 HD
BRANCH  15  17
HETATM   17  C9  UNL     1     -17.752   2.578   1.021  1.00  0.00     0.225 C 
BRANCH  17  18
HETATM   18  C10 UNL     1     -17.256   1.206   0.762  1.00  0.00     0.238 C 
HETATM   19  O4  UNL     1     -16.275   1.107  -0.013  1.00  0.00    -0.272 OA
HETATM   20  N4  UNL     1     -17.810   0.046   1.321  1.00  0.00    -0.337 N 
BRANCH  20  21
HETATM   21  C11 UNL     1     -18.952   0.223   2.191  1.00  0.00     0.132 C 
BRANCH  21  22
HETATM   22  C12 UNL     1     -18.657   0.794   3.532  1.00  0.00     0.064 C 
BRANCH  22  23
HETATM   23  C13 UNL     1     -17.866  -0.211   4.349  1.00  0.00     0.064 C 
BRANCH  23  24
HETATM   24  N5  UNL     1     -18.622  -0.876   5.329  1.00  0.00    -0.374 N 
HETATM   25  C14 UNL     1     -18.855  -0.247   6.566  1.00  0.00     0.063 C 
HETATM   26  C15 UNL     1     -17.792  -0.643   7.572  1.00  0.00     0.044 C 
HETATM   27  C16 UNL     1     -17.182  -1.967   7.173  1.00  0.00     0.007 C 
HETATM   28  C17 UNL     1     -18.284  -2.859   6.627  1.00  0.00     0.021 C 
HETATM   29  C18 UNL     1     -18.755  -2.272   5.294  1.00  0.00     0.127 C 
ENDBRANCH  23  24
ENDBRANCH  22  23
ENDBRANCH  21  22
ENDBRANCH  20  21
BRANCH  20  30
HETATM   30  C19 UNL     1     -17.323  -1.293   1.121  1.00  0.00     0.183 C 
BRANCH  30  31
HETATM   31  C20 UNL     1     -17.221  -1.445  -0.356  1.00  0.00     0.242 C 
HETATM   32  O5  UNL     1     -16.342  -2.186  -0.885  1.00  0.00    -0.271 OA
HETATM   33  N6  UNL     1     -18.097  -0.764  -1.217  1.00  0.00    -0.337 N 
ATOM     34  H6  UNL     1     -18.812  -0.159  -0.814  1.00  0.00     0.164 HD
BRANCH  33  35
HETATM   35  C21 UNL     1     -18.018  -0.890  -2.669  1.00  0.00     0.122 A 
HETATM   36  C22 UNL     1     -17.105   0.074  -3.283  1.00  0.00     0.091 C 
HETATM   37  N7  UNL     1     -16.386   0.858  -3.788  1.00  0.00    -0.195 NA
HETATM   38  C23 UNL     1     -19.322  -1.108  -3.434  1.00  0.00     0.050 A 
HETATM   39  C24 UNL     1     -18.260  -2.186  -3.335  1.00  0.00     0.050 A 
ENDBRANCH  33  35
ENDBRANCH  30  31
BRANCH  30  40
HETATM   40  C25 UNL     1     -18.044  -2.417   1.700  1.00  0.00     0.018 C 
HETATM   41  C26 UNL     1     -18.838  -3.107   0.619  1.00  0.00     0.007 C 
HETATM   42  C27 UNL     1     -19.157  -4.488   1.143  1.00  0.00     0.000 C 
HETATM   43  C28 UNL     1     -18.179  -4.713   2.237  1.00  0.00     0.000 C 
HETATM   44  C29 UNL     1     -17.201  -3.554   2.217  1.00  0.00     0.007 C 
ENDBRANCH  30  40
ENDBRANCH  20  30
ENDBRANCH  17  18
ENDBRANCH  15  17
ENDBRANCH   1  13
TORSDOF 14
ENDMDL
MODEL 3
REMARK VINA RESULT: -8.605625898      2.315      8.003
REMARK  14 active torsions:
REMARK  status: ('A' for Active; 'I' for Inactive)
REMARK    1  A    between atoms: C2_2  and  O1_5 
REMARK    2  A    between atoms: O1_5  and  C5_6 
REMARK       I    between atoms: C5_6  and  N1_8 
REMARK    3  A    between atoms: N1_8  and  C6_10 
REMARK    4  A    between atoms: C6_10  and  C8_13 
REMARK       I    between atoms: C8_13  and  N3_15 
REMARK    5  A    between atoms: N3_15  and  C9_17 
REMARK    6  A    between atoms: C9_17  and  C10_18 
REMARK       I    between atoms: C10_18  and  N4_20 
REMARK    7  A    between atoms: N4_20  and  C11_21 
REMARK    8  A    between atoms: N4_20  and  C19_30 
REMARK    9  A    between atoms: C11_21  and  C12_22 
REMARK   10  A    between atoms: C12_22  and  C13_23 
REMARK   11  A    between atoms: C13_23  and  N5_24 
REMARK   12  A    between atoms: C19_30  and  C20_31 
REMARK   13  A    between atoms: C19_30  and  C25_40 
REMARK       I    between atoms: C20_31  and  N6_33 
REMARK   14  A    between atoms: N6_33  and  C21_35 
ROOT
HETATM    1  C6  UNL     1     -18.305  -3.061  -0.798  1.00  0.00     0.286 C 
HETATM    2  C7  UNL     1     -17.385  -4.174  -1.113  1.00  0.00     0.094 C 
HETATM    3  N2  UNL     1     -16.664  -5.046  -1.341  1.00  0.00    -0.195 NA
ENDROOT
BRANCH   1   4
HETATM    4  N1  UNL     1     -18.071  -2.668   0.557  1.00  0.00    -0.312 N 
HETATM    5  C5  UNL     1     -18.953  -1.750   1.187  1.00  0.00     0.362 C 
HETATM    6  O2  UNL     1     -19.952  -1.278   0.539  1.00  0.00    -0.238 OA
ATOM      7  H1  UNL     1     -17.273  -3.045   1.069  1.00  0.00     0.166 HD
BRANCH   5   8
HETATM    8  O1  UNL     1     -18.832  -1.303   2.477  1.00  0.00    -0.294 OA
BRANCH   8   9
HETATM    9  C2  UNL     1     -17.928  -0.335   2.927  1.00  0.00     0.061 C 
HETATM   10  C1  UNL     1     -18.668   0.974   3.193  1.00  0.00     0.046 C 
HETATM   11  C3  UNL     1     -17.258  -0.778   4.208  1.00  0.00     0.046 C 
HETATM   12  C4  UNL     1     -16.841  -0.036   1.919  1.00  0.00     0.046 C 
ENDBRANCH   8   9
ENDBRANCH   5   8
ENDBRANCH   1   4
BRANCH   1  13
HETATM   13  C8  UNL     1     -18.073  -1.935  -1.735  1.00  0.00     0.255 C 
HETATM   14  O3  UNL     1     -16.950  -1.382  -1.796  1.00  0.00    -0.270 OA
HETATM   15  N3  UNL     1     -19.108  -1.465  -2.575  1.00  0.00    -0.350 N 
ATOM     16  H3  UNL     1     -20.028  -1.905  -2.536  1.00  0.00     0.163 HD
BRANCH  15  17
HETATM   17  C9  UNL     1     -18.878  -0.369  -3.488  1.00  0.00     0.225 C 
BRANCH  17  18
HETATM   18  C10 UNL     1     -19.024   0.946  -2.819  1.00  0.00     0.238 C 
HETATM   19  O4  UNL     1     -20.010   1.074  -2.056  1.00  0.00    -0.272 OA
HETATM   20  N4  UNL     1     -18.141   2.021  -2.990  1.00  0.00    -0.337 N 
BRANCH  20  21
HETATM   21  C11 UNL     1     -17.034   1.818  -3.897  1.00  0.00     0.132 C 
BRANCH  21  22
HETATM   22  C12 UNL     1     -17.292   0.887  -5.028  1.00  0.00     0.064 C 
BRANCH  22  23
HETATM   23  C13 UNL     1     -17.024   1.598  -6.342  1.00  0.00     0.064 C 
BRANCH  23  24
HETATM   24  N5  UNL     1     -18.130   1.642  -7.206  1.00  0.00    -0.374 N 
HETATM   25  C14 UNL     1     -18.518   0.475  -7.893  1.00  0.00     0.063 C 
HETATM   26  C15 UNL     1     -17.858   0.418  -9.257  1.00  0.00     0.044 C 
HETATM   27  C16 UNL     1     -17.482   1.813  -9.699  1.00  0.00     0.007 C 
HETATM   28  C17 UNL     1     -18.584   2.766  -9.270  1.00  0.00     0.021 C 
HETATM   29  C18 UNL     1     -18.562   2.864  -7.743  1.00  0.00     0.127 C 
ENDBRANCH  23  24
ENDBRANCH  22  23
ENDBRANCH  21  22
ENDBRANCH  20  21
BRANCH  20  30
HETATM   30  C19 UNL     1     -18.233   3.292  -2.322  1.00  0.00     0.183 C 
BRANCH  30  31
HETATM   31  C20 UNL     1     -18.019   4.303  -3.393  1.00  0.00     0.242 C 
HETATM   32  O5  UNL     1     -18.946   4.626  -4.192  1.00  0.00    -0.271 OA
HETATM   33  N6  UNL     1     -16.774   4.931  -3.559  1.00  0.00    -0.337 N 
ATOM     34  H6  UNL     1     -16.011   4.685  -2.928  1.00  0.00     0.164 HD
BRANCH  33  35
HETATM   35  C21 UNL     1     -16.534   5.923  -4.603  1.00  0.00     0.122 A 
HETATM   36  C22 UNL     1     -16.364   5.333  -5.931  1.00  0.00     0.091 C 
HETATM   37  N7  UNL     1     -16.209   4.865  -7.000  1.00  0.00    -0.195 NA
HETATM   38  C23 UNL     1     -15.571   7.066  -4.287  1.00  0.00     0.050 A 
HETATM   39  C24 UNL     1     -17.057   7.298  -4.482  1.00  0.00     0.050 A 
ENDBRANCH  33  35
ENDBRANCH  30  31
BRANCH  30  40
HETATM   40  C25 UNL     1     -17.376   3.571  -1.180  1.00  0.00     0.018 C 
HETATM   41  C26 UNL     1     -17.565   5.007  -0.756  1.00  0.00     0.007 C 
HETATM   42  C27 UNL     1     -17.054   5.102   0.663  1.00  0.00     0.000 C 
HETATM   43  C28 UNL     1     -17.042   3.701   1.155  1.00  0.00     0.000 C 
HETATM   44  C29 UNL     1     -17.708   2.842   0.097  1.00  0.00     0.007 C 
ENDBRANCH  30  40
ENDBRANCH  20  30
ENDBRANCH  17  18
ENDBRANCH  15  17
ENDBRANCH   1  13
TORSDOF 14
ENDMDL
MODEL 4
REMARK VINA RESULT: -8.570590880      2.796      9.216
REMARK  14 active torsions:
REMARK  status: ('A' for Active; 'I' for Inactive)
REMARK    1  A    between atoms: C2_2  and  O1_5 
REMARK    2  A    between atoms: O1_5  and  C5_6 
REMARK       I    between atoms: C5_6  and  N1_8 
REMARK    3  A    between atoms: N1_8  and  C6_10 
REMARK    4  A    between atoms: C6_10  and  C8_13 
REMARK       I    between atoms: C8_13  and  N3_15 
REMARK    5  A    between atoms: N3_15  and  C9_17 
REMARK    6  A    between atoms: C9_17  and  C10_18 
REMARK       I    between atoms: C10_18  and  N4_20 
REMARK    7  A    between atoms: N4_20  and  C11_21 
REMARK    8  A    between atoms: N4_20  and  C19_30 
REMARK    9  A    between atoms: C11_21  and  C12_22 
REMARK   10  A    between atoms: C12_22  and  C13_23 
REMARK   11  A    between atoms: C13_23  and  N5_24 
REMARK   12  A    between atoms: C19_30  and  C20_31 
REMARK   13  A    between atoms: C19_30  and  C25_40 
REMARK       I    between atoms: C20_31  and  N6_33 
REMARK   14  A    between atoms: N6_33  and  C21_35 
ROOT
HETATM    1  C6  UNL     1     -18.504  -3.877   1.869  1.00  0.00     0.286 C 
HETATM    2  C7  UNL     1     -17.182  -4.523   2.022  1.00  0.00     0.094 C 
HETATM    3  N2  UNL     1     -16.152  -5.024   2.158  1.00  0.00    -0.195 NA
ENDROOT
BRANCH   1   4
HETATM    4  N1  UNL     1     -18.743  -3.086   3.037  1.00  0.00    -0.312 N 
HETATM    5  C5  UNL     1     -19.109  -3.721   4.254  1.00  0.00     0.362 C 
HETATM    6  O2  UNL     1     -19.225  -4.996   4.299  1.00  0.00    -0.238 OA
ATOM      7  H1  UNL     1     -18.651  -2.072   2.996  1.00  0.00     0.166 HD
BRANCH   5   8
HETATM    8  O1  UNL     1     -19.360  -3.072   5.434  1.00  0.00    -0.294 OA
BRANCH   8   9
HETATM    9  C2  UNL     1     -18.416  -2.398   6.215  1.00  0.00     0.061 C 
HETATM   10  C1  UNL     1     -18.517  -0.895   5.960  1.00  0.00     0.046 C 
HETATM   11  C3  UNL     1     -18.652  -2.653   7.687  1.00  0.00     0.046 C 
HETATM   12  C4  UNL     1     -16.995  -2.809   5.899  1.00  0.00     0.046 C 
ENDBRANCH   8   9
ENDBRANCH   5   8
ENDBRANCH   1   4
BRANCH   1  13
HETATM   13  C8  UNL     1     -18.518  -3.045   0.642  1.00  0.00     0.255 C 
HETATM   14  O3  UNL     1     -19.295  -2.064   0.549  1.00  0.00    -0.270 OA
HETATM   15  N3  UNL     1     -17.662  -3.337  -0.443  1.00  0.00    -0.350 N 
ATOM     16  H3  UNL     1     -17.024  -4.131  -0.383  1.00  0.00     0.163 HD
BRANCH  15  17
HETATM   17  C9  UNL     1     -17.678  -2.524  -1.637  1.00  0.00     0.225 C 
BRANCH  17  18
HETATM   18  C10 UNL     1     -17.197  -1.147  -1.374  1.00  0.00     0.238 C 
HETATM   19  O4  UNL     1     -16.223  -1.040  -0.591  1.00  0.00    -0.272 OA
HETATM   20  N4  UNL     1     -17.755   0.008  -1.939  1.00  0.00    -0.337 N 
BRANCH  20  21
HETATM   21  C11 UNL     1     -18.888  -0.180  -2.818  1.00  0.00     0.132 C 
BRANCH  21  22
HETATM   22  C12 UNL     1     -18.579  -0.765  -4.149  1.00  0.00     0.064 C 
BRANCH  22  23
HETATM   23  C13 UNL     1     -17.829   0.251  -4.990  1.00  0.00     0.064 C 
BRANCH  23  24
HETATM   24  N5  UNL     1     -18.626   0.910  -5.941  1.00  0.00    -0.374 N 
HETATM   25  C14 UNL     1     -18.956   0.252  -7.141  1.00  0.00     0.063 C 
HETATM   26  C15 UNL     1     -17.947   0.584  -8.224  1.00  0.00     0.044 C 
HETATM   27  C16 UNL     1     -17.275   1.900  -7.906  1.00  0.00     0.007 C 
HETATM   28  C17 UNL     1     -18.314   2.841  -7.320  1.00  0.00     0.021 C 
HETATM   29  C18 UNL     1     -18.715   2.310  -5.943  1.00  0.00     0.127 C 
ENDBRANCH  23  24
ENDBRANCH  22  23
ENDBRANCH  21  22
ENDBRANCH  20  21
BRANCH  20  30
HETATM   30  C19 UNL     1     -17.282   1.351  -1.735  1.00  0.00     0.183 C 
BRANCH  30  31
HETATM   31  C20 UNL     1     -17.193   1.504  -0.258  1.00  0.00     0.242 C 
HETATM   32  O5  UNL     1     -16.316   2.241   0.280  1.00  0.00    -0.271 OA
HETATM   33  N6  UNL     1     -18.080   0.828   0.596  1.00  0.00    -0.337 N 
ATOM     34  H6  UNL     1     -18.795   0.226   0.187  1.00  0.00     0.164 HD
BRANCH  33  35
HETATM   35  C21 UNL     1     -18.014   0.956   2.049  1.00  0.00     0.122 A 
HETATM   36  C22 UNL     1     -17.069   0.026   2.667  1.00  0.00     0.091 C 
HETATM   37  N7  UNL     1     -16.324  -0.731   3.176  1.00  0.00    -0.195 NA
HETATM   38  C23 UNL     1     -19.330   1.124   2.806  1.00  0.00     0.050 A 
HETATM   39  C24 UNL     1     -18.308   2.241   2.715  1.00  0.00     0.050 A 
ENDBRANCH  33  35
ENDBRANCH  30  31
BRANCH  30  40
HETATM   40  C25 UNL     1     -18.008   2.468  -2.320  1.00  0.00     0.018 C 
HETATM   41  C26 UNL     1     -18.814   3.154  -1.245  1.00  0.00     0.007 C 
HETATM   42  C27 UNL     1     -19.141   4.532  -1.773  1.00  0.00     0.000 C 
HETATM   43  C28 UNL     1     -18.157   4.763  -2.861  1.00  0.00     0.000 C 
HETATM   44  C29 UNL     1     -17.171   3.612  -2.834  1.00  0.00     0.007 C 
ENDBRANCH  30  40
ENDBRANCH  20  30
ENDBRANCH  17  18
ENDBRANCH  15  17
ENDBRANCH   1  13
TORSDOF 14
ENDMDL
MODEL 5
REMARK VINA RESULT: -8.497959528      3.668     10.726
REMARK  14 active torsions:
REMARK  status: ('A' for Active; 'I' for Inactive)
REMARK    1  A    between atoms: C2_2  and  O1_5 
REMARK    2  A    between atoms: O1_5  and  C5_6 
REMARK       I    between atoms: C5_6  and  N1_8 
REMARK    3  A    between atoms: N1_8  and  C6_10 
REMARK    4  A    between atoms: C6_10  and  C8_13 
REMARK       I    between atoms: C8_13  and  N3_15 
REMARK    5  A    between atoms: N3_15  and  C9_17 
REMARK    6  A    between atoms: C9_17  and  C10_18 
REMARK       I    between atoms: C10_18  and  N4_20 
REMARK    7  A    between atoms: N4_20  and  C11_21 
REMARK    8  A    between atoms: N4_20  and  C19_30 
REMARK    9  A    between atoms: C11_21  and  C12_22 
REMARK   10  A    between atoms: C12_22  and  C13_23 
REMARK   11  A    between atoms: C13_23  and  N5_24 
REMARK   12  A    between atoms: C19_30  and  C20_31 
REMARK   13  A    between atoms: C19_30  and  C25_40 
REMARK       I    between atoms: C20_31  and  N6_33 
REMARK   14  A    between atoms: N6_33  and  C21_35 
ROOT
HETATM    1  C6  UNL     1     -17.086  -1.221   5.998  1.00  0.00     0.286 C 
HETATM    2  C7  UNL     1     -18.387  -1.250   6.700  1.00  0.00     0.094 C 
HETATM    3  N2  UNL     1     -19.400  -1.290   7.252  1.00  0.00    -0.195 NA
ENDROOT
BRANCH   1   4
HETATM    4  N1  UNL     1     -16.680  -2.573   5.770  1.00  0.00    -0.312 N 
HETATM    5  C5  UNL     1     -16.313  -3.393   6.870  1.00  0.00     0.362 C 
HETATM    6  O2  UNL     1     -16.346  -2.918   8.059  1.00  0.00    -0.238 OA
ATOM      7  H1  UNL     1     -16.654  -2.947   4.821  1.00  0.00     0.166 HD
BRANCH   5   8
HETATM    8  O1  UNL     1     -15.911  -4.700   6.776  1.00  0.00    -0.294 OA
BRANCH   8   9
HETATM    9  C2  UNL     1     -16.683  -5.762   6.293  1.00  0.00     0.061 C 
HETATM   10  C1  UNL     1     -15.954  -6.442   5.136  1.00  0.00     0.046 C 
HETATM   11  C3  UNL     1     -16.928  -6.787   7.377  1.00  0.00     0.046 C 
HETATM   12  C4  UNL     1     -18.030  -5.315   5.771  1.00  0.00     0.046 C 
ENDBRANCH   8   9
ENDBRANCH   5   8
ENDBRANCH   1   4
BRANCH   1  13
HETATM   13  C8  UNL     1     -17.219  -0.474   4.724  1.00  0.00     0.255 C 
HETATM   14  O3  UNL     1     -16.288  -0.483   3.884  1.00  0.00    -0.270 OA
HETATM   15  N3  UNL     1     -18.391   0.259   4.430  1.00  0.00    -0.350 N 
ATOM     16  H3  UNL     1     -19.157   0.275   5.104  1.00  0.00     0.163 HD
BRANCH  15  17
HETATM   17  C9  UNL     1     -18.517   0.984   3.187  1.00  0.00     0.225 C 
BRANCH  17  18
HETATM   18  C10 UNL     1     -18.774   0.078   2.043  1.00  0.00     0.238 C 
HETATM   19  O4  UNL     1     -19.648  -0.805   2.219  1.00  0.00    -0.272 OA
HETATM   20  N4  UNL     1     -18.112   0.154   0.810  1.00  0.00    -0.337 N 
BRANCH  20  21
HETATM   21  C11 UNL     1     -17.102   1.179   0.675  1.00  0.00     0.132 C 
BRANCH  21  22
HETATM   22  C12 UNL     1     -17.515   2.548   1.085  1.00  0.00     0.064 C 
BRANCH  22  23
HETATM   23  C13 UNL     1     -18.522   3.094   0.089  1.00  0.00     0.064 C 
BRANCH  23  24
HETATM   24  N5  UNL     1     -18.121   4.287  -0.536  1.00  0.00    -0.374 N 
HETATM   25  C14 UNL     1     -18.986   4.911  -1.454  1.00  0.00     0.063 C 
HETATM   26  C15 UNL     1     -18.689   4.445  -2.866  1.00  0.00     0.044 C 
HETATM   27  C16 UNL     1     -17.265   3.946  -2.948  1.00  0.00     0.007 C 
HETATM   28  C17 UNL     1     -16.390   4.848  -2.092  1.00  0.00     0.021 C 
HETATM   29  C18 UNL     1     -16.760   4.617  -0.625  1.00  0.00     0.127 C 
ENDBRANCH  23  24
ENDBRANCH  22  23
ENDBRANCH  21  22
ENDBRANCH  20  21
BRANCH  20  30
HETATM   30  C19 UNL     1     -18.372  -0.683  -0.331  1.00  0.00     0.183 C 
BRANCH  30  31
HETATM   31  C20 UNL     1     -17.579  -1.919  -0.085  1.00  0.00     0.242 C 
HETATM   32  O5  UNL     1     -16.339  -1.969  -0.332  1.00  0.00    -0.271 OA
HETATM   33  N6  UNL     1     -18.184  -3.078   0.426  1.00  0.00    -0.337 N 
ATOM     34  H6  UNL     1     -19.183  -3.063   0.631  1.00  0.00     0.164 HD
BRANCH  33  35
HETATM   35  C21 UNL     1     -17.433  -4.305   0.674  1.00  0.00     0.122 A 
HETATM   36  C22 UNL     1     -16.954  -4.946  -0.551  1.00  0.00     0.091 C 
HETATM   37  N7  UNL     1     -16.580  -5.478  -1.532  1.00  0.00    -0.195 NA
HETATM   38  C23 UNL     1     -17.978  -5.270   1.726  1.00  0.00     0.050 A 
HETATM   39  C24 UNL     1     -16.687  -4.501   1.934  1.00  0.00     0.050 A 
ENDBRANCH  33  35
ENDBRANCH  30  31
BRANCH  30  40
HETATM   40  C25 UNL     1     -18.121  -0.175  -1.671  1.00  0.00     0.018 C 
HETATM   41  C26 UNL     1     -18.178  -1.318  -2.654  1.00  0.00     0.007 C 
HETATM   42  C27 UNL     1     -18.393  -0.698  -4.015  1.00  0.00     0.000 C 
HETATM   43  C28 UNL     1     -18.914   0.664  -3.732  1.00  0.00     0.000 C 
HETATM   44  C29 UNL     1     -19.164   0.753  -2.239  1.00  0.00     0.007 C 
ENDBRANCH  30  40
ENDBRANCH  20  30
ENDBRANCH  17  18
ENDBRANCH  15  17
ENDBRANCH   1  13
TORSDOF 14
ENDMDL
