MODEL 1
REMARK VINA RESULT: -9.539810157      0.000      0.000
REMARK  14 active torsions:
REMARK  status: ('A' for Active; 'I' for Inactive)
REMARK    1  A    between atoms: N2_5  and  C4_6 
REMARK    2  A    between atoms: C4_6  and  C5_7 
REMARK    3  A    between atoms: C5_7  and  C6_8 
REMARK       I    between atoms: C6_8  and  N3_10 
REMARK    4  A    between atoms: N3_10  and  C7_12 
REMARK    5  A    between atoms: C9_14  and  O2_15 
REMARK    6  A    between atoms: O2_15  and  C10_16 
REMARK    7  A    between atoms: C10_16  and  C11_17 
REMARK    8  A    between atoms: C11_17  and  C12_18 
REMARK    9  A    between atoms: C12_18  and  N4_19 
REMARK   10  A    between atoms: C21_32  and  N7_33 
REMARK   11  A    between atoms: N7_33  and  C22_35 
REMARK   12  A    between atoms: C22_35  and  C23_36 
REMARK   13  A    between atoms: C23_36  and  N8_37 
REMARK   14  A    between atoms: N8_37  and  C24_39 
ROOT
HETATM    1  C7  UNL     1     -18.773  -0.986  -2.116  1.00  0.00     0.053 A 
HETATM    2  C8  UNL     1     -18.555  -1.079  -3.473  1.00  0.00     0.067 A 
HETATM    3  C9  UNL     1     -18.524   0.046  -4.325  1.00  0.00     0.073 A 
HETATM    4  C18 UNL     1     -18.721   1.278  -3.780  1.00  0.00     0.067 A 
HETATM    5  C19 UNL     1     -18.943   1.401  -2.408  1.00  0.00     0.052 A 
HETATM    6  N5  UNL     1     -19.097   2.655  -1.956  1.00  0.00    -0.351 N 
ATOM      7  H5  UNL     1     -19.075   3.448  -2.597  1.00  0.00     0.166 HD
HETATM    8  C20 UNL     1     -19.280   2.839  -0.649  1.00  0.00     0.182 A 
HETATM    9  N6  UNL     1     -19.311   1.818   0.208  1.00  0.00    -0.338 N 
ATOM     10  H6  UNL     1     -19.452   1.997   1.202  1.00  0.00     0.168 HD
HETATM   11  C21 UNL     1     -19.157   0.534  -0.233  1.00  0.00     0.117 A 
HETATM   12  C29 UNL     1     -18.967   0.286  -1.583  1.00  0.00     0.061 A 
ENDROOT
BRANCH   1  13
HETATM   13  N3  UNL     1     -18.937  -2.130  -1.309  1.00  0.00    -0.326 N 
HETATM   14  C6  UNL     1     -17.852  -2.926  -0.816  1.00  0.00     0.223 C 
HETATM   15  O1  UNL     1     -16.671  -2.680  -1.043  1.00  0.00    -0.273 OA
ATOM     16  H3  UNL     1     -19.886  -2.408  -1.061  1.00  0.00     0.169 HD
BRANCH  14  17
HETATM   17  C5  UNL     1     -18.195  -4.114   0.017  1.00  0.00     0.133 C 
BRANCH  17  18
HETATM   18  C4  UNL     1     -17.688  -4.006   1.409  1.00  0.00     0.281 C 
BRANCH  18  19
HETATM   19  N2  UNL     1     -18.627  -4.255   2.451  1.00  0.00     0.092 N 
HETATM   20  C3  UNL     1     -19.111  -5.615   2.294  1.00  0.00     0.302 C 
HETATM   21  C2  UNL     1     -19.595  -6.226   3.573  1.00  0.00     0.302 C 
HETATM   22  N1  UNL     1     -18.534  -6.361   4.551  1.00  0.00     0.087 N 
HETATM   23  C1  UNL     1     -17.907  -7.662   4.486  1.00  0.00     0.310 C 
HETATM   24  C31 UNL     1     -17.514  -5.347   4.360  1.00  0.00     0.302 C 
HETATM   25  C30 UNL     1     -18.135  -4.096   3.780  1.00  0.00     0.302 C 
ENDBRANCH  18  19
ENDBRANCH  17  18
ENDBRANCH  14  17
ENDBRANCH   1  13
BRANCH   3  26
HETATM   26  O2  UNL     1     -18.305  -0.160  -5.643  1.00  0.00    -0.351 OA
BRANCH  26  27
HETATM   27  C10 UNL     1     -18.902   0.267  -6.780  1.00  0.00     0.177 C 
BRANCH  27  28
HETATM   28  C11 UNL     1     -18.042   0.431  -8.011  1.00  0.00     0.046 C 
BRANCH  28  29
HETATM   29  C12 UNL     1     -17.031   1.498  -7.767  1.00  0.00     0.119 C 
BRANCH  29  30
HETATM   30  N4  UNL     1     -17.459   2.828  -7.995  1.00  0.00    -0.412 N 
HETATM   31  C13 UNL     1     -18.090   3.046  -9.253  1.00  0.00     0.117 C 
HETATM   32  C14 UNL     1     -17.059   3.076 -10.350  1.00  0.00     0.019 C 
HETATM   33  C15 UNL     1     -16.115   4.206 -10.091  1.00  0.00     0.003 C 
HETATM   34  C16 UNL     1     -15.514   4.131  -8.729  1.00  0.00     0.019 C 
HETATM   35  C17 UNL     1     -16.542   3.867  -7.649  1.00  0.00     0.117 C 
ENDBRANCH  29  30
ENDBRANCH  28  29
ENDBRANCH  27  28
ENDBRANCH  26  27
ENDBRANCH   3  26
BRANCH  11  36
HETATM   36  N7  UNL     1     -19.137  -0.395   0.625  1.00  0.00    -0.374 N 
ATOM     37  H7  UNL     1     -18.788  -1.287   0.273  1.00  0.00     0.161 HD
BRANCH  36  38
HETATM   38  C22 UNL     1     -19.516  -0.411   1.987  1.00  0.00     0.141 C 
BRANCH  38  39
HETATM   39  C23 UNL     1     -18.273  -0.432   2.862  1.00  0.00     0.141 C 
BRANCH  39  40
HETATM   40  N8  UNL     1     -18.497   0.208   4.121  1.00  0.00    -0.375 N 
ATOM     41  H8  UNL     1     -18.979   1.106   4.108  1.00  0.00     0.161 HD
BRANCH  40  42
HETATM   42  C24 UNL     1     -18.152  -0.240   5.240  1.00  0.00     0.100 A 
HETATM   43  C25 UNL     1     -16.958  -0.939   5.326  1.00  0.00     0.048 A 
HETATM   44  C26 UNL     1     -16.494  -1.478   6.520  1.00  0.00     0.005 A 
HETATM   45  C27 UNL     1     -17.323  -1.260   7.615  1.00  0.00     0.017 A 
HETATM   46  C28 UNL     1     -18.500  -0.577   7.547  1.00  0.00     0.089 A 
HETATM   47  N9  UNL     1     -18.890  -0.076   6.339  1.00  0.00    -0.353 N 
ATOM     48  H9  UNL     1     -19.770   0.436   6.276  1.00  0.00     0.166 HD
ENDBRANCH  40  42
ENDBRANCH  39  40
ENDBRANCH  38  39
ENDBRANCH  36  38
ENDBRANCH  11  36
TORSDOF 14
ENDMDL
MODEL 2
REMARK VINA RESULT: -9.480536127      0.813      1.228
REMARK  14 active torsions:
REMARK  status: ('A' for Active; 'I' for Inactive)
REMARK    1  A    between atoms: N2_5  and  C4_6 
REMARK    2  A    between atoms: C4_6  and  C5_7 
REMARK    3  A    between atoms: C5_7  and  C6_8 
REMARK       I    between atoms: C6_8  and  N3_10 
REMARK    4  A    between atoms: N3_10  and  C7_12 
REMARK    5  A    between atoms: C9_14  and  O2_15 
REMARK    6  A    between atoms: O2_15  and  C10_16 
REMARK    7  A    between atoms: C10_16  and  C11_17 
REMARK    8  A    between atoms: C11_17  and  C12_18 
REMARK    9  A    between atoms: C12_18  and  N4_19 
REMARK   10  A    between atoms: C21_32  and  N7_33 
REMARK   11  A    between atoms: N7_33  and  C22_35 
REMARK   12  A    between atoms: C22_35  and  C23_36 
REMARK   13  A    between atoms: C23_36  and  N8_37 
REMARK   14  A    between atoms: N8_37  and  C24_39 
ROOT
HETATM    1  C7  UNL     1     -18.729  -1.118  -2.008  1.00  0.00     0.053 A 
HETATM    2  C8  UNL     1     -18.520  -1.308  -3.357  1.00  0.00     0.067 A 
HETATM    3  C9  UNL     1     -18.513  -0.250  -4.291  1.00  0.00     0.073 A 
HETATM    4  C18 UNL     1     -18.724   1.016  -3.837  1.00  0.00     0.067 A 
HETATM    5  C19 UNL     1     -18.937   1.238  -2.476  1.00  0.00     0.052 A 
HETATM    6  N5  UNL     1     -19.107   2.520  -2.118  1.00  0.00    -0.351 N 
ATOM      7  H5  UNL     1     -19.102   3.263  -2.816  1.00  0.00     0.166 HD
HETATM    8  C20 UNL     1     -19.283   2.798  -0.826  1.00  0.00     0.182 A 
HETATM    9  N6  UNL     1     -19.292   1.843   0.104  1.00  0.00    -0.338 N 
ATOM     10  H6  UNL     1     -19.428   2.094   1.084  1.00  0.00     0.168 HD
HETATM   11  C21 UNL     1     -19.122   0.533  -0.241  1.00  0.00     0.117 A 
HETATM   12  C29 UNL     1     -18.938   0.188  -1.570  1.00  0.00     0.061 A 
ENDROOT
BRANCH   1  13
HETATM   13  N3  UNL     1     -18.869  -2.200  -1.117  1.00  0.00    -0.326 N 
HETATM   14  C6  UNL     1     -17.780  -3.017  -0.668  1.00  0.00     0.223 C 
HETATM   15  O1  UNL     1     -16.615  -2.842  -1.011  1.00  0.00    -0.273 OA
ATOM     16  H3  UNL     1     -19.804  -2.417  -0.771  1.00  0.00     0.169 HD
BRANCH  14  17
HETATM   17  C5  UNL     1     -18.098  -4.133   0.267  1.00  0.00     0.133 C 
BRANCH  17  18
HETATM   18  C4  UNL     1     -16.886  -4.845   0.746  1.00  0.00     0.281 C 
BRANCH  18  19
HETATM   19  N2  UNL     1     -16.561  -4.695   2.125  1.00  0.00     0.092 N 
HETATM   20  C3  UNL     1     -17.684  -4.045   2.775  1.00  0.00     0.302 C 
HETATM   21  C2  UNL     1     -17.783  -4.350   4.239  1.00  0.00     0.302 C 
HETATM   22  N1  UNL     1     -18.022  -5.758   4.489  1.00  0.00     0.087 N 
HETATM   23  C1  UNL     1     -19.433  -6.048   4.613  1.00  0.00     0.310 C 
HETATM   24  C31 UNL     1     -17.473  -6.579   3.427  1.00  0.00     0.302 C 
HETATM   25  C30 UNL     1     -16.262  -5.901   2.826  1.00  0.00     0.302 C 
ENDBRANCH  18  19
ENDBRANCH  17  18
ENDBRANCH  14  17
ENDBRANCH   1  13
BRANCH   3  26
HETATM   26  O2  UNL     1     -18.300  -0.551  -5.591  1.00  0.00    -0.351 OA
BRANCH  26  27
HETATM   27  C10 UNL     1     -17.580   0.015  -6.588  1.00  0.00     0.177 C 
BRANCH  27  28
HETATM   28  C11 UNL     1     -18.312   0.427  -7.842  1.00  0.00     0.046 C 
BRANCH  28  29
HETATM   29  C12 UNL     1     -17.471   1.387  -8.612  1.00  0.00     0.119 C 
BRANCH  29  30
HETATM   30  N4  UNL     1     -17.947   2.718  -8.684  1.00  0.00    -0.412 N 
HETATM   31  C13 UNL     1     -17.139   3.601  -9.456  1.00  0.00     0.117 C 
HETATM   32  C14 UNL     1     -15.900   3.972  -8.685  1.00  0.00     0.019 C 
HETATM   33  C15 UNL     1     -16.307   4.677  -7.431  1.00  0.00     0.003 C 
HETATM   34  C16 UNL     1     -17.272   3.873  -6.628  1.00  0.00     0.019 C 
HETATM   35  C17 UNL     1     -18.400   3.305  -7.465  1.00  0.00     0.117 C 
ENDBRANCH  29  30
ENDBRANCH  28  29
ENDBRANCH  27  28
ENDBRANCH  26  27
ENDBRANCH   3  26
BRANCH  11  36
HETATM   36  N7  UNL     1     -19.081  -0.330   0.684  1.00  0.00    -0.374 N 
ATOM     37  H7  UNL     1     -18.712  -1.237   0.399  1.00  0.00     0.161 HD
BRANCH  36  38
HETATM   38  C22 UNL     1     -19.461  -0.252   2.044  1.00  0.00     0.141 C 
BRANCH  38  39
HETATM   39  C23 UNL     1     -18.224  -0.332   2.924  1.00  0.00     0.141 C 
BRANCH  39  40
HETATM   40  N8  UNL     1     -18.431   0.296   4.191  1.00  0.00    -0.375 N 
ATOM     41  H8  UNL     1     -18.883   1.210   4.190  1.00  0.00     0.161 HD
BRANCH  40  42
HETATM   42  C24 UNL     1     -18.104  -0.179   5.305  1.00  0.00     0.100 A 
HETATM   43  C25 UNL     1     -16.948  -0.943   5.378  1.00  0.00     0.048 A 
HETATM   44  C26 UNL     1     -16.507  -1.516   6.564  1.00  0.00     0.005 A 
HETATM   45  C27 UNL     1     -17.317  -1.263   7.666  1.00  0.00     0.017 A 
HETATM   46  C28 UNL     1     -18.455  -0.516   7.611  1.00  0.00     0.089 A 
HETATM   47  N9  UNL     1     -18.826   0.014   6.410  1.00  0.00    -0.353 N 
ATOM     48  H9  UNL     1     -19.676   0.574   6.356  1.00  0.00     0.166 HD
ENDBRANCH  40  42
ENDBRANCH  39  40
ENDBRANCH  38  39
ENDBRANCH  36  38
ENDBRANCH  11  36
TORSDOF 14
ENDMDL
MODEL 3
REMARK VINA RESULT: -9.364945138      0.629      1.111
REMARK  14 active torsions:
REMARK  status: ('A' for Active; 'I' for Inactive)
REMARK    1  A    between atoms: N2_5  and  C4_6 
REMARK    2  A    between atoms: C4_6  and  C5_7 
REMARK    3  A    between atoms: C5_7  and  C6_8 
REMARK       I    between atoms: C6_8  and  N3_10 
REMARK    4  A    between atoms: N3_10  and  C7_12 
REMARK    5  A    between atoms: C9_14  and  O2_15 
REMARK    6  A    between atoms: O2_15  and  C10_16 
REMARK    7  A    between atoms: C10_16  and  C11_17 
REMARK    8  A    between atoms: C11_17  and  C12_18 
REMARK    9  A    between atoms: C12_18  and  N4_19 
REMARK   10  A    between atoms: C21_32  and  N7_33 
REMARK   11  A    between atoms: N7_33  and  C22_35 
REMARK   12  A    between atoms: C22_35  and  C23_36 
REMARK   13  A    between atoms: C23_36  and  N8_37 
REMARK   14  A    between atoms: N8_37  and  C24_39 
ROOT
HETATM    1  C7  UNL     1     -18.771  -0.990  -2.170  1.00  0.00     0.053 A 
HETATM    2  C8  UNL     1     -18.512  -1.090  -3.519  1.00  0.00     0.067 A 
HETATM    3  C9  UNL     1     -18.472   0.028  -4.380  1.00  0.00     0.073 A 
HETATM    4  C18 UNL     1     -18.701   1.262  -3.850  1.00  0.00     0.067 A 
HETATM    5  C19 UNL     1     -18.965   1.393  -2.486  1.00  0.00     0.052 A 
HETATM    6  N5  UNL     1     -19.150   2.647  -2.050  1.00  0.00    -0.351 N 
ATOM      7  H5  UNL     1     -19.119   3.435  -2.696  1.00  0.00     0.166 HD
HETATM    8  C20 UNL     1     -19.374   2.839  -0.750  1.00  0.00     0.182 A 
HETATM    9  N6  UNL     1     -19.417   1.824   0.114  1.00  0.00    -0.338 N 
ATOM     10  H6  UNL     1     -19.589   2.009   1.102  1.00  0.00     0.168 HD
HETATM   11  C21 UNL     1     -19.232   0.539  -0.312  1.00  0.00     0.117 A 
HETATM   12  C29 UNL     1     -18.999   0.284  -1.653  1.00  0.00     0.061 A 
ENDROOT
BRANCH   1  13
HETATM   13  N3  UNL     1     -18.944  -2.129  -1.360  1.00  0.00    -0.326 N 
HETATM   14  C6  UNL     1     -17.863  -2.915  -0.840  1.00  0.00     0.223 C 
HETATM   15  O1  UNL     1     -16.680  -2.662  -1.045  1.00  0.00    -0.273 OA
ATOM     16  H3  UNL     1     -19.896  -2.413  -1.128  1.00  0.00     0.169 HD
BRANCH  14  17
HETATM   17  C5  UNL     1     -18.215  -4.100  -0.006  1.00  0.00     0.133 C 
BRANCH  17  18
HETATM   18  C4  UNL     1     -17.668  -4.016   1.372  1.00  0.00     0.281 C 
BRANCH  18  19
HETATM   19  N2  UNL     1     -18.588  -4.234   2.438  1.00  0.00     0.092 N 
HETATM   20  C3  UNL     1     -19.163  -5.556   2.261  1.00  0.00     0.302 C 
HETATM   21  C2  UNL     1     -19.645  -6.172   3.538  1.00  0.00     0.302 C 
HETATM   22  N1  UNL     1     -18.565  -6.401   4.478  1.00  0.00     0.087 N 
HETATM   23  C1  UNL     1     -18.026  -7.737   4.358  1.00  0.00     0.310 C 
HETATM   24  C31 UNL     1     -17.488  -5.448   4.279  1.00  0.00     0.302 C 
HETATM   25  C30 UNL     1     -18.046  -4.144   3.754  1.00  0.00     0.302 C 
ENDBRANCH  18  19
ENDBRANCH  17  18
ENDBRANCH  14  17
ENDBRANCH   1  13
BRANCH   3  26
HETATM   26  O2  UNL     1     -18.210  -0.184  -5.689  1.00  0.00    -0.351 OA
BRANCH  26  27
HETATM   27  C10 UNL     1     -18.773   0.234  -6.847  1.00  0.00     0.177 C 
BRANCH  27  28
HETATM   28  C11 UNL     1     -17.862   0.482  -8.025  1.00  0.00     0.046 C 
BRANCH  28  29
HETATM   29  C12 UNL     1     -17.010   1.673  -7.747  1.00  0.00     0.119 C 
BRANCH  29  30
HETATM   30  N4  UNL     1     -17.471   2.906  -8.266  1.00  0.00    -0.412 N 
HETATM   31  C13 UNL     1     -16.571   3.552  -9.161  1.00  0.00     0.117 C 
HETATM   32  C14 UNL     1     -15.438   4.177  -8.393  1.00  0.00     0.019 C 
HETATM   33  C15 UNL     1     -15.997   5.203  -7.461  1.00  0.00     0.003 C 
HETATM   34  C16 UNL     1     -17.056   4.637  -6.578  1.00  0.00     0.019 C 
HETATM   35  C17 UNL     1     -18.072   3.810  -7.338  1.00  0.00     0.117 C 
ENDBRANCH  29  30
ENDBRANCH  28  29
ENDBRANCH  27  28
ENDBRANCH  26  27
ENDBRANCH   3  26
BRANCH  11  36
HETATM   36  N7  UNL     1     -19.225  -0.383   0.554  1.00  0.00    -0.374 N 
ATOM     37  H7  UNL     1     -19.031  -1.312   0.179  1.00  0.00     0.161 HD
BRANCH  36  38
HETATM   38  C22 UNL     1     -19.440  -0.348   1.951  1.00  0.00     0.141 C 
BRANCH  38  39
HETATM   39  C23 UNL     1     -18.120  -0.561   2.675  1.00  0.00     0.141 C 
BRANCH  39  40
HETATM   40  N8  UNL     1     -18.074   0.144   3.918  1.00  0.00    -0.375 N 
ATOM     41  H8  UNL     1     -18.299   1.139   3.897  1.00  0.00     0.161 HD
BRANCH  40  42
HETATM   42  C24 UNL     1     -17.782  -0.353   5.031  1.00  0.00     0.100 A 
HETATM   43  C25 UNL     1     -18.619  -0.093   6.105  1.00  0.00     0.048 A 
HETATM   44  C26 UNL     1     -18.376  -0.594   7.379  1.00  0.00     0.005 A 
HETATM   45  C27 UNL     1     -17.229  -1.372   7.485  1.00  0.00     0.017 A 
HETATM   46  C28 UNL     1     -16.396  -1.636   6.440  1.00  0.00     0.089 A 
HETATM   47  N9  UNL     1     -16.699  -1.110   5.219  1.00  0.00    -0.353 N 
ATOM     48  H9  UNL     1     -16.082  -1.299   4.429  1.00  0.00     0.166 HD
ENDBRANCH  40  42
ENDBRANCH  39  40
ENDBRANCH  38  39
ENDBRANCH  36  38
ENDBRANCH  11  36
TORSDOF 14
ENDMDL
MODEL 4
REMARK VINA RESULT: -9.339088144      0.750      1.212
REMARK  14 active torsions:
REMARK  status: ('A' for Active; 'I' for Inactive)
REMARK    1  A    between atoms: N2_5  and  C4_6 
REMARK    2  A    between atoms: C4_6  and  C5_7 
REMARK    3  A    between atoms: C5_7  and  C6_8 
REMARK       I    between atoms: C6_8  and  N3_10 
REMARK    4  A    between atoms: N3_10  and  C7_12 
REMARK    5  A    between atoms: C9_14  and  O2_15 
REMARK    6  A    between atoms: O2_15  and  C10_16 
REMARK    7  A    between atoms: C10_16  and  C11_17 
REMARK    8  A    between atoms: C11_17  and  C12_18 
REMARK    9  A    between atoms: C12_18  and  N4_19 
REMARK   10  A    between atoms: C21_32  and  N7_33 
REMARK   11  A    between atoms: N7_33  and  C22_35 
REMARK   12  A    between atoms: C22_35  and  C23_36 
REMARK   13  A    between atoms: C23_36  and  N8_37 
REMARK   14  A    between atoms: N8_37  and  C24_39 
ROOT
HETATM    1  C7  UNL     1     -18.761  -1.007  -2.131  1.00  0.00     0.053 A 
HETATM    2  C8  UNL     1     -18.510  -1.100  -3.483  1.00  0.00     0.067 A 
HETATM    3  C9  UNL     1     -18.456   0.024  -4.334  1.00  0.00     0.073 A 
HETATM    4  C18 UNL     1     -18.663   1.257  -3.794  1.00  0.00     0.067 A 
HETATM    5  C19 UNL     1     -18.918   1.381  -2.428  1.00  0.00     0.052 A 
HETATM    6  N5  UNL     1     -19.080   2.635  -1.980  1.00  0.00    -0.351 N 
ATOM      7  H5  UNL     1     -19.040   3.428  -2.621  1.00  0.00     0.166 HD
HETATM    8  C20 UNL     1     -19.294   2.820  -0.677  1.00  0.00     0.182 A 
HETATM    9  N6  UNL     1     -19.349   1.799   0.178  1.00  0.00    -0.338 N 
ATOM     10  H6  UNL     1     -19.513   1.979   1.169  1.00  0.00     0.168 HD
HETATM   11  C21 UNL     1     -19.187   0.515  -0.258  1.00  0.00     0.117 A 
HETATM   12  C29 UNL     1     -18.965   0.266  -1.603  1.00  0.00     0.061 A 
ENDROOT
BRANCH   1  13
HETATM   13  N3  UNL     1     -18.947  -2.150  -1.329  1.00  0.00    -0.326 N 
HETATM   14  C6  UNL     1     -17.876  -2.951  -0.812  1.00  0.00     0.223 C 
HETATM   15  O1  UNL     1     -16.690  -2.709  -1.013  1.00  0.00    -0.273 OA
ATOM     16  H3  UNL     1     -19.903  -2.424  -1.101  1.00  0.00     0.169 HD
BRANCH  14  17
HETATM   17  C5  UNL     1     -18.242  -4.137   0.013  1.00  0.00     0.133 C 
BRANCH  17  18
HETATM   18  C4  UNL     1     -17.293  -4.376   1.130  1.00  0.00     0.281 C 
BRANCH  18  19
HETATM   19  N2  UNL     1     -17.486  -5.567   1.887  1.00  0.00     0.092 N 
HETATM   20  C3  UNL     1     -16.566  -5.531   3.009  1.00  0.00     0.302 C 
HETATM   21  C2  UNL     1     -17.027  -6.337   4.184  1.00  0.00     0.302 C 
HETATM   22  N1  UNL     1     -18.261  -5.826   4.749  1.00  0.00     0.087 N 
HETATM   23  C1  UNL     1     -18.012  -4.900   5.831  1.00  0.00     0.310 C 
HETATM   24  C31 UNL     1     -19.059  -5.155   3.740  1.00  0.00     0.302 C 
HETATM   25  C30 UNL     1     -18.806  -5.778   2.385  1.00  0.00     0.302 C 
ENDBRANCH  18  19
ENDBRANCH  17  18
ENDBRANCH  14  17
ENDBRANCH   1  13
BRANCH   3  26
HETATM   26  O2  UNL     1     -18.205  -0.182  -5.646  1.00  0.00    -0.351 OA
BRANCH  26  27
HETATM   27  C10 UNL     1     -18.873   0.089  -6.792  1.00  0.00     0.177 C 
BRANCH  27  28
HETATM   28  C11 UNL     1     -18.063   0.469  -8.008  1.00  0.00     0.046 C 
BRANCH  28  29
HETATM   29  C12 UNL     1     -17.082   1.528  -7.636  1.00  0.00     0.119 C 
BRANCH  29  30
HETATM   30  N4  UNL     1     -17.481   2.864  -7.881  1.00  0.00    -0.412 N 
HETATM   31  C13 UNL     1     -18.054   3.091  -9.165  1.00  0.00     0.117 C 
HETATM   32  C14 UNL     1     -16.976   3.108 -10.216  1.00  0.00     0.019 C 
HETATM   33  C15 UNL     1     -16.029   4.225  -9.914  1.00  0.00     0.003 C 
HETATM   34  C16 UNL     1     -15.489   4.141  -8.528  1.00  0.00     0.019 C 
HETATM   35  C17 UNL     1     -16.567   3.889  -7.494  1.00  0.00     0.117 C 
ENDBRANCH  29  30
ENDBRANCH  28  29
ENDBRANCH  27  28
ENDBRANCH  26  27
ENDBRANCH   3  26
BRANCH  11  36
HETATM   36  N7  UNL     1     -19.190  -0.414   0.600  1.00  0.00    -0.374 N 
ATOM     37  H7  UNL     1     -18.805  -1.298   0.266  1.00  0.00     0.161 HD
BRANCH  36  38
HETATM   38  C22 UNL     1     -19.636  -0.438   1.942  1.00  0.00     0.141 C 
BRANCH  38  39
HETATM   39  C23 UNL     1     -18.704  -1.304   2.773  1.00  0.00     0.141 C 
BRANCH  39  40
HETATM   40  N8  UNL     1     -17.887  -0.519   3.646  1.00  0.00    -0.375 N 
ATOM     41  H8  UNL     1     -17.433   0.302   3.246  1.00  0.00     0.161 HD
BRANCH  40  42
HETATM   42  C24 UNL     1     -17.679  -0.754   4.860  1.00  0.00     0.100 A 
HETATM   43  C25 UNL     1     -18.593  -0.275   5.786  1.00  0.00     0.048 A 
HETATM   44  C26 UNL     1     -18.447  -0.478   7.153  1.00  0.00     0.005 A 
HETATM   45  C27 UNL     1     -17.312  -1.197   7.513  1.00  0.00     0.017 A 
HETATM   46  C28 UNL     1     -16.404  -1.674   6.616  1.00  0.00     0.089 A 
HETATM   47  N9  UNL     1     -16.615  -1.434   5.290  1.00  0.00    -0.353 N 
ATOM     48  H9  UNL     1     -15.941  -1.785   4.609  1.00  0.00     0.166 HD
ENDBRANCH  40  42
ENDBRANCH  39  40
ENDBRANCH  38  39
ENDBRANCH  36  38
ENDBRANCH  11  36
TORSDOF 14
ENDMDL
MODEL 5
REMARK VINA RESULT: -9.331858331      1.716      2.869
REMARK  14 active torsions:
REMARK  status: ('A' for Active; 'I' for Inactive)
REMARK    1  A    between atoms: N2_5  and  C4_6 
REMARK    2  A    between atoms: C4_6  and  C5_7 
REMARK    3  A    between atoms: C5_7  and  C6_8 
REMARK       I    between atoms: C6_8  and  N3_10 
REMARK    4  A    between atoms: N3_10  and  C7_12 
REMARK    5  A    between atoms: C9_14  and  O2_15 
REMARK    6  A    between atoms: O2_15  and  C10_16 
REMARK    7  A    between atoms: C10_16  and  C11_17 
REMARK    8  A    between atoms: C11_17  and  C12_18 
REMARK    9  A    between atoms: C12_18  and  N4_19 
REMARK   10  A    between atoms: C21_32  and  N7_33 
REMARK   11  A    between atoms: N7_33  and  C22_35 
REMARK   12  A    between atoms: C22_35  and  C23_36 
REMARK   13  A    between atoms: C23_36  and  N8_37 
REMARK   14  A    between atoms: N8_37  and  C24_39 
ROOT
HETATM    1  C7  UNL     1     -18.444   1.716  -1.890  1.00  0.00     0.053 A 
HETATM    2  C8  UNL     1     -18.598   2.176  -3.180  1.00  0.00     0.067 A 
HETATM    3  C9  UNL     1     -18.348   3.513  -3.554  1.00  0.00     0.073 A 
HETATM    4  C18 UNL     1     -17.936   4.388  -2.596  1.00  0.00     0.067 A 
HETATM    5  C19 UNL     1     -17.771   3.950  -1.282  1.00  0.00     0.052 A 
HETATM    6  N5  UNL     1     -17.335   4.874  -0.413  1.00  0.00    -0.351 N 
ATOM      7  H5  UNL     1     -17.167   5.834  -0.712  1.00  0.00     0.166 HD
HETATM    8  C20 UNL     1     -17.126   4.507   0.852  1.00  0.00     0.182 A 
HETATM    9  N6  UNL     1     -17.338   3.257   1.264  1.00  0.00    -0.338 N 
ATOM     10  H6  UNL     1     -17.166   3.011   2.240  1.00  0.00     0.168 HD
HETATM   11  C21 UNL     1     -17.782   2.301   0.395  1.00  0.00     0.117 A 
HETATM   12  C29 UNL     1     -18.018   2.631  -0.930  1.00  0.00     0.061 A 
ENDROOT
BRANCH   1  13
HETATM   13  N3  UNL     1     -18.832   0.415  -1.514  1.00  0.00    -0.326 N 
HETATM   14  C6  UNL     1     -18.132  -0.775  -1.900  1.00  0.00     0.223 C 
HETATM   15  O1  UNL     1     -17.119  -0.772  -2.592  1.00  0.00    -0.273 OA
ATOM     16  H3  UNL     1     -19.662   0.313  -0.929  1.00  0.00     0.169 HD
BRANCH  14  17
HETATM   17  C5  UNL     1     -18.679  -2.078  -1.427  1.00  0.00     0.133 C 
BRANCH  17  18
HETATM   18  C4  UNL     1     -17.617  -3.048  -1.056  1.00  0.00     0.281 C 
BRANCH  18  19
HETATM   19  N2  UNL     1     -17.202  -3.048   0.306  1.00  0.00     0.092 N 
HETATM   20  C3  UNL     1     -18.393  -2.950   1.131  1.00  0.00     0.302 C 
HETATM   21  C2  UNL     1     -18.218  -3.531   2.501  1.00  0.00     0.302 C 
HETATM   22  N1  UNL     1     -17.957  -4.956   2.462  1.00  0.00     0.087 N 
HETATM   23  C1  UNL     1     -19.173  -5.728   2.589  1.00  0.00     0.310 C 
HETATM   24  C31 UNL     1     -17.296  -5.333   1.226  1.00  0.00     0.302 C 
HETATM   25  C30 UNL     1     -16.449  -4.185   0.724  1.00  0.00     0.302 C 
ENDBRANCH  18  19
ENDBRANCH  17  18
ENDBRANCH  14  17
ENDBRANCH   1  13
BRANCH   3  26
HETATM   26  O2  UNL     1     -18.534   3.858  -4.848  1.00  0.00    -0.351 OA
BRANCH  26  27
HETATM   27  C10 UNL     1     -18.044   4.834  -5.648  1.00  0.00     0.177 C 
BRANCH  27  28
HETATM   28  C11 UNL     1     -17.630   4.457  -7.050  1.00  0.00     0.046 C 
BRANCH  28  29
HETATM   29  C12 UNL     1     -18.414   3.270  -7.494  1.00  0.00     0.119 C 
BRANCH  29  30
HETATM   30  N4  UNL     1     -17.665   2.171  -7.975  1.00  0.00    -0.412 N 
HETATM   31  C13 UNL     1     -18.429   1.001  -8.250  1.00  0.00     0.117 C 
HETATM   32  C14 UNL     1     -18.807   0.316  -6.964  1.00  0.00     0.019 C 
HETATM   33  C15 UNL     1     -17.557  -0.091  -6.251  1.00  0.00     0.003 C 
HETATM   34  C16 UNL     1     -16.630   1.059  -6.049  1.00  0.00     0.019 C 
HETATM   35  C17 UNL     1     -16.438   1.884  -7.304  1.00  0.00     0.117 C 
ENDBRANCH  29  30
ENDBRANCH  28  29
ENDBRANCH  27  28
ENDBRANCH  26  27
ENDBRANCH   3  26
BRANCH  11  36
HETATM   36  N7  UNL     1     -17.913   1.118   0.821  1.00  0.00    -0.374 N 
ATOM     37  H7  UNL     1     -18.450   0.505   0.207  1.00  0.00     0.161 HD
BRANCH  36  38
HETATM   38  C22 UNL     1     -17.443   0.498   2.003  1.00  0.00     0.141 C 
BRANCH  38  39
HETATM   39  C23 UNL     1     -18.607   0.259   2.950  1.00  0.00     0.141 C 
BRANCH  39  40
HETATM   40  N8  UNL     1     -18.346   0.778   4.256  1.00  0.00    -0.375 N 
ATOM     41  H8  UNL     1     -18.375   1.791   4.369  1.00  0.00     0.161 HD
BRANCH  40  42
HETATM   42  C24 UNL     1     -18.084   0.097   5.276  1.00  0.00     0.100 A 
HETATM   43  C25 UNL     1     -16.894  -0.615   5.300  1.00  0.00     0.048 A 
HETATM   44  C26 UNL     1     -16.519  -1.403   6.382  1.00  0.00     0.005 A 
HETATM   45  C27 UNL     1     -17.431  -1.419   7.431  1.00  0.00     0.017 A 
HETATM   46  C28 UNL     1     -18.605  -0.727   7.422  1.00  0.00     0.089 A 
HETATM   47  N9  UNL     1     -18.906   0.026   6.325  1.00  0.00    -0.353 N 
ATOM     48  H9  UNL     1     -19.782   0.547   6.306  1.00  0.00     0.166 HD
ENDBRANCH  40  42
ENDBRANCH  39  40
ENDBRANCH  38  39
ENDBRANCH  36  38
ENDBRANCH  11  36
TORSDOF 14
ENDMDL
