MODEL 1
REMARK VINA RESULT: -9.447947408      0.000      0.000
REMARK  13 active torsions:
REMARK  status: ('A' for Active; 'I' for Inactive)
REMARK    1  A    between atoms: C2_2  and  C3_3 
REMARK    2  A    between atoms: C3_3  and  C4_4 
REMARK    3  A    between atoms: C4_4  and  C5_5 
REMARK    4  A    between atoms: N1_6  and  C6_8 
REMARK    5  A    between atoms: C8_12  and  N3_13 
REMARK    6  A    between atoms: N3_13  and  C9_15 
REMARK    7  A    between atoms: C9_15  and  C10_16 
REMARK    8  A    between atoms: C10_16  and  C11_17 
REMARK    9  A    between atoms: C10_16  and  N4_21 
REMARK   10  A    between atoms: C11_17  and  C12_18 
REMARK   11  A    between atoms: N4_21  and  S1_23 
REMARK   12  A    between atoms: C16_29  and  N6_30 
REMARK   13  A    between atoms: C19_33  and  N7_34 
ROOT
HETATM    1  C6  UNL     1     -18.171  -3.934   2.074  1.00  0.00     0.128 A 
HETATM    2  N2  UNL     1     -18.916  -2.834   1.678  1.00  0.00    -0.335 N 
ATOM      3  H2  UNL     1     -19.545  -2.394   2.351  1.00  0.00     0.168 HD
HETATM    4  C7  UNL     1     -18.838  -2.332   0.447  1.00  0.00     0.123 A 
HETATM    5  C8  UNL     1     -19.583  -1.222   0.037  1.00  0.00     0.147 A 
HETATM    6  N5  UNL     1     -19.484  -0.736  -1.205  1.00  0.00    -0.174 N 
ATOM      7  H5  UNL     1     -20.040   0.076  -1.474  1.00  0.00     0.186 HD
HETATM    8  C16 UNL     1     -18.649  -1.314  -2.117  1.00  0.00     0.683 A 
HETATM    9  N8  UNL     1     -17.931  -2.384  -1.720  1.00  0.00    -0.174 N 
ATOM     10  H8  UNL     1     -17.304  -2.823  -2.395  1.00  0.00     0.186 HD
HETATM   11  C26 UNL     1     -18.000  -2.901  -0.485  1.00  0.00     0.152 A 
HETATM   12  N9  UNL     1     -17.284  -3.964  -0.095  1.00  0.00    -0.341 N 
ATOM     13  H9  UNL     1     -16.660  -4.395  -0.777  1.00  0.00     0.167 HD
HETATM   14  C27 UNL     1     -17.337  -4.504   1.152  1.00  0.00     0.051 A 
HETATM   15  C28 UNL     1     -16.466  -5.698   1.429  1.00  0.00     0.072 C 
ENDROOT
BRANCH   5  16
HETATM   16  N3  UNL     1     -20.357  -0.724   0.920  1.00  0.00    -0.372 N 
ATOM     17  H3  UNL     1     -21.356  -0.866   0.771  1.00  0.00     0.161 HD
BRANCH  16  18
HETATM   18  C9  UNL     1     -19.996   0.008   2.088  1.00  0.00     0.147 C 
BRANCH  18  19
HETATM   19  C10 UNL     1     -18.755   0.883   1.933  1.00  0.00     0.111 C 
BRANCH  19  20
HETATM   20  C11 UNL     1     -18.268   1.074   3.362  1.00  0.00     0.031 C 
BRANCH  20  21
HETATM   21  C12 UNL     1     -18.240  -0.162   4.187  1.00  0.00    -0.021 C 
HETATM   22  C13 UNL     1     -16.860  -0.847   4.086  1.00  0.00     0.009 C 
HETATM   23  C14 UNL     1     -18.327   0.186   5.690  1.00  0.00     0.009 C 
ENDBRANCH  20  21
ENDBRANCH  19  20
BRANCH  19  24
HETATM   24  N4  UNL     1     -19.030   2.101   1.275  1.00  0.00    -0.313 N 
ATOM     25  H4  UNL     1     -19.848   2.644   1.547  1.00  0.00     0.172 HD
BRANCH  24  26
HETATM   26  S1  UNL     1     -18.034   2.668   0.056  1.00  0.00     0.223 S 
HETATM   27  C15 UNL     1     -16.793   3.832   0.558  1.00  0.00     0.185 C 
HETATM   28  O1  UNL     1     -18.685   3.199  -1.166  1.00  0.00    -0.206 OA
HETATM   29  O2  UNL     1     -17.227   1.452  -0.442  1.00  0.00    -0.206 OA
ENDBRANCH  24  26
ENDBRANCH  19  24
ENDBRANCH  18  19
ENDBRANCH  16  18
ENDBRANCH   5  16
BRANCH   8  30
HETATM   30  N6  UNL     1     -18.554  -0.793  -3.435  1.00  0.00    -0.217 N 
HETATM   31  C17 UNL     1     -18.314   0.627  -3.594  1.00  0.00     0.143 C 
HETATM   32  C18 UNL     1     -17.296   0.700  -4.745  1.00  0.00     0.056 C 
HETATM   33  C19 UNL     1     -18.057   0.318  -5.969  1.00  0.00     0.226 C 
HETATM   34  C24 UNL     1     -18.611  -1.054  -5.881  1.00  0.00     0.056 C 
HETATM   35  C25 UNL     1     -18.694  -1.676  -4.540  1.00  0.00     0.143 C 
BRANCH  33  36
HETATM   36  N7  UNL     1     -17.301   0.526  -7.191  1.00  0.00     0.093 N 
HETATM   37  C20 UNL     1     -18.246   0.478  -8.287  1.00  0.00     0.273 C 
HETATM   38  C21 UNL     1     -17.829   1.561  -9.255  1.00  0.00     0.032 C 
HETATM   39  C22 UNL     1     -17.245   2.608  -8.350  1.00  0.00     0.032 C 
HETATM   40  C23 UNL     1     -16.717   1.844  -7.183  1.00  0.00     0.273 C 
ENDBRANCH  33  36
ENDBRANCH   8  30
BRANCH   1  41
HETATM   41  N1  UNL     1     -18.292  -4.345   3.224  1.00  0.00    -0.354 N 
HETATM   42  C5  UNL     1     -19.107  -4.618   4.281  1.00  0.00     0.063 C 
ATOM     43  H1  UNL     1     -17.352  -4.599   3.527  1.00  0.00     0.166 HD
BRANCH  42  44
HETATM   44  C4  UNL     1     -19.157  -3.542   5.366  1.00  0.00     0.048 C 
BRANCH  44  45
HETATM   45  C3  UNL     1     -18.023  -3.745   6.360  1.00  0.00     0.031 C 
BRANCH  45  46
HETATM   46  C2  UNL     1     -18.249  -2.974   7.605  1.00  0.00    -0.037 C 
HETATM   47  C1  UNL     1     -17.261  -2.335   8.208  1.00  0.00     0.007 C 
ENDBRANCH  45  46
ENDBRANCH  44  45
ENDBRANCH  42  44
ENDBRANCH   1  41
TORSDOF 13
ENDMDL
MODEL 2
REMARK VINA RESULT: -9.431051710      2.425     10.299
REMARK  13 active torsions:
REMARK  status: ('A' for Active; 'I' for Inactive)
REMARK    1  A    between atoms: C2_2  and  C3_3 
REMARK    2  A    between atoms: C3_3  and  C4_4 
REMARK    3  A    between atoms: C4_4  and  C5_5 
REMARK    4  A    between atoms: N1_6  and  C6_8 
REMARK    5  A    between atoms: C8_12  and  N3_13 
REMARK    6  A    between atoms: N3_13  and  C9_15 
REMARK    7  A    between atoms: C9_15  and  C10_16 
REMARK    8  A    between atoms: C10_16  and  C11_17 
REMARK    9  A    between atoms: C10_16  and  N4_21 
REMARK   10  A    between atoms: C11_17  and  C12_18 
REMARK   11  A    between atoms: N4_21  and  S1_23 
REMARK   12  A    between atoms: C16_29  and  N6_30 
REMARK   13  A    between atoms: C19_33  and  N7_34 
ROOT
HETATM    1  C6  UNL     1     -18.384   3.734  -3.187  1.00  0.00     0.128 A 
HETATM    2  N2  UNL     1     -18.945   2.533  -2.780  1.00  0.00    -0.335 N 
ATOM      3  H2  UNL     1     -19.435   1.959  -3.467  1.00  0.00     0.168 HD
HETATM    4  C7  UNL     1     -18.864   2.104  -1.523  1.00  0.00     0.123 A 
HETATM    5  C8  UNL     1     -19.424   0.894  -1.101  1.00  0.00     0.147 A 
HETATM    6  N5  UNL     1     -19.327   0.485   0.168  1.00  0.00    -0.174 N 
ATOM      7  H5  UNL     1     -19.745  -0.403   0.445  1.00  0.00     0.186 HD
HETATM    8  C16 UNL     1     -18.674   1.242   1.098  1.00  0.00     0.683 A 
HETATM    9  N8  UNL     1     -18.135   2.409   0.691  1.00  0.00    -0.174 N 
ATOM     10  H8  UNL     1     -17.645   2.982   1.379  1.00  0.00     0.186 HD
HETATM   11  C26 UNL     1     -18.209   2.854  -0.572  1.00  0.00     0.152 A 
HETATM   12  N9  UNL     1     -17.671   4.013  -0.972  1.00  0.00    -0.341 N 
ATOM     13  H9  UNL     1     -17.183   4.578  -0.277  1.00  0.00     0.167 HD
HETATM   14  C27 UNL     1     -17.733   4.484  -2.247  1.00  0.00     0.051 A 
HETATM   15  C28 UNL     1     -17.073   5.804  -2.532  1.00  0.00     0.072 C 
ENDROOT
BRANCH   5  16
HETATM   16  N3  UNL     1     -20.033   0.227  -2.003  1.00  0.00    -0.372 N 
ATOM     17  H3  UNL     1     -20.821   0.694  -2.450  1.00  0.00     0.161 HD
BRANCH  16  18
HETATM   18  C9  UNL     1     -19.744  -1.091  -2.461  1.00  0.00     0.147 C 
BRANCH  18  19
HETATM   19  C10 UNL     1     -18.321  -1.289  -2.975  1.00  0.00     0.111 C 
BRANCH  19  20
HETATM   20  C11 UNL     1     -18.482  -1.285  -4.488  1.00  0.00     0.031 C 
BRANCH  20  21
HETATM   21  C12 UNL     1     -18.299   0.040  -5.137  1.00  0.00    -0.021 C 
HETATM   22  C13 UNL     1     -16.824   0.484  -5.052  1.00  0.00     0.009 C 
HETATM   23  C14 UNL     1     -18.525  -0.067  -6.662  1.00  0.00     0.009 C 
ENDBRANCH  20  21
ENDBRANCH  19  20
BRANCH  19  24
HETATM   24  N4  UNL     1     -17.727  -2.472  -2.485  1.00  0.00    -0.313 N 
ATOM     25  H4  UNL     1     -17.558  -3.249  -3.122  1.00  0.00     0.172 HD
BRANCH  24  26
HETATM   26  S1  UNL     1     -17.295  -2.619  -0.876  1.00  0.00     0.223 S 
HETATM   27  C15 UNL     1     -18.560  -3.236   0.205  1.00  0.00     0.185 C 
HETATM   28  O1  UNL     1     -16.678  -1.440  -0.223  1.00  0.00    -0.206 OA
HETATM   29  O2  UNL     1     -16.197  -3.701  -0.822  1.00  0.00    -0.206 OA
ENDBRANCH  24  26
ENDBRANCH  19  24
ENDBRANCH  18  19
ENDBRANCH  16  18
ENDBRANCH   5  16
BRANCH   8  30
HETATM   30  N6  UNL     1     -18.580   0.801   2.445  1.00  0.00    -0.217 N 
HETATM   31  C17 UNL     1     -18.279  -0.595   2.688  1.00  0.00     0.143 C 
HETATM   32  C18 UNL     1     -17.280  -0.556   3.857  1.00  0.00     0.056 C 
HETATM   33  C19 UNL     1     -18.079  -0.143   5.045  1.00  0.00     0.226 C 
HETATM   34  C24 UNL     1     -18.692   1.196   4.871  1.00  0.00     0.056 C 
HETATM   35  C25 UNL     1     -18.779   1.737   3.496  1.00  0.00     0.143 C 
BRANCH  33  36
HETATM   36  N7  UNL     1     -17.336  -0.246   6.289  1.00  0.00     0.093 N 
HETATM   37  C20 UNL     1     -18.300  -0.507   7.337  1.00  0.00     0.273 C 
HETATM   38  C21 UNL     1     -17.662  -1.522   8.258  1.00  0.00     0.032 C 
HETATM   39  C22 UNL     1     -16.809  -2.329   7.322  1.00  0.00     0.032 C 
HETATM   40  C23 UNL     1     -16.446  -1.379   6.231  1.00  0.00     0.273 C 
ENDBRANCH  33  36
ENDBRANCH   8  30
BRANCH   1  41
HETATM   41  N1  UNL     1     -18.496   4.069  -4.362  1.00  0.00    -0.354 N 
HETATM   42  C5  UNL     1     -18.698   3.708  -5.660  1.00  0.00     0.063 C 
ATOM     43  H1  UNL     1     -18.389   5.084  -4.371  1.00  0.00     0.166 HD
BRANCH  42  44
HETATM   44  C4  UNL     1     -17.434   3.575  -6.509  1.00  0.00     0.048 C 
BRANCH  44  45
HETATM   45  C3  UNL     1     -17.791   3.582  -7.988  1.00  0.00     0.031 C 
BRANCH  45  46
HETATM   46  C2  UNL     1     -17.028   2.554  -8.734  1.00  0.00    -0.037 C 
HETATM   47  C1  UNL     1     -17.591   1.842  -9.696  1.00  0.00     0.007 C 
ENDBRANCH  45  46
ENDBRANCH  44  45
ENDBRANCH  42  44
ENDBRANCH   1  41
TORSDOF 13
ENDMDL
MODEL 3
REMARK VINA RESULT: -9.406816323      2.542     10.347
REMARK  13 active torsions:
REMARK  status: ('A' for Active; 'I' for Inactive)
REMARK    1  A    between atoms: C2_2  and  C3_3 
REMARK    2  A    between atoms: C3_3  and  C4_4 
REMARK    3  A    between atoms: C4_4  and  C5_5 
REMARK    4  A    between atoms: N1_6  and  C6_8 
REMARK    5  A    between atoms: C8_12  and  N3_13 
REMARK    6  A    between atoms: N3_13  and  C9_15 
REMARK    7  A    between atoms: C9_15  and  C10_16 
REMARK    8  A    between atoms: C10_16  and  C11_17 
REMARK    9  A    between atoms: C10_16  and  N4_21 
REMARK   10  A    between atoms: C11_17  and  C12_18 
REMARK   11  A    between atoms: N4_21  and  S1_23 
REMARK   12  A    between atoms: C16_29  and  N6_30 
REMARK   13  A    between atoms: C19_33  and  N7_34 
ROOT
HETATM    1  C6  UNL     1     -17.597   4.052  -3.720  1.00  0.00     0.128 A 
HETATM    2  N2  UNL     1     -18.315   2.953  -3.272  1.00  0.00    -0.335 N 
ATOM      3  H2  UNL     1     -18.978   2.505  -3.905  1.00  0.00     0.168 HD
HETATM    4  C7  UNL     1     -18.167   2.464  -2.043  1.00  0.00     0.123 A 
HETATM    5  C8  UNL     1     -18.884   1.357  -1.581  1.00  0.00     0.147 A 
HETATM    6  N5  UNL     1     -18.716   0.884  -0.342  1.00  0.00    -0.174 N 
ATOM      7  H5  UNL     1     -19.253   0.073  -0.034  1.00  0.00     0.186 HD
HETATM    8  C16 UNL     1     -17.834   1.473   0.517  1.00  0.00     0.683 A 
HETATM    9  N8  UNL     1     -17.142   2.541   0.071  1.00  0.00    -0.174 N 
ATOM     10  H8  UNL     1     -16.480   2.989   0.705  1.00  0.00     0.186 HD
HETATM   11  C26 UNL     1     -17.282   3.045  -1.164  1.00  0.00     0.152 A 
HETATM   12  N9  UNL     1     -16.592   4.106  -1.603  1.00  0.00    -0.341 N 
ATOM     13  H9  UNL     1     -15.933   4.546  -0.962  1.00  0.00     0.167 HD
HETATM   14  C27 UNL     1     -16.715   4.634  -2.851  1.00  0.00     0.051 A 
HETATM   15  C28 UNL     1     -15.865   5.827  -3.187  1.00  0.00     0.072 C 
ENDROOT
BRANCH   5  16
HETATM   16  N3  UNL     1     -19.705   0.847  -2.415  1.00  0.00    -0.372 N 
ATOM     17  H3  UNL     1     -20.440   1.466  -2.756  1.00  0.00     0.161 HD
BRANCH  16  18
HETATM   18  C9  UNL     1     -19.718  -0.483  -2.927  1.00  0.00     0.147 C 
BRANCH  18  19
HETATM   19  C10 UNL     1     -18.361  -0.995  -3.404  1.00  0.00     0.111 C 
BRANCH  19  20
HETATM   20  C11 UNL     1     -18.490  -0.999  -4.920  1.00  0.00     0.031 C 
BRANCH  20  21
HETATM   21  C12 UNL     1     -18.249   0.314  -5.575  1.00  0.00    -0.021 C 
HETATM   22  C13 UNL     1     -16.737   0.616  -5.639  1.00  0.00     0.009 C 
HETATM   23  C14 UNL     1     -18.639   0.254  -7.069  1.00  0.00     0.009 C 
ENDBRANCH  20  21
ENDBRANCH  19  20
BRANCH  19  24
HETATM   24  N4  UNL     1     -18.044  -2.263  -2.873  1.00  0.00    -0.313 N 
ATOM     25  H4  UNL     1     -18.137  -3.091  -3.461  1.00  0.00     0.172 HD
BRANCH  24  26
HETATM   26  S1  UNL     1     -17.519  -2.432  -1.293  1.00  0.00     0.223 S 
HETATM   27  C15 UNL     1     -16.650  -3.936  -0.930  1.00  0.00     0.185 C 
HETATM   28  O1  UNL     1     -18.512  -2.212  -0.215  1.00  0.00    -0.206 OA
HETATM   29  O2  UNL     1     -16.465  -1.328  -1.069  1.00  0.00    -0.206 OA
ENDBRANCH  24  26
ENDBRANCH  19  24
ENDBRANCH  18  19
ENDBRANCH  16  18
ENDBRANCH   5  16
BRANCH   8  30
HETATM   30  N6  UNL     1     -17.665   0.966   1.833  1.00  0.00    -0.217 N 
HETATM   31  C17 UNL     1     -18.456   1.550   2.897  1.00  0.00     0.143 C 
HETATM   32  C18 UNL     1     -18.886   0.338   3.741  1.00  0.00     0.056 C 
HETATM   33  C19 UNL     1     -17.645  -0.130   4.422  1.00  0.00     0.226 C 
HETATM   34  C24 UNL     1     -16.597  -0.542   3.458  1.00  0.00     0.056 C 
HETATM   35  C25 UNL     1     -16.737  -0.088   2.056  1.00  0.00     0.143 C 
BRANCH  33  36
HETATM   36  N7  UNL     1     -17.901  -1.151   5.422  1.00  0.00     0.093 N 
HETATM   37  C20 UNL     1     -16.673  -1.330   6.168  1.00  0.00     0.273 C 
HETATM   38  C21 UNL     1     -17.075  -1.501   7.614  1.00  0.00     0.032 C 
HETATM   39  C22 UNL     1     -18.310  -0.653   7.717  1.00  0.00     0.032 C 
HETATM   40  C23 UNL     1     -18.903  -0.684   6.348  1.00  0.00     0.273 C 
ENDBRANCH  33  36
ENDBRANCH   8  30
BRANCH   1  41
HETATM   41  N1  UNL     1     -17.782   4.451  -4.865  1.00  0.00    -0.354 N 
HETATM   42  C5  UNL     1     -17.875   4.166  -6.194  1.00  0.00     0.063 C 
ATOM     43  H1  UNL     1     -17.939   5.456  -4.786  1.00  0.00     0.166 HD
BRANCH  42  44
HETATM   44  C4  UNL     1     -16.613   4.436  -7.013  1.00  0.00     0.048 C 
BRANCH  44  45
HETATM   45  C3  UNL     1     -16.393   3.319  -8.023  1.00  0.00     0.031 C 
BRANCH  45  46
HETATM   46  C2  UNL     1     -17.513   3.234  -8.989  1.00  0.00    -0.037 C 
HETATM   47  C1  UNL     1     -17.530   2.320  -9.946  1.00  0.00     0.007 C 
ENDBRANCH  45  46
ENDBRANCH  44  45
ENDBRANCH  42  44
ENDBRANCH   1  41
TORSDOF 13
ENDMDL
MODEL 4
REMARK VINA RESULT: -9.272569303      1.099      1.511
REMARK  13 active torsions:
REMARK  status: ('A' for Active; 'I' for Inactive)
REMARK    1  A    between atoms: C2_2  and  C3_3 
REMARK    2  A    between atoms: C3_3  and  C4_4 
REMARK    3  A    between atoms: C4_4  and  C5_5 
REMARK    4  A    between atoms: N1_6  and  C6_8 
REMARK    5  A    between atoms: C8_12  and  N3_13 
REMARK    6  A    between atoms: N3_13  and  C9_15 
REMARK    7  A    between atoms: C9_15  and  C10_16 
REMARK    8  A    between atoms: C10_16  and  C11_17 
REMARK    9  A    between atoms: C10_16  and  N4_21 
REMARK   10  A    between atoms: C11_17  and  C12_18 
REMARK   11  A    between atoms: N4_21  and  S1_23 
REMARK   12  A    between atoms: C16_29  and  N6_30 
REMARK   13  A    between atoms: C19_33  and  N7_34 
ROOT
HETATM    1  C6  UNL     1     -17.664  -4.194   2.919  1.00  0.00     0.128 A 
HETATM    2  N2  UNL     1     -18.376  -3.083   2.493  1.00  0.00    -0.335 N 
ATOM      3  H2  UNL     1     -19.043  -2.649   3.132  1.00  0.00     0.168 HD
HETATM    4  C7  UNL     1     -18.218  -2.564   1.278  1.00  0.00     0.123 A 
HETATM    5  C8  UNL     1     -18.929  -1.443   0.838  1.00  0.00     0.147 A 
HETATM    6  N5  UNL     1     -18.750  -0.940  -0.388  1.00  0.00    -0.174 N 
ATOM      7  H5  UNL     1     -19.284  -0.121  -0.679  1.00  0.00     0.186 HD
HETATM    8  C16 UNL     1     -17.862  -1.509  -1.253  1.00  0.00     0.683 A 
HETATM    9  N8  UNL     1     -17.176  -2.590  -0.829  1.00  0.00    -0.174 N 
ATOM     10  H8  UNL     1     -16.510  -3.023  -1.469  1.00  0.00     0.186 HD
HETATM   11  C26 UNL     1     -17.326  -3.124   0.392  1.00  0.00     0.152 A 
HETATM   12  N9  UNL     1     -16.642  -4.197   0.810  1.00  0.00    -0.341 N 
ATOM     13  H9  UNL     1     -15.979  -4.622   0.163  1.00  0.00     0.167 HD
HETATM   14  C27 UNL     1     -16.776  -4.755   2.043  1.00  0.00     0.051 A 
HETATM   15  C28 UNL     1     -15.930  -5.958   2.356  1.00  0.00     0.072 C 
ENDROOT
BRANCH   5  16
HETATM   16  N3  UNL     1     -19.755  -0.953   1.678  1.00  0.00    -0.372 N 
ATOM     17  H3  UNL     1     -20.517  -1.566   1.968  1.00  0.00     0.161 HD
BRANCH  16  18
HETATM   18  C9  UNL     1     -19.742   0.348   2.260  1.00  0.00     0.147 C 
BRANCH  18  19
HETATM   19  C10 UNL     1     -18.380   0.799   2.780  1.00  0.00     0.111 C 
BRANCH  19  20
HETATM   20  C11 UNL     1     -18.536   0.747   4.293  1.00  0.00     0.031 C 
BRANCH  20  21
HETATM   21  C12 UNL     1     -18.239  -0.572   4.910  1.00  0.00    -0.021 C 
HETATM   22  C13 UNL     1     -16.722  -0.725   5.152  1.00  0.00     0.009 C 
HETATM   23  C14 UNL     1     -18.811  -0.642   6.345  1.00  0.00     0.009 C 
ENDBRANCH  20  21
ENDBRANCH  19  20
BRANCH  19  24
HETATM   24  N4  UNL     1     -18.015   2.077   2.306  1.00  0.00    -0.313 N 
ATOM     25  H4  UNL     1     -18.065   2.878   2.934  1.00  0.00     0.172 HD
BRANCH  24  26
HETATM   26  S1  UNL     1     -17.503   2.300   0.729  1.00  0.00     0.223 S 
HETATM   27  C15 UNL     1     -16.649   3.822   0.408  1.00  0.00     0.185 C 
HETATM   28  O1  UNL     1     -18.502   2.106  -0.348  1.00  0.00    -0.206 OA
HETATM   29  O2  UNL     1     -16.441   1.212   0.464  1.00  0.00    -0.206 OA
ENDBRANCH  24  26
ENDBRANCH  19  24
ENDBRANCH  18  19
ENDBRANCH  16  18
ENDBRANCH   5  16
BRANCH   8  30
HETATM   30  N6  UNL     1     -17.682  -0.970  -2.556  1.00  0.00    -0.217 N 
HETATM   31  C17 UNL     1     -18.397  -1.585  -3.655  1.00  0.00     0.143 C 
HETATM   32  C18 UNL     1     -18.876  -0.388  -4.495  1.00  0.00     0.056 C 
HETATM   33  C19 UNL     1     -17.646   0.169  -5.125  1.00  0.00     0.226 C 
HETATM   34  C24 UNL     1     -16.659   0.631  -4.119  1.00  0.00     0.056 C 
HETATM   35  C25 UNL     1     -16.817   0.144  -2.730  1.00  0.00     0.143 C 
BRANCH  33  36
HETATM   36  N7  UNL     1     -17.933   1.189  -6.118  1.00  0.00     0.093 N 
HETATM   37  C20 UNL     1     -16.700   1.441  -6.835  1.00  0.00     0.273 C 
HETATM   38  C21 UNL     1     -17.081   1.609  -8.288  1.00  0.00     0.032 C 
HETATM   39  C22 UNL     1     -18.269   0.701  -8.427  1.00  0.00     0.032 C 
HETATM   40  C23 UNL     1     -18.890   0.684  -7.071  1.00  0.00     0.273 C 
ENDBRANCH  33  36
ENDBRANCH   8  30
BRANCH   1  41
HETATM   41  N1  UNL     1     -17.859  -4.620   4.053  1.00  0.00    -0.354 N 
HETATM   42  C5  UNL     1     -18.144  -4.361   5.360  1.00  0.00     0.063 C 
ATOM     43  H1  UNL     1     -17.765  -5.634   3.987  1.00  0.00     0.166 HD
BRANCH  42  44
HETATM   44  C4  UNL     1     -16.938  -4.319   6.299  1.00  0.00     0.048 C 
BRANCH  44  45
HETATM   45  C3  UNL     1     -17.353  -4.727   7.705  1.00  0.00     0.031 C 
BRANCH  45  46
HETATM   46  C2  UNL     1     -17.808  -3.559   8.496  1.00  0.00    -0.037 C 
HETATM   47  C1  UNL     1     -16.966  -2.612   8.872  1.00  0.00     0.007 C 
ENDBRANCH  45  46
ENDBRANCH  44  45
ENDBRANCH  42  44
ENDBRANCH   1  41
TORSDOF 13
ENDMDL
MODEL 5
REMARK VINA RESULT: -9.181816937      1.922      2.934
REMARK  13 active torsions:
REMARK  status: ('A' for Active; 'I' for Inactive)
REMARK    1  A    between atoms: C2_2  and  C3_3 
REMARK    2  A    between atoms: C3_3  and  C4_4 
REMARK    3  A    between atoms: C4_4  and  C5_5 
REMARK    4  A    between atoms: N1_6  and  C6_8 
REMARK    5  A    between atoms: C8_12  and  N3_13 
REMARK    6  A    between atoms: N3_13  and  C9_15 
REMARK    7  A    between atoms: C9_15  and  C10_16 
REMARK    8  A    between atoms: C10_16  and  C11_17 
REMARK    9  A    between atoms: C10_16  and  N4_21 
REMARK   10  A    between atoms: C11_17  and  C12_18 
REMARK   11  A    between atoms: N4_21  and  S1_23 
REMARK   12  A    between atoms: C16_29  and  N6_30 
REMARK   13  A    between atoms: C19_33  and  N7_34 
ROOT
HETATM    1  C6  UNL     1     -18.820  -2.087   0.005  1.00  0.00     0.128 A 
HETATM    2  N2  UNL     1     -19.256  -0.828  -0.381  1.00  0.00    -0.335 N 
ATOM      3  H2  UNL     1     -19.733  -0.240   0.302  1.00  0.00     0.168 HD
HETATM    4  C7  UNL     1     -19.073  -0.364  -1.615  1.00  0.00     0.123 A 
HETATM    5  C8  UNL     1     -19.507   0.903  -2.015  1.00  0.00     0.147 A 
HETATM    6  N5  UNL     1     -19.310   1.347  -3.261  1.00  0.00    -0.174 N 
ATOM      7  H5  UNL     1     -19.637   2.278  -3.523  1.00  0.00     0.186 HD
HETATM    8  C16 UNL     1     -18.674   0.571  -4.186  1.00  0.00     0.683 A 
HETATM    9  N8  UNL     1     -18.256  -0.651  -3.800  1.00  0.00    -0.174 N 
ATOM     10  H8  UNL     1     -17.780  -1.239  -4.485  1.00  0.00     0.186 HD
HETATM   11  C26 UNL     1     -18.434  -1.132  -2.561  1.00  0.00     0.152 A 
HETATM   12  N9  UNL     1     -18.016  -2.347  -2.181  1.00  0.00    -0.341 N 
ATOM     13  H9  UNL     1     -17.541  -2.926  -2.873  1.00  0.00     0.167 HD
HETATM   14  C27 UNL     1     -18.184  -2.855  -0.931  1.00  0.00     0.051 A 
HETATM   15  C28 UNL     1     -17.652  -4.236  -0.666  1.00  0.00     0.072 C 
ENDROOT
BRANCH   5  16
HETATM   16  N3  UNL     1     -20.105   1.588  -1.120  1.00  0.00    -0.372 N 
ATOM     17  H3  UNL     1     -20.983   1.201  -0.772  1.00  0.00     0.161 HD
BRANCH  16  18
HETATM   18  C9  UNL     1     -19.695   2.826  -0.546  1.00  0.00     0.147 C 
BRANCH  18  19
HETATM   19  C10 UNL     1     -18.190   2.962  -0.331  1.00  0.00     0.111 C 
BRANCH  19  20
HETATM   20  C11 UNL     1     -18.028   2.823   1.175  1.00  0.00     0.031 C 
BRANCH  20  21
HETATM   21  C12 UNL     1     -18.269   1.458   1.711  1.00  0.00    -0.021 C 
HETATM   22  C13 UNL     1     -16.947   0.665   1.783  1.00  0.00     0.009 C 
HETATM   23  C14 UNL     1     -18.696   1.525   3.195  1.00  0.00     0.009 C 
ENDBRANCH  20  21
ENDBRANCH  19  20
BRANCH  19  24
HETATM   24  N4  UNL     1     -17.679   4.177  -0.833  1.00  0.00    -0.313 N 
ATOM     25  H4  UNL     1     -17.391   4.907  -0.183  1.00  0.00     0.172 HD
BRANCH  24  26
HETATM   26  S1  UNL     1     -17.536   4.440  -2.480  1.00  0.00     0.223 S 
HETATM   27  C15 UNL     1     -16.441   5.753  -2.955  1.00  0.00     0.185 C 
HETATM   28  O1  UNL     1     -18.788   4.591  -3.259  1.00  0.00    -0.206 OA
HETATM   29  O2  UNL     1     -16.876   3.173  -3.062  1.00  0.00    -0.206 OA
ENDBRANCH  24  26
ENDBRANCH  19  24
ENDBRANCH  18  19
ENDBRANCH  16  18
ENDBRANCH   5  16
BRANCH   8  30
HETATM   30  N6  UNL     1     -18.473   1.050  -5.509  1.00  0.00    -0.217 N 
HETATM   31  C17 UNL     1     -18.847   2.418  -5.805  1.00  0.00     0.143 C 
HETATM   32  C18 UNL     1     -17.700   2.927  -6.696  1.00  0.00     0.056 C 
HETATM   33  C19 UNL     1     -17.863   2.213  -7.994  1.00  0.00     0.226 C 
HETATM   34  C24 UNL     1     -17.759   0.742  -7.843  1.00  0.00     0.056 C 
HETATM   35  C25 UNL     1     -17.913   0.179  -6.483  1.00  0.00     0.143 C 
BRANCH  33  36
HETATM   36  N7  UNL     1     -16.981   2.720  -9.031  1.00  0.00     0.093 N 
HETATM   37  C20 UNL     1     -17.374   2.083 -10.270  1.00  0.00     0.273 C 
HETATM   38  C21 UNL     1     -17.288   3.146 -11.340  1.00  0.00     0.032 C 
HETATM   39  C22 UNL     1     -17.635   4.400 -10.590  1.00  0.00     0.032 C 
HETATM   40  C23 UNL     1     -17.185   4.139  -9.192  1.00  0.00     0.273 C 
ENDBRANCH  33  36
ENDBRANCH   8  30
BRANCH   1  41
HETATM   41  N1  UNL     1     -19.021  -2.452   1.159  1.00  0.00    -0.354 N 
HETATM   42  C5  UNL     1     -18.982  -2.171   2.491  1.00  0.00     0.063 C 
ATOM     43  H1  UNL     1     -19.385  -3.403   1.088  1.00  0.00     0.166 HD
BRANCH  42  44
HETATM   44  C4  UNL     1     -17.759  -2.704   3.239  1.00  0.00     0.048 C 
BRANCH  44  45
HETATM   45  C3  UNL     1     -17.480  -1.849   4.466  1.00  0.00     0.031 C 
BRANCH  45  46
HETATM   46  C2  UNL     1     -18.693  -1.689   5.302  1.00  0.00    -0.037 C 
HETATM   47  C1  UNL     1     -18.746  -0.793   6.274  1.00  0.00     0.007 C 
ENDBRANCH  45  46
ENDBRANCH  44  45
ENDBRANCH  42  44
ENDBRANCH   1  41
TORSDOF 13
ENDMDL
