MODEL 1
REMARK VINA RESULT: -8.928810842      0.000      0.000
REMARK  13 active torsions:
REMARK  status: ('A' for Active; 'I' for Inactive)
REMARK    1  A    between atoms: C2_2  and  C3_3 
REMARK    2  A    between atoms: C3_3  and  C4_4 
REMARK    3  A    between atoms: C4_4  and  C5_5 
REMARK    4  A    between atoms: C4_4  and  N1_11 
REMARK    5  A    between atoms: C5_5  and  O2_7 
REMARK    6  A    between atoms: O2_7  and  C6_8 
REMARK    7  A    between atoms: C6_8  and  O3_9 
REMARK    8  A    between atoms: C9_15  and  C10_16 
REMARK    9  A    between atoms: C10_16  and  C11_17 
REMARK   10  A    between atoms: C11_17  and  C12_18 
REMARK   11  A    between atoms: C12_18  and  C13_19 
REMARK   12  A    between atoms: C13_19  and  C14_20 
REMARK   13  A    between atoms: C14_20  and  C15_21 
REMARK       I    between atoms: C15_21  and  N2_23 
ROOT
HETATM    1  N1  UNL     1     -17.635   3.376  -2.510  1.00  0.00    -0.190 NA
HETATM    2  C7  UNL     1     -18.422   3.035  -3.633  1.00  0.00     0.188 C 
HETATM    3  C8  UNL     1     -17.906   1.805  -4.284  1.00  0.00     0.163 C 
HETATM    4  O4  UNL     1     -16.818   1.398  -3.944  1.00  0.00    -0.294 OA
HETATM    5  C9  UNL     1     -18.634   1.036  -5.325  1.00  0.00     0.155 C 
HETATM    6  N3  UNL     1     -19.006   1.860  -6.453  1.00  0.00    -0.350 N 
ATOM      7  H3  UNL     1     -19.931   2.287  -6.418  1.00  0.00     0.163 HD
HETATM    8  C17 UNL     1     -18.235   2.137  -7.584  1.00  0.00     0.218 C 
HETATM    9  O6  UNL     1     -18.828   2.131  -8.714  1.00  0.00    -0.274 OA
HETATM   10  C18 UNL     1     -16.787   2.439  -7.614  1.00  0.00     0.103 C 
HETATM   11  C19 UNL     1     -16.407   3.230  -8.862  1.00  0.00     0.009 C 
HETATM   12  C20 UNL     1     -16.792   4.684  -8.744  1.00  0.00     0.000 C 
HETATM   13  C21 UNL     1     -16.065   5.406  -7.652  1.00  0.00     0.000 C 
HETATM   14  C22 UNL     1     -15.579   6.773  -8.094  1.00  0.00     0.000 C 
HETATM   15  C23 UNL     1     -14.603   7.250  -7.025  1.00  0.00     0.000 C 
HETATM   16  C24 UNL     1     -15.300   8.043  -5.947  1.00  0.00     0.000 C 
HETATM   17  C25 UNL     1     -14.920   7.560  -4.556  1.00  0.00     0.001 C 
HETATM   18  C26 UNL     1     -16.110   7.035  -3.811  1.00  0.00     0.016 C 
HETATM   19  C27 UNL     1     -16.011   5.531  -3.562  1.00  0.00     0.157 C 
HETATM   20  S1  UNL     1     -17.354   5.102  -2.487  1.00  0.00     0.212 S 
HETATM   21  O7  UNL     1     -18.578   5.843  -2.926  1.00  0.00    -0.211 OA
HETATM   22  O8  UNL     1     -16.968   5.477  -1.094  1.00  0.00    -0.211 OA
ENDROOT
BRANCH   1  23
HETATM   23  C4  UNL     1     -18.056   2.931  -1.202  1.00  0.00     0.174 C 
BRANCH  23  24
HETATM   24  C3  UNL     1     -16.977   1.991  -0.642  1.00  0.00     0.030 C 
BRANCH  24  25
HETATM   25  C2  UNL     1     -16.924   1.826   0.815  1.00  0.00    -0.002 C 
HETATM   26  C1  UNL     1     -17.634   2.794   1.680  1.00  0.00     0.005 C 
ENDBRANCH  24  25
ENDBRANCH  23  24
BRANCH  23  27
HETATM   27  C5  UNL     1     -19.410   2.452  -1.063  1.00  0.00     0.279 C 
HETATM   28  O1  UNL     1     -20.404   3.165  -0.706  1.00  0.00    -0.263 OA
BRANCH  27  29
HETATM   29  O2  UNL     1     -19.784   1.106  -1.304  1.00  0.00    -0.294 OA
BRANCH  29  30
HETATM   30  C6  UNL     1     -19.838   0.148  -0.266  1.00  0.00     0.344 C 
BRANCH  30  31
HETATM   31  O3  UNL     1     -21.135  -0.271   0.003  1.00  0.00    -0.377 OA
ATOM     32  H3  UNL     1     -21.329  -0.278   0.933  1.00  0.00     0.212 HD
ENDBRANCH  30  31
ENDBRANCH  29  30
ENDBRANCH  27  29
ENDBRANCH  23  27
ENDBRANCH   1  23
BRANCH   5  33
HETATM   33  C10 UNL     1     -17.869  -0.195  -5.693  1.00  0.00     0.033 C 
BRANCH  33  34
HETATM   34  C11 UNL     1     -18.483  -1.470  -5.208  1.00  0.00     0.002 C 
BRANCH  34  35
HETATM   35  C12 UNL     1     -19.036  -1.406  -3.815  1.00  0.00     0.001 C 
BRANCH  35  36
HETATM   36  C13 UNL     1     -18.174  -2.228  -2.899  1.00  0.00     0.009 C 
BRANCH  36  37
HETATM   37  C14 UNL     1     -17.300  -1.428  -1.993  1.00  0.00     0.103 C 
BRANCH  37  38
HETATM   38  C15 UNL     1     -16.887  -2.259  -0.847  1.00  0.00     0.217 C 
HETATM   39  O5  UNL     1     -16.578  -1.718   0.230  1.00  0.00    -0.274 OA
HETATM   40  N2  UNL     1     -16.843  -3.657  -0.975  1.00  0.00    -0.365 N 
HETATM   41  C16 UNL     1     -16.442  -4.468   0.140  1.00  0.00     0.149 C 
ATOM     42  H2  UNL     1     -17.096  -4.096  -1.861  1.00  0.00     0.161 HD
ENDBRANCH  37  38
ENDBRANCH  36  37
ENDBRANCH  35  36
ENDBRANCH  34  35
ENDBRANCH  33  34
ENDBRANCH   5  33
TORSDOF 13
ENDMDL
MODEL 2
REMARK VINA RESULT: -8.705615062      2.251      5.198
REMARK  13 active torsions:
REMARK  status: ('A' for Active; 'I' for Inactive)
REMARK    1  A    between atoms: C2_2  and  C3_3 
REMARK    2  A    between atoms: C3_3  and  C4_4 
REMARK    3  A    between atoms: C4_4  and  C5_5 
REMARK    4  A    between atoms: C4_4  and  N1_11 
REMARK    5  A    between atoms: C5_5  and  O2_7 
REMARK    6  A    between atoms: O2_7  and  C6_8 
REMARK    7  A    between atoms: C6_8  and  O3_9 
REMARK    8  A    between atoms: C9_15  and  C10_16 
REMARK    9  A    between atoms: C10_16  and  C11_17 
REMARK   10  A    between atoms: C11_17  and  C12_18 
REMARK   11  A    between atoms: C12_18  and  C13_19 
REMARK   12  A    between atoms: C13_19  and  C14_20 
REMARK   13  A    between atoms: C14_20  and  C15_21 
REMARK       I    between atoms: C15_21  and  N2_23 
ROOT
HETATM    1  N1  UNL     1     -18.193   1.157  -4.122  1.00  0.00    -0.190 NA
HETATM    2  C7  UNL     1     -17.154   2.021  -3.711  1.00  0.00     0.188 C 
HETATM    3  C8  UNL     1     -17.700   3.188  -2.973  1.00  0.00     0.163 C 
HETATM    4  O4  UNL     1     -18.895   3.371  -3.009  1.00  0.00    -0.294 OA
HETATM    5  C9  UNL     1     -16.879   4.147  -2.192  1.00  0.00     0.155 C 
HETATM    6  N3  UNL     1     -15.825   4.738  -2.987  1.00  0.00    -0.350 N 
ATOM      7  H3  UNL     1     -14.921   4.268  -2.963  1.00  0.00     0.163 HD
HETATM    8  C17 UNL     1     -15.912   5.882  -3.783  1.00  0.00     0.218 C 
HETATM    9  O6  UNL     1     -14.929   6.694  -3.751  1.00  0.00    -0.274 OA
HETATM   10  C18 UNL     1     -17.034   6.257  -4.671  1.00  0.00     0.103 C 
HETATM   11  C19 UNL     1     -16.579   7.200  -5.780  1.00  0.00     0.009 C 
HETATM   12  C20 UNL     1     -15.846   6.467  -6.877  1.00  0.00     0.000 C 
HETATM   13  C21 UNL     1     -16.703   5.478  -7.606  1.00  0.00     0.000 C 
HETATM   14  C22 UNL     1     -16.500   5.542  -9.107  1.00  0.00     0.000 C 
HETATM   15  C23 UNL     1     -17.634   4.738  -9.731  1.00  0.00     0.000 C 
HETATM   16  C24 UNL     1     -17.253   3.291  -9.920  1.00  0.00     0.000 C 
HETATM   17  C25 UNL     1     -18.319   2.351  -9.379  1.00  0.00     0.001 C 
HETATM   18  C26 UNL     1     -17.790   1.504  -8.261  1.00  0.00     0.016 C 
HETATM   19  C27 UNL     1     -18.451   1.841  -6.925  1.00  0.00     0.157 C 
HETATM   20  S1  UNL     1     -17.902   0.620  -5.762  1.00  0.00     0.212 S 
HETATM   21  O7  UNL     1     -16.444   0.365  -5.983  1.00  0.00    -0.211 OA
HETATM   22  O8  UNL     1     -18.705  -0.619  -5.980  1.00  0.00    -0.211 OA
ENDROOT
BRANCH   1  23
HETATM   23  C4  UNL     1     -18.532   0.026  -3.291  1.00  0.00     0.174 C 
BRANCH  23  24
HETATM   24  C3  UNL     1     -19.775   0.391  -2.464  1.00  0.00     0.030 C 
BRANCH  24  25
HETATM   25  C2  UNL     1     -19.581   0.611  -1.026  1.00  0.00    -0.002 C 
HETATM   26  C1  UNL     1     -20.222  -0.307  -0.059  1.00  0.00     0.005 C 
ENDBRANCH  24  25
ENDBRANCH  23  24
BRANCH  23  27
HETATM   27  C5  UNL     1     -17.467  -0.596  -2.543  1.00  0.00     0.279 C 
HETATM   28  O1  UNL     1     -16.467   0.019  -2.046  1.00  0.00    -0.263 OA
BRANCH  27  29
HETATM   29  O2  UNL     1     -17.414  -1.988  -2.281  1.00  0.00    -0.294 OA
BRANCH  29  30
HETATM   30  C6  UNL     1     -17.438  -2.502  -0.964  1.00  0.00     0.344 C 
BRANCH  30  31
HETATM   31  O3  UNL     1     -16.452  -1.947  -0.159  1.00  0.00    -0.377 OA
ATOM     32  H3  UNL     1     -16.809  -1.519   0.610  1.00  0.00     0.212 HD
ENDBRANCH  30  31
ENDBRANCH  29  30
ENDBRANCH  27  29
ENDBRANCH  23  27
ENDBRANCH   1  23
BRANCH   5  33
HETATM   33  C10 UNL     1     -17.757   5.143  -1.503  1.00  0.00     0.033 C 
BRANCH  33  34
HETATM   34  C11 UNL     1     -17.541   5.237  -0.026  1.00  0.00     0.002 C 
BRANCH  34  35
HETATM   35  C12 UNL     1     -16.631   4.187   0.540  1.00  0.00     0.001 C 
BRANCH  35  36
HETATM   36  C13 UNL     1     -17.456   3.113   1.191  1.00  0.00     0.009 C 
BRANCH  36  37
HETATM   37  C14 UNL     1     -16.987   1.724   0.916  1.00  0.00     0.103 C 
BRANCH  37  38
HETATM   38  C15 UNL     1     -17.407   0.836   2.017  1.00  0.00     0.217 C 
HETATM   39  O5  UNL     1     -18.421   1.113   2.683  1.00  0.00    -0.274 OA
HETATM   40  N2  UNL     1     -16.661  -0.317   2.310  1.00  0.00    -0.365 N 
HETATM   41  C16 UNL     1     -17.068  -1.184   3.380  1.00  0.00     0.149 C 
ATOM     42  H2  UNL     1     -15.829  -0.539   1.762  1.00  0.00     0.161 HD
ENDBRANCH  37  38
ENDBRANCH  36  37
ENDBRANCH  35  36
ENDBRANCH  34  35
ENDBRANCH  33  34
ENDBRANCH   5  33
TORSDOF 13
ENDMDL
MODEL 3
REMARK VINA RESULT: -8.499358302      4.787     11.649
REMARK  13 active torsions:
REMARK  status: ('A' for Active; 'I' for Inactive)
REMARK    1  A    between atoms: C2_2  and  C3_3 
REMARK    2  A    between atoms: C3_3  and  C4_4 
REMARK    3  A    between atoms: C4_4  and  C5_5 
REMARK    4  A    between atoms: C4_4  and  N1_11 
REMARK    5  A    between atoms: C5_5  and  O2_7 
REMARK    6  A    between atoms: O2_7  and  C6_8 
REMARK    7  A    between atoms: C6_8  and  O3_9 
REMARK    8  A    between atoms: C9_15  and  C10_16 
REMARK    9  A    between atoms: C10_16  and  C11_17 
REMARK   10  A    between atoms: C11_17  and  C12_18 
REMARK   11  A    between atoms: C12_18  and  C13_19 
REMARK   12  A    between atoms: C13_19  and  C14_20 
REMARK   13  A    between atoms: C14_20  and  C15_21 
REMARK       I    between atoms: C15_21  and  N2_23 
ROOT
HETATM    1  N1  UNL     1     -17.485  -3.262   1.783  1.00  0.00    -0.190 NA
HETATM    2  C7  UNL     1     -18.294  -2.981   2.907  1.00  0.00     0.188 C 
HETATM    3  C8  UNL     1     -17.840  -1.743   3.588  1.00  0.00     0.163 C 
HETATM    4  O4  UNL     1     -16.769  -1.281   3.267  1.00  0.00    -0.294 OA
HETATM    5  C9  UNL     1     -18.611  -1.031   4.639  1.00  0.00     0.155 C 
HETATM    6  N3  UNL     1     -18.953  -1.896   5.745  1.00  0.00    -0.350 N 
ATOM      7  H3  UNL     1     -19.858  -2.363   5.694  1.00  0.00     0.163 HD
HETATM    8  C17 UNL     1     -18.180  -2.161   6.877  1.00  0.00     0.218 C 
HETATM    9  O6  UNL     1     -18.781  -2.207   8.001  1.00  0.00    -0.274 OA
HETATM   10  C18 UNL     1     -16.720  -2.399   6.914  1.00  0.00     0.103 C 
HETATM   11  C19 UNL     1     -16.314  -3.198   8.147  1.00  0.00     0.009 C 
HETATM   12  C20 UNL     1     -16.632  -4.666   7.996  1.00  0.00     0.000 C 
HETATM   13  C21 UNL     1     -15.865  -5.331   6.894  1.00  0.00     0.000 C 
HETATM   14  C22 UNL     1     -15.321  -6.683   7.311  1.00  0.00     0.000 C 
HETATM   15  C23 UNL     1     -14.316  -7.093   6.242  1.00  0.00     0.000 C 
HETATM   16  C24 UNL     1     -14.968  -7.892   5.141  1.00  0.00     0.000 C 
HETATM   17  C25 UNL     1     -14.599  -7.363   3.764  1.00  0.00     0.001 C 
HETATM   18  C26 UNL     1     -15.806  -6.876   3.019  1.00  0.00     0.016 C 
HETATM   19  C27 UNL     1     -15.773  -5.364   2.803  1.00  0.00     0.157 C 
HETATM   20  S1  UNL     1     -17.125  -4.973   1.726  1.00  0.00     0.212 S 
HETATM   21  O7  UNL     1     -18.318  -5.778   2.138  1.00  0.00    -0.211 OA
HETATM   22  O8  UNL     1     -16.712  -5.300   0.328  1.00  0.00    -0.211 OA
ENDROOT
BRANCH   1  23
HETATM   23  C4  UNL     1     -17.915  -2.809   0.482  1.00  0.00     0.174 C 
BRANCH  23  24
HETATM   24  C3  UNL     1     -16.861  -1.828  -0.060  1.00  0.00     0.030 C 
BRANCH  24  25
HETATM   25  C2  UNL     1     -16.898  -1.534  -1.498  1.00  0.00    -0.002 C 
HETATM   26  C1  UNL     1     -16.615  -0.158  -1.962  1.00  0.00     0.005 C 
ENDBRANCH  24  25
ENDBRANCH  23  24
BRANCH  23  27
HETATM   27  C5  UNL     1     -19.281  -2.366   0.346  1.00  0.00     0.279 C 
HETATM   28  O1  UNL     1     -20.258  -3.106  -0.006  1.00  0.00    -0.263 OA
BRANCH  27  29
HETATM   29  O2  UNL     1     -19.690  -1.030   0.586  1.00  0.00    -0.294 OA
BRANCH  29  30
HETATM   30  C6  UNL     1     -19.868  -0.102  -0.466  1.00  0.00     0.344 C 
BRANCH  30  31
HETATM   31  O3  UNL     1     -21.191   0.296  -0.606  1.00  0.00    -0.377 OA
ATOM     32  H3  UNL     1     -21.318   0.883  -1.342  1.00  0.00     0.212 HD
ENDBRANCH  30  31
ENDBRANCH  29  30
ENDBRANCH  27  29
ENDBRANCH  23  27
ENDBRANCH   1  23
BRANCH   5  33
HETATM   33  C10 UNL     1     -17.905   0.225   5.040  1.00  0.00     0.033 C 
BRANCH  33  34
HETATM   34  C11 UNL     1     -18.534   1.478   4.519  1.00  0.00     0.002 C 
BRANCH  34  35
HETATM   35  C12 UNL     1     -18.935   1.423   3.075  1.00  0.00     0.001 C 
BRANCH  35  36
HETATM   36  C13 UNL     1     -18.159   2.452   2.303  1.00  0.00     0.009 C 
BRANCH  36  37
HETATM   37  C14 UNL     1     -17.397   1.907   1.142  1.00  0.00     0.103 C 
BRANCH  37  38
HETATM   38  C15 UNL     1     -17.377   2.904   0.056  1.00  0.00     0.217 C 
HETATM   39  O5  UNL     1     -16.297   3.410  -0.300  1.00  0.00    -0.274 OA
HETATM   40  N2  UNL     1     -18.575   3.279  -0.573  1.00  0.00    -0.365 N 
HETATM   41  C16 UNL     1     -18.557   4.249  -1.633  1.00  0.00     0.149 C 
ATOM     42  H2  UNL     1     -19.458   2.863  -0.278  1.00  0.00     0.161 HD
ENDBRANCH  37  38
ENDBRANCH  36  37
ENDBRANCH  35  36
ENDBRANCH  34  35
ENDBRANCH  33  34
ENDBRANCH   5  33
TORSDOF 13
ENDMDL
MODEL 4
REMARK VINA RESULT: -8.453666884      2.948      4.558
REMARK  13 active torsions:
REMARK  status: ('A' for Active; 'I' for Inactive)
REMARK    1  A    between atoms: C2_2  and  C3_3 
REMARK    2  A    between atoms: C3_3  and  C4_4 
REMARK    3  A    between atoms: C4_4  and  C5_5 
REMARK    4  A    between atoms: C4_4  and  N1_11 
REMARK    5  A    between atoms: C5_5  and  O2_7 
REMARK    6  A    between atoms: O2_7  and  C6_8 
REMARK    7  A    between atoms: C6_8  and  O3_9 
REMARK    8  A    between atoms: C9_15  and  C10_16 
REMARK    9  A    between atoms: C10_16  and  C11_17 
REMARK   10  A    between atoms: C11_17  and  C12_18 
REMARK   11  A    between atoms: C12_18  and  C13_19 
REMARK   12  A    between atoms: C13_19  and  C14_20 
REMARK   13  A    between atoms: C14_20  and  C15_21 
REMARK       I    between atoms: C15_21  and  N2_23 
ROOT
HETATM    1  N1  UNL     1     -17.515   1.055   0.554  1.00  0.00    -0.190 NA
HETATM    2  C7  UNL     1     -18.355   0.277  -0.273  1.00  0.00     0.188 C 
HETATM    3  C8  UNL     1     -17.594  -0.831  -0.903  1.00  0.00     0.163 C 
HETATM    4  O4  UNL     1     -16.388  -0.804  -0.827  1.00  0.00    -0.294 OA
HETATM    5  C9  UNL     1     -18.214  -1.974  -1.621  1.00  0.00     0.155 C 
HETATM    6  N3  UNL     1     -19.086  -1.539  -2.689  1.00  0.00    -0.350 N 
ATOM      7  H3  UNL     1     -20.071  -1.425  -2.453  1.00  0.00     0.163 HD
HETATM    8  C17 UNL     1     -18.726  -1.259  -4.009  1.00  0.00     0.218 C 
HETATM    9  O6  UNL     1     -19.509  -1.666  -4.930  1.00  0.00    -0.274 OA
HETATM   10  C18 UNL     1     -17.519  -0.531  -4.460  1.00  0.00     0.103 C 
HETATM   11  C19 UNL     1     -17.720   0.084  -5.841  1.00  0.00     0.009 C 
HETATM   12  C20 UNL     1     -18.556   1.339  -5.781  1.00  0.00     0.000 C 
HETATM   13  C21 UNL     1     -17.910   2.448  -5.008  1.00  0.00     0.000 C 
HETATM   14  C22 UNL     1     -18.042   3.786  -5.708  1.00  0.00     0.000 C 
HETATM   15  C23 UNL     1     -17.089   4.741  -4.999  1.00  0.00     0.000 C 
HETATM   16  C24 UNL     1     -17.769   5.467  -3.865  1.00  0.00     0.000 C 
HETATM   17  C25 UNL     1     -16.952   5.404  -2.584  1.00  0.00     0.001 C 
HETATM   18  C26 UNL     1     -17.690   4.687  -1.494  1.00  0.00     0.016 C 
HETATM   19  C27 UNL     1     -17.019   3.366  -1.120  1.00  0.00     0.157 C 
HETATM   20  S1  UNL     1     -17.859   2.754   0.316  1.00  0.00     0.212 S 
HETATM   21  O7  UNL     1     -19.329   2.977   0.145  1.00  0.00    -0.211 OA
HETATM   22  O8  UNL     1     -17.337   3.491   1.505  1.00  0.00    -0.211 OA
ENDROOT
BRANCH   1  23
HETATM   23  C4  UNL     1     -17.459   0.762   1.967  1.00  0.00     0.174 C 
BRANCH  23  24
HETATM   24  C3  UNL     1     -16.427  -0.356   2.186  1.00  0.00     0.030 C 
BRANCH  24  25
HETATM   25  C2  UNL     1     -16.488  -1.082   3.460  1.00  0.00    -0.002 C 
HETATM   26  C1  UNL     1     -15.802  -0.523   4.646  1.00  0.00     0.005 C 
ENDBRANCH  24  25
ENDBRANCH  23  24
BRANCH  23  27
HETATM   27  C5  UNL     1     -18.710   0.576   2.661  1.00  0.00     0.279 C 
HETATM   28  O1  UNL     1     -19.447  -0.460   2.575  1.00  0.00    -0.263 OA
BRANCH  27  29
HETATM   29  O2  UNL     1     -19.270   1.553   3.523  1.00  0.00    -0.294 OA
BRANCH  29  30
HETATM   30  C6  UNL     1     -18.851   1.691   4.866  1.00  0.00     0.344 C 
BRANCH  30  31
HETATM   31  O3  UNL     1     -18.862   0.483   5.553  1.00  0.00    -0.377 OA
ATOM     32  H3  UNL     1     -18.926   0.601   6.494  1.00  0.00     0.212 HD
ENDBRANCH  30  31
ENDBRANCH  29  30
ENDBRANCH  27  29
ENDBRANCH  23  27
ENDBRANCH   1  23
BRANCH   5  33
HETATM   33  C10 UNL     1     -17.165  -2.951  -2.047  1.00  0.00     0.033 C 
BRANCH  33  34
HETATM   34  C11 UNL     1     -17.223  -4.266  -1.337  1.00  0.00     0.002 C 
BRANCH  34  35
HETATM   35  C12 UNL     1     -16.414  -4.331  -0.075  1.00  0.00     0.001 C 
BRANCH  35  36
HETATM   36  C13 UNL     1     -17.222  -4.999   1.001  1.00  0.00     0.009 C 
BRANCH  36  37
HETATM   37  C14 UNL     1     -18.337  -4.167   1.540  1.00  0.00     0.103 C 
BRANCH  37  38
HETATM   38  C15 UNL     1     -18.263  -4.141   3.013  1.00  0.00     0.217 C 
HETATM   39  O5  UNL     1     -17.401  -4.818   3.602  1.00  0.00    -0.274 OA
HETATM   40  N2  UNL     1     -19.166  -3.353   3.745  1.00  0.00    -0.365 N 
HETATM   41  C16 UNL     1     -19.095  -3.326   5.180  1.00  0.00     0.149 C 
ATOM     42  H2  UNL     1     -19.872  -2.801   3.259  1.00  0.00     0.161 HD
ENDBRANCH  37  38
ENDBRANCH  36  37
ENDBRANCH  35  36
ENDBRANCH  34  35
ENDBRANCH  33  34
ENDBRANCH   5  33
TORSDOF 13
ENDMDL
MODEL 5
REMARK VINA RESULT: -8.276344268      3.220      9.751
REMARK  13 active torsions:
REMARK  status: ('A' for Active; 'I' for Inactive)
REMARK    1  A    between atoms: C2_2  and  C3_3 
REMARK    2  A    between atoms: C3_3  and  C4_4 
REMARK    3  A    between atoms: C4_4  and  C5_5 
REMARK    4  A    between atoms: C4_4  and  N1_11 
REMARK    5  A    between atoms: C5_5  and  O2_7 
REMARK    6  A    between atoms: O2_7  and  C6_8 
REMARK    7  A    between atoms: C6_8  and  O3_9 
REMARK    8  A    between atoms: C9_15  and  C10_16 
REMARK    9  A    between atoms: C10_16  and  C11_17 
REMARK   10  A    between atoms: C11_17  and  C12_18 
REMARK   11  A    between atoms: C12_18  and  C13_19 
REMARK   12  A    between atoms: C13_19  and  C14_20 
REMARK   13  A    between atoms: C14_20  and  C15_21 
REMARK       I    between atoms: C15_21  and  N2_23 
ROOT
HETATM    1  N1  UNL     1     -17.587  -1.098  -1.024  1.00  0.00    -0.190 NA
HETATM    2  C7  UNL     1     -18.399  -0.319  -0.169  1.00  0.00     0.188 C 
HETATM    3  C8  UNL     1     -17.617   0.787   0.437  1.00  0.00     0.163 C 
HETATM    4  O4  UNL     1     -16.414   0.758   0.322  1.00  0.00    -0.294 OA
HETATM    5  C9  UNL     1     -18.212   1.929   1.176  1.00  0.00     0.155 C 
HETATM    6  N3  UNL     1     -19.050   1.494   2.271  1.00  0.00    -0.350 N 
ATOM      7  H3  UNL     1     -20.042   1.382   2.067  1.00  0.00     0.163 HD
HETATM    8  C17 UNL     1     -18.648   1.212   3.578  1.00  0.00     0.218 C 
HETATM    9  O6  UNL     1     -19.400   1.618   4.524  1.00  0.00    -0.274 OA
HETATM   10  C18 UNL     1     -17.428   0.482   3.989  1.00  0.00     0.103 C 
HETATM   11  C19 UNL     1     -17.586  -0.135   5.375  1.00  0.00     0.009 C 
HETATM   12  C20 UNL     1     -18.424  -1.389   5.340  1.00  0.00     0.000 C 
HETATM   13  C21 UNL     1     -17.806  -2.497   4.545  1.00  0.00     0.000 C 
HETATM   14  C22 UNL     1     -17.917  -3.837   5.248  1.00  0.00     0.000 C 
HETATM   15  C23 UNL     1     -16.988  -4.792   4.507  1.00  0.00     0.000 C 
HETATM   16  C24 UNL     1     -17.705  -5.515   3.394  1.00  0.00     0.000 C 
HETATM   17  C25 UNL     1     -16.929  -5.452   2.088  1.00  0.00     0.001 C 
HETATM   18  C26 UNL     1     -17.701  -4.732   1.023  1.00  0.00     0.016 C 
HETATM   19  C27 UNL     1     -17.040  -3.411   0.630  1.00  0.00     0.157 C 
HETATM   20  S1  UNL     1     -17.925  -2.797  -0.777  1.00  0.00     0.212 S 
HETATM   21  O7  UNL     1     -19.390  -3.017  -0.560  1.00  0.00    -0.211 OA
HETATM   22  O8  UNL     1     -17.443  -3.532  -1.984  1.00  0.00    -0.211 OA
ENDROOT
BRANCH   1  23
HETATM   23  C4  UNL     1     -17.576  -0.802  -2.438  1.00  0.00     0.174 C 
BRANCH  23  24
HETATM   24  C3  UNL     1     -16.577   0.340  -2.684  1.00  0.00     0.030 C 
BRANCH  24  25
HETATM   25  C2  UNL     1     -16.767   1.146  -3.896  1.00  0.00    -0.002 C 
HETATM   26  C1  UNL     1     -16.094   0.738  -5.149  1.00  0.00     0.005 C 
ENDBRANCH  24  25
ENDBRANCH  23  24
BRANCH  23  27
HETATM   27  C5  UNL     1     -18.850  -0.647  -3.098  1.00  0.00     0.279 C 
HETATM   28  O1  UNL     1     -19.668   0.308  -2.890  1.00  0.00    -0.263 OA
BRANCH  27  29
HETATM   29  O2  UNL     1     -19.340  -1.563  -4.062  1.00  0.00    -0.294 OA
BRANCH  29  30
HETATM   30  C6  UNL     1     -18.679  -1.776  -5.294  1.00  0.00     0.344 C 
BRANCH  30  31
HETATM   31  O3  UNL     1     -19.046  -0.847  -6.260  1.00  0.00    -0.377 OA
ATOM     32  H3  UNL     1     -19.291  -1.256  -7.082  1.00  0.00     0.212 HD
ENDBRANCH  30  31
ENDBRANCH  29  30
ENDBRANCH  27  29
ENDBRANCH  23  27
ENDBRANCH   1  23
BRANCH   5  33
HETATM   33  C10 UNL     1     -17.148   2.904   1.570  1.00  0.00     0.033 C 
BRANCH  33  34
HETATM   34  C11 UNL     1     -17.198   4.203   0.829  1.00  0.00     0.002 C 
BRANCH  34  35
HETATM   35  C12 UNL     1     -16.680   4.140  -0.578  1.00  0.00     0.001 C 
BRANCH  35  36
HETATM   36  C13 UNL     1     -17.340   5.212  -1.399  1.00  0.00     0.009 C 
BRANCH  36  37
HETATM   37  C14 UNL     1     -18.708   4.864  -1.882  1.00  0.00     0.103 C 
BRANCH  37  38
HETATM   38  C15 UNL     1     -18.758   4.992  -3.350  1.00  0.00     0.217 C 
HETATM   39  O5  UNL     1     -18.431   6.064  -3.890  1.00  0.00    -0.274 OA
HETATM   40  N2  UNL     1     -19.177   3.904  -4.134  1.00  0.00    -0.365 N 
HETATM   41  C16 UNL     1     -19.226   4.026  -5.564  1.00  0.00     0.149 C 
ATOM     42  H2  UNL     1     -19.446   3.027  -3.688  1.00  0.00     0.161 HD
ENDBRANCH  37  38
ENDBRANCH  36  37
ENDBRANCH  35  36
ENDBRANCH  34  35
ENDBRANCH  33  34
ENDBRANCH   5  33
TORSDOF 13
ENDMDL
