MODEL 1
REMARK VINA RESULT: -6.257783914      0.000      0.000
REMARK  8 active torsions:
REMARK  status: ('A' for Active; 'I' for Inactive)
REMARK    1  A    between atoms: N1_1  and  C1_5 
REMARK    2  A    between atoms: C1_5  and  O1_6 
REMARK    3  A    between atoms: C1_5  and  C2_8 
REMARK    4  A    between atoms: N2_10  and  C4_11 
REMARK    5  A    between atoms: C11_18  and  O2_19 
REMARK    6  A    between atoms: O2_19  and  C12_20 
REMARK    7  A    between atoms: C12_20  and  C13_21 
REMARK    8  A    between atoms: C13_21  and  N3_22 
ROOT
HETATM    1  C2  UNL     1      15.467  11.156  29.888  1.00  0.00     0.025 A 
HETATM    2  C3  UNL     1      14.927  10.408  28.841  1.00  0.00     0.104 A 
HETATM    3  N2  UNL     1      13.707  10.864  28.536  1.00  0.00    -0.351 N 
HETATM    4  C9  UNL     1      13.429  11.908  29.370  1.00  0.00     0.048 A 
HETATM    5  C10 UNL     1      12.332  12.717  29.478  1.00  0.00     0.070 A 
HETATM    6  C11 UNL     1      12.299  13.717  30.416  1.00  0.00     0.109 A 
HETATM    7  C17 UNL     1      13.362  13.925  31.263  1.00  0.00     0.150 A 
HETATM    8  F1  UNL     1      13.261  14.931  32.165  1.00  0.00    -0.203 F 
HETATM    9  C18 UNL     1      14.476  13.112  31.161  1.00  0.00     0.059 A 
HETATM   10  C19 UNL     1      14.520  12.102  30.220  1.00  0.00     0.006 A 
ENDROOT
BRANCH   1  11
HETATM   11  C1  UNL     1      16.801  10.948  30.510  1.00  0.00     0.352 C 
BRANCH  11  12
HETATM   12  N1  UNL     1      17.439   9.864  29.735  1.00  0.00    -0.049 N 
ATOM     13  H13 UNL     1      17.337   8.940  30.154  1.00  0.00     0.277 HD
ATOM     14  H12 UNL     1      16.966   9.648  28.858  1.00  0.00     0.277 HD
ATOM     15  H11 UNL     1      18.408  10.161  29.619  1.00  0.00     0.277 HD
ENDBRANCH  11  12
BRANCH  11  16
HETATM   16  O1  UNL     1      16.744  10.472  31.804  1.00  0.00    -0.366 OA
ATOM     17  H1  UNL     1      16.341  11.173  32.304  1.00  0.00     0.212 HD
ENDBRANCH  11  16
ENDBRANCH   1  11
BRANCH   3  18
HETATM   18  C4  UNL     1      12.818  10.364  27.514  1.00  0.00     0.089 C 
HETATM   19  C5  UNL     1      13.089  10.985  26.167  1.00  0.00     0.026 C 
HETATM   20  C6  UNL     1      12.963   9.882  25.140  1.00  0.00     0.002 C 
HETATM   21  C7  UNL     1      12.437   8.690  25.931  1.00  0.00     0.002 C 
HETATM   22  C8  UNL     1      13.136   8.903  27.263  1.00  0.00     0.026 C 
ENDBRANCH   3  18
BRANCH   6  23
HETATM   23  O2  UNL     1      11.183  14.520  30.507  1.00  0.00    -0.346 OA
BRANCH  23  24
HETATM   24  C12 UNL     1      10.563  14.984  29.329  1.00  0.00     0.206 C 
BRANCH  24  25
HETATM   25  C13 UNL     1       9.152  14.427  29.316  1.00  0.00     0.299 C 
BRANCH  25  26
HETATM   26  N3  UNL     1       8.875  14.012  27.936  1.00  0.00     0.090 N 
HETATM   27  C14 UNL     1       9.072  12.590  27.719  1.00  0.00     0.274 C 
HETATM   28  C15 UNL     1       7.635  12.373  28.144  1.00  0.00     0.060 C 
HETATM   29  C16 UNL     1       7.455  13.806  27.716  1.00  0.00     0.274 C 
ENDBRANCH  25  26
ENDBRANCH  24  25
ENDBRANCH  23  24
ENDBRANCH   6  23
TORSDOF 8
ENDMDL
MODEL 2
REMARK VINA RESULT: -6.233167476      2.452      4.569
REMARK  8 active torsions:
REMARK  status: ('A' for Active; 'I' for Inactive)
REMARK    1  A    between atoms: N1_1  and  C1_5 
REMARK    2  A    between atoms: C1_5  and  O1_6 
REMARK    3  A    between atoms: C1_5  and  C2_8 
REMARK    4  A    between atoms: N2_10  and  C4_11 
REMARK    5  A    between atoms: C11_18  and  O2_19 
REMARK    6  A    between atoms: O2_19  and  C12_20 
REMARK    7  A    between atoms: C12_20  and  C13_21 
REMARK    8  A    between atoms: C13_21  and  N3_22 
ROOT
HETATM    1  C2  UNL     1      15.729  10.948  30.482  1.00  0.00     0.025 A 
HETATM    2  C3  UNL     1      15.392  12.029  31.298  1.00  0.00     0.104 A 
HETATM    3  N2  UNL     1      14.244  12.576  30.881  1.00  0.00    -0.351 N 
HETATM    4  C9  UNL     1      13.814  11.870  29.796  1.00  0.00     0.048 A 
HETATM    5  C10 UNL     1      12.709  12.009  29.002  1.00  0.00     0.070 A 
HETATM    6  C11 UNL     1      12.499  11.151  27.952  1.00  0.00     0.109 A 
HETATM    7  C17 UNL     1      13.389  10.140  27.678  1.00  0.00     0.150 A 
HETATM    8  F1  UNL     1      13.119   9.331  26.626  1.00  0.00    -0.203 F 
HETATM    9  C18 UNL     1      14.509   9.992  28.476  1.00  0.00     0.059 A 
HETATM   10  C19 UNL     1      14.731  10.849  29.535  1.00  0.00     0.006 A 
ENDROOT
BRANCH   1  11
HETATM   11  C1  UNL     1      16.936  10.093  30.624  1.00  0.00     0.352 C 
BRANCH  11  12
HETATM   12  N1  UNL     1      17.748  10.719  31.686  1.00  0.00    -0.049 N 
ATOM     13  H13 UNL     1      18.754  10.677  31.518  1.00  0.00     0.277 HD
ATOM     14  H12 UNL     1      17.678  11.736  31.716  1.00  0.00     0.277 HD
ATOM     15  H11 UNL     1      17.454  10.259  32.547  1.00  0.00     0.277 HD
ENDBRANCH  11  12
BRANCH  11  16
HETATM   16  O1  UNL     1      17.750  10.090  29.510  1.00  0.00    -0.366 OA
ATOM     17  H1  UNL     1      18.493   9.550  29.753  1.00  0.00     0.212 HD
ENDBRANCH  11  16
ENDBRANCH   1  11
BRANCH   3  18
HETATM   18  C4  UNL     1      13.558  13.710  31.455  1.00  0.00     0.089 C 
HETATM   19  C5  UNL     1      13.999  13.988  32.870  1.00  0.00     0.026 C 
HETATM   20  C6  UNL     1      14.102  15.491  33.011  1.00  0.00     0.002 C 
HETATM   21  C7  UNL     1      13.531  16.031  31.705  1.00  0.00     0.002 C 
HETATM   22  C8  UNL     1      13.999  14.965  30.729  1.00  0.00     0.026 C 
ENDBRANCH   3  18
BRANCH   6  23
HETATM   23  O2  UNL     1      11.379  11.310  27.165  1.00  0.00    -0.346 OA
BRANCH  23  24
HETATM   24  C12 UNL     1      10.610  12.487  27.280  1.00  0.00     0.206 C 
BRANCH  24  25
HETATM   25  C13 UNL     1       9.378  12.302  26.415  1.00  0.00     0.299 C 
BRANCH  25  26
HETATM   26  N3  UNL     1       8.291  13.044  27.065  1.00  0.00     0.090 N 
HETATM   27  C14 UNL     1       6.989  12.431  26.870  1.00  0.00     0.274 C 
HETATM   28  C15 UNL     1       7.249  11.597  28.107  1.00  0.00     0.060 C 
HETATM   29  C16 UNL     1       8.189  12.715  28.475  1.00  0.00     0.274 C 
ENDBRANCH  25  26
ENDBRANCH  24  25
ENDBRANCH  23  24
ENDBRANCH   6  23
TORSDOF 8
ENDMDL
MODEL 3
REMARK VINA RESULT: -6.212343300      3.330      6.213
REMARK  8 active torsions:
REMARK  status: ('A' for Active; 'I' for Inactive)
REMARK    1  A    between atoms: N1_1  and  C1_5 
REMARK    2  A    between atoms: C1_5  and  O1_6 
REMARK    3  A    between atoms: C1_5  and  C2_8 
REMARK    4  A    between atoms: N2_10  and  C4_11 
REMARK    5  A    between atoms: C11_18  and  O2_19 
REMARK    6  A    between atoms: O2_19  and  C12_20 
REMARK    7  A    between atoms: C12_20  and  C13_21 
REMARK    8  A    between atoms: C13_21  and  N3_22 
ROOT
HETATM    1  C2  UNL     1      12.974  11.477  28.285  1.00  0.00     0.025 A 
HETATM    2  C3  UNL     1      11.923  12.389  28.391  1.00  0.00     0.104 A 
HETATM    3  N2  UNL     1      12.041  13.094  29.521  1.00  0.00    -0.351 N 
HETATM    4  C9  UNL     1      13.161  12.660  30.170  1.00  0.00     0.048 A 
HETATM    5  C10 UNL     1      13.731  13.043  31.352  1.00  0.00     0.070 A 
HETATM    6  C11 UNL     1      14.882  12.441  31.793  1.00  0.00     0.109 A 
HETATM    7  C17 UNL     1      15.482  11.445  31.059  1.00  0.00     0.150 A 
HETATM    8  F1  UNL     1      16.616  10.894  31.556  1.00  0.00    -0.203 F 
HETATM    9  C18 UNL     1      14.912  11.051  29.862  1.00  0.00     0.059 A 
HETATM   10  C19 UNL     1      13.754  11.651  29.409  1.00  0.00     0.006 A 
ENDROOT
BRANCH   1  11
HETATM   11  C1  UNL     1      13.183  10.514  27.173  1.00  0.00     0.352 C 
BRANCH  11  12
HETATM   12  N1  UNL     1      13.219  11.327  25.940  1.00  0.00    -0.049 N 
ATOM     13  H13 UNL     1      13.880  10.989  25.240  1.00  0.00     0.277 HD
ATOM     14  H12 UNL     1      12.383  11.241  25.363  1.00  0.00     0.277 HD
ATOM     15  H11 UNL     1      13.405  12.278  26.258  1.00  0.00     0.277 HD
ENDBRANCH  11  12
BRANCH  11  16
HETATM   16  O1  UNL     1      12.133   9.638  26.990  1.00  0.00    -0.366 OA
ATOM     17  H1  UNL     1      11.430   9.984  27.528  1.00  0.00     0.212 HD
ENDBRANCH  11  16
ENDBRANCH   1  11
BRANCH   3  18
HETATM   18  C4  UNL     1      11.160  14.134  29.999  1.00  0.00     0.089 C 
HETATM   19  C5  UNL     1      11.443  15.465  29.349  1.00  0.00     0.026 C 
HETATM   20  C6  UNL     1      10.105  16.110  29.064  1.00  0.00     0.002 C 
HETATM   21  C7  UNL     1       9.094  15.189  29.738  1.00  0.00     0.002 C 
HETATM   22  C8  UNL     1       9.753  13.837  29.521  1.00  0.00     0.026 C 
ENDBRANCH   3  18
BRANCH   6  23
HETATM   23  O2  UNL     1      15.439  12.843  32.987  1.00  0.00    -0.346 OA
BRANCH  23  24
HETATM   24  C12 UNL     1      15.013  14.049  33.582  1.00  0.00     0.206 C 
BRANCH  24  25
HETATM   25  C13 UNL     1      15.088  13.857  35.084  1.00  0.00     0.299 C 
BRANCH  25  26
HETATM   26  N3  UNL     1      14.478  15.046  35.692  1.00  0.00     0.090 N 
HETATM   27  C14 UNL     1      13.080  15.214  35.334  1.00  0.00     0.274 C 
HETATM   28  C15 UNL     1      12.721  14.342  36.519  1.00  0.00     0.060 C 
HETATM   29  C16 UNL     1      14.055  14.791  37.056  1.00  0.00     0.274 C 
ENDBRANCH  25  26
ENDBRANCH  24  25
ENDBRANCH  23  24
ENDBRANCH   6  23
TORSDOF 8
ENDMDL
MODEL 4
REMARK VINA RESULT: -6.192752273      2.348      4.631
REMARK  8 active torsions:
REMARK  status: ('A' for Active; 'I' for Inactive)
REMARK    1  A    between atoms: N1_1  and  C1_5 
REMARK    2  A    between atoms: C1_5  and  O1_6 
REMARK    3  A    between atoms: C1_5  and  C2_8 
REMARK    4  A    between atoms: N2_10  and  C4_11 
REMARK    5  A    between atoms: C11_18  and  O2_19 
REMARK    6  A    between atoms: O2_19  and  C12_20 
REMARK    7  A    between atoms: C12_20  and  C13_21 
REMARK    8  A    between atoms: C13_21  and  N3_22 
ROOT
HETATM    1  C2  UNL     1      15.730  10.928  30.428  1.00  0.00     0.025 A 
HETATM    2  C3  UNL     1      15.418  12.001  31.263  1.00  0.00     0.104 A 
HETATM    3  N2  UNL     1      14.272  12.567  30.870  1.00  0.00    -0.351 N 
HETATM    4  C9  UNL     1      13.818  11.882  29.780  1.00  0.00     0.048 A 
HETATM    5  C10 UNL     1      12.705  12.046  29.003  1.00  0.00     0.070 A 
HETATM    6  C11 UNL     1      12.470  11.206  27.945  1.00  0.00     0.109 A 
HETATM    7  C17 UNL     1      13.344  10.188  27.644  1.00  0.00     0.150 A 
HETATM    8  F1  UNL     1      13.050   9.397  26.584  1.00  0.00    -0.203 F 
HETATM    9  C18 UNL     1      14.473  10.015  28.425  1.00  0.00     0.059 A 
HETATM   10  C19 UNL     1      14.719  10.854  29.493  1.00  0.00     0.006 A 
ENDROOT
BRANCH   1  11
HETATM   11  C1  UNL     1      16.928  10.056  30.542  1.00  0.00     0.352 C 
BRANCH  11  12
HETATM   12  N1  UNL     1      17.782  10.680  31.573  1.00  0.00    -0.049 N 
ATOM     13  H13 UNL     1      18.778  10.491  31.455  1.00  0.00     0.277 HD
ATOM     14  H12 UNL     1      17.847  11.695  31.498  1.00  0.00     0.277 HD
ATOM     15  H11 UNL     1      17.402  10.355  32.461  1.00  0.00     0.277 HD
ENDBRANCH  11  12
BRANCH  11  16
HETATM   16  O1  UNL     1      17.708  10.030  29.403  1.00  0.00    -0.366 OA
ATOM     17  H1  UNL     1      17.966  10.934  29.264  1.00  0.00     0.212 HD
ENDBRANCH  11  16
ENDBRANCH   1  11
BRANCH   3  18
HETATM   18  C4  UNL     1      13.607  13.701  31.468  1.00  0.00     0.089 C 
HETATM   19  C5  UNL     1      14.076  13.959  32.878  1.00  0.00     0.026 C 
HETATM   20  C6  UNL     1      14.197  15.459  33.035  1.00  0.00     0.002 C 
HETATM   21  C7  UNL     1      13.608  16.020  31.745  1.00  0.00     0.002 C 
HETATM   22  C8  UNL     1      14.048  14.960  30.749  1.00  0.00     0.026 C 
ENDBRANCH   3  18
BRANCH   6  23
HETATM   23  O2  UNL     1      11.342  11.390  27.175  1.00  0.00    -0.346 OA
BRANCH  23  24
HETATM   24  C12 UNL     1      10.859  12.695  26.950  1.00  0.00     0.206 C 
BRANCH  24  25
HETATM   25  C13 UNL     1       9.586  12.847  27.759  1.00  0.00     0.299 C 
BRANCH  25  26
HETATM   26  N3  UNL     1       9.419  14.281  28.020  1.00  0.00     0.090 N 
HETATM   27  C14 UNL     1       8.675  14.555  29.237  1.00  0.00     0.274 C 
HETATM   28  C15 UNL     1       9.985  14.502  29.995  1.00  0.00     0.060 C 
HETATM   29  C16 UNL     1      10.592  14.847  28.660  1.00  0.00     0.274 C 
ENDBRANCH  25  26
ENDBRANCH  24  25
ENDBRANCH  23  24
ENDBRANCH   6  23
TORSDOF 8
ENDMDL
MODEL 5
REMARK VINA RESULT: -6.163095630      2.874      4.850
REMARK  8 active torsions:
REMARK  status: ('A' for Active; 'I' for Inactive)
REMARK    1  A    between atoms: N1_1  and  C1_5 
REMARK    2  A    between atoms: C1_5  and  O1_6 
REMARK    3  A    between atoms: C1_5  and  C2_8 
REMARK    4  A    between atoms: N2_10  and  C4_11 
REMARK    5  A    between atoms: C11_18  and  O2_19 
REMARK    6  A    between atoms: O2_19  and  C12_20 
REMARK    7  A    between atoms: C12_20  and  C13_21 
REMARK    8  A    between atoms: C13_21  and  N3_22 
ROOT
HETATM    1  C2  UNL     1      14.292  12.031  30.163  1.00  0.00     0.025 A 
HETATM    2  C3  UNL     1      13.565  13.207  30.355  1.00  0.00     0.104 A 
HETATM    3  N2  UNL     1      12.593  13.298  29.441  1.00  0.00    -0.351 N 
HETATM    4  C9  UNL     1      12.665  12.194  28.642  1.00  0.00     0.048 A 
HETATM    5  C10 UNL     1      11.914  11.798  27.570  1.00  0.00     0.070 A 
HETATM    6  C11 UNL     1      12.193  10.620  26.926  1.00  0.00     0.109 A 
HETATM    7  C17 UNL     1      13.228   9.817  27.342  1.00  0.00     0.150 A 
HETATM    8  F1  UNL     1      13.448   8.667  26.659  1.00  0.00    -0.203 F 
HETATM    9  C18 UNL     1      13.994  10.209  28.426  1.00  0.00     0.059 A 
HETATM   10  C19 UNL     1      13.721  11.393  29.082  1.00  0.00     0.006 A 
ENDROOT
BRANCH   1  11
HETATM   11  C1  UNL     1      15.453  11.582  30.975  1.00  0.00     0.352 C 
BRANCH  11  12
HETATM   12  N1  UNL     1      15.587  12.571  32.064  1.00  0.00    -0.049 N 
ATOM     13  H13 UNL     1      16.115  12.232  32.868  1.00  0.00     0.277 HD
ATOM     14  H12 UNL     1      16.204  13.352  31.840  1.00  0.00     0.277 HD
ATOM     15  H11 UNL     1      14.631  12.849  32.284  1.00  0.00     0.277 HD
ENDBRANCH  11  12
BRANCH  11  16
HETATM   16  O1  UNL     1      16.656  11.632  30.301  1.00  0.00    -0.366 OA
ATOM     17  H1  UNL     1      16.481  12.156  29.528  1.00  0.00     0.212 HD
ENDBRANCH  11  16
ENDBRANCH   1  11
BRANCH   3  18
HETATM   18  C4  UNL     1      11.624  14.360  29.299  1.00  0.00     0.089 C 
HETATM   19  C5  UNL     1      10.393  14.125  30.137  1.00  0.00     0.026 C 
HETATM   20  C6  UNL     1      10.001  15.462  30.727  1.00  0.00     0.002 C 
HETATM   21  C7  UNL     1      10.932  16.460  30.047  1.00  0.00     0.002 C 
HETATM   22  C8  UNL     1      12.193  15.624  29.911  1.00  0.00     0.026 C 
ENDBRANCH   3  18
BRANCH   6  23
HETATM   23  O2  UNL     1      11.423  10.241  25.848  1.00  0.00    -0.346 OA
BRANCH  23  24
HETATM   24  C12 UNL     1      10.187  10.880  25.618  1.00  0.00     0.206 C 
BRANCH  24  25
HETATM   25  C13 UNL     1       9.098   9.906  26.023  1.00  0.00     0.299 C 
BRANCH  25  26
HETATM   26  N3  UNL     1       7.823  10.622  25.895  1.00  0.00     0.090 N 
HETATM   27  C14 UNL     1       6.782  10.087  26.756  1.00  0.00     0.274 C 
HETATM   28  C15 UNL     1       7.271  11.016  27.847  1.00  0.00     0.060 C 
HETATM   29  C16 UNL     1       7.807  11.831  26.698  1.00  0.00     0.274 C 
ENDBRANCH  25  26
ENDBRANCH  24  25
ENDBRANCH  23  24
ENDBRANCH   6  23
TORSDOF 8
ENDMDL
