MODEL 1
REMARK VINA RESULT: -6.045561088      0.000      0.000
REMARK  9 active torsions:
REMARK  status: ('A' for Active; 'I' for Inactive)
REMARK    1  A    between atoms: C2_2  and  C3_3 
REMARK    2  A    between atoms: C2_2  and  C6_7 
REMARK    3  A    between atoms: C3_3  and  C4_4 
REMARK    4  A    between atoms: C4_4  and  C5_5 
REMARK    5  A    between atoms: C20_21  and  O2_22 
REMARK    6  A    between atoms: O2_22  and  C21_23 
REMARK    7  A    between atoms: C21_23  and  C22_25 
REMARK    8  A    between atoms: C22_25  and  O4_28 
REMARK    9  A    between atoms: C26_31  and  O5_32 
ROOT
HETATM    1  C6  UNL     1      -1.794  19.010  -1.953  1.00  0.00    -0.077 C 
HETATM    2  C7  UNL     1      -2.884  18.977  -0.903  1.00  0.00     0.044 C 
HETATM    3  C8  UNL     1      -0.487  19.131  -1.349  1.00  0.00    -0.069 C 
HETATM    4  C9  UNL     1       0.692  18.716  -2.252  1.00  0.00     0.036 C 
HETATM    5  C10 UNL     1       1.710  18.578  -1.082  1.00  0.00     0.011 C 
HETATM    6  C11 UNL     1       1.540  20.020  -0.557  1.00  0.00     0.009 C 
HETATM    7  C12 UNL     1       0.050  20.286  -0.641  1.00  0.00    -0.016 C 
HETATM    8  C13 UNL     1      -0.086  21.604  -1.418  1.00  0.00     0.020 C 
HETATM    9  C14 UNL     1      -0.562  20.566   0.696  1.00  0.00     0.014 C 
HETATM   10  C15 UNL     1       0.216  21.611   1.481  1.00  0.00     0.007 C 
HETATM   11  C16 UNL     1       1.684  21.432   1.400  1.00  0.00     0.007 C 
HETATM   12  C17 UNL     1       2.355  21.833   2.693  1.00  0.00    -0.016 C 
HETATM   13  C18 UNL     1       1.971  23.324   2.861  1.00  0.00     0.018 C 
HETATM   14  C19 UNL     1       1.839  21.164   3.907  1.00  0.00     0.018 C 
HETATM   15  C20 UNL     1       3.852  21.841   2.558  1.00  0.00     0.142 C 
HETATM   16  C25 UNL     1       4.204  21.700   1.110  1.00  0.00     0.065 C 
HETATM   17  C26 UNL     1       3.693  20.443   0.497  1.00  0.00     0.129 C 
HETATM   18  C27 UNL     1       2.195  20.197   0.767  1.00  0.00    -0.009 C 
HETATM   19  C28 UNL     1       2.149  18.925   1.547  1.00  0.00     0.018 C 
ENDROOT
BRANCH   1  20
HETATM   20  C2  UNL     1      -2.267  19.719  -3.150  1.00  0.00     0.011 C 
HETATM   21  C1  UNL     1      -3.691  20.225  -2.808  1.00  0.00     0.015 C 
BRANCH  20  22
HETATM   22  C3  UNL     1      -2.497  18.881  -4.387  1.00  0.00     0.015 C 
BRANCH  22  23
HETATM   23  C4  UNL     1      -1.319  19.160  -5.346  1.00  0.00     0.070 C 
BRANCH  23  24
HETATM   24  C5  UNL     1      -0.718  20.480  -5.019  1.00  0.00     0.231 C 
HETATM   25  O1  UNL     1       0.352  20.768  -5.483  1.00  0.00    -0.307 OA
ENDBRANCH  23  24
ENDBRANCH  22  23
ENDBRANCH  20  22
ENDBRANCH   1  20
BRANCH  17  26
HETATM   26  O5  UNL     1       4.493  19.406   0.914  1.00  0.00    -0.395 OA
ATOM     27  H5  UNL     1       4.409  18.696   0.288  1.00  0.00     0.210 HD
ENDBRANCH  17  26
BRANCH  15  28
HETATM   28  O2  UNL     1       4.510  20.873   3.339  1.00  0.00    -0.313 OA
BRANCH  28  29
HETATM   29  C21 UNL     1       5.845  20.834   3.611  1.00  0.00     0.293 C 
HETATM   30  O3  UNL     1       6.496  21.907   3.571  1.00  0.00    -0.262 OA
BRANCH  29  31
HETATM   31  C22 UNL     1       6.562  19.588   3.950  1.00  0.00     0.138 C 
HETATM   32  C23 UNL     1       5.745  18.712   4.893  1.00  0.00     0.056 C 
HETATM   33  C24 UNL     1       7.879  19.864   4.648  1.00  0.00     0.056 C 
BRANCH  31  34
HETATM   34  O4  UNL     1       6.809  18.825   2.809  1.00  0.00    -0.380 OA
ATOM     35  H4  UNL     1       7.275  18.026   3.027  1.00  0.00     0.211 HD
ENDBRANCH  31  34
ENDBRANCH  29  31
ENDBRANCH  28  29
ENDBRANCH  15  28
TORSDOF 9
ENDMDL
MODEL 2
REMARK VINA RESULT: -6.027642757      6.127      9.844
REMARK  9 active torsions:
REMARK  status: ('A' for Active; 'I' for Inactive)
REMARK    1  A    between atoms: C2_2  and  C3_3 
REMARK    2  A    between atoms: C2_2  and  C6_7 
REMARK    3  A    between atoms: C3_3  and  C4_4 
REMARK    4  A    between atoms: C4_4  and  C5_5 
REMARK    5  A    between atoms: C20_21  and  O2_22 
REMARK    6  A    between atoms: O2_22  and  C21_23 
REMARK    7  A    between atoms: C21_23  and  C22_25 
REMARK    8  A    between atoms: C22_25  and  O4_28 
REMARK    9  A    between atoms: C26_31  and  O5_32 
ROOT
HETATM    1  C6  UNL     1       4.871  16.409   6.138  1.00  0.00    -0.077 C 
HETATM    2  C7  UNL     1       4.872  14.952   5.729  1.00  0.00     0.044 C 
HETATM    3  C8  UNL     1       5.279  17.261   5.045  1.00  0.00    -0.069 C 
HETATM    4  C9  UNL     1       4.880  18.744   5.187  1.00  0.00     0.036 C 
HETATM    5  C10 UNL     1       5.094  19.082   3.682  1.00  0.00     0.011 C 
HETATM    6  C11 UNL     1       6.569  18.625   3.630  1.00  0.00     0.009 C 
HETATM    7  C12 UNL     1       6.604  17.349   4.446  1.00  0.00    -0.016 C 
HETATM    8  C13 UNL     1       7.732  17.550   5.470  1.00  0.00     0.020 C 
HETATM    9  C14 UNL     1       7.029  16.161   3.640  1.00  0.00     0.014 C 
HETATM   10  C15 UNL     1       8.294  16.426   2.840  1.00  0.00     0.007 C 
HETATM   11  C16 UNL     1       8.311  17.760   2.195  1.00  0.00     0.007 C 
HETATM   12  C17 UNL     1       9.025  17.714   0.864  1.00  0.00    -0.016 C 
HETATM   13  C18 UNL     1      10.453  17.238   1.227  1.00  0.00     0.018 C 
HETATM   14  C19 UNL     1       8.515  16.705  -0.092  1.00  0.00     0.018 C 
HETATM   15  C20 UNL     1       9.217  19.091   0.293  1.00  0.00     0.142 C 
HETATM   16  C25 UNL     1       8.873  20.098   1.345  1.00  0.00     0.065 C 
HETATM   17  C26 UNL     1       7.469  19.992   1.827  1.00  0.00     0.129 C 
HETATM   18  C27 UNL     1       7.067  18.558   2.229  1.00  0.00    -0.009 C 
HETATM   19  C28 UNL     1       5.959  18.193   1.297  1.00  0.00     0.018 C 
ENDROOT
BRANCH   1  20
HETATM   20  C2  UNL     1       5.284  16.541   7.542  1.00  0.00     0.011 C 
HETATM   21  C1  UNL     1       6.386  15.473   7.762  1.00  0.00     0.015 C 
BRANCH  20  22
HETATM   22  C3  UNL     1       4.253  16.179   8.588  1.00  0.00     0.015 C 
BRANCH  22  23
HETATM   23  C4  UNL     1       5.025  15.672   9.826  1.00  0.00     0.070 C 
BRANCH  23  24
HETATM   24  C5  UNL     1       4.339  16.138  11.060  1.00  0.00     0.231 C 
HETATM   25  O1  UNL     1       3.244  16.624  10.974  1.00  0.00    -0.307 OA
ENDBRANCH  23  24
ENDBRANCH  22  23
ENDBRANCH  20  22
ENDBRANCH   1  20
BRANCH  17  26
HETATM   26  O5  UNL     1       6.643  20.534   0.871  1.00  0.00    -0.395 OA
ATOM     27  H5  UNL     1       6.257  19.822   0.373  1.00  0.00     0.210 HD
ENDBRANCH  17  26
BRANCH  15  28
HETATM   28  O2  UNL     1       8.505  19.330  -0.896  1.00  0.00    -0.313 OA
BRANCH  28  29
HETATM   29  C21 UNL     1       8.985  19.959  -2.006  1.00  0.00     0.293 C 
HETATM   30  O3  UNL     1       8.712  21.174  -2.171  1.00  0.00    -0.262 OA
BRANCH  29  31
HETATM   31  C22 UNL     1       9.813  19.279  -3.022  1.00  0.00     0.138 C 
HETATM   32  C23 UNL     1       9.083  18.088  -3.633  1.00  0.00     0.056 C 
HETATM   33  C24 UNL     1      11.103  18.740  -2.434  1.00  0.00     0.056 C 
BRANCH  31  34
HETATM   34  O4  UNL     1      10.123  20.140  -4.074  1.00  0.00    -0.380 OA
ATOM     35  H4  UNL     1      10.125  19.678  -4.905  1.00  0.00     0.211 HD
ENDBRANCH  31  34
ENDBRANCH  29  31
ENDBRANCH  28  29
ENDBRANCH  15  28
TORSDOF 9
ENDMDL
MODEL 3
REMARK VINA RESULT: -5.865662561      1.023      1.198
REMARK  9 active torsions:
REMARK  status: ('A' for Active; 'I' for Inactive)
REMARK    1  A    between atoms: C2_2  and  C3_3 
REMARK    2  A    between atoms: C2_2  and  C6_7 
REMARK    3  A    between atoms: C3_3  and  C4_4 
REMARK    4  A    between atoms: C4_4  and  C5_5 
REMARK    5  A    between atoms: C20_21  and  O2_22 
REMARK    6  A    between atoms: O2_22  and  C21_23 
REMARK    7  A    between atoms: C21_23  and  C22_25 
REMARK    8  A    between atoms: C22_25  and  O4_28 
REMARK    9  A    between atoms: C26_31  and  O5_32 
ROOT
HETATM    1  C6  UNL     1      -1.633  19.100  -2.239  1.00  0.00    -0.077 C 
HETATM    2  C7  UNL     1      -2.764  19.023  -1.237  1.00  0.00     0.044 C 
HETATM    3  C8  UNL     1      -0.356  19.237  -1.578  1.00  0.00    -0.069 C 
HETATM    4  C9  UNL     1       0.869  18.866  -2.439  1.00  0.00     0.036 C 
HETATM    5  C10 UNL     1       1.841  18.725  -1.230  1.00  0.00     0.011 C 
HETATM    6  C11 UNL     1       1.617  20.153  -0.686  1.00  0.00     0.009 C 
HETATM    7  C12 UNL     1       0.126  20.388  -0.827  1.00  0.00    -0.016 C 
HETATM    8  C13 UNL     1      -0.006  21.719  -1.584  1.00  0.00     0.020 C 
HETATM    9  C14 UNL     1      -0.546  20.629   0.488  1.00  0.00     0.014 C 
HETATM   10  C15 UNL     1       0.175  21.674   1.325  1.00  0.00     0.007 C 
HETATM   11  C16 UNL     1       1.649  21.528   1.302  1.00  0.00     0.007 C 
HETATM   12  C17 UNL     1       2.257  21.918   2.629  1.00  0.00    -0.016 C 
HETATM   13  C18 UNL     1       1.833  23.396   2.810  1.00  0.00     0.018 C 
HETATM   14  C19 UNL     1       1.706  21.214   3.808  1.00  0.00     0.018 C 
HETATM   15  C20 UNL     1       3.758  21.960   2.557  1.00  0.00     0.142 C 
HETATM   16  C25 UNL     1       4.172  21.855   1.123  1.00  0.00     0.065 C 
HETATM   17  C26 UNL     1       3.714  20.601   0.466  1.00  0.00     0.129 C 
HETATM   18  C27 UNL     1       2.212  20.317   0.668  1.00  0.00    -0.009 C 
HETATM   19  C28 UNL     1       2.162  19.029   1.421  1.00  0.00     0.018 C 
ENDROOT
BRANCH   1  20
HETATM   20  C2  UNL     1      -2.071  19.823  -3.441  1.00  0.00     0.011 C 
HETATM   21  C1  UNL     1      -3.576  20.124  -3.229  1.00  0.00     0.015 C 
BRANCH  20  22
HETATM   22  C3  UNL     1      -2.064  19.046  -4.739  1.00  0.00     0.015 C 
BRANCH  22  23
HETATM   23  C4  UNL     1      -3.537  18.767  -5.105  1.00  0.00     0.070 C 
BRANCH  23  24
HETATM   24  C5  UNL     1      -3.614  18.289  -6.511  1.00  0.00     0.231 C 
HETATM   25  O1  UNL     1      -3.949  19.055  -7.373  1.00  0.00    -0.307 OA
ENDBRANCH  23  24
ENDBRANCH  22  23
ENDBRANCH  20  22
ENDBRANCH   1  20
BRANCH  17  26
HETATM   26  O5  UNL     1       4.519  19.572   0.896  1.00  0.00    -0.395 OA
ATOM     27  H5  UNL     1       4.003  18.775   0.904  1.00  0.00     0.210 HD
ENDBRANCH  17  26
BRANCH  15  28
HETATM   28  O2  UNL     1       4.403  20.991   3.347  1.00  0.00    -0.313 OA
BRANCH  28  29
HETATM   29  C21 UNL     1       5.741  20.926   3.602  1.00  0.00     0.293 C 
HETATM   30  O3  UNL     1       6.412  21.986   3.552  1.00  0.00    -0.262 OA
BRANCH  29  31
HETATM   31  C22 UNL     1       6.436  19.667   3.937  1.00  0.00     0.138 C 
HETATM   32  C23 UNL     1       5.585  18.780   4.838  1.00  0.00     0.056 C 
HETATM   33  C24 UNL     1       7.736  19.918   4.679  1.00  0.00     0.056 C 
BRANCH  31  34
HETATM   34  O4  UNL     1       6.710  18.925   2.789  1.00  0.00    -0.380 OA
ATOM     35  H4  UNL     1       6.007  18.315   2.600  1.00  0.00     0.211 HD
ENDBRANCH  31  34
ENDBRANCH  29  31
ENDBRANCH  28  29
ENDBRANCH  15  28
TORSDOF 9
ENDMDL
MODEL 4
REMARK VINA RESULT: -5.778572647      3.420      9.636
REMARK  9 active torsions:
REMARK  status: ('A' for Active; 'I' for Inactive)
REMARK    1  A    between atoms: C2_2  and  C3_3 
REMARK    2  A    between atoms: C2_2  and  C6_7 
REMARK    3  A    between atoms: C3_3  and  C4_4 
REMARK    4  A    between atoms: C4_4  and  C5_5 
REMARK    5  A    between atoms: C20_21  and  O2_22 
REMARK    6  A    between atoms: O2_22  and  C21_23 
REMARK    7  A    between atoms: C21_23  and  C22_25 
REMARK    8  A    between atoms: C22_25  and  O4_28 
REMARK    9  A    between atoms: C26_31  and  O5_32 
ROOT
HETATM    1  C6  UNL     1       0.516  21.681   0.249  1.00  0.00    -0.077 C 
HETATM    2  C7  UNL     1      -0.219  21.125   1.449  1.00  0.00     0.044 C 
HETATM    3  C8  UNL     1      -0.059  21.202  -0.987  1.00  0.00    -0.069 C 
HETATM    4  C9  UNL     1       0.288  22.036  -2.237  1.00  0.00     0.036 C 
HETATM    5  C10 UNL     1      -0.859  21.446  -3.110  1.00  0.00     0.011 C 
HETATM    6  C11 UNL     1      -0.428  19.971  -2.956  1.00  0.00     0.009 C 
HETATM    7  C12 UNL     1      -0.027  19.839  -1.500  1.00  0.00    -0.016 C 
HETATM    8  C13 UNL     1       1.378  19.219  -1.519  1.00  0.00     0.020 C 
HETATM    9  C14 UNL     1      -0.871  18.849  -0.758  1.00  0.00     0.014 C 
HETATM   10  C15 UNL     1      -0.994  17.525  -1.495  1.00  0.00     0.007 C 
HETATM   11  C16 UNL     1      -1.208  17.684  -2.952  1.00  0.00     0.007 C 
HETATM   12  C17 UNL     1      -2.101  16.591  -3.495  1.00  0.00    -0.016 C 
HETATM   13  C18 UNL     1      -1.329  15.289  -3.170  1.00  0.00     0.018 C 
HETATM   14  C19 UNL     1      -3.406  16.444  -2.813  1.00  0.00     0.018 C 
HETATM   15  C20 UNL     1      -2.168  16.628  -4.996  1.00  0.00     0.142 C 
HETATM   16  C25 UNL     1      -1.124  17.574  -5.499  1.00  0.00     0.065 C 
HETATM   17  C26 UNL     1      -1.294  18.965  -4.996  1.00  0.00     0.129 C 
HETATM   18  C27 UNL     1      -1.474  19.044  -3.467  1.00  0.00    -0.009 C 
HETATM   19  C28 UNL     1      -2.833  19.629  -3.269  1.00  0.00     0.018 C 
ENDROOT
BRANCH   1  20
HETATM   20  C2  UNL     1       1.949  21.809   0.548  1.00  0.00     0.011 C 
HETATM   21  C1  UNL     1       2.121  21.321   2.009  1.00  0.00     0.015 C 
BRANCH  20  22
HETATM   22  C3  UNL     1       2.508  23.213   0.595  1.00  0.00     0.015 C 
BRANCH  22  23
HETATM   23  C4  UNL     1       2.158  23.792   1.983  1.00  0.00     0.070 C 
BRANCH  23  24
HETATM   24  C5  UNL     1       1.957  25.261   1.870  1.00  0.00     0.231 C 
HETATM   25  O1  UNL     1       1.184  25.806   2.609  1.00  0.00    -0.307 OA
ENDBRANCH  23  24
ENDBRANCH  22  23
ENDBRANCH  20  22
ENDBRANCH   1  20
BRANCH  17  26
HETATM   26  O5  UNL     1      -2.327  19.549  -5.691  1.00  0.00    -0.395 OA
ATOM     27  H5  UNL     1      -1.984  19.875  -6.514  1.00  0.00     0.210 HD
ENDBRANCH  17  26
BRANCH  15  28
HETATM   28  O2  UNL     1      -3.437  16.948  -5.511  1.00  0.00    -0.313 OA
BRANCH  28  29
HETATM   29  C21 UNL     1      -3.829  16.823  -6.811  1.00  0.00     0.293 C 
HETATM   30  O3  UNL     1      -3.381  15.861  -7.482  1.00  0.00    -0.262 OA
BRANCH  29  31
HETATM   31  C22 UNL     1      -4.757  17.766  -7.467  1.00  0.00     0.138 C 
HETATM   32  C23 UNL     1      -5.886  18.183  -6.530  1.00  0.00     0.056 C 
HETATM   33  C24 UNL     1      -5.414  17.157  -8.691  1.00  0.00     0.056 C 
BRANCH  31  34
HETATM   34  O4  UNL     1      -4.100  18.936  -7.844  1.00  0.00    -0.380 OA
ATOM     35  H4  UNL     1      -3.680  19.349  -7.099  1.00  0.00     0.211 HD
ENDBRANCH  31  34
ENDBRANCH  29  31
ENDBRANCH  28  29
ENDBRANCH  15  28
TORSDOF 9
ENDMDL
MODEL 5
REMARK VINA RESULT: -5.716529528      6.516     10.345
REMARK  9 active torsions:
REMARK  status: ('A' for Active; 'I' for Inactive)
REMARK    1  A    between atoms: C2_2  and  C3_3 
REMARK    2  A    between atoms: C2_2  and  C6_7 
REMARK    3  A    between atoms: C3_3  and  C4_4 
REMARK    4  A    between atoms: C4_4  and  C5_5 
REMARK    5  A    between atoms: C20_21  and  O2_22 
REMARK    6  A    between atoms: O2_22  and  C21_23 
REMARK    7  A    between atoms: C21_23  and  C22_25 
REMARK    8  A    between atoms: C22_25  and  O4_28 
REMARK    9  A    between atoms: C26_31  and  O5_32 
ROOT
HETATM    1  C6  UNL     1       6.037  16.670   6.160  1.00  0.00    -0.077 C 
HETATM    2  C7  UNL     1       4.815  15.875   5.757  1.00  0.00     0.044 C 
HETATM    3  C8  UNL     1       6.608  17.365   5.030  1.00  0.00    -0.069 C 
HETATM    4  C9  UNL     1       7.541  18.540   5.388  1.00  0.00     0.036 C 
HETATM    5  C10 UNL     1       7.490  19.183   3.970  1.00  0.00     0.011 C 
HETATM    6  C11 UNL     1       7.990  17.932   3.215  1.00  0.00     0.009 C 
HETATM    7  C12 UNL     1       7.277  16.772   3.880  1.00  0.00    -0.016 C 
HETATM    8  C13 UNL     1       8.383  15.774   4.257  1.00  0.00     0.020 C 
HETATM    9  C14 UNL     1       6.392  16.021   2.934  1.00  0.00     0.014 C 
HETATM   10  C15 UNL     1       7.104  15.659   1.640  1.00  0.00     0.007 C 
HETATM   11  C16 UNL     1       7.940  16.757   1.104  1.00  0.00     0.007 C 
HETATM   12  C17 UNL     1       7.940  16.755  -0.408  1.00  0.00    -0.016 C 
HETATM   13  C18 UNL     1       8.518  15.367  -0.775  1.00  0.00     0.018 C 
HETATM   14  C19 UNL     1       6.602  16.794  -1.040  1.00  0.00     0.018 C 
HETATM   15  C20 UNL     1       8.934  17.738  -0.960  1.00  0.00     0.142 C 
HETATM   16  C25 UNL     1       9.798  18.226   0.159  1.00  0.00     0.065 C 
HETATM   17  C26 UNL     1       9.036  18.903   1.243  1.00  0.00     0.129 C 
HETATM   18  C27 UNL     1       7.829  18.085   1.744  1.00  0.00    -0.009 C 
HETATM   19  C28 UNL     1       6.637  18.929   1.434  1.00  0.00     0.018 C 
ENDROOT
BRANCH   1  20
HETATM   20  C2  UNL     1       6.782  15.956   7.208  1.00  0.00     0.011 C 
HETATM   21  C1  UNL     1       6.682  14.452   6.847  1.00  0.00     0.015 C 
BRANCH  20  22
HETATM   22  C3  UNL     1       6.203  16.006   8.603  1.00  0.00     0.015 C 
BRANCH  22  23
HETATM   23  C4  UNL     1       6.529  14.654   9.275  1.00  0.00     0.070 C 
BRANCH  23  24
HETATM   24  C5  UNL     1       5.695  14.495  10.496  1.00  0.00     0.231 C 
HETATM   25  O1  UNL     1       5.406  15.467  11.139  1.00  0.00    -0.307 OA
ENDBRANCH  23  24
ENDBRANCH  22  23
ENDBRANCH  20  22
ENDBRANCH   1  20
BRANCH  17  26
HETATM   26  O5  UNL     1       8.690  20.160   0.805  1.00  0.00    -0.395 OA
ATOM     27  H5  UNL     1       7.749  20.255   0.890  1.00  0.00     0.210 HD
ENDBRANCH  17  26
BRANCH  15  28
HETATM   28  O2  UNL     1       8.357  18.810  -1.665  1.00  0.00    -0.313 OA
BRANCH  28  29
HETATM   29  C21 UNL     1       9.027  19.719  -2.431  1.00  0.00     0.293 C 
HETATM   30  O3  UNL     1       8.826  20.941  -2.221  1.00  0.00    -0.262 OA
BRANCH  29  31
HETATM   31  C22 UNL     1       9.977  19.333  -3.493  1.00  0.00     0.138 C 
HETATM   32  C23 UNL     1       9.437  18.185  -4.337  1.00  0.00     0.056 C 
HETATM   33  C24 UNL     1      11.303  18.866  -2.925  1.00  0.00     0.056 C 
BRANCH  31  34
HETATM   34  O4  UNL     1      10.211  20.395  -4.366  1.00  0.00    -0.380 OA
ATOM     35  H4  UNL     1      11.009  20.857  -4.137  1.00  0.00     0.211 HD
ENDBRANCH  31  34
ENDBRANCH  29  31
ENDBRANCH  28  29
ENDBRANCH  15  28
TORSDOF 9
ENDMDL
