MODEL 1
REMARK VINA RESULT: -5.823651515      0.000      0.000
REMARK  9 active torsions:
REMARK  status: ('A' for Active; 'I' for Inactive)
REMARK    1  A    between atoms: C2_2  and  C3_3 
REMARK    2  A    between atoms: C10_10  and  O1_11 
REMARK    3  A    between atoms: C11_13  and  C12_14 
REMARK    4  A    between atoms: C21_23  and  C22_24 
REMARK    5  A    between atoms: C22_24  and  O3_26 
REMARK    6  A    between atoms: O3_26  and  C23_27 
REMARK    7  A    between atoms: C23_27  and  O4_28 
REMARK    8  A    between atoms: O4_28  and  C24_29 
REMARK       I    between atoms: C24_29  and  N1_31 
REMARK    9  A    between atoms: N1_31  and  C25_33 
ROOT
HETATM    1  C3  UNL     1      10.055  19.268  -2.841  1.00  0.00     0.002 C 
HETATM    2  C4  UNL     1      10.953  19.615  -4.056  1.00  0.00     0.022 C 
HETATM    3  C5  UNL     1      10.955  18.784  -1.732  1.00  0.00     0.017 C 
HETATM    4  C6  UNL     1      10.334  18.200  -0.540  1.00  0.00     0.016 C 
HETATM    5  C7  UNL     1      10.139  16.681  -0.619  1.00  0.00     0.002 C 
HETATM    6  C8  UNL     1       9.901  16.352  -2.009  1.00  0.00    -0.017 C 
HETATM    7  C9  UNL     1       8.891  16.989  -2.845  1.00  0.00     0.002 C 
HETATM    8  C10 UNL     1       9.005  18.366  -3.320  1.00  0.00     0.152 C 
HETATM    9  C11 UNL     1      11.328  15.980  -0.057  1.00  0.00     0.027 C 
HETATM   10  C15 UNL     1      10.822  14.641   0.454  1.00  0.00     0.016 C 
HETATM   11  C16 UNL     1       9.513  14.967   1.017  1.00  0.00     0.013 C 
HETATM   12  C17 UNL     1       9.398  15.490   2.410  1.00  0.00    -0.042 C 
HETATM   13  C18 UNL     1      10.522  15.305   3.357  1.00  0.00     0.015 C 
HETATM   14  C19 UNL     1       8.087  15.104   3.083  1.00  0.00     0.015 C 
HETATM   15  C20 UNL     1       9.310  16.882   1.777  1.00  0.00     0.030 C 
HETATM   16  C21 UNL     1       9.100  16.278   0.398  1.00  0.00     0.065 C 
ENDROOT
BRANCH  16  17
HETATM   17  C22 UNL     1       7.692  16.299   0.081  1.00  0.00     0.271 C 
HETATM   18  O2  UNL     1       6.982  15.287  -0.233  1.00  0.00    -0.264 OA
BRANCH  17  19
HETATM   19  O3  UNL     1       6.993  17.509   0.105  1.00  0.00    -0.294 OA
BRANCH  19  20
HETATM   20  C23 UNL     1       5.638  17.578   0.503  1.00  0.00     0.360 C 
BRANCH  20  21
HETATM   21  O4  UNL     1       5.178  18.918   0.553  1.00  0.00    -0.278 OA
BRANCH  21  22
HETATM   22  C24 UNL     1       5.865  19.863   1.298  1.00  0.00     0.362 C 
HETATM   23  O5  UNL     1       5.788  21.061   0.929  1.00  0.00    -0.238 OA
HETATM   24  N1  UNL     1       6.641  19.492   2.453  1.00  0.00    -0.333 N 
ATOM     25  H1  UNL     1       6.696  18.516   2.744  1.00  0.00     0.165 HD
BRANCH  24  26
HETATM   26  C25 UNL     1       7.336  20.508   3.194  1.00  0.00     0.078 C 
HETATM   27  C26 UNL     1       8.806  20.566   2.848  1.00  0.00     0.032 C 
HETATM   28  C27 UNL     1       7.242  20.175   4.681  1.00  0.00     0.032 C 
ENDBRANCH  24  26
ENDBRANCH  21  22
ENDBRANCH  20  21
ENDBRANCH  19  20
ENDBRANCH  17  19
ENDBRANCH  16  17
BRANCH   9  29
HETATM   29  C12 UNL     1      12.584  15.897  -0.742  1.00  0.00    -0.088 C 
HETATM   30  C13 UNL     1      13.547  16.803  -0.573  1.00  0.00     0.014 C 
HETATM   31  C14 UNL     1      12.970  14.789  -1.661  1.00  0.00     0.043 C 
ENDBRANCH   9  29
BRANCH   1  32
HETATM   32  C2  UNL     1       9.452  20.569  -2.448  1.00  0.00    -0.025 C 
HETATM   33  C1  UNL     1      10.242  21.542  -2.068  1.00  0.00     0.008 C 
ENDBRANCH   1  32
BRANCH   8  34
HETATM   34  O1  UNL     1       7.746  19.055  -3.287  1.00  0.00    -0.391 OA
ATOM     35  H1  UNL     1       7.050  18.437  -3.476  1.00  0.00     0.210 HD
ENDBRANCH   8  34
TORSDOF 9
ENDMDL
MODEL 2
REMARK VINA RESULT: -5.606519038      3.575      8.571
REMARK  9 active torsions:
REMARK  status: ('A' for Active; 'I' for Inactive)
REMARK    1  A    between atoms: C2_2  and  C3_3 
REMARK    2  A    between atoms: C10_10  and  O1_11 
REMARK    3  A    between atoms: C11_13  and  C12_14 
REMARK    4  A    between atoms: C21_23  and  C22_24 
REMARK    5  A    between atoms: C22_24  and  O3_26 
REMARK    6  A    between atoms: O3_26  and  C23_27 
REMARK    7  A    between atoms: C23_27  and  O4_28 
REMARK    8  A    between atoms: O4_28  and  C24_29 
REMARK       I    between atoms: C24_29  and  N1_31 
REMARK    9  A    between atoms: N1_31  and  C25_33 
ROOT
HETATM    1  C3  UNL     1       4.731  17.306   4.674  1.00  0.00     0.002 C 
HETATM    2  C4  UNL     1       4.526  15.790   4.927  1.00  0.00     0.022 C 
HETATM    3  C5  UNL     1       3.368  17.927   4.501  1.00  0.00     0.017 C 
HETATM    4  C6  UNL     1       3.292  19.319   4.049  1.00  0.00     0.016 C 
HETATM    5  C7  UNL     1       3.211  19.476   2.525  1.00  0.00     0.002 C 
HETATM    6  C8  UNL     1       3.956  18.380   1.942  1.00  0.00    -0.017 C 
HETATM    7  C9  UNL     1       5.328  18.036   2.295  1.00  0.00     0.002 C 
HETATM    8  C10 UNL     1       5.693  17.438   3.577  1.00  0.00     0.152 C 
HETATM    9  C11 UNL     1       1.787  19.500   2.086  1.00  0.00     0.027 C 
HETATM   10  C15 UNL     1       1.760  20.305   0.797  1.00  0.00     0.016 C 
HETATM   11  C16 UNL     1       2.735  21.367   1.040  1.00  0.00     0.013 C 
HETATM   12  C17 UNL     1       2.336  22.607   1.769  1.00  0.00    -0.042 C 
HETATM   13  C18 UNL     1       0.902  22.955   1.890  1.00  0.00     0.015 C 
HETATM   14  C19 UNL     1       3.132  23.831   1.335  1.00  0.00     0.015 C 
HETATM   15  C20 UNL     1       2.950  21.958   3.013  1.00  0.00     0.030 C 
HETATM   16  C21 UNL     1       3.614  20.884   2.166  1.00  0.00     0.065 C 
ENDROOT
BRANCH  16  17
HETATM   17  C22 UNL     1       4.997  21.237   1.953  1.00  0.00     0.271 C 
HETATM   18  O2  UNL     1       5.640  21.110   0.859  1.00  0.00    -0.264 OA
BRANCH  17  19
HETATM   19  O3  UNL     1       5.748  21.771   3.005  1.00  0.00    -0.294 OA
BRANCH  19  20
HETATM   20  C23 UNL     1       6.737  21.013   3.672  1.00  0.00     0.360 C 
BRANCH  20  21
HETATM   21  O4  UNL     1       8.024  21.233   3.116  1.00  0.00    -0.278 OA
BRANCH  21  22
HETATM   22  C24 UNL     1       8.587  20.290   2.273  1.00  0.00     0.362 C 
HETATM   23  O5  UNL     1       9.177  19.315   2.802  1.00  0.00    -0.238 OA
HETATM   24  N1  UNL     1       8.505  20.416   0.840  1.00  0.00    -0.333 N 
ATOM     25  H1  UNL     1       8.025  21.211   0.421  1.00  0.00     0.165 HD
BRANCH  24  26
HETATM   26  C25 UNL     1       9.106  19.412   0.007  1.00  0.00     0.078 C 
HETATM   27  C26 UNL     1       9.556  19.965  -1.326  1.00  0.00     0.032 C 
HETATM   28  C27 UNL     1       8.062  18.337  -0.288  1.00  0.00     0.032 C 
ENDBRANCH  24  26
ENDBRANCH  21  22
ENDBRANCH  20  21
ENDBRANCH  19  20
ENDBRANCH  17  19
ENDBRANCH  16  17
BRANCH   9  29
HETATM   29  C12 UNL     1       0.957  18.332   2.053  1.00  0.00    -0.088 C 
HETATM   30  C13 UNL     1       0.046  18.080   2.993  1.00  0.00     0.014 C 
HETATM   31  C14 UNL     1       0.980  17.315   0.964  1.00  0.00     0.043 C 
ENDBRANCH   9  29
BRANCH   1  32
HETATM   32  C2  UNL     1       5.340  17.808   5.934  1.00  0.00    -0.025 C 
HETATM   33  C1  UNL     1       5.152  17.133   7.040  1.00  0.00     0.008 C 
ENDBRANCH   1  32
BRANCH   8  34
HETATM   34  O1  UNL     1       6.920  17.973   4.095  1.00  0.00    -0.391 OA
ATOM     35  H1  UNL     1       7.647  17.460   3.760  1.00  0.00     0.210 HD
ENDBRANCH   8  34
TORSDOF 9
ENDMDL
MODEL 3
REMARK VINA RESULT: -5.596250672      5.502      8.240
REMARK  9 active torsions:
REMARK  status: ('A' for Active; 'I' for Inactive)
REMARK    1  A    between atoms: C2_2  and  C3_3 
REMARK    2  A    between atoms: C10_10  and  O1_11 
REMARK    3  A    between atoms: C11_13  and  C12_14 
REMARK    4  A    between atoms: C21_23  and  C22_24 
REMARK    5  A    between atoms: C22_24  and  O3_26 
REMARK    6  A    between atoms: O3_26  and  C23_27 
REMARK    7  A    between atoms: C23_27  and  O4_28 
REMARK    8  A    between atoms: O4_28  and  C24_29 
REMARK       I    between atoms: C24_29  and  N1_31 
REMARK    9  A    between atoms: N1_31  and  C25_33 
ROOT
HETATM    1  C3  UNL     1       2.358  23.073   1.731  1.00  0.00     0.002 C 
HETATM    2  C4  UNL     1       3.063  24.367   1.250  1.00  0.00     0.022 C 
HETATM    3  C5  UNL     1       3.263  22.407   2.736  1.00  0.00     0.017 C 
HETATM    4  C6  UNL     1       2.919  21.058   3.194  1.00  0.00     0.016 C 
HETATM    5  C7  UNL     1       3.545  19.936   2.355  1.00  0.00     0.002 C 
HETATM    6  C8  UNL     1       3.650  20.425   0.997  1.00  0.00    -0.017 C 
HETATM    7  C9  UNL     1       2.545  21.002   0.241  1.00  0.00     0.002 C 
HETATM    8  C10 UNL     1       1.977  22.315   0.537  1.00  0.00     0.152 C 
HETATM    9  C11 UNL     1       4.863  19.542   2.928  1.00  0.00     0.027 C 
HETATM   10  C15 UNL     1       5.073  18.089   2.531  1.00  0.00     0.016 C 
HETATM   11  C16 UNL     1       3.735  17.510   2.646  1.00  0.00     0.013 C 
HETATM   12  C17 UNL     1       3.230  17.030   3.965  1.00  0.00    -0.042 C 
HETATM   13  C18 UNL     1       4.188  16.757   5.061  1.00  0.00     0.015 C 
HETATM   14  C19 UNL     1       2.246  15.873   3.838  1.00  0.00     0.015 C 
HETATM   15  C20 UNL     1       2.499  18.371   4.066  1.00  0.00     0.030 C 
HETATM   16  C21 UNL     1       2.768  18.667   2.599  1.00  0.00     0.065 C 
ENDROOT
BRANCH  16  17
HETATM   17  C22 UNL     1       1.591  18.347   1.828  1.00  0.00     0.271 C 
HETATM   18  O2  UNL     1       0.400  18.715   2.096  1.00  0.00    -0.264 OA
BRANCH  17  19
HETATM   19  O3  UNL     1       1.708  17.567   0.673  1.00  0.00    -0.294 OA
BRANCH  19  20
HETATM   20  C23 UNL     1       0.815  17.709  -0.414  1.00  0.00     0.360 C 
BRANCH  20  21
HETATM   21  O4  UNL     1       1.477  18.191  -1.572  1.00  0.00    -0.278 OA
BRANCH  21  22
HETATM   22  C24 UNL     1       0.839  19.085  -2.416  1.00  0.00     0.362 C 
HETATM   23  O5  UNL     1       0.952  18.898  -3.653  1.00  0.00    -0.238 OA
HETATM   24  N1  UNL     1       0.074  20.192  -1.902  1.00  0.00    -0.333 N 
ATOM     25  H1  UNL     1      -0.011  20.335  -0.896  1.00  0.00     0.165 HD
BRANCH  24  26
HETATM   26  C25 UNL     1      -0.569  21.093  -2.818  1.00  0.00     0.078 C 
HETATM   27  C26 UNL     1       0.283  22.300  -3.130  1.00  0.00     0.032 C 
HETATM   28  C27 UNL     1      -1.852  21.610  -2.170  1.00  0.00     0.032 C 
ENDBRANCH  24  26
ENDBRANCH  21  22
ENDBRANCH  20  21
ENDBRANCH  19  20
ENDBRANCH  17  19
ENDBRANCH  16  17
BRANCH   9  29
HETATM   29  C12 UNL     1       6.042  20.347   2.808  1.00  0.00    -0.088 C 
HETATM   30  C13 UNL     1       6.482  21.116   3.804  1.00  0.00     0.014 C 
HETATM   31  C14 UNL     1       6.920  20.379   1.604  1.00  0.00     0.043 C 
ENDBRANCH   9  29
BRANCH   1  32
HETATM   32  C2  UNL     1       1.135  23.559   2.424  1.00  0.00    -0.025 C 
HETATM   33  C1  UNL     1       1.200  24.664   3.121  1.00  0.00     0.008 C 
ENDBRANCH   1  32
BRANCH   8  34
HETATM   34  O1  UNL     1       0.547  22.328   0.411  1.00  0.00    -0.391 OA
ATOM     35  H1  UNL     1       0.183  21.632   0.946  1.00  0.00     0.210 HD
ENDBRANCH   8  34
TORSDOF 9
ENDMDL
MODEL 4
REMARK VINA RESULT: -5.595336930      3.478      8.365
REMARK  9 active torsions:
REMARK  status: ('A' for Active; 'I' for Inactive)
REMARK    1  A    between atoms: C2_2  and  C3_3 
REMARK    2  A    between atoms: C10_10  and  O1_11 
REMARK    3  A    between atoms: C11_13  and  C12_14 
REMARK    4  A    between atoms: C21_23  and  C22_24 
REMARK    5  A    between atoms: C22_24  and  O3_26 
REMARK    6  A    between atoms: O3_26  and  C23_27 
REMARK    7  A    between atoms: C23_27  and  O4_28 
REMARK    8  A    between atoms: O4_28  and  C24_29 
REMARK       I    between atoms: C24_29  and  N1_31 
REMARK    9  A    between atoms: N1_31  and  C25_33 
ROOT
HETATM    1  C3  UNL     1       6.369  17.882   4.564  1.00  0.00     0.002 C 
HETATM    2  C4  UNL     1       6.563  16.682   5.526  1.00  0.00     0.022 C 
HETATM    3  C5  UNL     1       5.314  18.778   5.160  1.00  0.00     0.017 C 
HETATM    4  C6  UNL     1       4.799  19.882   4.345  1.00  0.00     0.016 C 
HETATM    5  C7  UNL     1       3.567  19.516   3.507  1.00  0.00     0.002 C 
HETATM    6  C8  UNL     1       3.691  18.118   3.152  1.00  0.00    -0.017 C 
HETATM    7  C9  UNL     1       4.867  17.529   2.522  1.00  0.00     0.002 C 
HETATM    8  C10 UNL     1       6.132  17.334   3.226  1.00  0.00     0.152 C 
HETATM    9  C11 UNL     1       2.321  19.808   4.271  1.00  0.00     0.027 C 
HETATM   10  C15 UNL     1       1.248  20.083   3.229  1.00  0.00     0.016 C 
HETATM   11  C16 UNL     1       1.964  20.824   2.193  1.00  0.00     0.013 C 
HETATM   12  C17 UNL     1       2.160  22.299   2.315  1.00  0.00    -0.042 C 
HETATM   13  C18 UNL     1       1.307  23.076   3.244  1.00  0.00     0.015 C 
HETATM   14  C19 UNL     1       2.230  23.002   0.966  1.00  0.00     0.015 C 
HETATM   15  C20 UNL     1       3.560  21.972   2.844  1.00  0.00     0.030 C 
HETATM   16  C21 UNL     1       3.428  20.526   2.394  1.00  0.00     0.065 C 
ENDROOT
BRANCH  16  17
HETATM   17  C22 UNL     1       4.117  20.356   1.137  1.00  0.00     0.271 C 
HETATM   18  O2  UNL     1       3.744  19.603   0.177  1.00  0.00    -0.264 OA
BRANCH  17  19
HETATM   19  O3  UNL     1       5.303  21.055   0.895  1.00  0.00    -0.294 OA
BRANCH  19  20
HETATM   20  C23 UNL     1       6.559  20.556   1.312  1.00  0.00     0.360 C 
BRANCH  20  21
HETATM   21  O4  UNL     1       7.105  19.660   0.358  1.00  0.00    -0.278 OA
BRANCH  21  22
HETATM   22  C24 UNL     1       8.417  19.805  -0.062  1.00  0.00     0.362 C 
HETATM   23  O5  UNL     1       9.261  18.985   0.378  1.00  0.00    -0.238 OA
HETATM   24  N1  UNL     1       8.807  20.855  -0.966  1.00  0.00    -0.333 N 
ATOM     25  H1  UNL     1       8.114  21.516  -1.316  1.00  0.00     0.165 HD
BRANCH  24  26
HETATM   26  C25 UNL     1      10.181  20.965  -1.372  1.00  0.00     0.078 C 
HETATM   27  C26 UNL     1      10.683  22.390  -1.323  1.00  0.00     0.032 C 
HETATM   28  C27 UNL     1      10.297  20.502  -2.823  1.00  0.00     0.032 C 
ENDBRANCH  24  26
ENDBRANCH  21  22
ENDBRANCH  20  21
ENDBRANCH  19  20
ENDBRANCH  17  19
ENDBRANCH  16  17
BRANCH   9  29
HETATM   29  C12 UNL     1       1.867  19.003   5.365  1.00  0.00    -0.088 C 
HETATM   30  C13 UNL     1       2.004  19.387   6.635  1.00  0.00     0.014 C 
HETATM   31  C14 UNL     1       1.161  17.699   5.215  1.00  0.00     0.043 C 
ENDBRANCH   9  29
BRANCH   1  32
HETATM   32  C2  UNL     1       7.678  18.586   4.589  1.00  0.00    -0.025 C 
HETATM   33  C1  UNL     1       7.730  19.809   5.052  1.00  0.00     0.008 C 
ENDBRANCH   1  32
BRANCH   8  34
HETATM   34  O1  UNL     1       7.265  17.626   2.394  1.00  0.00    -0.391 OA
ATOM     35  H1  UNL     1       7.003  17.566   1.482  1.00  0.00     0.210 HD
ENDBRANCH   8  34
TORSDOF 9
ENDMDL
MODEL 5
REMARK VINA RESULT: -5.550087458      2.314      5.182
REMARK  9 active torsions:
REMARK  status: ('A' for Active; 'I' for Inactive)
REMARK    1  A    between atoms: C2_2  and  C3_3 
REMARK    2  A    between atoms: C10_10  and  O1_11 
REMARK    3  A    between atoms: C11_13  and  C12_14 
REMARK    4  A    between atoms: C21_23  and  C22_24 
REMARK    5  A    between atoms: C22_24  and  O3_26 
REMARK    6  A    between atoms: O3_26  and  C23_27 
REMARK    7  A    between atoms: C23_27  and  O4_28 
REMARK    8  A    between atoms: O4_28  and  C24_29 
REMARK       I    between atoms: C24_29  and  N1_31 
REMARK    9  A    between atoms: N1_31  and  C25_33 
ROOT
HETATM    1  C3  UNL     1       7.438  15.025   0.675  1.00  0.00     0.002 C 
HETATM    2  C4  UNL     1       7.642  13.578   1.193  1.00  0.00     0.022 C 
HETATM    3  C5  UNL     1       8.188  15.154  -0.626  1.00  0.00     0.017 C 
HETATM    4  C6  UNL     1       8.323  16.487  -1.220  1.00  0.00     0.016 C 
HETATM    5  C7  UNL     1       9.585  17.241  -0.781  1.00  0.00     0.002 C 
HETATM    6  C8  UNL     1       9.880  16.826   0.574  1.00  0.00    -0.017 C 
HETATM    7  C9  UNL     1       8.922  16.856   1.673  1.00  0.00     0.002 C 
HETATM    8  C10 UNL     1       7.794  15.933   1.769  1.00  0.00     0.152 C 
HETATM    9  C11 UNL     1      10.704  16.962  -1.725  1.00  0.00     0.027 C 
HETATM   10  C15 UNL     1      11.616  18.177  -1.663  1.00  0.00     0.016 C 
HETATM   11  C16 UNL     1      10.681  19.295  -1.545  1.00  0.00     0.013 C 
HETATM   12  C17 UNL     1      10.052  19.886  -2.761  1.00  0.00    -0.042 C 
HETATM   13  C18 UNL     1      10.654  19.637  -4.092  1.00  0.00     0.015 C 
HETATM   14  C19 UNL     1       9.737  21.369  -2.606  1.00  0.00     0.015 C 
HETATM   15  C20 UNL     1       8.831  19.022  -2.433  1.00  0.00     0.030 C 
HETATM   16  C21 UNL     1       9.382  18.711  -1.050  1.00  0.00     0.065 C 
ENDROOT
BRANCH  16  17
HETATM   17  C22 UNL     1       8.744  19.570  -0.082  1.00  0.00     0.271 C 
HETATM   18  O2  UNL     1       9.340  20.364   0.719  1.00  0.00    -0.264 OA
BRANCH  17  19
HETATM   19  O3  UNL     1       7.351  19.573   0.032  1.00  0.00    -0.294 OA
BRANCH  19  20
HETATM   20  C23 UNL     1       6.697  20.145   1.148  1.00  0.00     0.360 C 
BRANCH  20  21
HETATM   21  O4  UNL     1       5.344  20.455   0.856  1.00  0.00    -0.278 OA
BRANCH  21  22
HETATM   22  C24 UNL     1       4.680  21.426   1.586  1.00  0.00     0.362 C 
HETATM   23  O5  UNL     1       5.165  21.750   2.699  1.00  0.00    -0.238 OA
HETATM   24  N1  UNL     1       3.477  22.047   1.095  1.00  0.00    -0.333 N 
ATOM     25  H1  UNL     1       3.091  21.776   0.190  1.00  0.00     0.165 HD
BRANCH  24  26
HETATM   26  C25 UNL     1       2.823  23.050   1.889  1.00  0.00     0.078 C 
HETATM   27  C26 UNL     1       1.342  22.788   2.041  1.00  0.00     0.032 C 
HETATM   28  C27 UNL     1       2.966  24.397   1.184  1.00  0.00     0.032 C 
ENDBRANCH  24  26
ENDBRANCH  21  22
ENDBRANCH  20  21
ENDBRANCH  19  20
ENDBRANCH  17  19
ENDBRANCH  16  17
BRANCH   9  29
HETATM   29  C12 UNL     1      11.410  15.715  -1.757  1.00  0.00    -0.088 C 
HETATM   30  C13 UNL     1      11.005  14.689  -2.508  1.00  0.00     0.014 C 
HETATM   31  C14 UNL     1      12.673  15.443  -1.015  1.00  0.00     0.043 C 
ENDBRANCH   9  29
BRANCH   1  32
HETATM   32  C2  UNL     1       5.978  15.116   0.408  1.00  0.00    -0.025 C 
HETATM   33  C1  UNL     1       5.422  14.227  -0.375  1.00  0.00     0.008 C 
ENDBRANCH   1  32
BRANCH   8  34
HETATM   34  O1  UNL     1       6.605  16.579   2.246  1.00  0.00    -0.391 OA
ATOM     35  H1  UNL     1       6.724  17.520   2.200  1.00  0.00     0.210 HD
ENDBRANCH   8  34
TORSDOF 9
ENDMDL
