MODEL 1
REMARK VINA RESULT: -7.137612393      0.000      0.000
REMARK  7 active torsions:
REMARK  status: ('A' for Active; 'I' for Inactive)
REMARK    1  A    between atoms: C2_2  and  C3_3 
REMARK    2  A    between atoms: C9_9  and  C10_10 
REMARK    3  A    between atoms: C15_15  and  C16_16 
REMARK    4  A    between atoms: C17_17  and  C18_18 
REMARK    5  A    between atoms: C19_19  and  C20_20 
REMARK    6  A    between atoms: C20_20  and  C21_21 
REMARK    7  A    between atoms: C24_26  and  O3_27 
ROOT
HETATM    1  C10 UNL     1       5.541  19.100   3.847  1.00  0.00     0.174 C 
HETATM    2  C11 UNL     1       5.757  17.914   4.661  1.00  0.00     0.010 C 
HETATM    3  C12 UNL     1       6.915  17.699   5.293  1.00  0.00    -0.082 C 
HETATM    4  C13 UNL     1       7.071  16.474   6.106  1.00  0.00     0.043 C 
HETATM    5  C14 UNL     1       8.004  18.717   5.126  1.00  0.00     0.069 C 
HETATM    6  C15 UNL     1       7.896  19.218   3.696  1.00  0.00     0.149 C 
HETATM    7  O4  UNL     1       6.665  19.697   3.412  1.00  0.00    -0.370 OA
ENDROOT
BRANCH   1   8
HETATM    8  C9  UNL     1       4.648  18.831   2.637  1.00  0.00     0.155 C 
HETATM    9  C8  UNL     1       3.226  18.598   2.966  1.00  0.00     0.038 C 
HETATM   10  C7  UNL     1       2.618  19.979   2.837  1.00  0.00     0.041 C 
HETATM   11  C6  UNL     1       3.546  20.649   1.879  1.00  0.00     0.065 C 
HETATM   12  C5  UNL     1       3.850  22.040   2.419  1.00  0.00     0.039 C 
HETATM   13  O5  UNL     1       4.734  19.966   1.845  1.00  0.00    -0.372 OA
HETATM   14  C25 UNL     1       2.939  20.833   0.507  1.00  0.00     0.020 C 
HETATM   15  C4  UNL     1       3.733  23.107   1.365  1.00  0.00     0.008 C 
HETATM   16  C3  UNL     1       2.389  23.193   0.727  1.00  0.00    -0.011 C 
HETATM   17  C27 UNL     1       1.794  21.793   0.551  1.00  0.00    -0.008 C 
HETATM   18  C28 UNL     1       0.983  21.776  -0.709  1.00  0.00     0.011 C 
HETATM   19  C26 UNL     1       2.478  19.523  -0.089  1.00  0.00     0.013 C 
BRANCH  16  20
HETATM   20  C2  UNL     1       1.423  24.065   1.494  1.00  0.00     0.000 C 
HETATM   21  C1  UNL     1       2.063  25.306   2.026  1.00  0.00     0.005 C 
ENDBRANCH  16  20
ENDBRANCH   1   8
BRANCH   6  22
HETATM   22  C16 UNL     1       8.197  18.111   2.755  1.00  0.00     0.005 C 
HETATM   23  C17 UNL     1       9.358  17.945   2.154  1.00  0.00    -0.001 C 
BRANCH  23  24
HETATM   24  C18 UNL     1       9.576  16.848   1.255  1.00  0.00     0.008 C 
HETATM   25  C19 UNL     1       9.651  16.913  -0.080  1.00  0.00     0.056 C 
BRANCH  25  26
HETATM   26  C20 UNL     1       9.529  18.079  -0.830  1.00  0.00    -0.112 C 
BRANCH  26  27
HETATM   27  C21 UNL     1       9.420  19.125  -1.502  1.00  0.00     0.093 C 
HETATM   28  C22 UNL     1       9.096  19.198  -2.969  1.00  0.00     0.300 C 
HETATM   29  O1  UNL     1       8.292  18.508  -3.616  1.00  0.00    -0.259 OA
HETATM   30  O2  UNL     1       9.895  20.227  -3.486  1.00  0.00    -0.314 OA
HETATM   31  C23 UNL     1      10.416  21.004  -2.397  1.00  0.00     0.216 C 
HETATM   32  C24 UNL     1       9.564  20.615  -1.213  1.00  0.00     0.189 C 
BRANCH  32  33
HETATM   33  O3  UNL     1       8.357  21.264  -1.235  1.00  0.00    -0.388 OA
ATOM     34  H3  UNL     1       8.330  21.990  -0.624  1.00  0.00     0.210 HD
ENDBRANCH  32  33
ENDBRANCH  26  27
ENDBRANCH  25  26
ENDBRANCH  23  24
ENDBRANCH   6  22
TORSDOF 7
ENDMDL
MODEL 2
REMARK VINA RESULT: -6.853777698      1.850      2.957
REMARK  7 active torsions:
REMARK  status: ('A' for Active; 'I' for Inactive)
REMARK    1  A    between atoms: C2_2  and  C3_3 
REMARK    2  A    between atoms: C9_9  and  C10_10 
REMARK    3  A    between atoms: C15_15  and  C16_16 
REMARK    4  A    between atoms: C17_17  and  C18_18 
REMARK    5  A    between atoms: C19_19  and  C20_20 
REMARK    6  A    between atoms: C20_20  and  C21_21 
REMARK    7  A    between atoms: C24_26  and  O3_27 
ROOT
HETATM    1  C10 UNL     1       4.054  20.005   1.947  1.00  0.00     0.174 C 
HETATM    2  C11 UNL     1       4.344  19.381   3.228  1.00  0.00     0.010 C 
HETATM    3  C12 UNL     1       5.349  19.802   4.002  1.00  0.00    -0.082 C 
HETATM    4  C13 UNL     1       5.590  19.125   5.294  1.00  0.00     0.043 C 
HETATM    5  C14 UNL     1       6.192  20.937   3.499  1.00  0.00     0.069 C 
HETATM    6  C15 UNL     1       6.295  20.751   1.996  1.00  0.00     0.149 C 
HETATM    7  O4  UNL     1       5.083  20.678   1.402  1.00  0.00    -0.370 OA
ENDROOT
BRANCH   1   8
HETATM    8  C9  UNL     1       3.537  19.009   0.909  1.00  0.00     0.155 C 
HETATM    9  C8  UNL     1       2.371  18.217   1.351  1.00  0.00     0.038 C 
HETATM   10  C7  UNL     1       1.197  19.028   0.843  1.00  0.00     0.041 C 
HETATM   11  C6  UNL     1       1.794  19.767  -0.309  1.00  0.00     0.065 C 
HETATM   12  C5  UNL     1       1.338  21.217  -0.219  1.00  0.00     0.039 C 
HETATM   13  O5  UNL     1       3.160  19.771  -0.187  1.00  0.00    -0.372 OA
HETATM   14  C25 UNL     1       1.329  19.241  -1.647  1.00  0.00     0.020 C 
HETATM   15  C4  UNL     1       0.845  21.750  -1.537  1.00  0.00     0.008 C 
HETATM   16  C3  UNL     1      -0.298  20.988  -2.117  1.00  0.00    -0.011 C 
HETATM   17  C27 UNL     1      -0.131  19.491  -1.844  1.00  0.00    -0.008 C 
HETATM   18  C28 UNL     1      -0.692  18.731  -3.007  1.00  0.00     0.011 C 
HETATM   19  C26 UNL     1       1.615  17.766  -1.808  1.00  0.00     0.013 C 
BRANCH  16  20
HETATM   20  C2  UNL     1      -1.641  21.454  -1.604  1.00  0.00     0.000 C 
HETATM   21  C1  UNL     1      -2.525  21.972  -2.692  1.00  0.00     0.005 C 
ENDBRANCH  16  20
ENDBRANCH   1   8
BRANCH   6  22
HETATM   22  C16 UNL     1       7.038  19.502   1.697  1.00  0.00     0.005 C 
HETATM   23  C17 UNL     1       8.352  19.395   1.733  1.00  0.00    -0.001 C 
BRANCH  23  24
HETATM   24  C18 UNL     1       9.001  18.152   1.432  1.00  0.00     0.008 C 
HETATM   25  C19 UNL     1       9.512  17.783   0.251  1.00  0.00     0.056 C 
BRANCH  25  26
HETATM   26  C20 UNL     1       9.497  18.563  -0.903  1.00  0.00    -0.112 C 
BRANCH  26  27
HETATM   27  C21 UNL     1       9.484  19.262  -1.936  1.00  0.00     0.093 C 
HETATM   28  C22 UNL     1       8.772  18.924  -3.218  1.00  0.00     0.300 C 
HETATM   29  O1  UNL     1       7.656  18.402  -3.364  1.00  0.00    -0.259 OA
HETATM   30  O2  UNL     1       9.632  19.326  -4.250  1.00  0.00    -0.314 OA
HETATM   31  C23 UNL     1      10.644  20.186  -3.704  1.00  0.00     0.216 C 
HETATM   32  C24 UNL     1      10.110  20.589  -2.351  1.00  0.00     0.189 C 
BRANCH  32  33
HETATM   33  O3  UNL     1       9.176  21.586  -2.463  1.00  0.00    -0.388 OA
ATOM     34  H3  UNL     1       8.687  21.529  -3.275  1.00  0.00     0.210 HD
ENDBRANCH  32  33
ENDBRANCH  26  27
ENDBRANCH  25  26
ENDBRANCH  23  24
ENDBRANCH   6  22
TORSDOF 7
ENDMDL
MODEL 3
REMARK VINA RESULT: -6.801244187      1.617      1.923
REMARK  7 active torsions:
REMARK  status: ('A' for Active; 'I' for Inactive)
REMARK    1  A    between atoms: C2_2  and  C3_3 
REMARK    2  A    between atoms: C9_9  and  C10_10 
REMARK    3  A    between atoms: C15_15  and  C16_16 
REMARK    4  A    between atoms: C17_17  and  C18_18 
REMARK    5  A    between atoms: C19_19  and  C20_20 
REMARK    6  A    between atoms: C20_20  and  C21_21 
REMARK    7  A    between atoms: C24_26  and  O3_27 
ROOT
HETATM    1  C10 UNL     1       6.154  20.980   3.152  1.00  0.00     0.174 C 
HETATM    2  C11 UNL     1       5.954  19.862   4.062  1.00  0.00     0.010 C 
HETATM    3  C12 UNL     1       6.958  19.361   4.787  1.00  0.00    -0.082 C 
HETATM    4  C13 UNL     1       6.689  18.224   5.694  1.00  0.00     0.043 C 
HETATM    5  C14 UNL     1       8.316  19.976   4.623  1.00  0.00     0.069 C 
HETATM    6  C15 UNL     1       8.432  20.356   3.158  1.00  0.00     0.149 C 
HETATM    7  O4  UNL     1       7.425  21.163   2.755  1.00  0.00    -0.370 OA
ENDROOT
BRANCH   1   8
HETATM    8  C9  UNL     1       5.275  20.890   1.905  1.00  0.00     0.155 C 
HETATM    9  C8  UNL     1       4.633  19.574   1.703  1.00  0.00     0.038 C 
HETATM   10  C7  UNL     1       3.287  19.747   2.376  1.00  0.00     0.041 C 
HETATM   11  C6  UNL     1       3.077  21.223   2.298  1.00  0.00     0.065 C 
HETATM   12  C5  UNL     1       2.580  21.696   3.657  1.00  0.00     0.039 C 
HETATM   13  O5  UNL     1       4.280  21.842   2.077  1.00  0.00    -0.372 OA
HETATM   14  C25 UNL     1       2.026  21.612   1.285  1.00  0.00     0.020 C 
HETATM   15  C4  UNL     1       1.395  22.617   3.549  1.00  0.00     0.008 C 
HETATM   16  C3  UNL     1       0.216  22.021   2.859  1.00  0.00    -0.011 C 
HETATM   17  C27 UNL     1       0.674  21.129   1.701  1.00  0.00    -0.008 C 
HETATM   18  C28 UNL     1      -0.336  21.227   0.598  1.00  0.00     0.011 C 
HETATM   19  C26 UNL     1       2.346  21.087  -0.096  1.00  0.00     0.013 C 
BRANCH  16  20
HETATM   20  C2  UNL     1      -0.679  21.234   3.787  1.00  0.00     0.000 C 
HETATM   21  C1  UNL     1      -0.989  21.969   5.051  1.00  0.00     0.005 C 
ENDBRANCH  16  20
ENDBRANCH   1   8
BRANCH   6  22
HETATM   22  C16 UNL     1       8.415  19.132   2.321  1.00  0.00     0.005 C 
HETATM   23  C17 UNL     1       9.454  18.339   2.146  1.00  0.00    -0.001 C 
BRANCH  23  24
HETATM   24  C18 UNL     1       9.361  17.169   1.321  1.00  0.00     0.008 C 
HETATM   25  C19 UNL     1       9.299  17.137  -0.016  1.00  0.00     0.056 C 
BRANCH  25  26
HETATM   26  C20 UNL     1       9.317  18.259  -0.842  1.00  0.00    -0.112 C 
BRANCH  26  27
HETATM   27  C21 UNL     1       9.332  19.263  -1.582  1.00  0.00     0.093 C 
HETATM   28  C22 UNL     1       9.076  19.267  -3.064  1.00  0.00     0.300 C 
HETATM   29  O1  UNL     1       8.238  18.611  -3.703  1.00  0.00    -0.259 OA
HETATM   30  O2  UNL     1       9.987  20.184  -3.607  1.00  0.00    -0.314 OA
HETATM   31  C23 UNL     1      10.533  20.981  -2.546  1.00  0.00     0.216 C 
HETATM   32  C24 UNL     1       9.602  20.749  -1.380  1.00  0.00     0.189 C 
BRANCH  32  33
HETATM   33  O3  UNL     1       8.461  21.501  -1.499  1.00  0.00    -0.388 OA
ATOM     34  H3  UNL     1       8.451  22.233  -0.894  1.00  0.00     0.210 HD
ENDBRANCH  32  33
ENDBRANCH  26  27
ENDBRANCH  25  26
ENDBRANCH  23  24
ENDBRANCH   6  22
TORSDOF 7
ENDMDL
MODEL 4
REMARK VINA RESULT: -6.748115270      5.017      8.196
REMARK  7 active torsions:
REMARK  status: ('A' for Active; 'I' for Inactive)
REMARK    1  A    between atoms: C2_2  and  C3_3 
REMARK    2  A    between atoms: C9_9  and  C10_10 
REMARK    3  A    between atoms: C15_15  and  C16_16 
REMARK    4  A    between atoms: C17_17  and  C18_18 
REMARK    5  A    between atoms: C19_19  and  C20_20 
REMARK    6  A    between atoms: C20_20  and  C21_21 
REMARK    7  A    between atoms: C24_26  and  O3_27 
ROOT
HETATM    1  C10 UNL     1       1.661  22.763   3.202  1.00  0.00     0.174 C 
HETATM    2  C11 UNL     1       2.836  21.909   3.122  1.00  0.00     0.010 C 
HETATM    3  C12 UNL     1       3.606  21.877   2.030  1.00  0.00    -0.082 C 
HETATM    4  C13 UNL     1       4.788  20.988   2.013  1.00  0.00     0.043 C 
HETATM    5  C14 UNL     1       3.212  22.742   0.869  1.00  0.00     0.069 C 
HETATM    6  C15 UNL     1       1.694  22.740   0.840  1.00  0.00     0.149 C 
HETATM    7  O4  UNL     1       1.157  23.140   2.014  1.00  0.00    -0.370 OA
ENDROOT
BRANCH   1   8
HETATM    8  C9  UNL     1       0.532  22.136   4.019  1.00  0.00     0.155 C 
HETATM    9  C8  UNL     1       0.884  21.843   5.424  1.00  0.00     0.038 C 
HETATM   10  C7  UNL     1       0.431  23.090   6.155  1.00  0.00     0.041 C 
HETATM   11  C6  UNL     1      -0.642  23.614   5.258  1.00  0.00     0.065 C 
HETATM   12  C5  UNL     1      -0.431  25.115   5.107  1.00  0.00     0.039 C 
HETATM   13  O5  UNL     1      -0.499  23.065   4.010  1.00  0.00    -0.372 OA
HETATM   14  C25 UNL     1      -2.028  23.420   5.827  1.00  0.00     0.020 C 
HETATM   15  C4  UNL     1      -1.704  25.897   5.284  1.00  0.00     0.008 C 
HETATM   16  C3  UNL     1      -2.366  25.700   6.605  1.00  0.00    -0.011 C 
HETATM   17  C27 UNL     1      -2.224  24.244   7.058  1.00  0.00    -0.008 C 
HETATM   18  C28 UNL     1      -3.458  23.859   7.816  1.00  0.00     0.011 C 
HETATM   19  C26 UNL     1      -2.313  21.969   6.140  1.00  0.00     0.013 C 
BRANCH  16  20
HETATM   20  C2  UNL     1      -1.835  26.622   7.678  1.00  0.00     0.000 C 
HETATM   21  C1  UNL     1      -2.031  28.066   7.346  1.00  0.00     0.005 C 
ENDBRANCH  16  20
ENDBRANCH   1   8
BRANCH   6  22
HETATM   22  C16 UNL     1       1.201  21.373   0.542  1.00  0.00     0.005 C 
HETATM   23  C17 UNL     1      -0.067  21.016   0.590  1.00  0.00    -0.001 C 
BRANCH  23  24
HETATM   24  C18 UNL     1      -0.469  19.672   0.286  1.00  0.00     0.008 C 
HETATM   25  C19 UNL     1      -0.729  19.172  -0.928  1.00  0.00     0.056 C 
BRANCH  25  26
HETATM   26  C20 UNL     1      -0.648  19.887  -2.120  1.00  0.00    -0.112 C 
BRANCH  26  27
HETATM   27  C21 UNL     1      -0.575  20.528  -3.187  1.00  0.00     0.093 C 
HETATM   28  C22 UNL     1      -0.960  20.017  -4.549  1.00  0.00     0.300 C 
HETATM   29  O1  UNL     1      -1.925  19.300  -4.858  1.00  0.00    -0.259 OA
HETATM   30  O2  UNL     1       0.005  20.520  -5.433  1.00  0.00    -0.314 OA
HETATM   31  C23 UNL     1       0.737  21.566  -4.776  1.00  0.00     0.216 C 
HETATM   32  C24 UNL     1      -0.109  21.926  -3.578  1.00  0.00     0.189 C 
BRANCH  32  33
HETATM   33  O3  UNL     1      -1.155  22.738  -3.935  1.00  0.00    -0.388 OA
ATOM     34  H3  UNL     1      -1.030  23.126  -4.793  1.00  0.00     0.210 HD
ENDBRANCH  32  33
ENDBRANCH  26  27
ENDBRANCH  25  26
ENDBRANCH  23  24
ENDBRANCH   6  22
TORSDOF 7
ENDMDL
MODEL 5
REMARK VINA RESULT: -6.659898047      2.292      3.907
REMARK  7 active torsions:
REMARK  status: ('A' for Active; 'I' for Inactive)
REMARK    1  A    between atoms: C2_2  and  C3_3 
REMARK    2  A    between atoms: C9_9  and  C10_10 
REMARK    3  A    between atoms: C15_15  and  C16_16 
REMARK    4  A    between atoms: C17_17  and  C18_18 
REMARK    5  A    between atoms: C19_19  and  C20_20 
REMARK    6  A    between atoms: C20_20  and  C21_21 
REMARK    7  A    between atoms: C24_26  and  O3_27 
ROOT
HETATM    1  C10 UNL     1       2.622  20.181   1.167  1.00  0.00     0.174 C 
HETATM    2  C11 UNL     1       2.691  19.509   2.456  1.00  0.00     0.010 C 
HETATM    3  C12 UNL     1       3.621  19.825   3.362  1.00  0.00    -0.082 C 
HETATM    4  C13 UNL     1       3.637  19.105   4.653  1.00  0.00     0.043 C 
HETATM    5  C14 UNL     1       4.615  20.890   3.004  1.00  0.00     0.069 C 
HETATM    6  C15 UNL     1       4.893  20.724   1.521  1.00  0.00     0.149 C 
HETATM    7  O4  UNL     1       3.766  20.771   0.777  1.00  0.00    -0.370 OA
ENDROOT
BRANCH   1   8
HETATM    8  C9  UNL     1       2.159  19.255   0.043  1.00  0.00     0.155 C 
HETATM    9  C8  UNL     1       0.865  18.587   0.296  1.00  0.00     0.038 C 
HETATM   10  C7  UNL     1      -0.133  19.523  -0.355  1.00  0.00     0.041 C 
HETATM   11  C6  UNL     1       0.698  20.203  -1.392  1.00  0.00     0.065 C 
HETATM   12  C5  UNL     1       0.387  21.694  -1.334  1.00  0.00     0.039 C 
HETATM   13  O5  UNL     1       2.024  20.061  -1.077  1.00  0.00    -0.372 OA
HETATM   14  C25 UNL     1       0.378  19.742  -2.795  1.00  0.00     0.020 C 
HETATM   15  C4  UNL     1       0.146  22.286  -2.696  1.00  0.00     0.008 C 
HETATM   16  C3  UNL     1      -0.974  21.656  -3.449  1.00  0.00    -0.011 C 
HETATM   17  C27 UNL     1      -1.005  20.147  -3.191  1.00  0.00    -0.008 C 
HETATM   18  C28 UNL     1      -1.468  19.460  -4.441  1.00  0.00     0.011 C 
HETATM   19  C26 UNL     1       0.529  18.246  -2.948  1.00  0.00     0.013 C 
BRANCH  16  20
HETATM   20  C2  UNL     1      -2.321  22.257  -3.123  1.00  0.00     0.000 C 
HETATM   21  C1  UNL     1      -3.045  21.505  -2.053  1.00  0.00     0.005 C 
ENDBRANCH  16  20
ENDBRANCH   1   8
BRANCH   6  22
HETATM   22  C16 UNL     1       5.560  19.421   1.280  1.00  0.00     0.005 C 
HETATM   23  C17 UNL     1       6.809  19.156   1.608  1.00  0.00    -0.001 C 
BRANCH  23  24
HETATM   24  C18 UNL     1       7.386  17.869   1.343  1.00  0.00     0.008 C 
HETATM   25  C19 UNL     1       8.144  17.534   0.293  1.00  0.00     0.056 C 
BRANCH  25  26
HETATM   26  C20 UNL     1       8.506  18.399  -0.737  1.00  0.00    -0.112 C 
BRANCH  26  27
HETATM   27  C21 UNL     1       8.831  19.173  -1.660  1.00  0.00     0.093 C 
HETATM   28  C22 UNL     1       8.597  18.941  -3.128  1.00  0.00     0.300 C 
HETATM   29  O1  UNL     1       7.603  18.443  -3.680  1.00  0.00    -0.259 OA
HETATM   30  O2  UNL     1       9.747  19.411  -3.777  1.00  0.00    -0.314 OA
HETATM   31  C23 UNL     1      10.503  20.216  -2.860  1.00  0.00     0.216 C 
HETATM   32  C24 UNL     1       9.538  20.522  -1.739  1.00  0.00     0.189 C 
BRANCH  32  33
HETATM   33  O3  UNL     1       8.681  21.534  -2.085  1.00  0.00    -0.388 OA
ATOM     34  H3  UNL     1       7.967  21.228  -2.631  1.00  0.00     0.210 HD
ENDBRANCH  32  33
ENDBRANCH  26  27
ENDBRANCH  25  26
ENDBRANCH  23  24
ENDBRANCH   6  22
TORSDOF 7
ENDMDL
