MODEL 1
REMARK VINA RESULT: -7.006311198      0.000      0.000
REMARK  6 active torsions:
REMARK  status: ('A' for Active; 'I' for Inactive)
REMARK    1  A    between atoms: C2_2  and  C3_3 
REMARK    2  A    between atoms: N1_8  and  C8_9 
REMARK    3  A    between atoms: N2_11  and  C10_12 
REMARK    4  A    between atoms: C15_18  and  C16_19 
REMARK    5  A    between atoms: C16_19  and  N4_20 
REMARK       I    between atoms: N4_20  and  C17_22 
REMARK       I    between atoms: C17_22  and  N5_24 
REMARK    6  A    between atoms: N5_24  and  C18_26 
ROOT
HETATM    1  C10 UNL     1      -1.360  19.917  -3.710  1.00  0.00     0.096 C 
HETATM    2  C11 UNL     1      -1.393  19.219  -4.846  1.00  0.00     0.110 C 
HETATM    3  C12 UNL     1      -2.561  19.102  -5.673  1.00  0.00     0.089 C 
HETATM    4  N3  UNL     1      -3.499  19.012  -6.350  1.00  0.00    -0.192 NA
ENDROOT
BRANCH   1   5
HETATM    5  N2  UNL     1      -0.128  19.927  -3.019  1.00  0.00    -0.387 N 
HETATM    6  C9  UNL     1      -0.093  20.380  -1.641  1.00  0.00     0.158 C 
HETATM    7  C8  UNL     1       1.113  21.254  -1.461  1.00  0.00     0.246 C 
HETATM    8  C15 UNL     1       2.360  20.468  -1.810  1.00  0.00     0.040 C 
HETATM    9  C14 UNL     1       2.304  20.151  -3.262  1.00  0.00     0.028 C 
HETATM   10  C13 UNL     1       1.041  19.491  -3.735  1.00  0.00     0.122 C 
BRANCH   7  11
HETATM   11  N1  UNL     1       1.241  21.945  -0.247  1.00  0.00     0.096 N 
HETATM   12  C7  UNL     1       0.793  21.058   0.825  1.00  0.00     0.273 C 
HETATM   13  C6  UNL     1       0.445  22.003   1.967  1.00  0.00     0.031 C 
HETATM   14  C5  UNL     1       1.744  22.569   2.450  1.00  0.00     0.012 C 
HETATM   15  C3  UNL     1       2.692  23.029   1.415  1.00  0.00    -0.018 C 
HETATM   16  C4  UNL     1       4.110  22.709   1.918  1.00  0.00     0.017 C 
HETATM   17  C24 UNL     1       2.521  22.525   0.044  1.00  0.00     0.282 C 
BRANCH  15  18
HETATM   18  C2  UNL     1       2.632  24.564   1.393  1.00  0.00     0.006 C 
HETATM   19  C1  UNL     1       1.900  25.124   2.556  1.00  0.00     0.006 C 
ENDBRANCH  15  18
ENDBRANCH   7  11
BRANCH   8  20
HETATM   20  C16 UNL     1       2.521  19.237  -0.994  1.00  0.00     0.131 C 
BRANCH  20  21
HETATM   21  N4  UNL     1       3.897  19.132  -0.559  1.00  0.00    -0.342 N 
HETATM   22  C17 UNL     1       4.273  19.194   0.843  1.00  0.00     0.320 C 
HETATM   23  O1  UNL     1       3.298  19.343   1.619  1.00  0.00    -0.247 OA
HETATM   24  N5  UNL     1       5.611  19.091   1.231  1.00  0.00    -0.309 N 
ATOM     25  H5  UNL     1       6.280  18.973   0.470  1.00  0.00     0.170 HD
ATOM     26  H4  UNL     1       4.628  19.009  -1.260  1.00  0.00     0.164 HD
BRANCH  24  27
HETATM   27  C18 UNL     1       6.165  19.127   2.521  1.00  0.00     0.039 A 
HETATM   28  C19 UNL     1       7.403  19.751   2.672  1.00  0.00     0.053 A 
HETATM   29  C20 UNL     1       8.049  19.850   3.879  1.00  0.00     0.037 A 
HETATM   30 CL1  UNL     1       9.602  20.632   4.078  1.00  0.00    -0.084 Cl
HETATM   31  C21 UNL     1       7.443  19.303   4.993  1.00  0.00     0.048 A 
HETATM   32  C22 UNL     1       6.219  18.684   4.851  1.00  0.00     0.037 A 
HETATM   33 CL2  UNL     1       5.444  17.989   6.259  1.00  0.00    -0.084 Cl
HETATM   34  C23 UNL     1       5.567  18.589   3.617  1.00  0.00     0.053 A 
ENDBRANCH  24  27
ENDBRANCH  20  21
ENDBRANCH   8  20
ENDBRANCH   1   5
TORSDOF 6
ENDMDL
MODEL 2
REMARK VINA RESULT: -6.885822268      2.914      4.562
REMARK  6 active torsions:
REMARK  status: ('A' for Active; 'I' for Inactive)
REMARK    1  A    between atoms: C2_2  and  C3_3 
REMARK    2  A    between atoms: N1_8  and  C8_9 
REMARK    3  A    between atoms: N2_11  and  C10_12 
REMARK    4  A    between atoms: C15_18  and  C16_19 
REMARK    5  A    between atoms: C16_19  and  N4_20 
REMARK       I    between atoms: N4_20  and  C17_22 
REMARK       I    between atoms: C17_22  and  N5_24 
REMARK    6  A    between atoms: N5_24  and  C18_26 
ROOT
HETATM    1  C10 UNL     1       0.286  21.469  -0.530  1.00  0.00     0.096 C 
HETATM    2  C11 UNL     1       0.375  22.133  -1.684  1.00  0.00     0.110 C 
HETATM    3  C12 UNL     1      -0.524  21.934  -2.787  1.00  0.00     0.089 C 
HETATM    4  N3  UNL     1      -1.252  21.784  -3.677  1.00  0.00    -0.192 NA
ENDROOT
BRANCH   1   5
HETATM    5  N2  UNL     1       1.253  21.788   0.449  1.00  0.00    -0.387 N 
HETATM    6  C9  UNL     1       0.871  21.779   1.849  1.00  0.00     0.158 C 
HETATM    7  C8  UNL     1       1.477  22.981   2.512  1.00  0.00     0.246 C 
HETATM    8  C15 UNL     1       2.984  22.934   2.355  1.00  0.00     0.040 C 
HETATM    9  C14 UNL     1       3.293  23.072   0.908  1.00  0.00     0.028 C 
HETATM   10  C13 UNL     1       2.578  22.118  -0.005  1.00  0.00     0.122 C 
BRANCH   7  11
HETATM   11  N1  UNL     1       1.088  23.265   3.829  1.00  0.00     0.096 N 
HETATM   12  C7  UNL     1       0.371  24.539   3.821  1.00  0.00     0.273 C 
HETATM   13  C6  UNL     1       0.471  25.029   5.259  1.00  0.00     0.031 C 
HETATM   14  C5  UNL     1      -0.384  24.109   6.074  1.00  0.00     0.012 C 
HETATM   15  C3  UNL     1      -0.241  22.663   5.808  1.00  0.00    -0.018 C 
HETATM   16  C4  UNL     1      -1.633  22.028   5.966  1.00  0.00     0.017 C 
HETATM   17  C24 UNL     1       0.356  22.248   4.529  1.00  0.00     0.282 C 
BRANCH  15  18
HETATM   18  C2  UNL     1       0.584  22.068   6.959  1.00  0.00     0.006 C 
HETATM   19  C1  UNL     1       1.412  20.913   6.531  1.00  0.00     0.006 C 
ENDBRANCH  15  18
ENDBRANCH   7  11
BRANCH   8  20
HETATM   20  C16 UNL     1       3.591  21.703   2.923  1.00  0.00     0.131 C 
BRANCH  20  21
HETATM   21  N4  UNL     1       5.027  21.758   2.751  1.00  0.00    -0.342 N 
HETATM   22  C17 UNL     1       5.800  20.605   2.322  1.00  0.00     0.320 C 
HETATM   23  O1  UNL     1       5.105  19.581   2.117  1.00  0.00    -0.247 OA
HETATM   24  N5  UNL     1       7.187  20.690   2.168  1.00  0.00    -0.309 N 
ATOM     25  H5  UNL     1       7.596  21.600   2.377  1.00  0.00     0.170 HD
ATOM     26  H4  UNL     1       5.512  22.635   2.938  1.00  0.00     0.164 HD
BRANCH  24  27
HETATM   27  C18 UNL     1       8.095  19.698   1.766  1.00  0.00     0.039 A 
HETATM   28  C19 UNL     1       8.753  19.883   0.550  1.00  0.00     0.053 A 
HETATM   29  C20 UNL     1       9.662  18.986   0.046  1.00  0.00     0.037 A 
HETATM   30 CL1  UNL     1      10.492  19.211  -1.477  1.00  0.00    -0.084 Cl
HETATM   31  C21 UNL     1       9.933  17.848   0.779  1.00  0.00     0.048 A 
HETATM   32  C22 UNL     1       9.287  17.659   1.982  1.00  0.00     0.037 A 
HETATM   33 CL2  UNL     1       9.627  16.218   2.918  1.00  0.00    -0.084 Cl
HETATM   34  C23 UNL     1       8.363  18.578   2.489  1.00  0.00     0.053 A 
ENDBRANCH  24  27
ENDBRANCH  20  21
ENDBRANCH   8  20
ENDBRANCH   1   5
TORSDOF 6
ENDMDL
MODEL 3
REMARK VINA RESULT: -6.872236681      1.804      2.445
REMARK  6 active torsions:
REMARK  status: ('A' for Active; 'I' for Inactive)
REMARK    1  A    between atoms: C2_2  and  C3_3 
REMARK    2  A    between atoms: N1_8  and  C8_9 
REMARK    3  A    between atoms: N2_11  and  C10_12 
REMARK    4  A    between atoms: C15_18  and  C16_19 
REMARK    5  A    between atoms: C16_19  and  N4_20 
REMARK       I    between atoms: N4_20  and  C17_22 
REMARK       I    between atoms: C17_22  and  N5_24 
REMARK    6  A    between atoms: N5_24  and  C18_26 
ROOT
HETATM    1  C10 UNL     1      -2.312  20.807  -1.631  1.00  0.00     0.096 C 
HETATM    2  C11 UNL     1      -3.085  20.223  -0.715  1.00  0.00     0.110 C 
HETATM    3  C12 UNL     1      -4.519  20.299  -0.719  1.00  0.00     0.089 C 
HETATM    4  N3  UNL     1      -5.678  20.349  -0.724  1.00  0.00    -0.192 NA
ENDROOT
BRANCH   1   5
HETATM    5  N2  UNL     1      -0.919  20.631  -1.477  1.00  0.00    -0.387 N 
HETATM    6  C9  UNL     1      -0.310  20.909  -0.189  1.00  0.00     0.158 C 
HETATM    7  C8  UNL     1       0.972  21.652  -0.424  1.00  0.00     0.246 C 
HETATM    8  C15 UNL     1       1.888  20.812  -1.292  1.00  0.00     0.040 C 
HETATM    9  C14 UNL     1       1.247  20.679  -2.628  1.00  0.00     0.028 C 
HETATM   10  C13 UNL     1      -0.171  20.188  -2.623  1.00  0.00     0.122 C 
BRANCH   7  11
HETATM   11  N1  UNL     1       1.635  22.177   0.695  1.00  0.00     0.096 N 
HETATM   12  C7  UNL     1       2.192  23.475   0.318  1.00  0.00     0.273 C 
HETATM   13  C6  UNL     1       3.304  23.710   1.333  1.00  0.00     0.031 C 
HETATM   14  C5  UNL     1       2.626  23.946   2.647  1.00  0.00     0.012 C 
HETATM   15  C3  UNL     1       1.528  23.023   3.001  1.00  0.00    -0.018 C 
HETATM   16  C4  UNL     1       0.467  23.842   3.755  1.00  0.00     0.017 C 
HETATM   17  C24 UNL     1       0.892  22.253   1.920  1.00  0.00     0.282 C 
BRANCH  15  18
HETATM   18  C2  UNL     1       2.076  22.046   4.052  1.00  0.00     0.006 C 
HETATM   19  C1  UNL     1       1.314  22.090   5.325  1.00  0.00     0.006 C 
ENDBRANCH  15  18
ENDBRANCH   7  11
BRANCH   8  20
HETATM   20  C16 UNL     1       2.192  19.483  -0.705  1.00  0.00     0.131 C 
BRANCH  20  21
HETATM   21  N4  UNL     1       3.591  19.435  -0.336  1.00  0.00    -0.342 N 
HETATM   22  C17 UNL     1       4.026  19.411   1.050  1.00  0.00     0.320 C 
HETATM   23  O1  UNL     1       3.081  19.433   1.875  1.00  0.00    -0.247 OA
HETATM   24  N5  UNL     1       5.385  19.367   1.373  1.00  0.00    -0.309 N 
ATOM     25  H5  UNL     1       6.024  19.354   0.578  1.00  0.00     0.170 HD
ATOM     26  H4  UNL     1       4.294  19.417  -1.074  1.00  0.00     0.164 HD
BRANCH  24  27
HETATM   27  C18 UNL     1       5.994  19.337   2.638  1.00  0.00     0.039 A 
HETATM   28  C19 UNL     1       7.270  19.889   2.750  1.00  0.00     0.053 A 
HETATM   29  C20 UNL     1       7.972  19.919   3.929  1.00  0.00     0.037 A 
HETATM   30 CL1  UNL     1       9.573  20.610   4.079  1.00  0.00    -0.084 Cl
HETATM   31  C21 UNL     1       7.385  19.376   5.055  1.00  0.00     0.048 A 
HETATM   32  C22 UNL     1       6.123  18.829   4.951  1.00  0.00     0.037 A 
HETATM   33 CL2  UNL     1       5.371  18.139   6.374  1.00  0.00    -0.084 Cl
HETATM   34  C23 UNL     1       5.414  18.803   3.745  1.00  0.00     0.053 A 
ENDBRANCH  24  27
ENDBRANCH  20  21
ENDBRANCH   8  20
ENDBRANCH   1   5
TORSDOF 6
ENDMDL
MODEL 4
REMARK VINA RESULT: -6.754361713      4.474      9.135
REMARK  6 active torsions:
REMARK  status: ('A' for Active; 'I' for Inactive)
REMARK    1  A    between atoms: C2_2  and  C3_3 
REMARK    2  A    between atoms: N1_8  and  C8_9 
REMARK    3  A    between atoms: N2_11  and  C10_12 
REMARK    4  A    between atoms: C15_18  and  C16_19 
REMARK    5  A    between atoms: C16_19  and  N4_20 
REMARK       I    between atoms: N4_20  and  C17_22 
REMARK       I    between atoms: C17_22  and  N5_24 
REMARK    6  A    between atoms: N5_24  and  C18_26 
ROOT
HETATM    1  C10 UNL     1       1.356  19.966   5.863  1.00  0.00     0.096 C 
HETATM    2  C11 UNL     1       1.786  20.259   7.092  1.00  0.00     0.110 C 
HETATM    3  C12 UNL     1       0.994  20.079   8.275  1.00  0.00     0.089 C 
HETATM    4  N3  UNL     1       0.361  19.927   9.236  1.00  0.00    -0.192 NA
ENDROOT
BRANCH   1   5
HETATM    5  N2  UNL     1       2.267  20.205   4.810  1.00  0.00    -0.387 N 
HETATM    6  C9  UNL     1       3.352  19.267   4.586  1.00  0.00     0.158 C 
HETATM    7  C8  UNL     1       4.601  20.049   4.307  1.00  0.00     0.246 C 
HETATM    8  C15 UNL     1       4.381  20.931   3.094  1.00  0.00     0.040 C 
HETATM    9  C14 UNL     1       3.346  21.938   3.449  1.00  0.00     0.028 C 
HETATM   10  C13 UNL     1       2.069  21.387   4.013  1.00  0.00     0.122 C 
BRANCH   7  11
HETATM   11  N1  UNL     1       5.811  19.342   4.238  1.00  0.00     0.096 N 
HETATM   12  C7  UNL     1       6.885  20.251   4.633  1.00  0.00     0.273 C 
HETATM   13  C6  UNL     1       8.137  19.629   4.028  1.00  0.00     0.031 C 
HETATM   14  C5  UNL     1       8.392  18.371   4.798  1.00  0.00     0.012 C 
HETATM   15  C3  UNL     1       7.224  17.503   5.054  1.00  0.00    -0.018 C 
HETATM   16  C4  UNL     1       7.412  16.882   6.449  1.00  0.00     0.017 C 
HETATM   17  C24 UNL     1       5.882  18.096   4.947  1.00  0.00     0.282 C 
BRANCH  15  18
HETATM   18  C2  UNL     1       7.321  16.312   4.088  1.00  0.00     0.006 C 
HETATM   19  C1  UNL     1       8.696  15.762   3.998  1.00  0.00     0.006 C 
ENDBRANCH  15  18
ENDBRANCH   7  11
BRANCH   8  20
HETATM   20  C16 UNL     1       3.999  20.168   1.879  1.00  0.00     0.131 C 
BRANCH  20  21
HETATM   21  N4  UNL     1       3.647  21.094   0.826  1.00  0.00    -0.342 N 
HETATM   22  C17 UNL     1       2.538  20.851  -0.081  1.00  0.00     0.320 C 
HETATM   23  O1  UNL     1       1.930  19.777   0.145  1.00  0.00    -0.247 OA
HETATM   24  N5  UNL     1       2.225  21.766  -1.091  1.00  0.00    -0.309 N 
ATOM     25  H5  UNL     1       2.822  22.591  -1.136  1.00  0.00     0.170 HD
ATOM     26  H4  UNL     1       4.196  21.947   0.715  1.00  0.00     0.164 HD
BRANCH  24  27
HETATM   27  C18 UNL     1       1.203  21.708  -2.052  1.00  0.00     0.039 A 
HETATM   28  C19 UNL     1       1.535  21.219  -3.315  1.00  0.00     0.053 A 
HETATM   29  C20 UNL     1       0.628  21.114  -4.340  1.00  0.00     0.037 A 
HETATM   30 CL1  UNL     1       1.036  20.500  -5.927  1.00  0.00    -0.084 Cl
HETATM   31  C21 UNL     1      -0.673  21.515  -4.106  1.00  0.00     0.048 A 
HETATM   32  C22 UNL     1      -1.008  21.999  -2.860  1.00  0.00     0.037 A 
HETATM   33 CL2  UNL     1      -2.656  22.508  -2.555  1.00  0.00    -0.084 Cl
HETATM   34  C23 UNL     1      -0.078  22.101  -1.820  1.00  0.00     0.053 A 
ENDBRANCH  24  27
ENDBRANCH  20  21
ENDBRANCH   8  20
ENDBRANCH   1   5
TORSDOF 6
ENDMDL
MODEL 5
REMARK VINA RESULT: -6.698799969      4.493      9.243
REMARK  6 active torsions:
REMARK  status: ('A' for Active; 'I' for Inactive)
REMARK    1  A    between atoms: C2_2  and  C3_3 
REMARK    2  A    between atoms: N1_8  and  C8_9 
REMARK    3  A    between atoms: N2_11  and  C10_12 
REMARK    4  A    between atoms: C15_18  and  C16_19 
REMARK    5  A    between atoms: C16_19  and  N4_20 
REMARK       I    between atoms: N4_20  and  C17_22 
REMARK       I    between atoms: C17_22  and  N5_24 
REMARK    6  A    between atoms: N5_24  and  C18_26 
ROOT
HETATM    1  C10 UNL     1       1.285  20.122   5.924  1.00  0.00     0.096 C 
HETATM    2  C11 UNL     1       1.768  20.312   7.153  1.00  0.00     0.110 C 
HETATM    3  C12 UNL     1       0.968  20.231   8.343  1.00  0.00     0.089 C 
HETATM    4  N3  UNL     1       0.328  20.157   9.308  1.00  0.00    -0.192 NA
ENDROOT
BRANCH   1   5
HETATM    5  N2  UNL     1       2.212  20.240   4.865  1.00  0.00    -0.387 N 
HETATM    6  C9  UNL     1       3.205  19.199   4.675  1.00  0.00     0.158 C 
HETATM    7  C8  UNL     1       4.521  19.851   4.371  1.00  0.00     0.246 C 
HETATM    8  C15 UNL     1       4.382  20.708   3.128  1.00  0.00     0.040 C 
HETATM    9  C14 UNL     1       3.445  21.818   3.447  1.00  0.00     0.028 C 
HETATM   10  C13 UNL     1       2.123  21.407   4.028  1.00  0.00     0.122 C 
BRANCH   7  11
HETATM   11  N1  UNL     1       5.660  19.033   4.328  1.00  0.00     0.096 N 
HETATM   12  C7  UNL     1       6.824  19.869   4.613  1.00  0.00     0.273 C 
HETATM   13  C6  UNL     1       7.993  19.088   4.028  1.00  0.00     0.031 C 
HETATM   14  C5  UNL     1       8.163  17.879   4.894  1.00  0.00     0.012 C 
HETATM   15  C3  UNL     1       6.932  17.146   5.256  1.00  0.00    -0.018 C 
HETATM   16  C4  UNL     1       7.114  16.627   6.693  1.00  0.00     0.017 C 
HETATM   17  C24 UNL     1       5.645  17.849   5.137  1.00  0.00     0.282 C 
BRANCH  15  18
HETATM   18  C2  UNL     1       6.888  15.876   4.393  1.00  0.00     0.006 C 
HETATM   19  C1  UNL     1       8.087  15.020   4.575  1.00  0.00     0.006 C 
ENDBRANCH  15  18
ENDBRANCH   7  11
BRANCH   8  20
HETATM   20  C16 UNL     1       3.929  19.943   1.940  1.00  0.00     0.131 C 
BRANCH  20  21
HETATM   21  N4  UNL     1       3.652  20.863   0.858  1.00  0.00    -0.342 N 
HETATM   22  C17 UNL     1       2.620  20.606  -0.132  1.00  0.00     0.320 C 
HETATM   23  O1  UNL     1       2.006  19.527   0.049  1.00  0.00    -0.247 OA
HETATM   24  N5  UNL     1       2.379  21.514  -1.167  1.00  0.00    -0.309 N 
ATOM     25  H5  UNL     1       2.971  22.345  -1.168  1.00  0.00     0.170 HD
ATOM     26  H4  UNL     1       4.200  21.720   0.788  1.00  0.00     0.164 HD
BRANCH  24  27
HETATM   27  C18 UNL     1       1.437  21.443  -2.206  1.00  0.00     0.039 A 
HETATM   28  C19 UNL     1       0.154  21.924  -1.943  1.00  0.00     0.053 A 
HETATM   29  C20 UNL     1      -0.856  21.910  -2.872  1.00  0.00     0.037 A 
HETATM   30 CL1  UNL     1      -2.467  22.512  -2.552  1.00  0.00    -0.084 Cl
HETATM   31  C21 UNL     1      -0.587  21.391  -4.124  1.00  0.00     0.048 A 
HETATM   32  C22 UNL     1       0.679  20.914  -4.390  1.00  0.00     0.037 A 
HETATM   33 CL2  UNL     1       1.029  20.257  -5.975  1.00  0.00    -0.084 Cl
HETATM   34  C23 UNL     1       1.703  20.934  -3.437  1.00  0.00     0.053 A 
ENDBRANCH  24  27
ENDBRANCH  20  21
ENDBRANCH   8  20
ENDBRANCH   1   5
TORSDOF 6
ENDMDL
