MODEL 1
REMARK VINA RESULT: -7.316540250      0.000      0.000
REMARK  8 active torsions:
REMARK  status: ('A' for Active; 'I' for Inactive)
REMARK    1  A    between atoms: C2_2  and  C5_5 
REMARK       I    between atoms: C5_5  and  N1_7 
REMARK    2  A    between atoms: N1_7  and  C6_9 
REMARK    3  A    between atoms: C6_9  and  C7_10 
REMARK    4  A    between atoms: C7_10  and  C8_11 
REMARK    5  A    between atoms: C8_11  and  N2_12 
REMARK    6  A    between atoms: N2_12  and  C9_14 
REMARK    7  A    between atoms: C11_16  and  C12_17 
REMARK    8  A    between atoms: C20_28  and  C21_29 
ROOT
HETATM    1  C9  UNL     1       0.398  22.145  -1.992  1.00  0.00     0.042 A 
HETATM    2  C10 UNL     1       1.353  22.205  -1.002  1.00  0.00     0.055 A 
HETATM    3  C11 UNL     1       1.100  21.599   0.204  1.00  0.00     0.017 A 
HETATM    4  N3  UNL     1      -0.074  20.942   0.438  1.00  0.00    -0.358 N 
ATOM      5  H3  UNL     1      -0.246  20.496   1.340  1.00  0.00     0.166 HD
HETATM    6  C18 UNL     1      -0.998  20.890  -0.533  1.00  0.00     0.045 A 
HETATM    7  C19 UNL     1      -2.197  20.228  -0.318  1.00  0.00     0.042 A 
HETATM    8  C20 UNL     1      -3.186  20.142  -1.283  1.00  0.00    -0.002 A 
HETATM    9  C24 UNL     1      -2.954  20.744  -2.502  1.00  0.00     0.013 A 
HETATM   10  C25 UNL     1      -1.762  21.419  -2.764  1.00  0.00     0.017 A 
HETATM   11  C26 UNL     1      -0.813  21.473  -1.765  1.00  0.00     0.017 A 
ENDROOT
BRANCH   1  12
HETATM   12  N2  UNL     1       0.627  22.703  -3.110  1.00  0.00    -0.389 N 
ATOM     13  H2  UNL     1       0.111  23.544  -3.365  1.00  0.00     0.159 HD
BRANCH  12  14
HETATM   14  C8  UNL     1       1.595  22.174  -4.016  1.00  0.00     0.121 C 
BRANCH  14  15
HETATM   15  C7  UNL     1       0.954  21.787  -5.348  1.00  0.00     0.039 C 
BRANCH  15  16
HETATM   16  C6  UNL     1       0.989  20.297  -5.496  1.00  0.00     0.124 C 
BRANCH  16  17
HETATM   17  N1  UNL     1      -0.294  19.678  -5.330  1.00  0.00    -0.360 N 
HETATM   18  C5  UNL     1      -0.508  18.290  -5.514  1.00  0.00     0.225 C 
HETATM   19  O1  UNL     1       0.403  17.475  -5.838  1.00  0.00    -0.273 OA
ATOM     20  H1  UNL     1      -1.087  20.263  -5.069  1.00  0.00     0.162 HD
BRANCH  18  21
HETATM   21  C2  UNL     1      -1.868  17.736  -5.322  1.00  0.00     0.030 C 
HETATM   22  C1  UNL     1      -2.945  18.706  -5.726  1.00  0.00     0.024 C 
HETATM   23  C3  UNL     1      -2.047  17.469  -3.824  1.00  0.00     0.024 C 
HETATM   24  C4  UNL     1      -2.058  16.429  -6.025  1.00  0.00     0.024 C 
ENDBRANCH  18  21
ENDBRANCH  16  17
ENDBRANCH  15  16
ENDBRANCH  14  15
ENDBRANCH  12  14
ENDBRANCH   1  12
BRANCH   3  25
HETATM   25  C12 UNL     1       2.080  21.628   1.289  1.00  0.00     0.054 C 
HETATM   26  C13 UNL     1       1.439  22.102   2.576  1.00  0.00     0.012 C 
HETATM   27  C14 UNL     1       2.484  22.032   3.664  1.00  0.00     0.001 C 
HETATM   28  C15 UNL     1       3.751  21.355   3.198  1.00  0.00     0.002 C 
HETATM   29  C16 UNL     1       4.356  22.038   2.001  1.00  0.00     0.021 C 
HETATM   30  C17 UNL     1       3.269  22.524   1.040  1.00  0.00     0.092 C 
HETATM   31 CL1  UNL     1       2.952  24.215   1.474  1.00  0.00    -0.124 Cl
ENDBRANCH   3  25
BRANCH   8  32
HETATM   32  C21 UNL     1      -4.454  19.417  -0.990  1.00  0.00     0.294 C 
HETATM   33  O2  UNL     1      -5.552  20.244  -0.976  1.00  0.00    -0.355 OA
HETATM   34  C22 UNL     1      -6.506  19.508  -0.271  1.00  0.00     0.197 C 
HETATM   35  C23 UNL     1      -5.656  18.900   0.825  1.00  0.00     0.197 C 
HETATM   36  O3  UNL     1      -4.426  18.777   0.224  1.00  0.00    -0.355 OA
ENDBRANCH   8  32
TORSDOF 8
ENDMDL
MODEL 2
REMARK VINA RESULT: -7.136380960      1.254      1.690
REMARK  8 active torsions:
REMARK  status: ('A' for Active; 'I' for Inactive)
REMARK    1  A    between atoms: C2_2  and  C5_5 
REMARK       I    between atoms: C5_5  and  N1_7 
REMARK    2  A    between atoms: N1_7  and  C6_9 
REMARK    3  A    between atoms: C6_9  and  C7_10 
REMARK    4  A    between atoms: C7_10  and  C8_11 
REMARK    5  A    between atoms: C8_11  and  N2_12 
REMARK    6  A    between atoms: N2_12  and  C9_14 
REMARK    7  A    between atoms: C11_16  and  C12_17 
REMARK    8  A    between atoms: C20_28  and  C21_29 
ROOT
HETATM    1  C9  UNL     1       0.433  22.112  -2.025  1.00  0.00     0.042 A 
HETATM    2  C10 UNL     1       1.377  22.199  -1.026  1.00  0.00     0.055 A 
HETATM    3  C11 UNL     1       1.105  21.634   0.196  1.00  0.00     0.017 A 
HETATM    4  N3  UNL     1      -0.075  20.993   0.439  1.00  0.00    -0.358 N 
ATOM      5  H3  UNL     1      -0.261  20.578   1.352  1.00  0.00     0.166 HD
HETATM    6  C18 UNL     1      -0.988  20.914  -0.541  1.00  0.00     0.045 A 
HETATM    7  C19 UNL     1      -2.194  20.268  -0.319  1.00  0.00     0.042 A 
HETATM    8  C20 UNL     1      -3.173  20.156  -1.292  1.00  0.00    -0.002 A 
HETATM    9  C24 UNL     1      -2.922  20.715  -2.527  1.00  0.00     0.013 A 
HETATM   10  C25 UNL     1      -1.723  21.375  -2.798  1.00  0.00     0.017 A 
HETATM   11  C26 UNL     1      -0.786  21.455  -1.789  1.00  0.00     0.017 A 
ENDROOT
BRANCH   1  12
HETATM   12  N2  UNL     1       0.679  22.631  -3.157  1.00  0.00    -0.389 N 
ATOM     13  H2  UNL     1       0.226  23.508  -3.415  1.00  0.00     0.159 HD
BRANCH  12  14
HETATM   14  C8  UNL     1       1.577  22.010  -4.076  1.00  0.00     0.121 C 
BRANCH  14  15
HETATM   15  C7  UNL     1       0.899  21.742  -5.419  1.00  0.00     0.039 C 
BRANCH  15  16
HETATM   16  C6  UNL     1       0.668  20.270  -5.568  1.00  0.00     0.124 C 
BRANCH  16  17
HETATM   17  N1  UNL     1       1.016  19.519  -4.396  1.00  0.00    -0.360 N 
HETATM   18  C5  UNL     1       0.181  18.511  -3.854  1.00  0.00     0.225 C 
HETATM   19  O1  UNL     1      -0.936  18.182  -4.348  1.00  0.00    -0.273 OA
ATOM     20  H1  UNL     1       1.901  19.720  -3.933  1.00  0.00     0.162 HD
BRANCH  18  21
HETATM   21  C2  UNL     1       0.619  17.785  -2.640  1.00  0.00     0.030 C 
HETATM   22  C1  UNL     1       1.636  18.558  -1.844  1.00  0.00     0.024 C 
HETATM   23  C3  UNL     1       1.302  16.493  -3.100  1.00  0.00     0.024 C 
HETATM   24  C4  UNL     1      -0.528  17.387  -1.766  1.00  0.00     0.024 C 
ENDBRANCH  18  21
ENDBRANCH  16  17
ENDBRANCH  15  16
ENDBRANCH  14  15
ENDBRANCH  12  14
ENDBRANCH   1  12
BRANCH   3  25
HETATM   25  C12 UNL     1       2.073  21.693   1.291  1.00  0.00     0.054 C 
HETATM   26  C13 UNL     1       1.419  22.208   2.557  1.00  0.00     0.012 C 
HETATM   27  C14 UNL     1       2.450  22.168   3.658  1.00  0.00     0.001 C 
HETATM   28  C15 UNL     1       3.721  21.473   3.227  1.00  0.00     0.002 C 
HETATM   29  C16 UNL     1       4.342  22.117   2.018  1.00  0.00     0.021 C 
HETATM   30  C17 UNL     1       3.269  22.577   1.030  1.00  0.00     0.092 C 
HETATM   31 CL1  UNL     1       2.952  24.282   1.408  1.00  0.00    -0.124 Cl
ENDBRANCH   3  25
BRANCH   8  32
HETATM   32  C21 UNL     1      -4.448  19.449  -0.990  1.00  0.00     0.294 C 
HETATM   33  O2  UNL     1      -5.539  20.285  -1.002  1.00  0.00    -0.355 OA
HETATM   34  C22 UNL     1      -6.503  19.573  -0.286  1.00  0.00     0.197 C 
HETATM   35  C23 UNL     1      -5.666  18.983   0.829  1.00  0.00     0.197 C 
HETATM   36  O3  UNL     1      -4.433  18.836   0.238  1.00  0.00    -0.355 OA
ENDBRANCH   8  32
TORSDOF 8
ENDMDL
MODEL 3
REMARK VINA RESULT: -6.855159850      3.359      5.862
REMARK  8 active torsions:
REMARK  status: ('A' for Active; 'I' for Inactive)
REMARK    1  A    between atoms: C2_2  and  C5_5 
REMARK       I    between atoms: C5_5  and  N1_7 
REMARK    2  A    between atoms: N1_7  and  C6_9 
REMARK    3  A    between atoms: C6_9  and  C7_10 
REMARK    4  A    between atoms: C7_10  and  C8_11 
REMARK    5  A    between atoms: C8_11  and  N2_12 
REMARK    6  A    between atoms: N2_12  and  C9_14 
REMARK    7  A    between atoms: C11_16  and  C12_17 
REMARK    8  A    between atoms: C20_28  and  C21_29 
ROOT
HETATM    1  C9  UNL     1      -0.377  19.783  -0.151  1.00  0.00     0.042 A 
HETATM    2  C10 UNL     1      -0.094  20.998   0.431  1.00  0.00     0.055 A 
HETATM    3  C11 UNL     1       1.213  21.413   0.500  1.00  0.00     0.017 A 
HETATM    4  N3  UNL     1       2.231  20.650   0.005  1.00  0.00    -0.358 N 
ATOM      5  H3  UNL     1       3.196  20.973   0.064  1.00  0.00     0.166 HD
HETATM    6  C18 UNL     1       1.944  19.467  -0.560  1.00  0.00     0.045 A 
HETATM    7  C19 UNL     1       2.960  18.675  -1.070  1.00  0.00     0.042 A 
HETATM    8  C20 UNL     1       2.724  17.447  -1.664  1.00  0.00    -0.002 A 
HETATM    9  C24 UNL     1       1.419  17.009  -1.744  1.00  0.00     0.013 A 
HETATM   10  C25 UNL     1       0.363  17.772  -1.246  1.00  0.00     0.017 A 
HETATM   11  C26 UNL     1       0.659  18.987  -0.665  1.00  0.00     0.017 A 
ENDROOT
BRANCH   1  12
HETATM   12  N2  UNL     1      -1.584  19.394  -0.219  1.00  0.00    -0.389 N 
ATOM     13  H2  UNL     1      -1.800  18.406  -0.085  1.00  0.00     0.159 HD
BRANCH  12  14
HETATM   14  C8  UNL     1      -2.644  20.313  -0.479  1.00  0.00     0.121 C 
BRANCH  14  15
HETATM   15  C7  UNL     1      -3.225  20.108  -1.878  1.00  0.00     0.039 C 
BRANCH  15  16
HETATM   16  C6  UNL     1      -2.684  21.161  -2.795  1.00  0.00     0.124 C 
BRANCH  16  17
HETATM   17  N1  UNL     1      -1.451  20.787  -3.424  1.00  0.00    -0.360 N 
HETATM   18  C5  UNL     1      -0.303  21.617  -3.420  1.00  0.00     0.225 C 
HETATM   19  O1  UNL     1      -0.259  22.753  -2.866  1.00  0.00    -0.273 OA
ATOM     20  H1  UNL     1      -1.398  19.885  -3.895  1.00  0.00     0.162 HD
BRANCH  18  21
HETATM   21  C2  UNL     1       0.929  21.151  -4.096  1.00  0.00     0.030 C 
HETATM   22  C1  UNL     1       2.178  21.639  -3.410  1.00  0.00     0.024 C 
HETATM   23  C3  UNL     1       0.933  21.750  -5.506  1.00  0.00     0.024 C 
HETATM   24  C4  UNL     1       0.971  19.664  -4.250  1.00  0.00     0.024 C 
ENDBRANCH  18  21
ENDBRANCH  16  17
ENDBRANCH  15  16
ENDBRANCH  14  15
ENDBRANCH  12  14
ENDBRANCH   1  12
BRANCH   3  25
HETATM   25  C12 UNL     1       1.571  22.696   1.105  1.00  0.00     0.054 C 
HETATM   26  C13 UNL     1       3.000  23.067   0.768  1.00  0.00     0.012 C 
HETATM   27  C14 UNL     1       3.272  24.430   1.355  1.00  0.00     0.001 C 
HETATM   28  C15 UNL     1       2.025  25.072   1.917  1.00  0.00     0.002 C 
HETATM   29  C16 UNL     1       1.372  24.223   2.972  1.00  0.00     0.021 C 
HETATM   30  C17 UNL     1       1.454  22.738   2.610  1.00  0.00     0.092 C 
HETATM   31 CL1  UNL     1       2.902  22.114   3.424  1.00  0.00    -0.124 Cl
ENDBRANCH   3  25
BRANCH   8  32
HETATM   32  C21 UNL     1       3.860  16.642  -2.192  1.00  0.00     0.294 C 
HETATM   33  O2  UNL     1       4.609  16.056  -1.199  1.00  0.00    -0.355 OA
HETATM   34  C22 UNL     1       5.814  15.754  -1.834  1.00  0.00     0.197 C 
HETATM   35  C23 UNL     1       6.015  16.988  -2.688  1.00  0.00     0.197 C 
HETATM   36  O3  UNL     1       4.726  17.388  -2.952  1.00  0.00    -0.355 OA
ENDBRANCH   8  32
TORSDOF 8
ENDMDL
MODEL 4
REMARK VINA RESULT: -6.803502638      4.404      8.634
REMARK  8 active torsions:
REMARK  status: ('A' for Active; 'I' for Inactive)
REMARK    1  A    between atoms: C2_2  and  C5_5 
REMARK       I    between atoms: C5_5  and  N1_7 
REMARK    2  A    between atoms: N1_7  and  C6_9 
REMARK    3  A    between atoms: C6_9  and  C7_10 
REMARK    4  A    between atoms: C7_10  and  C8_11 
REMARK    5  A    between atoms: C8_11  and  N2_12 
REMARK    6  A    between atoms: N2_12  and  C9_14 
REMARK    7  A    between atoms: C11_16  and  C12_17 
REMARK    8  A    between atoms: C20_28  and  C21_29 
ROOT
HETATM    1  C9  UNL     1       3.211  22.620   0.804  1.00  0.00     0.042 A 
HETATM    2  C10 UNL     1       2.558  22.345  -0.376  1.00  0.00     0.055 A 
HETATM    3  C11 UNL     1       2.491  21.044  -0.811  1.00  0.00     0.017 A 
HETATM    4  N3  UNL     1       3.056  20.025  -0.100  1.00  0.00    -0.358 N 
ATOM      5  H3  UNL     1       2.997  19.064  -0.436  1.00  0.00     0.166 HD
HETATM    6  C18 UNL     1       3.690  20.304   1.049  1.00  0.00     0.045 A 
HETATM    7  C19 UNL     1       4.272  19.286   1.788  1.00  0.00     0.042 A 
HETATM    8  C20 UNL     1       4.939  19.515   2.980  1.00  0.00    -0.002 A 
HETATM    9  C24 UNL     1       5.018  20.814   3.436  1.00  0.00     0.013 A 
HETATM   10  C25 UNL     1       4.448  21.871   2.727  1.00  0.00     0.017 A 
HETATM   11  C26 UNL     1       3.797  21.582   1.546  1.00  0.00     0.017 A 
ENDROOT
BRANCH   1  12
HETATM   12  N2  UNL     1       3.275  23.821   1.212  1.00  0.00    -0.389 N 
ATOM     13  H2  UNL     1       4.186  24.231   1.422  1.00  0.00     0.159 HD
BRANCH  12  14
HETATM   14  C8  UNL     1       2.097  24.609   1.381  1.00  0.00     0.121 C 
BRANCH  14  15
HETATM   15  C7  UNL     1       2.115  25.353   2.716  1.00  0.00     0.039 C 
BRANCH  15  16
HETATM   16  C6  UNL     1       1.050  24.792   3.606  1.00  0.00     0.124 C 
BRANCH  16  17
HETATM   17  N1  UNL     1       0.680  23.447   3.271  1.00  0.00    -0.360 N 
HETATM   18  C5  UNL     1       0.900  22.350   4.141  1.00  0.00     0.225 C 
HETATM   19  O1  UNL     1       1.436  22.454   5.282  1.00  0.00    -0.273 OA
ATOM     20  H1  UNL     1       0.241  23.272   2.368  1.00  0.00     0.162 HD
BRANCH  18  21
HETATM   21  C2  UNL     1       0.487  20.994   3.714  1.00  0.00     0.030 C 
HETATM   22  C1  UNL     1       0.246  20.908   2.231  1.00  0.00     0.024 C 
HETATM   23  C3  UNL     1      -0.847  20.683   4.401  1.00  0.00     0.024 C 
HETATM   24  C4  UNL     1       1.456  19.939   4.144  1.00  0.00     0.024 C 
ENDBRANCH  18  21
ENDBRANCH  16  17
ENDBRANCH  15  16
ENDBRANCH  14  15
ENDBRANCH  12  14
ENDBRANCH   1  12
BRANCH   3  25
HETATM   25  C12 UNL     1       1.807  20.694  -2.055  1.00  0.00     0.054 C 
HETATM   26  C13 UNL     1       2.040  21.754  -3.111  1.00  0.00     0.012 C 
HETATM   27  C14 UNL     1       1.374  21.291  -4.384  1.00  0.00     0.001 C 
HETATM   28  C15 UNL     1       0.860  19.874  -4.279  1.00  0.00     0.002 C 
HETATM   29  C16 UNL     1      -0.114  19.703  -3.145  1.00  0.00     0.021 C 
HETATM   30  C17 UNL     1       0.311  20.528  -1.928  1.00  0.00     0.092 C 
HETATM   31 CL1  UNL     1      -0.558  22.070  -2.052  1.00  0.00    -0.124 Cl
ENDBRANCH   3  25
BRANCH   8  32
HETATM   32  C21 UNL     1       5.543  18.377   3.728  1.00  0.00     0.294 C 
HETATM   33  O2  UNL     1       5.322  18.451   5.083  1.00  0.00    -0.355 OA
HETATM   34  C22 UNL     1       6.297  17.607   5.618  1.00  0.00     0.197 C 
HETATM   35  C23 UNL     1       7.488  17.941   4.745  1.00  0.00     0.197 C 
HETATM   36  O3  UNL     1       6.901  18.293   3.552  1.00  0.00    -0.355 OA
ENDBRANCH   8  32
TORSDOF 8
ENDMDL
MODEL 5
REMARK VINA RESULT: -6.765594109      3.616      7.025
REMARK  8 active torsions:
REMARK  status: ('A' for Active; 'I' for Inactive)
REMARK    1  A    between atoms: C2_2  and  C5_5 
REMARK       I    between atoms: C5_5  and  N1_7 
REMARK    2  A    between atoms: N1_7  and  C6_9 
REMARK    3  A    between atoms: C6_9  and  C7_10 
REMARK    4  A    between atoms: C7_10  and  C8_11 
REMARK    5  A    between atoms: C8_11  and  N2_12 
REMARK    6  A    between atoms: N2_12  and  C9_14 
REMARK    7  A    between atoms: C11_16  and  C12_17 
REMARK    8  A    between atoms: C20_28  and  C21_29 
ROOT
HETATM    1  C9  UNL     1       2.886  22.788   0.738  1.00  0.00     0.042 A 
HETATM    2  C10 UNL     1       3.712  22.267   1.708  1.00  0.00     0.055 A 
HETATM    3  C11 UNL     1       3.983  20.921   1.698  1.00  0.00     0.017 A 
HETATM    4  N3  UNL     1       3.452  20.095   0.750  1.00  0.00    -0.358 N 
ATOM      5  H3  UNL     1       3.664  19.097   0.756  1.00  0.00     0.166 HD
HETATM    6  C18 UNL     1       2.648  20.613  -0.191  1.00  0.00     0.045 A 
HETATM    7  C19 UNL     1       2.098  19.793  -1.164  1.00  0.00     0.042 A 
HETATM    8  C20 UNL     1       1.262  20.271  -2.159  1.00  0.00    -0.002 A 
HETATM    9  C24 UNL     1       0.976  21.621  -2.168  1.00  0.00     0.013 A 
HETATM   10  C25 UNL     1       1.507  22.484  -1.210  1.00  0.00     0.017 A 
HETATM   11  C26 UNL     1       2.333  21.950  -0.243  1.00  0.00     0.017 A 
ENDROOT
BRANCH   1  12
HETATM   12  N2  UNL     1       2.632  24.033   0.742  1.00  0.00    -0.389 N 
ATOM     13  H2  UNL     1       2.244  24.467  -0.095  1.00  0.00     0.159 HD
BRANCH  12  14
HETATM   14  C8  UNL     1       2.880  24.834   1.896  1.00  0.00     0.121 C 
BRANCH  14  15
HETATM   15  C7  UNL     1       1.617  25.570   2.342  1.00  0.00     0.039 C 
BRANCH  15  16
HETATM   16  C6  UNL     1       1.110  24.954   3.609  1.00  0.00     0.124 C 
BRANCH  16  17
HETATM   17  N1  UNL     1       0.903  23.538   3.509  1.00  0.00    -0.360 N 
HETATM   18  C5  UNL     1       0.861  22.685   4.639  1.00  0.00     0.225 C 
HETATM   19  O1  UNL     1       1.001  23.089   5.830  1.00  0.00    -0.273 OA
ATOM     20  H1  UNL     1       0.781  23.128   2.584  1.00  0.00     0.162 HD
BRANCH  18  21
HETATM   21  C2  UNL     1       0.643  21.234   4.444  1.00  0.00     0.030 C 
HETATM   22  C1  UNL     1       1.848  20.416   4.825  1.00  0.00     0.024 C 
HETATM   23  C3  UNL     1       0.404  21.004   2.948  1.00  0.00     0.024 C 
HETATM   24  C4  UNL     1      -0.570  20.735   5.163  1.00  0.00     0.024 C 
ENDBRANCH  18  21
ENDBRANCH  16  17
ENDBRANCH  15  16
ENDBRANCH  14  15
ENDBRANCH  12  14
ENDBRANCH   1  12
BRANCH   3  25
HETATM   25  C12 UNL     1       4.857  20.315   2.702  1.00  0.00     0.054 C 
HETATM   26  C13 UNL     1       6.083  21.173   2.933  1.00  0.00     0.012 C 
HETATM   27  C14 UNL     1       6.894  20.530   4.032  1.00  0.00     0.001 C 
HETATM   28  C15 UNL     1       6.170  19.372   4.676  1.00  0.00     0.002 C 
HETATM   29  C16 UNL     1       5.793  18.309   3.681  1.00  0.00     0.021 C 
HETATM   30  C17 UNL     1       5.353  18.932   2.354  1.00  0.00     0.092 C 
HETATM   31 CL1  UNL     1       6.799  18.965   1.325  1.00  0.00    -0.124 Cl
ENDBRANCH   3  25
BRANCH   8  32
HETATM   32  C21 UNL     1       0.702  19.339  -3.176  1.00  0.00     0.294 C 
HETATM   33  O2  UNL     1       1.261  19.507  -4.421  1.00  0.00    -0.355 OA
HETATM   34  C22 UNL     1       0.336  18.906  -5.277  1.00  0.00     0.197 C 
HETATM   35  C23 UNL     1      -0.971  19.358  -4.662  1.00  0.00     0.197 C 
HETATM   36  O3  UNL     1      -0.655  19.480  -3.330  1.00  0.00    -0.355 OA
ENDBRANCH   8  32
TORSDOF 8
ENDMDL
