MODEL 1
REMARK VINA RESULT: -5.984763065      0.000      0.000
REMARK  8 active torsions:
REMARK  status: ('A' for Active; 'I' for Inactive)
REMARK    1  A    between atoms: C2_2  and  C3_3 
REMARK    2  A    between atoms: C3_3  and  O2_5 
REMARK    3  A    between atoms: O2_5  and  C4_6 
REMARK    4  A    between atoms: C6_8  and  C7_9 
REMARK    5  A    between atoms: C7_9  and  O3_10 
REMARK    6  A    between atoms: C9_14  and  C10_15 
REMARK    7  A    between atoms: C16_22  and  C17_23 
REMARK    8  A    between atoms: C17_23  and  C18_24 
ROOT
HETATM    1  C4  UNL     1      -0.617  20.031  -2.498  1.00  0.00     0.087 C 
HETATM    2  C5  UNL     1      -0.230  18.629  -2.815  1.00  0.00     0.048 C 
HETATM    3  C6  UNL     1      -1.915  19.856  -1.677  1.00  0.00     0.110 C 
HETATM    4  C8  UNL     1      -1.530  20.037  -0.241  1.00  0.00    -0.065 C 
HETATM    5  C9  UNL     1      -2.335  19.568   0.707  1.00  0.00    -0.008 C 
HETATM    6  C11 UNL     1      -0.208  20.714  -0.176  1.00  0.00     0.034 C 
HETATM    7  C12 UNL     1       0.824  20.168   0.734  1.00  0.00    -0.032 C 
HETATM    8  C13 UNL     1       1.060  18.656   0.509  1.00  0.00     0.016 C 
HETATM    9  C14 UNL     1       0.435  20.234   2.196  1.00  0.00     0.011 C 
HETATM   10  C15 UNL     1       1.664  20.239   3.121  1.00  0.00     0.007 C 
HETATM   11  C16 UNL     1       2.472  21.469   2.994  1.00  0.00     0.004 C 
HETATM   12  C19 UNL     1       2.450  21.971   1.577  1.00  0.00    -0.039 C 
HETATM   13  C20 UNL     1       3.841  22.481   1.151  1.00  0.00     0.015 C 
HETATM   14  C21 UNL     1       1.587  23.185   1.483  1.00  0.00     0.015 C 
HETATM   15  C22 UNL     1       2.151  20.864   0.595  1.00  0.00     0.002 C 
HETATM   16  C23 UNL     1       2.529  21.305  -0.760  1.00  0.00     0.007 C 
HETATM   17  C24 UNL     1       1.703  20.706  -1.861  1.00  0.00     0.013 C 
HETATM   18  C25 UNL     1       0.239  20.854  -1.622  1.00  0.00    -0.004 C 
HETATM   19  C26 UNL     1      -0.015  22.339  -1.981  1.00  0.00     0.019 C 
ENDROOT
BRANCH   1  20
HETATM   20  O2  UNL     1      -0.970  20.631  -3.755  1.00  0.00    -0.305 OA
BRANCH  20  21
HETATM   21  C3  UNL     1      -0.578  20.211  -4.987  1.00  0.00     0.282 C 
HETATM   22  O1  UNL     1      -1.409  19.502  -5.624  1.00  0.00    -0.260 OA
BRANCH  21  23
HETATM   23  C2  UNL     1       0.688  20.491  -5.642  1.00  0.00     0.072 C 
HETATM   24  C1  UNL     1       1.320  21.592  -5.377  1.00  0.00     0.017 C 
ENDBRANCH  21  23
ENDBRANCH  20  21
ENDBRANCH   1  20
BRANCH   3  25
HETATM   25  C7  UNL     1      -3.061  20.633  -2.145  1.00  0.00     0.315 C 
HETATM   26  F1  UNL     1      -2.996  21.985  -2.214  1.00  0.00    -0.219 F 
BRANCH  25  27
HETATM   27  O3  UNL     1      -3.598  20.186  -3.355  1.00  0.00    -0.366 OA
ATOM     28  H3  UNL     1      -4.524  19.976  -3.316  1.00  0.00     0.213 HD
ENDBRANCH  25  27
ENDBRANCH   3  25
BRANCH   5  29
HETATM   29  C10 UNL     1      -3.610  18.853   0.576  1.00  0.00     0.142 C 
HETATM   30 CL1  UNL     1      -5.076  19.802   0.779  1.00  0.00    -0.126 Cl
ENDBRANCH   5  29
BRANCH  11  31
HETATM   31  C17 UNL     1       3.794  21.331   3.627  1.00  0.00     0.118 C 
BRANCH  31  32
HETATM   32  C18 UNL     1       4.436  20.034   3.720  1.00  0.00     0.172 C 
HETATM   33  O4  UNL     1       4.554  19.296   4.714  1.00  0.00    -0.648 OA
HETATM   34  O5  UNL     1       5.018  19.489   2.559  1.00  0.00    -0.648 OA
ENDBRANCH  31  32
ENDBRANCH  11  31
TORSDOF 8
ENDMDL
MODEL 2
REMARK VINA RESULT: -5.892141324      2.751      7.284
REMARK  8 active torsions:
REMARK  status: ('A' for Active; 'I' for Inactive)
REMARK    1  A    between atoms: C2_2  and  C3_3 
REMARK    2  A    between atoms: C3_3  and  O2_5 
REMARK    3  A    between atoms: O2_5  and  C4_6 
REMARK    4  A    between atoms: C6_8  and  C7_9 
REMARK    5  A    between atoms: C7_9  and  O3_10 
REMARK    6  A    between atoms: C9_14  and  C10_15 
REMARK    7  A    between atoms: C16_22  and  C17_23 
REMARK    8  A    between atoms: C17_23  and  C18_24 
ROOT
HETATM    1  C4  UNL     1       1.611  20.363   2.600  1.00  0.00     0.087 C 
HETATM    2  C5  UNL     1       3.001  19.851   2.444  1.00  0.00     0.048 C 
HETATM    3  C6  UNL     1       1.805  21.896   2.629  1.00  0.00     0.110 C 
HETATM    4  C8  UNL     1       1.433  22.392   1.266  1.00  0.00    -0.065 C 
HETATM    5  C9  UNL     1       1.861  23.587   0.875  1.00  0.00    -0.008 C 
HETATM    6  C11 UNL     1       0.640  21.345   0.570  1.00  0.00     0.034 C 
HETATM    7  C12 UNL     1       0.989  21.003  -0.828  1.00  0.00    -0.032 C 
HETATM    8  C13 UNL     1       2.490  20.667  -0.989  1.00  0.00     0.016 C 
HETATM    9  C14 UNL     1       0.794  22.151  -1.795  1.00  0.00     0.011 C 
HETATM   10  C15 UNL     1       0.579  21.661  -3.237  1.00  0.00     0.007 C 
HETATM   11  C16 UNL     1      -0.696  20.933  -3.411  1.00  0.00     0.004 C 
HETATM   12  C19 UNL     1      -1.032  20.155  -2.170  1.00  0.00    -0.039 C 
HETATM   13  C20 UNL     1      -1.610  18.771  -2.527  1.00  0.00     0.015 C 
HETATM   14  C21 UNL     1      -2.147  20.824  -1.439  1.00  0.00     0.015 C 
HETATM   15  C22 UNL     1       0.199  19.836  -1.357  1.00  0.00     0.002 C 
HETATM   16  C23 UNL     1      -0.119  18.762  -0.398  1.00  0.00     0.007 C 
HETATM   17  C24 UNL     1       0.669  18.816   0.878  1.00  0.00     0.013 C 
HETATM   18  C25 UNL     1       0.624  20.160   1.522  1.00  0.00    -0.004 C 
HETATM   19  C26 UNL     1      -0.784  20.179   2.167  1.00  0.00     0.019 C 
ENDROOT
BRANCH   1  20
HETATM   20  O2  UNL     1       1.189  19.948   3.909  1.00  0.00    -0.305 OA
BRANCH  20  21
HETATM   21  C3  UNL     1       1.709  18.928   4.639  1.00  0.00     0.282 C 
HETATM   22  O1  UNL     1       2.473  19.257   5.591  1.00  0.00    -0.260 OA
BRANCH  21  23
HETATM   23  C2  UNL     1       1.480  17.507   4.439  1.00  0.00     0.072 C 
HETATM   24  C1  UNL     1       0.289  17.081   4.154  1.00  0.00     0.017 C 
ENDBRANCH  21  23
ENDBRANCH  20  21
ENDBRANCH   1  20
BRANCH   3  25
HETATM   25  C7  UNL     1       1.189  22.584   3.762  1.00  0.00     0.315 C 
HETATM   26  F1  UNL     1      -0.156  22.571   3.927  1.00  0.00    -0.219 F 
BRANCH  25  27
HETATM   27  O3  UNL     1       1.757  22.269   4.999  1.00  0.00    -0.366 OA
ATOM     28  H3  UNL     1       1.868  23.015   5.577  1.00  0.00     0.213 HD
ENDBRANCH  25  27
ENDBRANCH   3  25
BRANCH   5  29
HETATM   29  C10 UNL     1       2.695  24.558   1.593  1.00  0.00     0.142 C 
HETATM   30 CL1  UNL     1       1.858  25.861   2.425  1.00  0.00    -0.126 Cl
ENDBRANCH   5  29
BRANCH  11  31
HETATM   31  C17 UNL     1      -0.745  20.199  -4.687  1.00  0.00     0.118 C 
BRANCH  31  32
HETATM   32  C18 UNL     1       0.461  19.632  -5.259  1.00  0.00     0.172 C 
HETATM   33  O4  UNL     1       1.066  19.973  -6.290  1.00  0.00    -0.648 OA
HETATM   34  O5  UNL     1       1.071  18.549  -4.597  1.00  0.00    -0.648 OA
ENDBRANCH  31  32
ENDBRANCH  11  31
TORSDOF 8
ENDMDL
MODEL 3
REMARK VINA RESULT: -5.833876703      3.550      7.551
REMARK  8 active torsions:
REMARK  status: ('A' for Active; 'I' for Inactive)
REMARK    1  A    between atoms: C2_2  and  C3_3 
REMARK    2  A    between atoms: C3_3  and  O2_5 
REMARK    3  A    between atoms: O2_5  and  C4_6 
REMARK    4  A    between atoms: C6_8  and  C7_9 
REMARK    5  A    between atoms: C7_9  and  O3_10 
REMARK    6  A    between atoms: C9_14  and  C10_15 
REMARK    7  A    between atoms: C16_22  and  C17_23 
REMARK    8  A    between atoms: C17_23  and  C18_24 
ROOT
HETATM    1  C4  UNL     1       2.282  21.381   2.338  1.00  0.00     0.087 C 
HETATM    2  C5  UNL     1       1.400  20.528   3.182  1.00  0.00     0.048 C 
HETATM    3  C6  UNL     1       3.602  20.579   2.292  1.00  0.00     0.110 C 
HETATM    4  C8  UNL     1       3.629  19.891   0.962  1.00  0.00    -0.065 C 
HETATM    5  C9  UNL     1       4.429  18.844   0.793  1.00  0.00    -0.008 C 
HETATM    6  C11 UNL     1       2.648  20.547   0.058  1.00  0.00     0.034 C 
HETATM    7  C12 UNL     1       1.726  19.694  -0.727  1.00  0.00    -0.032 C 
HETATM    8  C13 UNL     1       0.969  18.681   0.163  1.00  0.00     0.016 C 
HETATM    9  C14 UNL     1       2.433  18.804  -1.726  1.00  0.00     0.011 C 
HETATM   10  C15 UNL     1       1.512  18.397  -2.890  1.00  0.00     0.007 C 
HETATM   11  C16 UNL     1       1.139  19.538  -3.751  1.00  0.00     0.004 C 
HETATM   12  C19 UNL     1       1.005  20.793  -2.935  1.00  0.00    -0.039 C 
HETATM   13  C20 UNL     1      -0.205  21.628  -3.402  1.00  0.00     0.015 C 
HETATM   14  C21 UNL     1       2.170  21.690  -3.189  1.00  0.00     0.015 C 
HETATM   15  C22 UNL     1       0.700  20.491  -1.488  1.00  0.00     0.002 C 
HETATM   16  C23 UNL     1       0.192  21.712  -0.835  1.00  0.00     0.007 C 
HETATM   17  C24 UNL     1       0.511  21.812   0.628  1.00  0.00     0.013 C 
HETATM   18  C25 UNL     1       1.958  21.597   0.914  1.00  0.00    -0.004 C 
HETATM   19  C26 UNL     1       2.591  22.945   0.490  1.00  0.00     0.019 C 
ENDROOT
BRANCH   1  20
HETATM   20  O2  UNL     1       2.518  22.573   3.104  1.00  0.00    -0.305 OA
BRANCH  20  21
HETATM   21  C3  UNL     1       1.603  23.252   3.844  1.00  0.00     0.282 C 
HETATM   22  O1  UNL     1       1.406  22.822   5.017  1.00  0.00    -0.260 OA
BRANCH  21  23
HETATM   23  C2  UNL     1       0.831  24.411   3.428  1.00  0.00     0.072 C 
HETATM   24  C1  UNL     1       1.429  25.410   2.857  1.00  0.00     0.017 C 
ENDBRANCH  21  23
ENDBRANCH  20  21
ENDBRANCH   1  20
BRANCH   3  25
HETATM   25  C7  UNL     1       4.802  21.327   2.661  1.00  0.00     0.315 C 
HETATM   26  F1  UNL     1       5.657  20.842   3.594  1.00  0.00    -0.219 F 
BRANCH  25  27
HETATM   27  O3  UNL     1       5.575  21.739   1.572  1.00  0.00    -0.366 OA
ATOM     28  H3  UNL     1       5.796  22.663   1.580  1.00  0.00     0.213 HD
ENDBRANCH  25  27
ENDBRANCH   3  25
BRANCH   5  29
HETATM   29  C10 UNL     1       5.340  18.204   1.750  1.00  0.00     0.142 C 
HETATM   30 CL1  UNL     1       7.050  18.577   1.589  1.00  0.00    -0.126 Cl
ENDBRANCH   5  29
BRANCH  11  31
HETATM   31  C17 UNL     1       0.021  19.210  -4.651  1.00  0.00     0.118 C 
BRANCH  31  32
HETATM   32  C18 UNL     1      -0.102  17.883  -5.223  1.00  0.00     0.172 C 
HETATM   33  O4  UNL     1       0.641  17.320  -6.046  1.00  0.00    -0.648 OA
HETATM   34  O5  UNL     1      -1.188  17.080  -4.825  1.00  0.00    -0.648 OA
ENDBRANCH  31  32
ENDBRANCH  11  31
TORSDOF 8
ENDMDL
MODEL 4
REMARK VINA RESULT: -5.716014212      3.165      7.475
REMARK  8 active torsions:
REMARK  status: ('A' for Active; 'I' for Inactive)
REMARK    1  A    between atoms: C2_2  and  C3_3 
REMARK    2  A    between atoms: C3_3  and  O2_5 
REMARK    3  A    between atoms: O2_5  and  C4_6 
REMARK    4  A    between atoms: C6_8  and  C7_9 
REMARK    5  A    between atoms: C7_9  and  O3_10 
REMARK    6  A    between atoms: C9_14  and  C10_15 
REMARK    7  A    between atoms: C16_22  and  C17_23 
REMARK    8  A    between atoms: C17_23  and  C18_24 
ROOT
HETATM    1  C4  UNL     1       2.151  20.835   1.931  1.00  0.00     0.087 C 
HETATM    2  C5  UNL     1       1.160  20.000   2.665  1.00  0.00     0.048 C 
HETATM    3  C6  UNL     1       3.345  19.872   1.743  1.00  0.00     0.110 C 
HETATM    4  C8  UNL     1       3.273  19.385   0.328  1.00  0.00    -0.065 C 
HETATM    5  C9  UNL     1       3.917  18.273  -0.006  1.00  0.00    -0.008 C 
HETATM    6  C11 UNL     1       2.391  20.295  -0.451  1.00  0.00     0.034 C 
HETATM    7  C12 UNL     1       1.357  19.700  -1.329  1.00  0.00    -0.032 C 
HETATM    8  C13 UNL     1       0.467  18.684  -0.575  1.00  0.00     0.016 C 
HETATM    9  C14 UNL     1       1.930  18.874  -2.460  1.00  0.00     0.011 C 
HETATM   10  C15 UNL     1       0.960  18.770  -3.649  1.00  0.00     0.007 C 
HETATM   11  C16 UNL     1       0.749  20.064  -4.331  1.00  0.00     0.004 C 
HETATM   12  C19 UNL     1       0.794  21.195  -3.342  1.00  0.00    -0.039 C 
HETATM   13  C20 UNL     1      -0.287  22.248  -3.659  1.00  0.00     0.015 C 
HETATM   14  C21 UNL     1       2.073  21.948  -3.491  1.00  0.00     0.015 C 
HETATM   15  C22 UNL     1       0.453  20.733  -1.946  1.00  0.00     0.002 C 
HETATM   16  C23 UNL     1       0.123  21.905  -1.115  1.00  0.00     0.007 C 
HETATM   17  C24 UNL     1       0.455  21.749   0.340  1.00  0.00     0.013 C 
HETATM   18  C25 UNL     1       1.858  21.296   0.561  1.00  0.00    -0.004 C 
HETATM   19  C26 UNL     1       2.674  22.590   0.318  1.00  0.00     0.019 C 
ENDROOT
BRANCH   1  20
HETATM   20  O2  UNL     1       2.554  21.860   2.854  1.00  0.00    -0.305 OA
BRANCH  20  21
HETATM   21  C3  UNL     1       1.763  22.477   3.770  1.00  0.00     0.282 C 
HETATM   22  O1  UNL     1       1.804  22.012   4.945  1.00  0.00    -0.260 OA
BRANCH  21  23
HETATM   23  C2  UNL     1       0.882  23.609   3.540  1.00  0.00     0.072 C 
HETATM   24  C1  UNL     1       1.373  24.733   3.119  1.00  0.00     0.017 C 
ENDBRANCH  21  23
ENDBRANCH  20  21
ENDBRANCH   1  20
BRANCH   3  25
HETATM   25  C7  UNL     1       4.639  20.385   2.187  1.00  0.00     0.315 C 
HETATM   26  F1  UNL     1       5.124  21.551   1.696  1.00  0.00    -0.219 F 
BRANCH  25  27
HETATM   27  O3  UNL     1       4.789  20.432   3.576  1.00  0.00    -0.366 OA
ATOM     28  H3  UNL     1       4.019  20.742   4.039  1.00  0.00     0.213 HD
ENDBRANCH  25  27
ENDBRANCH   3  25
BRANCH   5  29
HETATM   29  C10 UNL     1       4.731  17.382   0.830  1.00  0.00     0.142 C 
HETATM   30 CL1  UNL     1       6.474  17.600   0.759  1.00  0.00    -0.126 Cl
ENDBRANCH   5  29
BRANCH  11  31
HETATM   31  C17 UNL     1      -0.406  20.028  -5.244  1.00  0.00     0.118 C 
BRANCH  31  32
HETATM   32  C18 UNL     1      -1.495  19.096  -5.019  1.00  0.00     0.172 C 
HETATM   33  O4  UNL     1      -1.757  18.047  -5.633  1.00  0.00    -0.648 OA
HETATM   34  O5  UNL     1      -2.404  19.366  -3.979  1.00  0.00    -0.648 OA
ENDBRANCH  31  32
ENDBRANCH  11  31
TORSDOF 8
ENDMDL
MODEL 5
REMARK VINA RESULT: -5.628912345      3.020      7.627
REMARK  8 active torsions:
REMARK  status: ('A' for Active; 'I' for Inactive)
REMARK    1  A    between atoms: C2_2  and  C3_3 
REMARK    2  A    between atoms: C3_3  and  O2_5 
REMARK    3  A    between atoms: O2_5  and  C4_6 
REMARK    4  A    between atoms: C6_8  and  C7_9 
REMARK    5  A    between atoms: C7_9  and  O3_10 
REMARK    6  A    between atoms: C9_14  and  C10_15 
REMARK    7  A    between atoms: C16_22  and  C17_23 
REMARK    8  A    between atoms: C17_23  and  C18_24 
ROOT
HETATM    1  C4  UNL     1       1.687  21.277   3.983  1.00  0.00     0.087 C 
HETATM    2  C5  UNL     1       3.159  21.197   4.197  1.00  0.00     0.048 C 
HETATM    3  C6  UNL     1       1.440  22.795   3.833  1.00  0.00     0.110 C 
HETATM    4  C8  UNL     1       1.287  23.052   2.365  1.00  0.00    -0.065 C 
HETATM    5  C9  UNL     1       1.452  24.288   1.905  1.00  0.00    -0.008 C 
HETATM    6  C11 UNL     1       1.006  21.765   1.675  1.00  0.00     0.034 C 
HETATM    7  C12 UNL     1       1.764  21.440   0.445  1.00  0.00    -0.032 C 
HETATM    8  C13 UNL     1       3.292  21.559   0.653  1.00  0.00     0.016 C 
HETATM    9  C14 UNL     1       1.502  22.399  -0.695  1.00  0.00     0.011 C 
HETATM   10  C15 UNL     1       1.786  21.760  -2.065  1.00  0.00     0.007 C 
HETATM   11  C16 UNL     1       0.842  20.672  -2.397  1.00  0.00     0.004 C 
HETATM   12  C19 UNL     1       0.442  19.924  -1.155  1.00  0.00    -0.039 C 
HETATM   13  C20 UNL     1       0.371  18.408  -1.423  1.00  0.00     0.015 C 
HETATM   14  C21 UNL     1      -0.957  20.281  -0.778  1.00  0.00     0.015 C 
HETATM   15  C22 UNL     1       1.478  20.053  -0.065  1.00  0.00     0.002 C 
HETATM   16  C23 UNL     1       1.245  19.009   0.950  1.00  0.00     0.007 C 
HETATM   17  C24 UNL     1       1.654  19.393   2.342  1.00  0.00     0.013 C 
HETATM   18  C25 UNL     1       1.086  20.706   2.762  1.00  0.00    -0.004 C 
HETATM   19  C26 UNL     1      -0.386  20.350   3.088  1.00  0.00     0.019 C 
ENDROOT
BRANCH   1  20
HETATM   20  O2  UNL     1       1.091  20.855   5.220  1.00  0.00    -0.305 OA
BRANCH  20  21
HETATM   21  C3  UNL     1       1.719  20.220   6.243  1.00  0.00     0.282 C 
HETATM   22  O1  UNL     1       1.864  20.886   7.308  1.00  0.00    -0.260 OA
BRANCH  21  23
HETATM   23  C2  UNL     1       2.240  18.863   6.240  1.00  0.00     0.072 C 
HETATM   24  C1  UNL     1       1.536  17.905   5.721  1.00  0.00     0.017 C 
ENDBRANCH  21  23
ENDBRANCH  20  21
ENDBRANCH   1  20
BRANCH   3  25
HETATM   25  C7  UNL     1       0.403  23.349   4.700  1.00  0.00     0.315 C 
HETATM   26  F1  UNL     1      -0.841  22.811   4.719  1.00  0.00    -0.219 F 
BRANCH  25  27
HETATM   27  O3  UNL     1       0.798  23.514   6.030  1.00  0.00    -0.366 OA
ATOM     28  H3  UNL     1       0.099  23.790   6.612  1.00  0.00     0.213 HD
ENDBRANCH  25  27
ENDBRANCH   3  25
BRANCH   5  29
HETATM   29  C10 UNL     1       1.787  25.516   2.636  1.00  0.00     0.142 C 
HETATM   30 CL1  UNL     1       1.037  27.003   2.073  1.00  0.00    -0.126 Cl
ENDBRANCH   5  29
BRANCH  11  31
HETATM   31  C17 UNL     1       1.307  19.863  -3.536  1.00  0.00     0.118 C 
BRANCH  31  32
HETATM   32  C18 UNL     1       0.883  20.177  -4.886  1.00  0.00     0.172 C 
HETATM   33  O4  UNL     1       0.678  21.292  -5.396  1.00  0.00    -0.648 OA
HETATM   34  O5  UNL     1       0.662  19.114  -5.783  1.00  0.00    -0.648 OA
ENDBRANCH  31  32
ENDBRANCH  11  31
TORSDOF 8
ENDMDL
