MODEL 1
REMARK VINA RESULT: -6.817811286      0.000      0.000
REMARK  7 active torsions:
REMARK  status: ('A' for Active; 'I' for Inactive)
REMARK    1  A    between atoms: C2_2  and  C3_3 
REMARK    2  A    between atoms: C8_8  and  C10_10 
REMARK    3  A    between atoms: C10_10  and  C11_11 
REMARK       I    between atoms: C11_11  and  N1_13 
REMARK    4  A    between atoms: C14_16  and  C15_17 
REMARK    5  A    between atoms: C20_26  and  O2_27 
REMARK    6  A    between atoms: C21_29  and  C22_30 
REMARK    7  A    between atoms: C22_30  and  C23_31 
ROOT
HETATM    1  C3  UNL     1      -0.823  20.935   5.792  1.00  0.00    -0.076 C 
HETATM    2  C4  UNL     1      -0.802  19.720   5.295  1.00  0.00    -0.022 C 
HETATM    3  C5  UNL     1       0.377  19.111   4.691  1.00  0.00     0.040 C 
HETATM    4  C6  UNL     1       1.496  20.025   4.317  1.00  0.00    -0.005 C 
HETATM    5  C7  UNL     1       2.853  19.607   4.911  1.00  0.00     0.025 C 
HETATM    6  C8  UNL     1       3.472  19.659   3.532  1.00  0.00    -0.008 C 
HETATM    7  C9  UNL     1       4.280  20.914   3.266  1.00  0.00     0.018 C 
HETATM    8  C20 UNL     1       2.070  19.686   2.978  1.00  0.00     0.136 C 
HETATM    9  C21 UNL     1       1.176  21.478   4.498  1.00  0.00     0.012 C 
HETATM   10  C27 UNL     1       0.413  21.745   5.756  1.00  0.00    -0.020 C 
HETATM   11  C28 UNL     1       0.203  23.210   5.985  1.00  0.00     0.020 C 
HETATM   12  C29 UNL     1       1.262  21.267   6.957  1.00  0.00     0.020 C 
ENDROOT
BRANCH   6  13
HETATM   13  C10 UNL     1       4.246  18.453   3.129  1.00  0.00     0.114 C 
BRANCH  13  14
HETATM   14  C11 UNL     1       5.723  18.654   3.294  1.00  0.00     0.220 C 
HETATM   15  O1  UNL     1       6.149  18.907   4.440  1.00  0.00    -0.273 OA
HETATM   16  N1  UNL     1       6.637  18.569   2.218  1.00  0.00    -0.352 N 
HETATM   17  C12 UNL     1       8.031  18.773   2.455  1.00  0.00     0.126 C 
HETATM   18  C19 UNL     1       6.076  18.273   0.911  1.00  0.00     0.126 C 
HETATM   19  C13 UNL     1       8.832  19.206   1.274  1.00  0.00     0.030 C 
HETATM   20  C14 UNL     1       8.276  18.814  -0.052  1.00  0.00     0.041 C 
HETATM   21  C18 UNL     1       6.785  19.061  -0.155  1.00  0.00     0.030 C 
BRANCH  20  22
HETATM   22  C15 UNL     1       8.921  19.630  -1.112  1.00  0.00     0.045 A 
HETATM   23  C16 UNL     1       9.730  19.176  -2.130  1.00  0.00     0.134 A 
HETATM   24  N2  UNL     1      10.107  20.233  -2.871  1.00  0.00    -0.289 N 
HETATM   25  C17 UNL     1      10.975  20.199  -4.059  1.00  0.00     0.174 C 
HETATM   26  N3  UNL     1       9.562  21.317  -2.349  1.00  0.00    -0.021 NA
HETATM   27  N4  UNL     1       8.850  20.960  -1.294  1.00  0.00    -0.286 N 
ATOM     28  H4  UNL     1       8.323  21.601  -0.703  1.00  0.00     0.184 HD
ENDBRANCH  20  22
ENDBRANCH  13  14
ENDBRANCH   6  13
BRANCH   8  29
HETATM   29  O2  UNL     1       1.653  18.488   2.402  1.00  0.00    -0.394 OA
ATOM     30  H2  UNL     1       2.079  17.696   2.709  1.00  0.00     0.210 HD
ENDBRANCH   8  29
BRANCH   9  31
HETATM   31  C22 UNL     1       0.681  22.188   3.291  1.00  0.00     0.034 C 
BRANCH  31  32
HETATM   32  C23 UNL     1       1.494  23.288   2.780  1.00  0.00    -0.024 C 
HETATM   33  C24 UNL     1       2.034  23.366   1.583  1.00  0.00    -0.091 C 
HETATM   34  C25 UNL     1       2.848  24.598   1.249  1.00  0.00     0.042 C 
HETATM   35  C26 UNL     1       1.890  22.334   0.521  1.00  0.00     0.042 C 
ENDBRANCH  31  32
ENDBRANCH   9  31
BRANCH   1  36
HETATM   36  C2  UNL     1      -2.068  21.482   6.392  1.00  0.00     0.030 C 
HETATM   37  C1  UNL     1      -3.129  21.680   5.310  1.00  0.00     0.010 C 
ENDBRANCH   1  36
TORSDOF 7
ENDMDL
MODEL 2
REMARK VINA RESULT: -6.712364804      2.669      4.273
REMARK  7 active torsions:
REMARK  status: ('A' for Active; 'I' for Inactive)
REMARK    1  A    between atoms: C2_2  and  C3_3 
REMARK    2  A    between atoms: C8_8  and  C10_10 
REMARK    3  A    between atoms: C10_10  and  C11_11 
REMARK       I    between atoms: C11_11  and  N1_13 
REMARK    4  A    between atoms: C14_16  and  C15_17 
REMARK    5  A    between atoms: C20_26  and  O2_27 
REMARK    6  A    between atoms: C21_29  and  C22_30 
REMARK    7  A    between atoms: C22_30  and  C23_31 
ROOT
HETATM    1  C3  UNL     1      -1.035  20.908  -0.622  1.00  0.00    -0.076 C 
HETATM    2  C4  UNL     1      -0.229  21.762  -1.210  1.00  0.00    -0.022 C 
HETATM    3  C5  UNL     1       1.135  22.025  -0.770  1.00  0.00     0.040 C 
HETATM    4  C6  UNL     1       1.509  21.561   0.598  1.00  0.00    -0.005 C 
HETATM    5  C7  UNL     1       2.766  20.673   0.622  1.00  0.00     0.025 C 
HETATM    6  C8  UNL     1       3.376  21.569   1.678  1.00  0.00    -0.008 C 
HETATM    7  C9  UNL     1       3.285  21.013   3.085  1.00  0.00     0.018 C 
HETATM    8  C20 UNL     1       2.314  22.582   1.335  1.00  0.00     0.136 C 
HETATM    9  C21 UNL     1       0.358  21.003   1.382  1.00  0.00     0.012 C 
HETATM   10  C27 UNL     1      -0.545  20.151   0.549  1.00  0.00    -0.020 C 
HETATM   11  C28 UNL     1      -1.620  19.507   1.367  1.00  0.00     0.020 C 
HETATM   12  C29 UNL     1       0.282  18.978  -0.028  1.00  0.00     0.020 C 
ENDROOT
BRANCH   6  13
HETATM   13  C10 UNL     1       4.760  22.041   1.400  1.00  0.00     0.114 C 
BRANCH  13  14
HETATM   14  C11 UNL     1       5.773  21.345   2.258  1.00  0.00     0.220 C 
HETATM   15  O1  UNL     1       5.931  21.763   3.424  1.00  0.00    -0.273 OA
HETATM   16  N1  UNL     1       6.543  20.249   1.804  1.00  0.00    -0.352 N 
HETATM   17  C12 UNL     1       7.490  19.637   2.682  1.00  0.00     0.126 C 
HETATM   18  C19 UNL     1       6.311  19.812   0.439  1.00  0.00     0.126 C 
HETATM   19  C13 UNL     1       8.605  18.901   2.019  1.00  0.00     0.030 C 
HETATM   20  C14 UNL     1       8.309  18.390   0.651  1.00  0.00     0.041 C 
HETATM   21  C18 UNL     1       7.606  19.416  -0.214  1.00  0.00     0.030 C 
BRANCH  20  22
HETATM   22  C15 UNL     1       9.585  18.055  -0.032  1.00  0.00     0.045 A 
HETATM   23  C16 UNL     1      10.104  18.655  -1.158  1.00  0.00     0.134 A 
HETATM   24  N2  UNL     1      11.273  18.057  -1.451  1.00  0.00    -0.289 N 
HETATM   25  C17 UNL     1      12.162  18.387  -2.576  1.00  0.00     0.174 C 
HETATM   26  N3  UNL     1      11.491  17.115  -0.550  1.00  0.00    -0.021 NA
HETATM   27  N4  UNL     1      10.481  17.111   0.302  1.00  0.00    -0.286 N 
ATOM     28  H4  UNL     1      10.394  16.480   1.098  1.00  0.00     0.184 HD
ENDBRANCH  20  22
ENDBRANCH  13  14
ENDBRANCH   6  13
BRANCH   8  29
HETATM   29  O2  UNL     1       2.772  23.671   0.596  1.00  0.00    -0.394 OA
ATOM     30  H2  UNL     1       3.300  24.310   1.060  1.00  0.00     0.210 HD
ENDBRANCH   8  29
BRANCH   9  31
HETATM   31  C22 UNL     1      -0.328  21.957   2.291  1.00  0.00     0.034 C 
BRANCH  31  32
HETATM   32  C23 UNL     1      -0.051  21.837   3.720  1.00  0.00    -0.024 C 
HETATM   33  C24 UNL     1       0.326  22.807   4.525  1.00  0.00    -0.091 C 
HETATM   34  C25 UNL     1       0.565  22.471   5.981  1.00  0.00     0.042 C 
HETATM   35  C26 UNL     1       0.520  24.223   4.109  1.00  0.00     0.042 C 
ENDBRANCH  31  32
ENDBRANCH   9  31
BRANCH   1  36
HETATM   36  C2  UNL     1      -2.414  20.699  -1.134  1.00  0.00     0.030 C 
HETATM   37  C1  UNL     1      -2.742  21.743  -2.201  1.00  0.00     0.010 C 
ENDBRANCH   1  36
TORSDOF 7
ENDMDL
MODEL 3
REMARK VINA RESULT: -6.563804609      3.163      6.064
REMARK  7 active torsions:
REMARK  status: ('A' for Active; 'I' for Inactive)
REMARK    1  A    between atoms: C2_2  and  C3_3 
REMARK    2  A    between atoms: C8_8  and  C10_10 
REMARK    3  A    between atoms: C10_10  and  C11_11 
REMARK       I    between atoms: C11_11  and  N1_13 
REMARK    4  A    between atoms: C14_16  and  C15_17 
REMARK    5  A    between atoms: C20_26  and  O2_27 
REMARK    6  A    between atoms: C21_29  and  C22_30 
REMARK    7  A    between atoms: C22_30  and  C23_31 
ROOT
HETATM    1  C3  UNL     1      -0.566  21.337  -0.773  1.00  0.00    -0.076 C 
HETATM    2  C4  UNL     1       0.386  22.136  -1.198  1.00  0.00    -0.022 C 
HETATM    3  C5  UNL     1       1.701  22.231  -0.578  1.00  0.00     0.040 C 
HETATM    4  C6  UNL     1       1.850  21.653   0.791  1.00  0.00    -0.005 C 
HETATM    5  C7  UNL     1       3.003  20.641   0.906  1.00  0.00     0.025 C 
HETATM    6  C8  UNL     1       3.555  21.407   2.088  1.00  0.00    -0.008 C 
HETATM    7  C9  UNL     1       3.232  20.784   3.432  1.00  0.00     0.018 C 
HETATM    8  C20 UNL     1       2.648  22.542   1.689  1.00  0.00     0.136 C 
HETATM    9  C21 UNL     1       0.561  21.173   1.387  1.00  0.00     0.012 C 
HETATM   10  C27 UNL     1      -0.305  20.468   0.394  1.00  0.00    -0.020 C 
HETATM   11  C28 UNL     1      -1.532  19.892   1.027  1.00  0.00     0.020 C 
HETATM   12  C29 UNL     1       0.474  19.250  -0.158  1.00  0.00     0.020 C 
ENDROOT
BRANCH   6  13
HETATM   13  C10 UNL     1       5.002  21.749   2.014  1.00  0.00     0.114 C 
BRANCH  13  14
HETATM   14  C11 UNL     1       5.843  20.559   1.657  1.00  0.00     0.220 C 
HETATM   15  O1  UNL     1       5.899  20.228   0.455  1.00  0.00    -0.273 OA
HETATM   16  N1  UNL     1       6.563  19.810   2.617  1.00  0.00    -0.352 N 
HETATM   17  C12 UNL     1       7.342  18.688   2.199  1.00  0.00     0.126 C 
HETATM   18  C19 UNL     1       6.454  20.247   3.998  1.00  0.00     0.126 C 
HETATM   19  C13 UNL     1       7.608  17.659   3.246  1.00  0.00     0.030 C 
HETATM   20  C14 UNL     1       7.574  18.155   4.651  1.00  0.00     0.041 C 
HETATM   21  C18 UNL     1       6.392  19.062   4.921  1.00  0.00     0.030 C 
BRANCH  20  22
HETATM   22  C15 UNL     1       7.447  16.998   5.574  1.00  0.00     0.045 A 
HETATM   23  C16 UNL     1       8.001  15.747   5.414  1.00  0.00     0.134 A 
HETATM   24  N2  UNL     1       7.646  14.993   6.470  1.00  0.00    -0.289 N 
HETATM   25  C17 UNL     1       8.022  13.589   6.702  1.00  0.00     0.174 C 
HETATM   26  N3  UNL     1       6.898  15.730   7.270  1.00  0.00    -0.021 NA
HETATM   27  N4  UNL     1       6.776  16.933   6.737  1.00  0.00    -0.286 N 
ATOM     28  H4  UNL     1       6.248  17.702   7.148  1.00  0.00     0.184 HD
ENDBRANCH  20  22
ENDBRANCH  13  14
ENDBRANCH   6  13
BRANCH   8  29
HETATM   29  O2  UNL     1       3.298  23.618   1.089  1.00  0.00    -0.394 OA
ATOM     30  H2  UNL     1       3.902  24.110   1.634  1.00  0.00     0.210 HD
ENDBRANCH   8  29
BRANCH   9  31
HETATM   31  C22 UNL     1      -0.142  22.139   2.270  1.00  0.00     0.034 C 
BRANCH  31  32
HETATM   32  C23 UNL     1       0.057  21.998   3.710  1.00  0.00    -0.024 C 
HETATM   33  C24 UNL     1       0.352  22.963   4.554  1.00  0.00    -0.091 C 
HETATM   34  C25 UNL     1       0.520  22.604   6.014  1.00  0.00     0.042 C 
HETATM   35  C26 UNL     1       0.519  24.393   4.178  1.00  0.00     0.042 C 
ENDBRANCH  31  32
ENDBRANCH   9  31
BRANCH   1  36
HETATM   36  C2  UNL     1      -1.882  21.300  -1.463  1.00  0.00     0.030 C 
HETATM   37  C1  UNL     1      -1.728  21.762  -2.912  1.00  0.00     0.010 C 
ENDBRANCH   1  36
TORSDOF 7
ENDMDL
MODEL 4
REMARK VINA RESULT: -6.540945070      3.525      8.742
REMARK  7 active torsions:
REMARK  status: ('A' for Active; 'I' for Inactive)
REMARK    1  A    between atoms: C2_2  and  C3_3 
REMARK    2  A    between atoms: C8_8  and  C10_10 
REMARK    3  A    between atoms: C10_10  and  C11_11 
REMARK       I    between atoms: C11_11  and  N1_13 
REMARK    4  A    between atoms: C14_16  and  C15_17 
REMARK    5  A    between atoms: C20_26  and  O2_27 
REMARK    6  A    between atoms: C21_29  and  C22_30 
REMARK    7  A    between atoms: C22_30  and  C23_31 
ROOT
HETATM    1  C3  UNL     1       9.889  17.793   1.300  1.00  0.00    -0.076 C 
HETATM    2  C4  UNL     1       9.874  18.936   1.947  1.00  0.00    -0.022 C 
HETATM    3  C5  UNL     1       8.673  19.519   2.533  1.00  0.00     0.040 C 
HETATM    4  C6  UNL     1       7.361  18.965   2.085  1.00  0.00    -0.005 C 
HETATM    5  C7  UNL     1       6.462  18.506   3.246  1.00  0.00     0.025 C 
HETATM    6  C8  UNL     1       5.332  19.353   2.704  1.00  0.00    -0.008 C 
HETATM    7  C9  UNL     1       4.285  18.567   1.939  1.00  0.00     0.018 C 
HETATM    8  C20 UNL     1       6.355  20.043   1.839  1.00  0.00     0.136 C 
HETATM    9  C21 UNL     1       7.475  17.965   0.974  1.00  0.00     0.012 C 
HETATM   10  C27 UNL     1       8.630  17.034   1.157  1.00  0.00    -0.020 C 
HETATM   11  C28 UNL     1       8.663  15.968   0.106  1.00  0.00     0.020 C 
HETATM   12  C29 UNL     1       8.444  16.277   2.493  1.00  0.00     0.020 C 
ENDROOT
BRANCH   6  13
HETATM   13  C10 UNL     1       4.677  20.259   3.687  1.00  0.00     0.114 C 
BRANCH  13  14
HETATM   14  C11 UNL     1       3.182  20.164   3.628  1.00  0.00     0.220 C 
HETATM   15  O1  UNL     1       2.617  19.391   4.429  1.00  0.00    -0.273 OA
HETATM   16  N1  UNL     1       2.400  20.907   2.713  1.00  0.00    -0.352 N 
HETATM   17  C12 UNL     1       0.977  20.762   2.718  1.00  0.00     0.126 C 
HETATM   18  C19 UNL     1       3.117  21.787   1.809  1.00  0.00     0.126 C 
HETATM   19  C13 UNL     1       0.288  21.113   1.443  1.00  0.00     0.030 C 
HETATM   20  C14 UNL     1       1.009  22.085   0.573  1.00  0.00     0.041 C 
HETATM   21  C18 UNL     1       2.485  21.769   0.445  1.00  0.00     0.030 C 
BRANCH  20  22
HETATM   22  C15 UNL     1       0.438  22.032  -0.797  1.00  0.00     0.045 A 
HETATM   23  C16 UNL     1      -0.735  21.421  -1.181  1.00  0.00     0.134 A 
HETATM   24  N2  UNL     1      -0.889  21.603  -2.505  1.00  0.00    -0.289 N 
HETATM   25  C17 UNL     1      -2.008  21.115  -3.327  1.00  0.00     0.174 C 
HETATM   26  N3  UNL     1       0.142  22.300  -2.948  1.00  0.00    -0.021 NA
HETATM   27  N4  UNL     1       0.940  22.559  -1.927  1.00  0.00    -0.286 N 
ATOM     28  H4  UNL     1       1.812  23.084  -1.987  1.00  0.00     0.184 HD
ENDBRANCH  20  22
ENDBRANCH  13  14
ENDBRANCH   6  13
BRANCH   8  29
HETATM   29  O2  UNL     1       6.695  21.327   2.259  1.00  0.00    -0.394 OA
ATOM     30  H2  UNL     1       5.977  21.911   2.474  1.00  0.00     0.210 HD
ENDBRANCH   8  29
BRANCH   9  31
HETATM   31  C22 UNL     1       7.302  18.502  -0.400  1.00  0.00     0.034 C 
BRANCH  31  32
HETATM   32  C23 UNL     1       7.979  19.756  -0.720  1.00  0.00    -0.024 C 
HETATM   33  C24 UNL     1       8.978  19.908  -1.562  1.00  0.00    -0.091 C 
HETATM   34  C25 UNL     1       9.543  21.299  -1.750  1.00  0.00     0.042 C 
HETATM   35  C26 UNL     1       9.587  18.810  -2.360  1.00  0.00     0.042 C 
ENDBRANCH  31  32
ENDBRANCH   9  31
BRANCH   1  36
HETATM   36  C2  UNL     1      11.158  17.269   0.731  1.00  0.00     0.030 C 
HETATM   37  C1  UNL     1      12.124  16.897   1.856  1.00  0.00     0.010 C 
ENDBRANCH   1  36
TORSDOF 7
ENDMDL
MODEL 5
REMARK VINA RESULT: -6.356125643      6.068     10.729
REMARK  7 active torsions:
REMARK  status: ('A' for Active; 'I' for Inactive)
REMARK    1  A    between atoms: C2_2  and  C3_3 
REMARK    2  A    between atoms: C8_8  and  C10_10 
REMARK    3  A    between atoms: C10_10  and  C11_11 
REMARK       I    between atoms: C11_11  and  N1_13 
REMARK    4  A    between atoms: C14_16  and  C15_17 
REMARK    5  A    between atoms: C20_26  and  O2_27 
REMARK    6  A    between atoms: C21_29  and  C22_30 
REMARK    7  A    between atoms: C22_30  and  C23_31 
ROOT
HETATM    1  C3  UNL     1       4.277  20.100   0.808  1.00  0.00    -0.076 C 
HETATM    2  C4  UNL     1       4.718  21.308   1.068  1.00  0.00    -0.022 C 
HETATM    3  C5  UNL     1       3.956  22.309   1.805  1.00  0.00     0.040 C 
HETATM    4  C6  UNL     1       2.492  22.063   1.968  1.00  0.00    -0.005 C 
HETATM    5  C7  UNL     1       2.021  22.118   3.431  1.00  0.00     0.025 C 
HETATM    6  C8  UNL     1       0.952  23.116   3.048  1.00  0.00    -0.008 C 
HETATM    7  C9  UNL     1      -0.432  22.514   2.907  1.00  0.00     0.018 C 
HETATM    8  C20 UNL     1       1.689  23.303   1.746  1.00  0.00     0.136 C 
HETATM    9  C21 UNL     1       1.994  20.865   1.215  1.00  0.00     0.012 C 
HETATM   10  C27 UNL     1       2.936  19.707   1.289  1.00  0.00    -0.020 C 
HETATM   11  C28 UNL     1       2.374  18.484   0.635  1.00  0.00     0.020 C 
HETATM   12  C29 UNL     1       3.122  19.321   2.776  1.00  0.00     0.020 C 
ENDROOT
BRANCH   6  13
HETATM   13  C10 UNL     1       0.894  24.349   3.880  1.00  0.00     0.114 C 
BRANCH  13  14
HETATM   14  C11 UNL     1      -0.091  24.221   5.005  1.00  0.00     0.220 C 
HETATM   15  O1  UNL     1       0.029  23.243   5.771  1.00  0.00    -0.273 OA
HETATM   16  N1  UNL     1      -1.132  25.153   5.225  1.00  0.00    -0.352 N 
HETATM   17  C12 UNL     1      -2.031  24.962   6.320  1.00  0.00     0.126 C 
HETATM   18  C19 UNL     1      -1.215  26.266   4.298  1.00  0.00     0.126 C 
HETATM   19  C13 UNL     1      -3.365  25.615   6.181  1.00  0.00     0.030 C 
HETATM   20  C14 UNL     1      -3.402  26.808   5.289  1.00  0.00     0.041 C 
HETATM   21  C18 UNL     1      -2.651  26.589   3.992  1.00  0.00     0.030 C 
BRANCH  20  22
HETATM   22  C15 UNL     1      -4.812  27.101   4.925  1.00  0.00     0.045 A 
HETATM   23  C16 UNL     1      -5.322  28.305   4.490  1.00  0.00     0.134 A 
HETATM   24  N2  UNL     1      -6.640  28.148   4.270  1.00  0.00    -0.289 N 
HETATM   25  C17 UNL     1      -7.573  29.183   3.797  1.00  0.00     0.174 C 
HETATM   26  N3  UNL     1      -6.958  26.897   4.551  1.00  0.00    -0.021 NA
HETATM   27  N4  UNL     1      -5.866  26.266   4.945  1.00  0.00    -0.286 N 
ATOM     28  H4  UNL     1      -5.827  25.287   5.224  1.00  0.00     0.184 HD
ENDBRANCH  20  22
ENDBRANCH  13  14
ENDBRANCH   6  13
BRANCH   8  29
HETATM   29  O2  UNL     1       2.397  24.500   1.650  1.00  0.00    -0.394 OA
ATOM     30  H2  UNL     1       2.311  25.106   2.377  1.00  0.00     0.210 HD
ENDBRANCH   8  29
BRANCH   9  31
HETATM   31  C22 UNL     1       1.425  21.137  -0.130  1.00  0.00     0.034 C 
BRANCH  31  32
HETATM   32  C23 UNL     1      -0.008  20.923  -0.308  1.00  0.00    -0.024 C 
HETATM   33  C24 UNL     1      -0.737  21.336  -1.321  1.00  0.00    -0.091 C 
HETATM   34  C25 UNL     1      -2.215  21.010  -1.314  1.00  0.00     0.042 C 
HETATM   35  C26 UNL     1      -0.210  22.090  -2.491  1.00  0.00     0.042 C 
ENDBRANCH  31  32
ENDBRANCH   9  31
BRANCH   1  36
HETATM   36  C2  UNL     1       5.119  19.138   0.049  1.00  0.00     0.030 C 
HETATM   37  C1  UNL     1       6.591  19.538   0.147  1.00  0.00     0.010 C 
ENDBRANCH   1  36
TORSDOF 7
ENDMDL
