MODEL 1
REMARK VINA RESULT: -6.279020707      0.000      0.000
REMARK  6 active torsions:
REMARK  status: ('A' for Active; 'I' for Inactive)
REMARK    1  A    between atoms: C2_2  and  C3_3 
REMARK    2  A    between atoms: N1_8  and  C8_9 
REMARK    3  A    between atoms: C8_9  and  C9_10 
REMARK    4  A    between atoms: C8_9  and  C23_32 
REMARK    5  A    between atoms: N3_14  and  C11_16 
REMARK    6  A    between atoms: C23_32  and  O2_33 
ROOT
HETATM    1  C9  UNL     1       5.111  18.585   0.490  1.00  0.00     0.080 A 
HETATM    2  N2  UNL     1       4.323  19.669   0.556  1.00  0.00    -0.189 N 
ATOM      3  H2  UNL     1       4.698  20.467   1.068  1.00  0.00     0.184 HD
HETATM    4  C10 UNL     1       3.099  19.826   0.029  1.00  0.00     0.683 A 
HETATM    5  N3  UNL     1       2.378  20.788   0.251  1.00  0.00    -0.192 N 
ATOM      6  H3  UNL     1       1.535  20.611  -0.295  1.00  0.00     0.184 HD
HETATM    7  N4  UNL     1       2.589  18.753  -0.677  1.00  0.00    -0.191 N 
ATOM      8  H4  UNL     1       1.666  18.813  -1.107  1.00  0.00     0.184 HD
HETATM    9  C17 UNL     1       3.304  17.652  -0.788  1.00  0.00     0.064 A 
HETATM   10  C18 UNL     1       4.567  17.514  -0.218  1.00  0.00     0.022 A 
HETATM   11  C19 UNL     1       5.169  16.216  -0.422  1.00  0.00     0.211 C 
HETATM   12  O1  UNL     1       5.158  15.831  -1.790  1.00  0.00    -0.382 OA
HETATM   13  C20 UNL     1       3.866  15.681  -2.247  1.00  0.00     0.204 C 
HETATM   14  C21 UNL     1       2.819  16.532  -1.654  1.00  0.00    -0.032 C 
HETATM   15  C22 UNL     1       1.616  15.815  -1.112  1.00  0.00     0.048 C 
ENDROOT
BRANCH   1  16
HETATM   16  C8  UNL     1       6.425  18.394   1.150  1.00  0.00     0.051 C 
BRANCH  16  17
HETATM   17  N1  UNL     1       6.468  17.744   2.397  1.00  0.00    -0.274 NA
HETATM   18  C3  UNL     1       5.607  18.157   3.442  1.00  0.00     0.063 C 
HETATM   19  C4  UNL     1       6.035  19.543   3.904  1.00  0.00     0.022 C 
HETATM   20  C5  UNL     1       7.527  19.296   3.903  1.00  0.00     0.021 C 
HETATM   21  C6  UNL     1       7.709  17.996   3.132  1.00  0.00     0.059 C 
HETATM   22  C7  UNL     1       8.014  16.858   4.106  1.00  0.00     0.026 C 
BRANCH  18  23
HETATM   23  C2  UNL     1       4.186  17.937   3.529  1.00  0.00     0.015 C 
HETATM   24  C1  UNL     1       3.564  19.284   4.001  1.00  0.00     0.006 C 
ENDBRANCH  18  23
ENDBRANCH  16  17
BRANCH  16  25
HETATM   25  C23 UNL     1       7.591  18.746   0.319  1.00  0.00     0.097 C 
HETATM   26  C24 UNL     1       8.507  17.617  -0.066  1.00  0.00     0.044 C 
HETATM   27  C25 UNL     1       9.958  18.027  -0.182  1.00  0.00     0.003 C 
HETATM   28  C26 UNL     1      10.009  19.172  -1.175  1.00  0.00     0.000 C 
HETATM   29  C27 UNL     1       9.124  20.329  -0.798  1.00  0.00     0.003 C 
HETATM   30  C28 UNL     1       8.417  19.965   0.542  1.00  0.00     0.044 C 
BRANCH  25  31
HETATM   31  O2  UNL     1       6.984  19.172  -0.930  1.00  0.00    -0.384 OA
ATOM     32  H2  UNL     1       7.640  19.752  -1.297  1.00  0.00     0.211 HD
ENDBRANCH  25  31
ENDBRANCH  16  25
ENDBRANCH   1  16
BRANCH   5  33
HETATM   33  C11 UNL     1       2.146  21.972   0.865  1.00  0.00     0.049 A 
HETATM   34  C12 UNL     1       2.832  23.151   0.671  1.00  0.00     0.032 A 
HETATM   35  C13 UNL     1       2.534  24.305   1.378  1.00  0.00     0.026 A 
HETATM   36  C14 UNL     1       1.532  24.333   2.314  1.00  0.00     0.034 A 
HETATM   37 CL1  UNL     1       1.146  25.787   3.225  1.00  0.00    -0.084 Cl
HETATM   38  C15 UNL     1       0.823  23.173   2.536  1.00  0.00     0.026 A 
HETATM   39  C16 UNL     1       1.108  22.044   1.851  1.00  0.00     0.032 A 
ENDBRANCH   5  33
TORSDOF 6
ENDMDL
MODEL 2
REMARK VINA RESULT: -6.211826740      1.619      3.596
REMARK  6 active torsions:
REMARK  status: ('A' for Active; 'I' for Inactive)
REMARK    1  A    between atoms: C2_2  and  C3_3 
REMARK    2  A    between atoms: N1_8  and  C8_9 
REMARK    3  A    between atoms: C8_9  and  C9_10 
REMARK    4  A    between atoms: C8_9  and  C23_32 
REMARK    5  A    between atoms: N3_14  and  C11_16 
REMARK    6  A    between atoms: C23_32  and  O2_33 
ROOT
HETATM    1  C9  UNL     1       5.345  19.410   1.239  1.00  0.00     0.080 A 
HETATM    2  N2  UNL     1       4.415  20.374   1.340  1.00  0.00    -0.189 N 
ATOM      3  H2  UNL     1       4.591  21.097   2.037  1.00  0.00     0.184 HD
HETATM    4  C10 UNL     1       3.283  20.497   0.631  1.00  0.00     0.683 A 
HETATM    5  N3  UNL     1       2.411  21.319   0.875  1.00  0.00    -0.192 N 
ATOM      6  H3  UNL     1       1.699  21.159   0.162  1.00  0.00     0.184 HD
HETATM    7  N4  UNL     1       3.044  19.528  -0.324  1.00  0.00    -0.191 N 
ATOM      8  H4  UNL     1       2.203  19.570  -0.900  1.00  0.00     0.184 HD
HETATM    9  C17 UNL     1       3.911  18.549  -0.485  1.00  0.00     0.064 A 
HETATM   10  C18 UNL     1       5.073  18.441   0.275  1.00  0.00     0.022 A 
HETATM   11  C19 UNL     1       5.872  17.274  -0.028  1.00  0.00     0.211 C 
HETATM   12  O1  UNL     1       6.134  17.154  -1.419  1.00  0.00    -0.382 OA
HETATM   13  C20 UNL     1       4.965  16.957  -2.123  1.00  0.00     0.204 C 
HETATM   14  C21 UNL     1       3.730  17.566  -1.599  1.00  0.00    -0.032 C 
HETATM   15  C22 UNL     1       2.564  16.637  -1.413  1.00  0.00     0.048 C 
ENDROOT
BRANCH   1  16
HETATM   16  C8  UNL     1       6.549  19.240   2.087  1.00  0.00     0.051 C 
BRANCH  16  17
HETATM   17  N1  UNL     1       7.670  20.054   1.840  1.00  0.00    -0.274 NA
HETATM   18  C3  UNL     1       8.421  19.886   0.652  1.00  0.00     0.063 C 
HETATM   19  C4  UNL     1       9.136  18.543   0.715  1.00  0.00     0.022 C 
HETATM   20  C5  UNL     1       9.588  18.631   2.155  1.00  0.00     0.021 C 
HETATM   21  C6  UNL     1       8.787  19.782   2.748  1.00  0.00     0.059 C 
HETATM   22  C7  UNL     1       9.684  21.009   2.902  1.00  0.00     0.026 C 
BRANCH  18  23
HETATM   23  C2  UNL     1       8.025  20.262  -0.681  1.00  0.00     0.015 C 
HETATM   24  C1  UNL     1       9.333  20.657  -1.429  1.00  0.00     0.006 C 
ENDBRANCH  18  23
ENDBRANCH  16  17
BRANCH  16  25
HETATM   25  C23 UNL     1       6.369  18.347   3.246  1.00  0.00     0.097 C 
HETATM   26  C24 UNL     1       6.732  18.911   4.591  1.00  0.00     0.044 C 
HETATM   27  C25 UNL     1       7.284  17.881   5.552  1.00  0.00     0.003 C 
HETATM   28  C26 UNL     1       6.247  16.779   5.651  1.00  0.00     0.000 C 
HETATM   29  C27 UNL     1       5.887  16.176   4.321  1.00  0.00     0.003 C 
HETATM   30  C28 UNL     1       6.729  16.902   3.230  1.00  0.00     0.044 C 
BRANCH  25  31
HETATM   31  O2  UNL     1       4.929  18.168   3.296  1.00  0.00    -0.384 OA
ATOM     32  H2  UNL     1       4.759  18.073   4.226  1.00  0.00     0.211 HD
ENDBRANCH  25  31
ENDBRANCH  16  25
ENDBRANCH   1  16
BRANCH   5  33
HETATM   33  C11 UNL     1       1.924  22.335   1.624  1.00  0.00     0.049 A 
HETATM   34  C12 UNL     1       2.172  23.680   1.453  1.00  0.00     0.032 A 
HETATM   35  C13 UNL     1       1.647  24.642   2.300  1.00  0.00     0.026 A 
HETATM   36  C14 UNL     1       0.845  24.304   3.360  1.00  0.00     0.034 A 
HETATM   37 CL1  UNL     1       0.177  25.512   4.449  1.00  0.00    -0.084 Cl
HETATM   38  C15 UNL     1       0.574  22.968   3.564  1.00  0.00     0.026 A 
HETATM   39  C16 UNL     1       1.083  22.024   2.743  1.00  0.00     0.032 A 
ENDBRANCH   5  33
TORSDOF 6
ENDMDL
MODEL 3
REMARK VINA RESULT: -6.208141015      8.648     13.992
REMARK  6 active torsions:
REMARK  status: ('A' for Active; 'I' for Inactive)
REMARK    1  A    between atoms: C2_2  and  C3_3 
REMARK    2  A    between atoms: N1_8  and  C8_9 
REMARK    3  A    between atoms: C8_9  and  C9_10 
REMARK    4  A    between atoms: C8_9  and  C23_32 
REMARK    5  A    between atoms: N3_14  and  C11_16 
REMARK    6  A    between atoms: C23_32  and  O2_33 
ROOT
HETATM    1  C9  UNL     1      -2.917  27.697   6.277  1.00  0.00     0.080 A 
HETATM    2  N2  UNL     1      -2.026  26.874   5.703  1.00  0.00    -0.189 N 
ATOM      3  H2  UNL     1      -1.255  27.320   5.207  1.00  0.00     0.184 HD
HETATM    4  C10 UNL     1      -2.030  25.531   5.706  1.00  0.00     0.683 A 
HETATM    5  N3  UNL     1      -1.267  24.845   5.041  1.00  0.00    -0.192 N 
ATOM      6  H3  UNL     1      -1.520  23.884   5.269  1.00  0.00     0.184 HD
HETATM    7  N4  UNL     1      -3.064  24.920   6.387  1.00  0.00    -0.191 N 
ATOM      8  H4  UNL     1      -3.119  23.902   6.431  1.00  0.00     0.184 HD
HETATM    9  C17 UNL     1      -3.979  25.661   6.979  1.00  0.00     0.064 A 
HETATM   10  C18 UNL     1      -3.955  27.052   6.947  1.00  0.00     0.022 A 
HETATM   11  C19 UNL     1      -5.070  27.679   7.622  1.00  0.00     0.211 C 
HETATM   12  O1  UNL     1      -5.243  27.179   8.942  1.00  0.00    -0.382 OA
HETATM   13  C20 UNL     1      -5.568  25.840   8.920  1.00  0.00     0.204 C 
HETATM   14  C21 UNL     1      -5.031  25.014   7.824  1.00  0.00    -0.032 C 
HETATM   15  C22 UNL     1      -6.038  24.215   7.046  1.00  0.00     0.048 C 
ENDROOT
BRANCH   1  16
HETATM   16  C8  UNL     1      -2.947  29.178   6.194  1.00  0.00     0.051 C 
BRANCH  16  17
HETATM   17  N1  UNL     1      -2.120  29.920   7.057  1.00  0.00    -0.274 NA
HETATM   18  C3  UNL     1      -2.177  29.703   8.455  1.00  0.00     0.063 C 
HETATM   19  C4  UNL     1      -3.524  30.194   8.967  1.00  0.00     0.022 C 
HETATM   20  C5  UNL     1      -3.578  31.478   8.172  1.00  0.00     0.021 C 
HETATM   21  C6  UNL     1      -2.485  31.337   7.122  1.00  0.00     0.059 C 
HETATM   22  C7  UNL     1      -1.284  32.199   7.509  1.00  0.00     0.026 C 
BRANCH  18  23
HETATM   23  C2  UNL     1      -1.671  28.562   9.174  1.00  0.00     0.015 C 
HETATM   24  C1  UNL     1      -2.384  28.567  10.558  1.00  0.00     0.006 C 
ENDBRANCH  18  23
ENDBRANCH  16  17
BRANCH  16  25
HETATM   25  C23 UNL     1      -3.716  29.718   5.059  1.00  0.00     0.097 C 
HETATM   26  C24 UNL     1      -3.044  30.783   4.238  1.00  0.00     0.044 C 
HETATM   27  C25 UNL     1      -4.002  31.808   3.673  1.00  0.00     0.003 C 
HETATM   28  C26 UNL     1      -5.042  31.041   2.879  1.00  0.00     0.000 C 
HETATM   29  C27 UNL     1      -5.751  29.987   3.684  1.00  0.00     0.003 C 
HETATM   30  C28 UNL     1      -5.172  30.028   5.130  1.00  0.00     0.044 C 
BRANCH  25  31
HETATM   31  O2  UNL     1      -3.824  28.577   4.167  1.00  0.00    -0.384 OA
ATOM     32  H2  UNL     1      -3.124  28.729   3.543  1.00  0.00     0.211 HD
ENDBRANCH  25  31
ENDBRANCH  16  25
ENDBRANCH   1  16
BRANCH   5  33
HETATM   33  C11 UNL     1      -0.254  24.732   4.152  1.00  0.00     0.049 A 
HETATM   34  C12 UNL     1       0.456  25.761   3.572  1.00  0.00     0.032 A 
HETATM   35  C13 UNL     1       1.459  25.536   2.643  1.00  0.00     0.026 A 
HETATM   36  C14 UNL     1       1.801  24.267   2.251  1.00  0.00     0.034 A 
HETATM   37 CL1  UNL     1       3.067  23.964   1.067  1.00  0.00    -0.084 Cl
HETATM   38  C15 UNL     1       1.114  23.211   2.809  1.00  0.00     0.026 A 
HETATM   39  C16 UNL     1       0.134  23.422   3.714  1.00  0.00     0.032 A 
ENDBRANCH   5  33
TORSDOF 6
ENDMDL
MODEL 4
REMARK VINA RESULT: -6.180566321      3.129      7.236
REMARK  6 active torsions:
REMARK  status: ('A' for Active; 'I' for Inactive)
REMARK    1  A    between atoms: C2_2  and  C3_3 
REMARK    2  A    between atoms: N1_8  and  C8_9 
REMARK    3  A    between atoms: C8_9  and  C9_10 
REMARK    4  A    between atoms: C8_9  and  C23_32 
REMARK    5  A    between atoms: N3_14  and  C11_16 
REMARK    6  A    between atoms: C23_32  and  O2_33 
ROOT
HETATM    1  C9  UNL     1       4.613  19.319   2.259  1.00  0.00     0.080 A 
HETATM    2  N2  UNL     1       5.791  19.468   1.633  1.00  0.00    -0.189 N 
ATOM      3  H2  UNL     1       5.755  19.877   0.700  1.00  0.00     0.184 HD
HETATM    4  C10 UNL     1       7.009  19.143   2.091  1.00  0.00     0.683 A 
HETATM    5  N3  UNL     1       8.024  19.172   1.410  1.00  0.00    -0.192 N 
ATOM      6  H3  UNL     1       8.769  18.879   2.044  1.00  0.00     0.184 HD
HETATM    7  N4  UNL     1       7.066  18.600   3.360  1.00  0.00    -0.191 N 
ATOM      8  H4  UNL     1       7.964  18.337   3.767  1.00  0.00     0.184 HD
HETATM    9  C17 UNL     1       5.952  18.423   4.041  1.00  0.00     0.064 A 
HETATM   10  C18 UNL     1       4.700  18.759   3.533  1.00  0.00     0.022 A 
HETATM   11  C19 UNL     1       3.600  18.450   4.419  1.00  0.00     0.211 C 
HETATM   12  O1  UNL     1       3.803  18.975   5.724  1.00  0.00    -0.382 OA
HETATM   13  C20 UNL     1       4.897  18.388   6.324  1.00  0.00     0.204 C 
HETATM   14  C21 UNL     1       6.011  17.956   5.460  1.00  0.00    -0.032 C 
HETATM   15  C22 UNL     1       6.451  16.528   5.619  1.00  0.00     0.048 C 
ENDROOT
BRANCH   1  16
HETATM   16  C8  UNL     1       3.266  19.605   1.708  1.00  0.00     0.051 C 
BRANCH  16  17
HETATM   17  N1  UNL     1       2.448  18.524   1.329  1.00  0.00    -0.274 NA
HETATM   18  C3  UNL     1       2.955  17.517   0.473  1.00  0.00     0.063 C 
HETATM   19  C4  UNL     1       3.175  18.120  -0.908  1.00  0.00     0.022 C 
HETATM   20  C5  UNL     1       1.890  18.912  -0.982  1.00  0.00     0.021 C 
HETATM   21  C6  UNL     1       1.351  18.919   0.443  1.00  0.00     0.059 C 
HETATM   22  C7  UNL     1       0.175  17.950   0.554  1.00  0.00     0.026 C 
BRANCH  18  23
HETATM   23  C2  UNL     1       3.912  16.496   0.812  1.00  0.00     0.015 C 
HETATM   24  C1  UNL     1       3.257  15.640   1.936  1.00  0.00     0.006 C 
ENDBRANCH  18  23
ENDBRANCH  16  17
BRANCH  16  25
HETATM   25  C23 UNL     1       2.847  21.015   1.797  1.00  0.00     0.097 C 
HETATM   26  C24 UNL     1       1.749  21.329   2.775  1.00  0.00     0.044 C 
HETATM   27  C25 UNL     1       0.848  22.460   2.331  1.00  0.00     0.003 C 
HETATM   28  C26 UNL     1       1.744  23.654   2.070  1.00  0.00     0.000 C 
HETATM   29  C27 UNL     1       2.835  23.376   1.072  1.00  0.00     0.003 C 
HETATM   30  C28 UNL     1       2.683  21.897   0.608  1.00  0.00     0.044 C 
BRANCH  25  31
HETATM   31  O2  UNL     1       4.024  21.670   2.340  1.00  0.00    -0.384 OA
ATOM     32  H2  UNL     1       3.736  22.568   2.448  1.00  0.00     0.211 HD
ENDBRANCH  25  31
ENDBRANCH  16  25
ENDBRANCH   1  16
BRANCH   5  33
HETATM   33  C11 UNL     1       8.648  19.400   0.232  1.00  0.00     0.049 A 
HETATM   34  C12 UNL     1       8.390  20.422  -0.655  1.00  0.00     0.032 A 
HETATM   35  C13 UNL     1       9.068  20.548  -1.858  1.00  0.00     0.026 A 
HETATM   36  C14 UNL     1      10.040  19.655  -2.228  1.00  0.00     0.034 A 
HETATM   37 CL1  UNL     1      10.905  19.795  -3.753  1.00  0.00    -0.084 Cl
HETATM   38  C15 UNL     1      10.327  18.618  -1.367  1.00  0.00     0.026 A 
HETATM   39  C16 UNL     1       9.670  18.488  -0.194  1.00  0.00     0.032 A 
ENDBRANCH   5  33
TORSDOF 6
ENDMDL
MODEL 5
REMARK VINA RESULT: -6.178246429      1.685      3.899
REMARK  6 active torsions:
REMARK  status: ('A' for Active; 'I' for Inactive)
REMARK    1  A    between atoms: C2_2  and  C3_3 
REMARK    2  A    between atoms: N1_8  and  C8_9 
REMARK    3  A    between atoms: C8_9  and  C9_10 
REMARK    4  A    between atoms: C8_9  and  C23_32 
REMARK    5  A    between atoms: N3_14  and  C11_16 
REMARK    6  A    between atoms: C23_32  and  O2_33 
ROOT
HETATM    1  C9  UNL     1       4.904  18.523   1.833  1.00  0.00     0.080 A 
HETATM    2  N2  UNL     1       4.259  19.692   1.695  1.00  0.00    -0.189 N 
ATOM      3  H2  UNL     1       4.278  20.314   2.503  1.00  0.00     0.184 HD
HETATM    4  C10 UNL     1       3.591  20.137   0.619  1.00  0.00     0.683 A 
HETATM    5  N3  UNL     1       2.905  21.149   0.613  1.00  0.00    -0.192 N 
ATOM      6  H3  UNL     1       2.546  21.211  -0.340  1.00  0.00     0.184 HD
HETATM    7  N4  UNL     1       3.572  19.305  -0.483  1.00  0.00    -0.191 N 
ATOM      8  H4  UNL     1       3.086  19.590  -1.334  1.00  0.00     0.184 HD
HETATM    9  C17 UNL     1       4.185  18.140  -0.426  1.00  0.00     0.064 A 
HETATM   10  C18 UNL     1       4.859  17.699   0.710  1.00  0.00     0.022 A 
HETATM   11  C19 UNL     1       5.430  16.377   0.583  1.00  0.00     0.211 C 
HETATM   12  O1  UNL     1       6.223  16.249  -0.590  1.00  0.00    -0.382 OA
HETATM   13  C20 UNL     1       5.451  16.395  -1.723  1.00  0.00     0.204 C 
HETATM   14  C21 UNL     1       4.279  17.286  -1.651  1.00  0.00    -0.032 C 
HETATM   15  C22 UNL     1       2.971  16.689  -2.085  1.00  0.00     0.048 C 
ENDROOT
BRANCH   1  16
HETATM   16  C8  UNL     1       5.565  18.007   3.056  1.00  0.00     0.051 C 
BRANCH  16  17
HETATM   17  N1  UNL     1       6.969  18.058   3.138  1.00  0.00    -0.274 NA
HETATM   18  C3  UNL     1       7.596  18.411   4.357  1.00  0.00     0.063 C 
HETATM   19  C4  UNL     1       7.308  19.878   4.644  1.00  0.00     0.022 C 
HETATM   20  C5  UNL     1       7.529  20.397   3.242  1.00  0.00     0.021 C 
HETATM   21  C6  UNL     1       7.549  19.155   2.362  1.00  0.00     0.059 C 
HETATM   22  C7  UNL     1       8.986  18.840   1.948  1.00  0.00     0.026 C 
BRANCH  18  23
HETATM   23  C2  UNL     1       7.693  17.602   5.545  1.00  0.00     0.015 C 
HETATM   24  C1  UNL     1       8.210  16.208   5.083  1.00  0.00     0.006 C 
ENDBRANCH  18  23
ENDBRANCH  16  17
BRANCH  16  25
HETATM   25  C23 UNL     1       4.648  17.664   4.158  1.00  0.00     0.097 C 
HETATM   26  C24 UNL     1       4.360  18.752   5.155  1.00  0.00     0.044 C 
HETATM   27  C25 UNL     1       4.131  18.240   6.560  1.00  0.00     0.003 C 
HETATM   28  C26 UNL     1       3.008  17.225   6.476  1.00  0.00     0.000 C 
HETATM   29  C27 UNL     1       3.283  16.109   5.506  1.00  0.00     0.003 C 
HETATM   30  C28 UNL     1       4.687  16.362   4.881  1.00  0.00     0.044 C 
BRANCH  25  31
HETATM   31  O2  UNL     1       3.386  17.447   3.473  1.00  0.00    -0.384 OA
ATOM     32  H2  UNL     1       2.871  18.202   3.732  1.00  0.00     0.211 HD
ENDBRANCH  25  31
ENDBRANCH  16  25
ENDBRANCH   1  16
BRANCH   5  33
HETATM   33  C11 UNL     1       2.385  22.226   1.246  1.00  0.00     0.049 A 
HETATM   34  C12 UNL     1       2.612  23.551   0.943  1.00  0.00     0.032 A 
HETATM   35  C13 UNL     1       2.053  24.584   1.679  1.00  0.00     0.026 A 
HETATM   36  C14 UNL     1       1.238  24.339   2.754  1.00  0.00     0.034 A 
HETATM   37 CL1  UNL     1       0.527  25.638   3.703  1.00  0.00    -0.084 Cl
HETATM   38  C15 UNL     1       0.987  23.025   3.088  1.00  0.00     0.026 A 
HETATM   39  C16 UNL     1       1.529  22.013   2.377  1.00  0.00     0.032 A 
ENDBRANCH   5  33
TORSDOF 6
ENDMDL
