MODEL 1
REMARK VINA RESULT: -7.090718791      0.000      0.000
REMARK  8 active torsions:
REMARK  status: ('A' for Active; 'I' for Inactive)
REMARK    1  A    between atoms: C2_2  and  C3_3 
REMARK    2  A    between atoms: C3_3  and  C4_4 
REMARK    3  A    between atoms: C4_4  and  N1_5 
REMARK       I    between atoms: C5_7  and  N2_8 
REMARK       I    between atoms: C5_7  and  N3_21 
REMARK    4  A    between atoms: N2_8  and  C6_10 
REMARK    5  A    between atoms: N3_21  and  C16_23 
REMARK    6  A    between atoms: C20_29  and  C21_30 
REMARK       I    between atoms: N4_31  and  C22_33 
REMARK    7  A    between atoms: C22_33  and  O4_35 
REMARK    8  A    between atoms: O4_35  and  C23_36 
ROOT
HETATM    1  N1  UNL     1       2.419  22.153   1.439  1.00  0.00    -0.227 N 
ATOM      2  H1  UNL     1       3.020  22.079   2.260  1.00  0.00     0.177 HD
HETATM    3  C5  UNL     1       2.341  21.140   0.624  1.00  0.00     0.670 C 
HETATM    4  N2  UNL     1       1.529  21.172  -0.534  1.00  0.00    -0.219 N 
ATOM      5  H2  UNL     1       1.705  21.902  -1.225  1.00  0.00     0.178 HD
HETATM    6  N3  UNL     1       3.099  19.990   0.951  1.00  0.00    -0.212 N 
ATOM      7  H3  UNL     1       2.646  19.260   1.500  1.00  0.00     0.178 HD
ENDROOT
BRANCH   1   8
HETATM    8  C4  UNL     1       1.688  23.371   1.223  1.00  0.00     0.138 C 
BRANCH   8   9
HETATM    9  C3  UNL     1       2.468  24.622   1.452  1.00  0.00     0.020 C 
BRANCH   9  10
HETATM   10  C2  UNL     1       1.694  25.711   2.162  1.00  0.00    -0.003 C 
HETATM   11  C1  UNL     1       0.965  25.184   3.374  1.00  0.00     0.005 C 
ENDBRANCH   9  10
ENDBRANCH   8   9
ENDBRANCH   1   8
BRANCH   4  12
HETATM   12  C6  UNL     1       0.464  20.231  -0.793  1.00  0.00     0.133 C 
HETATM   13  C7  UNL     1      -0.498  20.300   0.333  1.00  0.00     0.028 C 
HETATM   14  C8  UNL     1      -1.722  19.425   0.188  1.00  0.00     0.002 C 
HETATM   15  C9  UNL     1      -2.986  20.163   0.401  1.00  0.00     0.000 C 
HETATM   16  C10 UNL     1      -3.873  20.449  -0.734  1.00  0.00     0.000 C 
HETATM   17  C11 UNL     1      -3.541  19.986  -2.095  1.00  0.00     0.000 C 
HETATM   18  C12 UNL     1      -2.871  21.002  -2.987  1.00  0.00     0.000 C 
HETATM   19  C13 UNL     1      -2.037  22.013  -2.332  1.00  0.00     0.003 C 
HETATM   20  C14 UNL     1      -0.540  21.828  -2.471  1.00  0.00     0.039 C 
HETATM   21  C15 UNL     1      -0.051  20.452  -2.155  1.00  0.00     0.193 C 
HETATM   22  F1  UNL     1       1.027  20.223  -3.034  1.00  0.00    -0.247 F 
ENDBRANCH   4  12
BRANCH   6  23
HETATM   23  C16 UNL     1       4.458  19.788   0.562  1.00  0.00     0.210 C 
HETATM   24  C17 UNL     1       5.453  20.469   1.428  1.00  0.00     0.283 C 
HETATM   25  O1  UNL     1       5.447  21.654   1.839  1.00  0.00    -0.263 OA
HETATM   26  O2  UNL     1       6.477  19.555   1.754  1.00  0.00    -0.314 OA
HETATM   27  C18 UNL     1       6.424  18.544   0.744  1.00  0.00     0.139 C 
HETATM   28  C19 UNL     1       7.163  17.329   1.202  1.00  0.00     0.041 C 
HETATM   29  C20 UNL     1       4.913  18.334   0.673  1.00  0.00     0.086 C 
BRANCH  29  30
HETATM   30  C21 UNL     1       4.586  17.585  -0.566  1.00  0.00     0.076 C 
HETATM   31  N4  UNL     1       4.822  18.074  -1.724  1.00  0.00    -0.316 N 
HETATM   32  C22 UNL     1       4.520  17.381  -2.926  1.00  0.00     0.365 C 
ATOM     33  H4  UNL     1       5.244  19.001  -1.787  1.00  0.00     0.170 HD
HETATM   34  O3  UNL     1       3.469  16.704  -3.070  1.00  0.00    -0.238 OA
BRANCH  32  35
HETATM   35  O4  UNL     1       5.393  17.433  -3.996  1.00  0.00    -0.294 OA
BRANCH  35  36
HETATM   36  C23 UNL     1       6.578  16.687  -4.097  1.00  0.00     0.061 C 
HETATM   37  C24 UNL     1       6.487  15.369  -3.356  1.00  0.00     0.046 C 
HETATM   38  C25 UNL     1       6.832  16.402  -5.560  1.00  0.00     0.046 C 
HETATM   39  C26 UNL     1       7.704  17.520  -3.541  1.00  0.00     0.046 C 
ENDBRANCH  35  36
ENDBRANCH  32  35
ENDBRANCH  29  30
ENDBRANCH   6  23
TORSDOF 8
ENDMDL
MODEL 2
REMARK VINA RESULT: -6.973049186      3.958      7.937
REMARK  8 active torsions:
REMARK  status: ('A' for Active; 'I' for Inactive)
REMARK    1  A    between atoms: C2_2  and  C3_3 
REMARK    2  A    between atoms: C3_3  and  C4_4 
REMARK    3  A    between atoms: C4_4  and  N1_5 
REMARK       I    between atoms: C5_7  and  N2_8 
REMARK       I    between atoms: C5_7  and  N3_21 
REMARK    4  A    between atoms: N2_8  and  C6_10 
REMARK    5  A    between atoms: N3_21  and  C16_23 
REMARK    6  A    between atoms: C20_29  and  C21_30 
REMARK       I    between atoms: N4_31  and  C22_33 
REMARK    7  A    between atoms: C22_33  and  O4_35 
REMARK    8  A    between atoms: O4_35  and  C23_36 
ROOT
HETATM    1  N1  UNL     1       2.113  23.951   0.615  1.00  0.00    -0.227 N 
ATOM      2  H1  UNL     1       1.777  24.506  -0.171  1.00  0.00     0.177 HD
HETATM    3  C5  UNL     1       2.210  22.658   0.475  1.00  0.00     0.670 C 
HETATM    4  N2  UNL     1       2.667  21.825   1.523  1.00  0.00    -0.219 N 
ATOM      5  H2  UNL     1       2.157  21.838   2.406  1.00  0.00     0.178 HD
HETATM    6  N3  UNL     1       1.845  22.118  -0.781  1.00  0.00    -0.212 N 
ATOM      7  H3  UNL     1       2.579  21.995  -1.479  1.00  0.00     0.178 HD
ENDROOT
BRANCH   1   8
HETATM    8  C4  UNL     1       2.465  24.619   1.837  1.00  0.00     0.138 C 
BRANCH   8   9
HETATM    9  C3  UNL     1       1.565  25.747   2.219  1.00  0.00     0.020 C 
BRANCH   9  10
HETATM   10  C2  UNL     1       0.770  25.502   3.483  1.00  0.00    -0.003 C 
HETATM   11  C1  UNL     1       0.646  24.030   3.793  1.00  0.00     0.005 C 
ENDBRANCH   9  10
ENDBRANCH   8   9
ENDBRANCH   1   8
BRANCH   4  12
HETATM   12  C6  UNL     1       3.816  20.956   1.412  1.00  0.00     0.133 C 
HETATM   13  C7  UNL     1       4.991  21.671   1.966  1.00  0.00     0.028 C 
HETATM   14  C8  UNL     1       6.274  20.873   1.996  1.00  0.00     0.002 C 
HETATM   15  C9  UNL     1       6.926  20.879   3.324  1.00  0.00     0.000 C 
HETATM   16  C10 UNL     1       6.931  19.665   4.149  1.00  0.00     0.000 C 
HETATM   17  C11 UNL     1       6.316  18.414   3.665  1.00  0.00     0.000 C 
HETATM   18  C12 UNL     1       4.909  18.149   4.141  1.00  0.00     0.000 C 
HETATM   19  C13 UNL     1       4.072  19.318   4.421  1.00  0.00     0.003 C 
HETATM   20  C14 UNL     1       2.999  19.624   3.395  1.00  0.00     0.039 C 
HETATM   21  C15 UNL     1       3.478  19.641   1.979  1.00  0.00     0.193 C 
HETATM   22  F1  UNL     1       2.409  19.134   1.212  1.00  0.00    -0.247 F 
ENDBRANCH   4  12
BRANCH   6  23
HETATM   23  C16 UNL     1       0.516  21.735  -1.135  1.00  0.00     0.210 C 
HETATM   24  C17 UNL     1       0.361  21.276  -2.538  1.00  0.00     0.283 C 
HETATM   25  O1  UNL     1       0.791  21.815  -3.586  1.00  0.00    -0.263 OA
HETATM   26  O2  UNL     1      -0.382  20.077  -2.547  1.00  0.00    -0.314 OA
HETATM   27  C18 UNL     1      -1.101  20.062  -1.312  1.00  0.00     0.139 C 
HETATM   28  C19 UNL     1      -1.586  18.679  -1.023  1.00  0.00     0.041 C 
HETATM   29  C20 UNL     1       0.008  20.518  -0.366  1.00  0.00     0.086 C 
BRANCH  29  30
HETATM   30  C21 UNL     1      -0.596  20.926   0.927  1.00  0.00     0.076 C 
HETATM   31  N4  UNL     1      -0.332  20.304   2.013  1.00  0.00    -0.316 N 
HETATM   32  C22 UNL     1      -0.894  20.670   3.264  1.00  0.00     0.365 C 
ATOM     33  H4  UNL     1       0.310  19.511   1.979  1.00  0.00     0.170 HD
HETATM   34  O3  UNL     1      -2.092  21.036   3.386  1.00  0.00    -0.238 OA
BRANCH  32  35
HETATM   35  O4  UNL     1      -0.121  20.636   4.410  1.00  0.00    -0.294 OA
BRANCH  35  36
HETATM   36  C23 UNL     1      -0.263  19.695   5.442  1.00  0.00     0.061 C 
HETATM   37  C24 UNL     1      -1.565  19.868   6.196  1.00  0.00     0.046 C 
HETATM   38  C25 UNL     1      -0.240  18.314   4.828  1.00  0.00     0.046 C 
HETATM   39  C26 UNL     1       0.905  19.851   6.380  1.00  0.00     0.046 C 
ENDBRANCH  35  36
ENDBRANCH  32  35
ENDBRANCH  29  30
ENDBRANCH   6  23
TORSDOF 8
ENDMDL
MODEL 3
REMARK VINA RESULT: -6.927834914      3.695      4.930
REMARK  8 active torsions:
REMARK  status: ('A' for Active; 'I' for Inactive)
REMARK    1  A    between atoms: C2_2  and  C3_3 
REMARK    2  A    between atoms: C3_3  and  C4_4 
REMARK    3  A    between atoms: C4_4  and  N1_5 
REMARK       I    between atoms: C5_7  and  N2_8 
REMARK       I    between atoms: C5_7  and  N3_21 
REMARK    4  A    between atoms: N2_8  and  C6_10 
REMARK    5  A    between atoms: N3_21  and  C16_23 
REMARK    6  A    between atoms: C20_29  and  C21_30 
REMARK       I    between atoms: N4_31  and  C22_33 
REMARK    7  A    between atoms: C22_33  and  O4_35 
REMARK    8  A    between atoms: O4_35  and  C23_36 
ROOT
HETATM    1  N1  UNL     1       0.304  22.411   4.105  1.00  0.00    -0.227 N 
ATOM      2  H1  UNL     1       0.125  22.351   5.108  1.00  0.00     0.177 HD
HETATM    3  C5  UNL     1       0.791  21.370   3.491  1.00  0.00     0.670 C 
HETATM    4  N2  UNL     1       1.066  21.381   2.103  1.00  0.00    -0.219 N 
ATOM      5  H2  UNL     1       1.721  22.079   1.748  1.00  0.00     0.178 HD
HETATM    6  N3  UNL     1       1.025  20.213   4.273  1.00  0.00    -0.212 N 
ATOM      7  H3  UNL     1       0.282  19.517   4.330  1.00  0.00     0.178 HD
ENDROOT
BRANCH   1   8
HETATM    8  C4  UNL     1       0.012  23.640   3.420  1.00  0.00     0.138 C 
BRANCH   8   9
HETATM    9  C3  UNL     1       0.805  24.819   3.877  1.00  0.00     0.020 C 
BRANCH   9  10
HETATM   10  C2  UNL     1       1.314  25.694   2.753  1.00  0.00    -0.003 C 
HETATM   11  C1  UNL     1       2.073  24.898   1.719  1.00  0.00     0.005 C 
ENDBRANCH   9  10
ENDBRANCH   8   9
ENDBRANCH   1   8
BRANCH   4  12
HETATM   12  C6  UNL     1       0.473  20.460   1.161  1.00  0.00     0.133 C 
HETATM   13  C7  UNL     1      -0.996  20.663   1.180  1.00  0.00     0.028 C 
HETATM   14  C8  UNL     1      -1.774  19.825   0.192  1.00  0.00     0.002 C 
HETATM   15  C9  UNL     1      -2.700  20.624  -0.639  1.00  0.00     0.000 C 
HETATM   16  C10 UNL     1      -2.413  20.842  -2.062  1.00  0.00     0.000 C 
HETATM   17  C11 UNL     1      -1.220  20.252  -2.696  1.00  0.00     0.000 C 
HETATM   18  C12 UNL     1      -0.021  21.160  -2.813  1.00  0.00     0.000 C 
HETATM   19  C13 UNL     1       0.131  22.193  -1.785  1.00  0.00     0.003 C 
HETATM   20  C14 UNL     1       1.206  21.942  -0.747  1.00  0.00     0.039 C 
HETATM   21  C15 UNL     1       1.169  20.582  -0.130  1.00  0.00     0.193 C 
HETATM   22  F1  UNL     1       2.516  20.237   0.105  1.00  0.00    -0.247 F 
ENDBRANCH   4  12
BRANCH   6  23
HETATM   23  C16 UNL     1       2.236  19.958   4.986  1.00  0.00     0.210 C 
HETATM   24  C17 UNL     1       2.045  19.319   6.312  1.00  0.00     0.283 C 
HETATM   25  O1  UNL     1       1.240  19.635   7.220  1.00  0.00    -0.263 OA
HETATM   26  O2  UNL     1       2.944  18.239   6.432  1.00  0.00    -0.314 OA
HETATM   27  C18 UNL     1       3.988  18.502   5.492  1.00  0.00     0.139 C 
HETATM   28  C19 UNL     1       4.764  17.253   5.231  1.00  0.00     0.041 C 
HETATM   29  C20 UNL     1       3.147  18.945   4.296  1.00  0.00     0.086 C 
BRANCH  29  30
HETATM   30  C21 UNL     1       4.027  19.617   3.308  1.00  0.00     0.076 C 
HETATM   31  N4  UNL     1       4.873  20.508   3.663  1.00  0.00    -0.316 N 
HETATM   32  C22 UNL     1       5.728  21.167   2.741  1.00  0.00     0.365 C 
ATOM     33  H4  UNL     1       4.936  20.755   4.651  1.00  0.00     0.170 HD
HETATM   34  O3  UNL     1       5.340  21.529   1.600  1.00  0.00    -0.238 OA
BRANCH  32  35
HETATM   35  O4  UNL     1       7.041  21.435   3.079  1.00  0.00    -0.294 OA
BRANCH  35  36
HETATM   36  C23 UNL     1       7.997  20.461   3.405  1.00  0.00     0.061 C 
HETATM   37  C24 UNL     1       7.800  19.913   4.803  1.00  0.00     0.046 C 
HETATM   38  C25 UNL     1       7.867  19.324   2.417  1.00  0.00     0.046 C 
HETATM   39  C26 UNL     1       9.362  21.087   3.279  1.00  0.00     0.046 C 
ENDBRANCH  35  36
ENDBRANCH  32  35
ENDBRANCH  29  30
ENDBRANCH   6  23
TORSDOF 8
ENDMDL
MODEL 4
REMARK VINA RESULT: -6.787492336      2.863      6.417
REMARK  8 active torsions:
REMARK  status: ('A' for Active; 'I' for Inactive)
REMARK    1  A    between atoms: C2_2  and  C3_3 
REMARK    2  A    between atoms: C3_3  and  C4_4 
REMARK    3  A    between atoms: C4_4  and  N1_5 
REMARK       I    between atoms: C5_7  and  N2_8 
REMARK       I    between atoms: C5_7  and  N3_21 
REMARK    4  A    between atoms: N2_8  and  C6_10 
REMARK    5  A    between atoms: N3_21  and  C16_23 
REMARK    6  A    between atoms: C20_29  and  C21_30 
REMARK       I    between atoms: N4_31  and  C22_33 
REMARK    7  A    between atoms: C22_33  and  O4_35 
REMARK    8  A    between atoms: O4_35  and  C23_36 
ROOT
HETATM    1  N1  UNL     1       2.178  20.138  -0.355  1.00  0.00    -0.227 N 
ATOM      2  H1  UNL     1       2.589  19.888  -1.255  1.00  0.00     0.177 HD
HETATM    3  C5  UNL     1       2.971  20.446   0.633  1.00  0.00     0.670 C 
HETATM    4  N2  UNL     1       2.473  20.801   1.908  1.00  0.00    -0.219 N 
ATOM      5  H2  UNL     1       1.883  20.129   2.399  1.00  0.00     0.178 HD
HETATM    6  N3  UNL     1       4.363  20.420   0.373  1.00  0.00    -0.212 N 
ATOM      7  H3  UNL     1       4.809  21.287   0.077  1.00  0.00     0.178 HD
ENDROOT
BRANCH   1   8
HETATM    8  C4  UNL     1       0.748  20.140  -0.221  1.00  0.00     0.138 C 
BRANCH   8   9
HETATM    9  C3  UNL     1       0.078  21.407  -0.635  1.00  0.00     0.020 C 
BRANCH   9  10
HETATM   10  C2  UNL     1       0.540  21.941  -1.974  1.00  0.00    -0.003 C 
HETATM   11  C1  UNL     1      -0.613  22.137  -2.928  1.00  0.00     0.005 C 
ENDBRANCH   9  10
ENDBRANCH   8   9
ENDBRANCH   1   8
BRANCH   4  12
HETATM   12  C6  UNL     1       2.753  22.062   2.555  1.00  0.00     0.133 C 
HETATM   13  C7  UNL     1       2.583  23.142   1.554  1.00  0.00     0.028 C 
HETATM   14  C8  UNL     1       2.768  24.546   2.084  1.00  0.00     0.002 C 
HETATM   15  C9  UNL     1       1.646  25.445   1.739  1.00  0.00     0.000 C 
HETATM   16  C10 UNL     1       0.709  25.887   2.780  1.00  0.00     0.000 C 
HETATM   17  C11 UNL     1       0.882  25.473   4.185  1.00  0.00     0.000 C 
HETATM   18  C12 UNL     1       0.056  24.290   4.626  1.00  0.00     0.000 C 
HETATM   19  C13 UNL     1      -0.277  23.295   3.603  1.00  0.00     0.003 C 
HETATM   20  C14 UNL     1       0.490  21.991   3.673  1.00  0.00     0.039 C 
HETATM   21  C15 UNL     1       1.971  22.146   3.800  1.00  0.00     0.193 C 
HETATM   22  F1  UNL     1       2.396  21.076   4.614  1.00  0.00    -0.247 F 
ENDBRANCH   4  12
BRANCH   6  23
HETATM   23  C16 UNL     1       5.181  19.257   0.500  1.00  0.00     0.210 C 
HETATM   24  C17 UNL     1       5.203  18.387  -0.703  1.00  0.00     0.283 C 
HETATM   25  O1  UNL     1       4.235  17.981  -1.389  1.00  0.00    -0.263 OA
HETATM   26  O2  UNL     1       6.540  18.050  -0.998  1.00  0.00    -0.314 OA
HETATM   27  C18 UNL     1       7.262  18.238   0.222  1.00  0.00     0.139 C 
HETATM   28  C19 UNL     1       8.727  18.317  -0.061  1.00  0.00     0.041 C 
HETATM   29  C20 UNL     1       6.666  19.572   0.667  1.00  0.00     0.086 C 
BRANCH  29  30
HETATM   30  C21 UNL     1       6.999  19.799   2.095  1.00  0.00     0.076 C 
HETATM   31  N4  UNL     1       6.593  19.003   3.010  1.00  0.00    -0.316 N 
HETATM   32  C22 UNL     1       6.895  19.194   4.384  1.00  0.00     0.365 C 
ATOM     33  H4  UNL     1       6.029  18.196   2.741  1.00  0.00     0.170 HD
HETATM   34  O3  UNL     1       6.896  20.331   4.924  1.00  0.00    -0.238 OA
BRANCH  32  35
HETATM   35  O4  UNL     1       7.204  18.111   5.185  1.00  0.00    -0.294 OA
BRANCH  35  36
HETATM   36  C23 UNL     1       6.261  17.240   5.751  1.00  0.00     0.061 C 
HETATM   37  C24 UNL     1       4.995  17.961   6.166  1.00  0.00     0.046 C 
HETATM   38  C25 UNL     1       5.904  16.195   4.718  1.00  0.00     0.046 C 
HETATM   39  C26 UNL     1       6.896  16.575   6.945  1.00  0.00     0.046 C 
ENDBRANCH  35  36
ENDBRANCH  32  35
ENDBRANCH  29  30
ENDBRANCH   6  23
TORSDOF 8
ENDMDL
MODEL 5
REMARK VINA RESULT: -6.779449829      1.494      2.112
REMARK  8 active torsions:
REMARK  status: ('A' for Active; 'I' for Inactive)
REMARK    1  A    between atoms: C2_2  and  C3_3 
REMARK    2  A    between atoms: C3_3  and  C4_4 
REMARK    3  A    between atoms: C4_4  and  N1_5 
REMARK       I    between atoms: C5_7  and  N2_8 
REMARK       I    between atoms: C5_7  and  N3_21 
REMARK    4  A    between atoms: N2_8  and  C6_10 
REMARK    5  A    between atoms: N3_21  and  C16_23 
REMARK    6  A    between atoms: C20_29  and  C21_30 
REMARK       I    between atoms: N4_31  and  C22_33 
REMARK    7  A    between atoms: C22_33  and  O4_35 
REMARK    8  A    between atoms: O4_35  and  C23_36 
ROOT
HETATM    1  N1  UNL     1       2.481  22.259   1.489  1.00  0.00    -0.227 N 
ATOM      2  H1  UNL     1       3.111  22.199   2.289  1.00  0.00     0.177 HD
HETATM    3  C5  UNL     1       2.424  21.257   0.658  1.00  0.00     0.670 C 
HETATM    4  N2  UNL     1       1.575  21.272  -0.474  1.00  0.00    -0.219 N 
ATOM      5  H2  UNL     1       1.695  22.020  -1.157  1.00  0.00     0.178 HD
HETATM    6  N3  UNL     1       3.245  20.139   0.940  1.00  0.00    -0.212 N 
ATOM      7  H3  UNL     1       2.844  19.379   1.489  1.00  0.00     0.178 HD
ENDROOT
BRANCH   1   8
HETATM    8  C4  UNL     1       1.688  23.445   1.318  1.00  0.00     0.138 C 
BRANCH   8   9
HETATM    9  C3  UNL     1       2.427  24.728   1.501  1.00  0.00     0.020 C 
BRANCH   9  10
HETATM   10  C2  UNL     1       1.642  25.795   2.233  1.00  0.00    -0.003 C 
HETATM   11  C1  UNL     1       0.919  25.236   3.434  1.00  0.00     0.005 C 
ENDBRANCH   9  10
ENDBRANCH   8   9
ENDBRANCH   1   8
BRANCH   4  12
HETATM   12  C6  UNL     1       0.547  20.285  -0.717  1.00  0.00     0.133 C 
HETATM   13  C7  UNL     1      -0.428  20.351   0.397  1.00  0.00     0.028 C 
HETATM   14  C8  UNL     1      -1.619  19.429   0.265  1.00  0.00     0.002 C 
HETATM   15  C9  UNL     1      -2.911  20.126   0.445  1.00  0.00     0.000 C 
HETATM   16  C10 UNL     1      -3.795  20.349  -0.706  1.00  0.00     0.000 C 
HETATM   17  C11 UNL     1      -3.432  19.862  -2.050  1.00  0.00     0.000 C 
HETATM   18  C12 UNL     1      -2.789  20.876  -2.964  1.00  0.00     0.000 C 
HETATM   19  C13 UNL     1      -1.999  21.934  -2.329  1.00  0.00     0.003 C 
HETATM   20  C14 UNL     1      -0.495  21.799  -2.448  1.00  0.00     0.039 C 
HETATM   21  C15 UNL     1       0.040  20.451  -2.089  1.00  0.00     0.193 C 
HETATM   22  F1  UNL     1       1.134  20.236  -2.952  1.00  0.00    -0.247 F 
ENDBRANCH   4  12
BRANCH   6  23
HETATM   23  C16 UNL     1       4.599  20.008   0.506  1.00  0.00     0.210 C 
HETATM   24  C17 UNL     1       5.608  20.484   1.485  1.00  0.00     0.283 C 
HETATM   25  O1  UNL     1       5.619  21.558   2.132  1.00  0.00    -0.263 OA
HETATM   26  O2  UNL     1       6.622  19.511   1.605  1.00  0.00    -0.314 OA
HETATM   27  C18 UNL     1       6.551  18.732   0.408  1.00  0.00     0.139 C 
HETATM   28  C19 UNL     1       7.278  17.441   0.598  1.00  0.00     0.041 C 
HETATM   29  C20 UNL     1       5.037  18.558   0.308  1.00  0.00     0.086 C 
BRANCH  29  30
HETATM   30  C21 UNL     1       4.693  18.085  -1.056  1.00  0.00     0.076 C 
HETATM   31  N4  UNL     1       3.990  17.033  -1.240  1.00  0.00    -0.316 N 
HETATM   32  C22 UNL     1       3.645  16.556  -2.532  1.00  0.00     0.365 C 
ATOM     33  H4  UNL     1       3.662  16.515  -0.424  1.00  0.00     0.170 HD
HETATM   34  O3  UNL     1       4.452  16.576  -3.498  1.00  0.00    -0.238 OA
BRANCH  32  35
HETATM   35  O4  UNL     1       2.383  16.044  -2.770  1.00  0.00    -0.294 OA
BRANCH  35  36
HETATM   36  C23 UNL     1       2.076  14.677  -2.846  1.00  0.00     0.061 C 
HETATM   37  C24 UNL     1       3.105  13.821  -2.136  1.00  0.00     0.046 C 
HETATM   38  C25 UNL     1       0.731  14.459  -2.192  1.00  0.00     0.046 C 
HETATM   39  C26 UNL     1       1.999  14.295  -4.302  1.00  0.00     0.046 C 
ENDBRANCH  35  36
ENDBRANCH  32  35
ENDBRANCH  29  30
ENDBRANCH   6  23
TORSDOF 8
ENDMDL
