MODEL 1
REMARK VINA RESULT: -7.060204039      0.000      0.000
REMARK  9 active torsions:
REMARK  status: ('A' for Active; 'I' for Inactive)
REMARK    1  A    between atoms: O1_2  and  C2_3 
REMARK    2  A    between atoms: C2_3  and  C3_5 
REMARK    3  A    between atoms: C3_5  and  N1_6 
REMARK    4  A    between atoms: C3_5  and  C4_10 
REMARK    5  A    between atoms: C4_10  and  C5_11 
REMARK    6  A    between atoms: C5_11  and  C6_12 
REMARK    7  A    between atoms: C6_12  and  C8_14 
REMARK    8  A    between atoms: C21_27  and  O3_28 
REMARK    9  A    between atoms: C21_27  and  C22_30 
ROOT
HETATM    1  C8  UNL     1       8.918  19.716   1.661  1.00  0.00    -0.007 C 
HETATM    2  C9  UNL     1       8.430  20.050   3.089  1.00  0.00     0.006 C 
HETATM    3  C10 UNL     1       7.329  21.107   3.049  1.00  0.00     0.010 C 
HETATM    4  C11 UNL     1       6.129  20.362   2.531  1.00  0.00     0.019 C 
HETATM    5  C12 UNL     1       6.456  19.931   1.148  1.00  0.00    -0.079 C 
HETATM    6  C13 UNL     1       5.463  19.456   0.424  1.00  0.00    -0.023 C 
HETATM    7  C14 UNL     1       4.091  19.343   0.930  1.00  0.00     0.033 C 
HETATM    8  C15 UNL     1       3.812  19.892   2.273  1.00  0.00     0.006 C 
HETATM    9  C16 UNL     1       4.819  21.012   2.641  1.00  0.00     0.002 C 
HETATM   10  C17 UNL     1       4.575  22.194   1.730  1.00  0.00     0.033 C 
HETATM   11  C18 UNL     1       3.121  22.527   1.679  1.00  0.00    -0.023 C 
HETATM   12  C19 UNL     1       2.161  21.704   1.992  1.00  0.00    -0.072 C 
HETATM   13  C20 UNL     1       0.715  22.059   1.940  1.00  0.00     0.077 C 
HETATM   14  C21 UNL     1       0.011  21.788   3.235  1.00  0.00     0.090 C 
HETATM   15  C27 UNL     1       0.636  20.795   4.132  1.00  0.00     0.044 C 
HETATM   16  C28 UNL     1       2.045  20.422   3.952  1.00  0.00     0.017 C 
HETATM   17  C29 UNL     1       2.409  20.309   2.459  1.00  0.00    -0.016 C 
HETATM   18  C30 UNL     1       1.503  19.301   1.787  1.00  0.00     0.020 C 
HETATM   19  C31 UNL     1       7.848  20.060   0.677  1.00  0.00     0.039 C 
ENDROOT
BRANCH   1  20
HETATM   20  C6  UNL     1       9.399  18.298   1.623  1.00  0.00    -0.014 C 
HETATM   21  C7  UNL     1       8.317  17.428   2.375  1.00  0.00     0.010 C 
BRANCH  20  22
HETATM   22  C5  UNL     1       9.481  17.589   0.323  1.00  0.00     0.007 C 
BRANCH  22  23
HETATM   23  C4  UNL     1      10.646  17.701  -0.545  1.00  0.00     0.043 C 
BRANCH  23  24
HETATM   24  C3  UNL     1      10.584  18.029  -1.980  1.00  0.00     0.282 C 
BRANCH  24  25
HETATM   25  C2  UNL     1       9.873  19.380  -2.141  1.00  0.00     0.289 C 
HETATM   26  O2  UNL     1       8.770  19.381  -2.712  1.00  0.00    -0.263 OA
BRANCH  25  27
HETATM   27  O1  UNL     1      10.519  20.465  -1.636  1.00  0.00    -0.325 OA
HETATM   28  C1  UNL     1      10.022  21.762  -1.826  1.00  0.00     0.213 C 
ENDBRANCH  25  27
ENDBRANCH  24  25
BRANCH  24  29
HETATM   29  N1  UNL     1      11.897  18.224  -2.576  1.00  0.00    -0.066 N 
ATOM     30  H13 UNL     1      12.206  19.196  -2.585  1.00  0.00     0.275 HD
ATOM     31  H12 UNL     1      12.665  17.862  -2.011  1.00  0.00     0.275 HD
ATOM     32  H11 UNL     1      11.829  17.802  -3.502  1.00  0.00     0.275 HD
ENDBRANCH  24  29
ENDBRANCH  23  24
ENDBRANCH  22  23
ENDBRANCH  20  22
ENDBRANCH   1  20
BRANCH  14  33
HETATM   33  O3  UNL     1      -1.255  21.267   2.876  1.00  0.00    -0.385 OA
ATOM     34  H3  UNL     1      -1.888  21.909   3.177  1.00  0.00     0.211 HD
ENDBRANCH  14  33
BRANCH  14  35
HETATM   35  C22 UNL     1      -0.344  23.022   3.981  1.00  0.00    -0.008 A 
HETATM   36  C23 UNL     1       0.213  24.255   3.830  1.00  0.00     0.016 A 
HETATM   37  C24 UNL     1      -0.173  25.380   4.550  1.00  0.00     0.062 A 
HETATM   38  C25 UNL     1      -1.188  25.215   5.475  1.00  0.00     0.188 A 
HETATM   39  F1  UNL     1      -1.568  26.317   6.177  1.00  0.00    -0.186 F 
HETATM   40  N2  UNL     1      -1.762  24.013   5.650  1.00  0.00    -0.342 N 
HETATM   41  C26 UNL     1      -1.353  22.933   4.924  1.00  0.00     0.100 A 
ATOM     42  H2  UNL     1      -2.512  23.907   6.333  1.00  0.00     0.167 HD
ENDBRANCH  14  35
TORSDOF 9
ENDMDL
MODEL 2
REMARK VINA RESULT: -6.898887298      4.174     11.405
REMARK  9 active torsions:
REMARK  status: ('A' for Active; 'I' for Inactive)
REMARK    1  A    between atoms: O1_2  and  C2_3 
REMARK    2  A    between atoms: C2_3  and  C3_5 
REMARK    3  A    between atoms: C3_5  and  N1_6 
REMARK    4  A    between atoms: C3_5  and  C4_10 
REMARK    5  A    between atoms: C4_10  and  C5_11 
REMARK    6  A    between atoms: C5_11  and  C6_12 
REMARK    7  A    between atoms: C6_12  and  C8_14 
REMARK    8  A    between atoms: C21_27  and  O3_28 
REMARK    9  A    between atoms: C21_27  and  C22_30 
ROOT
HETATM    1  C8  UNL     1      -2.407  25.041   5.843  1.00  0.00    -0.007 C 
HETATM    2  C9  UNL     1      -1.109  25.777   5.442  1.00  0.00     0.006 C 
HETATM    3  C10 UNL     1       0.094  24.842   5.544  1.00  0.00     0.010 C 
HETATM    4  C11 UNL     1      -0.059  23.922   4.364  1.00  0.00     0.019 C 
HETATM    5  C12 UNL     1      -1.309  23.151   4.580  1.00  0.00    -0.079 C 
HETATM    6  C13 UNL     1      -1.522  22.127   3.780  1.00  0.00    -0.023 C 
HETATM    7  C14 UNL     1      -0.589  21.742   2.714  1.00  0.00     0.033 C 
HETATM    8  C15 UNL     1       0.686  22.481   2.624  1.00  0.00     0.006 C 
HETATM    9  C16 UNL     1       1.085  23.080   3.998  1.00  0.00     0.002 C 
HETATM   10  C17 UNL     1       1.414  21.944   4.939  1.00  0.00     0.033 C 
HETATM   11  C18 UNL     1       2.339  20.972   4.286  1.00  0.00    -0.023 C 
HETATM   12  C19 UNL     1       2.501  20.854   2.999  1.00  0.00    -0.072 C 
HETATM   13  C20 UNL     1       3.436  19.880   2.367  1.00  0.00     0.077 C 
HETATM   14  C21 UNL     1       4.390  20.535   1.415  1.00  0.00     0.090 C 
HETATM   15  C27 UNL     1       3.974  21.838   0.856  1.00  0.00     0.044 C 
HETATM   16  C28 UNL     1       2.912  22.615   1.507  1.00  0.00     0.017 C 
HETATM   17  C29 UNL     1       1.777  21.702   2.009  1.00  0.00    -0.016 C 
HETATM   18  C30 UNL     1       1.217  20.900   0.855  1.00  0.00     0.020 C 
HETATM   19  C31 UNL     1      -2.221  23.570   5.662  1.00  0.00     0.039 C 
ENDROOT
BRANCH   1  20
HETATM   20  C6  UNL     1      -3.562  25.641   5.103  1.00  0.00    -0.014 C 
HETATM   21  C7  UNL     1      -4.618  26.089   6.188  1.00  0.00     0.010 C 
BRANCH  20  22
HETATM   22  C5  UNL     1      -3.372  26.907   4.352  1.00  0.00     0.007 C 
BRANCH  22  23
HETATM   23  C4  UNL     1      -3.841  28.187   4.866  1.00  0.00     0.043 C 
BRANCH  23  24
HETATM   24  C3  UNL     1      -4.543  29.200   4.059  1.00  0.00     0.282 C 
BRANCH  24  25
HETATM   25  C2  UNL     1      -3.674  30.463   3.999  1.00  0.00     0.289 C 
HETATM   26  O2  UNL     1      -4.157  31.463   3.444  1.00  0.00    -0.263 OA
BRANCH  25  27
HETATM   27  O1  UNL     1      -2.442  30.376   4.568  1.00  0.00    -0.325 OA
HETATM   28  C1  UNL     1      -1.732  31.523   4.949  1.00  0.00     0.213 C 
ENDBRANCH  25  27
ENDBRANCH  24  25
BRANCH  24  29
HETATM   29  N1  UNL     1      -4.717  28.800   2.671  1.00  0.00    -0.066 N 
ATOM     30  H13 UNL     1      -4.552  29.550   2.000  1.00  0.00     0.275 HD
ATOM     31  H12 UNL     1      -3.989  28.174   2.327  1.00  0.00     0.275 HD
ATOM     32  H11 UNL     1      -5.657  28.405   2.628  1.00  0.00     0.275 HD
ENDBRANCH  24  29
ENDBRANCH  23  24
ENDBRANCH  22  23
ENDBRANCH  20  22
ENDBRANCH   1  20
BRANCH  14  33
HETATM   33  O3  UNL     1       4.504  19.644   0.321  1.00  0.00    -0.385 OA
ATOM     34  H3  UNL     1       3.868  19.943  -0.317  1.00  0.00     0.211 HD
ENDBRANCH  14  33
BRANCH  14  35
HETATM   35  C22 UNL     1       5.781  20.600   1.928  1.00  0.00    -0.008 A 
HETATM   36  C23 UNL     1       6.173  20.969   3.178  1.00  0.00     0.016 A 
HETATM   37  C24 UNL     1       7.495  20.997   3.606  1.00  0.00     0.062 A 
HETATM   38  C25 UNL     1       8.460  20.624   2.688  1.00  0.00     0.188 A 
HETATM   39  F1  UNL     1       9.754  20.648   3.107  1.00  0.00    -0.186 F 
HETATM   40  N2  UNL     1       8.110  20.252   1.445  1.00  0.00    -0.342 N 
HETATM   41  C26 UNL     1       6.801  20.240   1.064  1.00  0.00     0.100 A 
ATOM     42  H2  UNL     1       8.832  19.976   0.779  1.00  0.00     0.167 HD
ENDBRANCH  14  35
TORSDOF 9
ENDMDL
MODEL 3
REMARK VINA RESULT: -6.854873533      3.505     10.513
REMARK  9 active torsions:
REMARK  status: ('A' for Active; 'I' for Inactive)
REMARK    1  A    between atoms: O1_2  and  C2_3 
REMARK    2  A    between atoms: C2_3  and  C3_5 
REMARK    3  A    between atoms: C3_5  and  N1_6 
REMARK    4  A    between atoms: C3_5  and  C4_10 
REMARK    5  A    between atoms: C4_10  and  C5_11 
REMARK    6  A    between atoms: C5_11  and  C6_12 
REMARK    7  A    between atoms: C6_12  and  C8_14 
REMARK    8  A    between atoms: C21_27  and  O3_28 
REMARK    9  A    between atoms: C21_27  and  C22_30 
ROOT
HETATM    1  C8  UNL     1       0.793  22.597   2.930  1.00  0.00    -0.007 C 
HETATM    2  C9  UNL     1       0.995  22.513   1.400  1.00  0.00     0.006 C 
HETATM    3  C10 UNL     1       2.482  22.519   1.051  1.00  0.00     0.010 C 
HETATM    4  C11 UNL     1       2.956  21.149   1.453  1.00  0.00     0.019 C 
HETATM    5  C12 UNL     1       2.789  21.052   2.925  1.00  0.00    -0.079 C 
HETATM    6  C13 UNL     1       3.349  20.019   3.520  1.00  0.00    -0.023 C 
HETATM    7  C14 UNL     1       4.107  18.995   2.790  1.00  0.00     0.033 C 
HETATM    8  C15 UNL     1       4.328  19.209   1.346  1.00  0.00     0.006 C 
HETATM    9  C16 UNL     1       4.278  20.718   0.989  1.00  0.00     0.002 C 
HETATM   10  C17 UNL     1       5.469  21.399   1.624  1.00  0.00     0.033 C 
HETATM   11  C18 UNL     1       6.721  20.638   1.343  1.00  0.00    -0.023 C 
HETATM   12  C19 UNL     1       6.764  19.382   0.999  1.00  0.00    -0.072 C 
HETATM   13  C20 UNL     1       8.026  18.642   0.716  1.00  0.00     0.077 C 
HETATM   14  C21 UNL     1       8.010  17.970  -0.623  1.00  0.00     0.090 C 
HETATM   15  C27 UNL     1       6.681  17.688  -1.203  1.00  0.00     0.044 C 
HETATM   16  C28 UNL     1       5.493  18.387  -0.701  1.00  0.00     0.017 C 
HETATM   17  C29 UNL     1       5.541  18.546   0.831  1.00  0.00    -0.016 C 
HETATM   18  C30 UNL     1       5.671  17.186   1.482  1.00  0.00     0.020 C 
HETATM   19  C31 UNL     1       2.020  22.101   3.621  1.00  0.00     0.039 C 
ENDROOT
BRANCH   1  20
HETATM   20  C6  UNL     1      -0.481  21.901   3.297  1.00  0.00    -0.014 C 
HETATM   21  C7  UNL     1      -0.714  20.772   2.218  1.00  0.00     0.010 C 
BRANCH  20  22
HETATM   22  C5  UNL     1      -0.547  21.112   4.552  1.00  0.00     0.007 C 
BRANCH  22  23
HETATM   23  C4  UNL     1      -0.907  21.718   5.827  1.00  0.00     0.043 C 
BRANCH  23  24
HETATM   24  C3  UNL     1      -0.349  22.986   6.331  1.00  0.00     0.282 C 
BRANCH  24  25
HETATM   25  C2  UNL     1      -1.477  24.025   6.390  1.00  0.00     0.289 C 
HETATM   26  O2  UNL     1      -1.974  24.266   7.502  1.00  0.00    -0.263 OA
BRANCH  25  27
HETATM   27  O1  UNL     1      -1.832  24.599   5.209  1.00  0.00    -0.325 OA
HETATM   28  C1  UNL     1      -0.980  25.496   4.550  1.00  0.00     0.213 C 
ENDBRANCH  25  27
ENDBRANCH  24  25
BRANCH  24  29
HETATM   29  N1  UNL     1       0.141  22.887   7.697  1.00  0.00    -0.066 N 
ATOM     30  H13 UNL     1      -0.573  23.053   8.406  1.00  0.00     0.275 HD
ATOM     31  H12 UNL     1       0.374  21.937   7.985  1.00  0.00     0.275 HD
ATOM     32  H11 UNL     1       0.926  23.537   7.741  1.00  0.00     0.275 HD
ENDBRANCH  24  29
ENDBRANCH  23  24
ENDBRANCH  22  23
ENDBRANCH  20  22
ENDBRANCH   1  20
BRANCH  14  33
HETATM   33  O3  UNL     1       8.639  16.718  -0.425  1.00  0.00    -0.385 OA
ATOM     34  H3  UNL     1       9.569  16.904  -0.391  1.00  0.00     0.211 HD
ENDBRANCH  14  33
BRANCH  14  35
HETATM   35  C22 UNL     1       8.893  18.625  -1.620  1.00  0.00    -0.008 A 
HETATM   36  C23 UNL     1       9.836  19.575  -1.376  1.00  0.00     0.016 A 
HETATM   37  C24 UNL     1      10.646  20.142  -2.353  1.00  0.00     0.062 A 
HETATM   38  C25 UNL     1      10.466  19.701  -3.651  1.00  0.00     0.188 A 
HETATM   39  F1  UNL     1      11.260  20.254  -4.607  1.00  0.00    -0.186 F 
HETATM   40  N2  UNL     1       9.545  18.762  -3.930  1.00  0.00    -0.342 N 
HETATM   41  C26 UNL     1       8.769  18.232  -2.942  1.00  0.00     0.100 A 
ATOM     42  H2  UNL     1       9.426  18.443  -4.891  1.00  0.00     0.167 HD
ENDBRANCH  14  35
TORSDOF 9
ENDMDL
MODEL 4
REMARK VINA RESULT: -6.847833538      3.623     10.353
REMARK  9 active torsions:
REMARK  status: ('A' for Active; 'I' for Inactive)
REMARK    1  A    between atoms: O1_2  and  C2_3 
REMARK    2  A    between atoms: C2_3  and  C3_5 
REMARK    3  A    between atoms: C3_5  and  N1_6 
REMARK    4  A    between atoms: C3_5  and  C4_10 
REMARK    5  A    between atoms: C4_10  and  C5_11 
REMARK    6  A    between atoms: C5_11  and  C6_12 
REMARK    7  A    between atoms: C6_12  and  C8_14 
REMARK    8  A    between atoms: C21_27  and  O3_28 
REMARK    9  A    between atoms: C21_27  and  C22_30 
ROOT
HETATM    1  C8  UNL     1       0.762  22.595   2.919  1.00  0.00    -0.007 C 
HETATM    2  C9  UNL     1       0.966  22.509   1.390  1.00  0.00     0.006 C 
HETATM    3  C10 UNL     1       2.453  22.517   1.043  1.00  0.00     0.010 C 
HETATM    4  C11 UNL     1       2.928  21.148   1.447  1.00  0.00     0.019 C 
HETATM    5  C12 UNL     1       2.760  21.052   2.919  1.00  0.00    -0.079 C 
HETATM    6  C13 UNL     1       3.321  20.021   3.516  1.00  0.00    -0.023 C 
HETATM    7  C14 UNL     1       4.081  18.997   2.789  1.00  0.00     0.033 C 
HETATM    8  C15 UNL     1       4.303  19.210   1.345  1.00  0.00     0.006 C 
HETATM    9  C16 UNL     1       4.252  20.718   0.986  1.00  0.00     0.002 C 
HETATM   10  C17 UNL     1       5.442  21.402   1.620  1.00  0.00     0.033 C 
HETATM   11  C18 UNL     1       6.695  20.642   1.342  1.00  0.00    -0.023 C 
HETATM   12  C19 UNL     1       6.740  19.386   1.000  1.00  0.00    -0.072 C 
HETATM   13  C20 UNL     1       8.003  18.647   0.719  1.00  0.00     0.077 C 
HETATM   14  C21 UNL     1       7.989  17.974  -0.619  1.00  0.00     0.090 C 
HETATM   15  C27 UNL     1       6.662  17.688  -1.201  1.00  0.00     0.044 C 
HETATM   16  C28 UNL     1       5.472  18.387  -0.701  1.00  0.00     0.017 C 
HETATM   17  C29 UNL     1       5.518  18.547   0.831  1.00  0.00    -0.016 C 
HETATM   18  C30 UNL     1       5.649  17.189   1.484  1.00  0.00     0.020 C 
HETATM   19  C31 UNL     1       1.989  22.102   3.613  1.00  0.00     0.039 C 
ENDROOT
BRANCH   1  20
HETATM   20  C6  UNL     1      -0.511  21.897   3.287  1.00  0.00    -0.014 C 
HETATM   21  C7  UNL     1      -0.657  20.666   2.310  1.00  0.00     0.010 C 
BRANCH  20  22
HETATM   22  C5  UNL     1      -0.624  21.229   4.606  1.00  0.00     0.007 C 
BRANCH  22  23
HETATM   23  C4  UNL     1      -1.321  21.846   5.727  1.00  0.00     0.043 C 
BRANCH  23  24
HETATM   24  C3  UNL     1      -0.650  22.444   6.895  1.00  0.00     0.282 C 
BRANCH  24  25
HETATM   25  C2  UNL     1      -0.067  21.313   7.753  1.00  0.00     0.289 C 
HETATM   26  O2  UNL     1      -0.853  20.686   8.482  1.00  0.00    -0.263 OA
BRANCH  25  27
HETATM   27  O1  UNL     1       1.271  21.094   7.636  1.00  0.00    -0.325 OA
HETATM   28  C1  UNL     1       1.770  19.870   7.169  1.00  0.00     0.213 C 
ENDBRANCH  25  27
ENDBRANCH  24  25
BRANCH  24  29
HETATM   29  N1  UNL     1       0.494  23.267   6.534  1.00  0.00    -0.066 N 
ATOM     30  H13 UNL     1       1.395  22.842   6.753  1.00  0.00     0.275 HD
ATOM     31  H12 UNL     1       0.645  23.348   5.529  1.00  0.00     0.275 HD
ATOM     32  H11 UNL     1       0.333  24.159   7.001  1.00  0.00     0.275 HD
ENDBRANCH  24  29
ENDBRANCH  23  24
ENDBRANCH  22  23
ENDBRANCH  20  22
ENDBRANCH   1  20
BRANCH  14  33
HETATM   33  O3  UNL     1       8.620  16.722  -0.419  1.00  0.00    -0.385 OA
ATOM     34  H3  UNL     1       9.390  16.906   0.105  1.00  0.00     0.211 HD
ENDBRANCH  14  33
BRANCH  14  35
HETATM   35  C22 UNL     1       8.873  18.628  -1.616  1.00  0.00    -0.008 A 
HETATM   36  C23 UNL     1       9.817  19.577  -1.371  1.00  0.00     0.016 A 
HETATM   37  C24 UNL     1      10.627  20.144  -2.348  1.00  0.00     0.062 A 
HETATM   38  C25 UNL     1      10.446  19.704  -3.647  1.00  0.00     0.188 A 
HETATM   39  F1  UNL     1      11.240  20.257  -4.603  1.00  0.00    -0.186 F 
HETATM   40  N2  UNL     1       9.523  18.767  -3.926  1.00  0.00    -0.342 N 
HETATM   41  C26 UNL     1       8.747  18.237  -2.938  1.00  0.00     0.100 A 
ATOM     42  H2  UNL     1       9.403  18.450  -4.888  1.00  0.00     0.167 HD
ENDBRANCH  14  35
TORSDOF 9
ENDMDL
MODEL 5
REMARK VINA RESULT: -6.696463520      4.358     10.738
REMARK  9 active torsions:
REMARK  status: ('A' for Active; 'I' for Inactive)
REMARK    1  A    between atoms: O1_2  and  C2_3 
REMARK    2  A    between atoms: C2_3  and  C3_5 
REMARK    3  A    between atoms: C3_5  and  N1_6 
REMARK    4  A    between atoms: C3_5  and  C4_10 
REMARK    5  A    between atoms: C4_10  and  C5_11 
REMARK    6  A    between atoms: C5_11  and  C6_12 
REMARK    7  A    between atoms: C6_12  and  C8_14 
REMARK    8  A    between atoms: C21_27  and  O3_28 
REMARK    9  A    between atoms: C21_27  and  C22_30 
ROOT
HETATM    1  C8  UNL     1       0.676  23.319   3.267  1.00  0.00    -0.007 C 
HETATM    2  C9  UNL     1       0.993  22.609   4.602  1.00  0.00     0.006 C 
HETATM    3  C10 UNL     1       1.481  21.184   4.353  1.00  0.00     0.010 C 
HETATM    4  C11 UNL     1       2.876  21.366   3.817  1.00  0.00     0.019 C 
HETATM    5  C12 UNL     1       2.748  22.083   2.524  1.00  0.00    -0.079 C 
HETATM    6  C13 UNL     1       3.827  22.151   1.772  1.00  0.00    -0.023 C 
HETATM    7  C14 UNL     1       5.111  21.558   2.167  1.00  0.00     0.033 C 
HETATM    8  C15 UNL     1       5.141  20.766   3.413  1.00  0.00     0.006 C 
HETATM    9  C16 UNL     1       3.741  20.185   3.742  1.00  0.00     0.002 C 
HETATM   10  C17 UNL     1       3.389  19.158   2.691  1.00  0.00     0.033 C 
HETATM   11  C18 UNL     1       4.524  18.212   2.479  1.00  0.00    -0.023 C 
HETATM   12  C19 UNL     1       5.763  18.459   2.795  1.00  0.00    -0.072 C 
HETATM   13  C20 UNL     1       6.881  17.498   2.581  1.00  0.00     0.077 C 
HETATM   14  C21 UNL     1       7.664  17.241   3.832  1.00  0.00     0.090 C 
HETATM   15  C27 UNL     1       7.592  18.277   4.882  1.00  0.00     0.044 C 
HETATM   16  C28 UNL     1       6.509  19.268   4.866  1.00  0.00     0.017 C 
HETATM   17  C29 UNL     1       6.198  19.737   3.431  1.00  0.00    -0.016 C 
HETATM   18  C30 UNL     1       7.448  20.306   2.797  1.00  0.00     0.020 C 
HETATM   19  C31 UNL     1       1.441  22.665   2.163  1.00  0.00     0.039 C 
ENDROOT
BRANCH   1  20
HETATM   20  C6  UNL     1       0.901  24.790   3.425  1.00  0.00    -0.014 C 
HETATM   21  C7  UNL     1       1.642  25.283   2.121  1.00  0.00     0.010 C 
BRANCH  20  22
HETATM   22  C5  UNL     1      -0.263  25.709   3.455  1.00  0.00     0.007 C 
BRANCH  22  23
HETATM   23  C4  UNL     1      -1.246  25.675   4.530  1.00  0.00     0.043 C 
BRANCH  23  24
HETATM   24  C3  UNL     1      -0.927  25.880   5.954  1.00  0.00     0.282 C 
BRANCH  24  25
HETATM   25  C2  UNL     1      -1.707  27.102   6.457  1.00  0.00     0.289 C 
HETATM   26  O2  UNL     1      -1.357  27.597   7.541  1.00  0.00    -0.263 OA
BRANCH  25  27
HETATM   27  O1  UNL     1      -2.720  27.540   5.662  1.00  0.00    -0.325 OA
HETATM   28  C1  UNL     1      -2.886  28.903   5.378  1.00  0.00     0.213 C 
ENDBRANCH  25  27
ENDBRANCH  24  25
BRANCH  24  29
HETATM   29  N1  UNL     1      -1.368  24.781   6.799  1.00  0.00    -0.066 N 
ATOM     30  H13 UNL     1      -1.444  25.023   7.787  1.00  0.00     0.275 HD
ATOM     31  H12 UNL     1      -2.346  24.523   6.666  1.00  0.00     0.275 HD
ATOM     32  H11 UNL     1      -0.711  24.024   6.608  1.00  0.00     0.275 HD
ENDBRANCH  24  29
ENDBRANCH  23  24
ENDBRANCH  22  23
ENDBRANCH  20  22
ENDBRANCH   1  20
BRANCH  14  33
HETATM   33  O3  UNL     1       9.018  17.174   3.424  1.00  0.00    -0.385 OA
ATOM     34  H3  UNL     1       9.188  17.993   2.974  1.00  0.00     0.211 HD
ENDBRANCH  14  33
BRANCH  14  35
HETATM   35  C22 UNL     1       7.431  15.891   4.405  1.00  0.00    -0.008 A 
HETATM   36  C23 UNL     1       6.387  15.060   4.136  1.00  0.00     0.016 A 
HETATM   37  C24 UNL     1       6.230  13.797   4.695  1.00  0.00     0.062 A 
HETATM   38  C25 UNL     1       7.205  13.377   5.580  1.00  0.00     0.188 A 
HETATM   39  F1  UNL     1       7.053  12.140   6.126  1.00  0.00    -0.186 F 
HETATM   40  N2  UNL     1       8.250  14.170   5.869  1.00  0.00    -0.342 N 
HETATM   41  C26 UNL     1       8.368  15.404   5.300  1.00  0.00     0.100 A 
ATOM     42  H2  UNL     1       8.964  13.846   6.522  1.00  0.00     0.167 HD
ENDBRANCH  14  35
TORSDOF 9
ENDMDL
