MODEL 1
REMARK VINA RESULT: -6.888319875      0.000      0.000
REMARK  6 active torsions:
REMARK  status: ('A' for Active; 'I' for Inactive)
REMARK    1  A    between atoms: C2_2  and  C3_3 
REMARK    2  A    between atoms: C2_2  and  C5_7 
REMARK    3  A    between atoms: C3_3  and  C4_4 
REMARK    4  A    between atoms: C12_16  and  O5_17 
REMARK    5  A    between atoms: C20_26  and  O6_27 
REMARK    6  A    between atoms: O6_27  and  C21_28 
ROOT
HETATM    1  C5  UNL     1       2.478  21.068   1.793  1.00  0.00     0.145 C 
HETATM    2  O3  UNL     1       2.564  21.412   3.186  1.00  0.00    -0.315 OA
HETATM    3  C6  UNL     1       2.817  20.227   3.801  1.00  0.00     0.264 C 
HETATM    4  O4  UNL     1       2.326  19.779   4.869  1.00  0.00    -0.265 OA
HETATM    5  C7  UNL     1       3.833  19.529   2.934  1.00  0.00     0.101 C 
HETATM    6  C8  UNL     1       5.020  19.379   3.766  1.00  0.00     0.011 C 
HETATM    7  C9  UNL     1       5.733  20.622   4.208  1.00  0.00     0.007 C 
HETATM    8  C10 UNL     1       6.907  21.002   3.381  1.00  0.00     0.008 C 
HETATM    9  C11 UNL     1       7.104  20.121   2.201  1.00  0.00     0.023 C 
HETATM   10  C12 UNL     1       6.190  20.348   1.068  1.00  0.00     0.123 C 
HETATM   11  C13 UNL     1       4.952  21.126   1.330  1.00  0.00     0.044 C 
HETATM   12  C14 UNL     1       3.772  20.284   1.672  1.00  0.00    -0.002 C 
HETATM   13  C15 UNL     1       3.530  19.381   0.461  1.00  0.00     0.019 C 
HETATM   14  C16 UNL     1       7.123  18.638   2.613  1.00  0.00    -0.028 C 
HETATM   15  C17 UNL     1       7.300  17.850   1.339  1.00  0.00     0.016 C 
HETATM   16  C18 UNL     1       8.421  18.384   3.404  1.00  0.00     0.013 C 
HETATM   17  C19 UNL     1       7.968  17.201   4.231  1.00  0.00     0.034 C 
HETATM   18  C20 UNL     1       6.672  17.785   4.773  1.00  0.00     0.131 C 
HETATM   19  C27 UNL     1       5.982  18.235   3.461  1.00  0.00    -0.006 C 
HETATM   20  C28 UNL     1       5.230  17.013   3.075  1.00  0.00     0.019 C 
ENDROOT
BRANCH  18  21
HETATM   21  O6  UNL     1       5.944  16.869   5.477  1.00  0.00    -0.380 OA
BRANCH  21  22
HETATM   22  C21 UNL     1       5.765  17.086   6.811  1.00  0.00     0.122 C 
HETATM   23  C22 UNL     1       4.342  16.823   7.200  1.00  0.00     0.035 C 
HETATM   24  C23 UNL     1       4.197  15.434   7.777  1.00  0.00     0.040 C 
HETATM   25  C24 UNL     1       4.939  15.345   9.114  1.00  0.00     0.170 C 
HETATM   26  F1  UNL     1       4.989  14.034   9.523  1.00  0.00    -0.249 F 
HETATM   27  C25 UNL     1       6.306  15.947   8.974  1.00  0.00     0.040 C 
HETATM   28  C26 UNL     1       6.667  16.059   7.527  1.00  0.00     0.035 C 
ENDBRANCH  21  22
ENDBRANCH  18  21
BRANCH  10  29
HETATM   29  O5  UNL     1       6.940  20.993   0.043  1.00  0.00    -0.395 OA
ATOM     30  H5  UNL     1       7.116  20.345  -0.628  1.00  0.00     0.210 HD
ENDBRANCH  10  29
BRANCH   1  31
HETATM   31  C2  UNL     1       2.277  22.246   0.951  1.00  0.00     0.022 C 
HETATM   32  C1  UNL     1       1.407  21.999  -0.240  1.00  0.00     0.013 C 
BRANCH  31  33
HETATM   33  C3  UNL     1       1.709  23.404   1.730  1.00  0.00     0.120 C 
BRANCH  33  34
HETATM   34  C4  UNL     1       2.401  24.670   1.599  1.00  0.00     0.172 C 
HETATM   35  O1  UNL     1       3.566  24.734   1.141  1.00  0.00    -0.648 OA
HETATM   36  O2  UNL     1       1.835  25.890   1.967  1.00  0.00    -0.648 OA
ENDBRANCH  33  34
ENDBRANCH  31  33
ENDBRANCH   1  31
TORSDOF 6
ENDMDL
MODEL 2
REMARK VINA RESULT: -6.850520360      3.932      6.756
REMARK  6 active torsions:
REMARK  status: ('A' for Active; 'I' for Inactive)
REMARK    1  A    between atoms: C2_2  and  C3_3 
REMARK    2  A    between atoms: C2_2  and  C5_7 
REMARK    3  A    between atoms: C3_3  and  C4_4 
REMARK    4  A    between atoms: C12_16  and  O5_17 
REMARK    5  A    between atoms: C20_26  and  O6_27 
REMARK    6  A    between atoms: O6_27  and  C21_28 
ROOT
HETATM    1  C5  UNL     1       9.035  18.375  -0.965  1.00  0.00     0.145 C 
HETATM    2  O3  UNL     1       7.869  19.029  -1.492  1.00  0.00    -0.315 OA
HETATM    3  C6  UNL     1       6.833  18.300  -0.996  1.00  0.00     0.264 C 
HETATM    4  O4  UNL     1       5.786  17.931  -1.585  1.00  0.00    -0.265 OA
HETATM    5  C7  UNL     1       7.190  18.013   0.439  1.00  0.00     0.101 C 
HETATM    6  C8  UNL     1       6.158  18.662   1.236  1.00  0.00     0.011 C 
HETATM    7  C9  UNL     1       6.070  20.159   1.192  1.00  0.00     0.007 C 
HETATM    8  C10 UNL     1       6.748  20.863   2.309  1.00  0.00     0.008 C 
HETATM    9  C11 UNL     1       7.475  19.947   3.225  1.00  0.00     0.023 C 
HETATM   10  C12 UNL     1       8.761  19.426   2.729  1.00  0.00     0.123 C 
HETATM   11  C13 UNL     1       9.028  19.532   1.271  1.00  0.00     0.044 C 
HETATM   12  C14 UNL     1       8.628  18.325   0.496  1.00  0.00    -0.002 C 
HETATM   13  C15 UNL     1       9.456  17.167   1.058  1.00  0.00     0.019 C 
HETATM   14  C16 UNL     1       6.562  18.807   3.710  1.00  0.00    -0.028 C 
HETATM   15  C17 UNL     1       7.412  17.937   4.602  1.00  0.00     0.016 C 
HETATM   16  C18 UNL     1       5.509  19.414   4.656  1.00  0.00     0.013 C 
HETATM   17  C19 UNL     1       4.410  18.390   4.479  1.00  0.00     0.034 C 
HETATM   18  C20 UNL     1       4.360  18.369   2.959  1.00  0.00     0.131 C 
HETATM   19  C27 UNL     1       5.849  18.105   2.622  1.00  0.00    -0.006 C 
HETATM   20  C28 UNL     1       5.901  16.620   2.607  1.00  0.00     0.019 C 
ENDROOT
BRANCH  18  21
HETATM   21  O6  UNL     1       3.521  17.405   2.479  1.00  0.00    -0.380 OA
BRANCH  21  22
HETATM   22  C21 UNL     1       2.333  17.804   1.943  1.00  0.00     0.122 C 
HETATM   23  C22 UNL     1       2.385  19.255   1.571  1.00  0.00     0.035 C 
HETATM   24  C23 UNL     1       2.687  19.414   0.099  1.00  0.00     0.040 C 
HETATM   25  C24 UNL     1       1.513  18.891  -0.734  1.00  0.00     0.170 C 
HETATM   26  F1  UNL     1       1.880  18.836  -2.057  1.00  0.00    -0.249 F 
HETATM   27  C25 UNL     1       1.081  17.553  -0.210  1.00  0.00     0.040 C 
HETATM   28  C26 UNL     1       2.154  16.973   0.656  1.00  0.00     0.035 C 
ENDBRANCH  21  22
ENDBRANCH  18  21
BRANCH  10  29
HETATM   29  O5  UNL     1       9.793  20.099   3.443  1.00  0.00    -0.395 OA
ATOM     30  H5  UNL     1       9.410  20.427   4.249  1.00  0.00     0.210 HD
ENDBRANCH  10  29
BRANCH   1  31
HETATM   31  C2  UNL     1      10.267  19.071  -1.338  1.00  0.00     0.022 C 
HETATM   32  C1  UNL     1      11.383  18.159  -1.733  1.00  0.00     0.013 C 
BRANCH  31  33
HETATM   33  C3  UNL     1      10.038  20.061  -2.450  1.00  0.00     0.120 C 
BRANCH  33  34
HETATM   34  C4  UNL     1      10.035  21.461  -2.075  1.00  0.00     0.172 C 
HETATM   35  O1  UNL     1       9.012  22.173  -2.211  1.00  0.00    -0.648 OA
HETATM   36  O2  UNL     1      11.149  22.111  -1.545  1.00  0.00    -0.648 OA
ENDBRANCH  33  34
ENDBRANCH  31  33
ENDBRANCH   1  31
TORSDOF 6
ENDMDL
MODEL 3
REMARK VINA RESULT: -6.837556055      3.150      6.554
REMARK  6 active torsions:
REMARK  status: ('A' for Active; 'I' for Inactive)
REMARK    1  A    between atoms: C2_2  and  C3_3 
REMARK    2  A    between atoms: C2_2  and  C5_7 
REMARK    3  A    between atoms: C3_3  and  C4_4 
REMARK    4  A    between atoms: C12_16  and  O5_17 
REMARK    5  A    between atoms: C20_26  and  O6_27 
REMARK    6  A    between atoms: O6_27  and  C21_28 
ROOT
HETATM    1  C5  UNL     1       7.538  18.809   0.456  1.00  0.00     0.145 C 
HETATM    2  O3  UNL     1       6.984  20.132   0.541  1.00  0.00    -0.315 OA
HETATM    3  C6  UNL     1       5.664  19.919   0.785  1.00  0.00     0.264 C 
HETATM    4  O4  UNL     1       4.672  20.511   0.289  1.00  0.00    -0.265 OA
HETATM    5  C7  UNL     1       5.614  18.805   1.799  1.00  0.00     0.101 C 
HETATM    6  C8  UNL     1       4.990  19.382   2.982  1.00  0.00     0.011 C 
HETATM    7  C9  UNL     1       5.720  20.476   3.703  1.00  0.00     0.007 C 
HETATM    8  C10 UNL     1       6.511  20.036   4.880  1.00  0.00     0.008 C 
HETATM    9  C11 UNL     1       6.505  18.564   5.075  1.00  0.00     0.023 C 
HETATM   10  C12 UNL     1       7.368  17.790   4.165  1.00  0.00     0.123 C 
HETATM   11  C13 UNL     1       7.846  18.467   2.931  1.00  0.00     0.044 C 
HETATM   12  C14 UNL     1       6.973  18.242   1.745  1.00  0.00    -0.002 C 
HETATM   13  C15 UNL     1       6.971  16.732   1.500  1.00  0.00     0.019 C 
HETATM   14  C16 UNL     1       5.069  18.011   5.084  1.00  0.00    -0.028 C 
HETATM   15  C17 UNL     1       5.194  16.517   5.259  1.00  0.00     0.016 C 
HETATM   16  C18 UNL     1       4.385  18.492   6.378  1.00  0.00     0.013 C 
HETATM   17  C19 UNL     1       2.945  18.452   5.916  1.00  0.00     0.034 C 
HETATM   18  C20 UNL     1       3.099  19.238   4.622  1.00  0.00     0.131 C 
HETATM   19  C27 UNL     1       4.247  18.454   3.939  1.00  0.00    -0.006 C 
HETATM   20  C28 UNL     1       3.501  17.417   3.180  1.00  0.00     0.019 C 
ENDROOT
BRANCH  18  21
HETATM   21  O6  UNL     1       1.949  19.259   3.887  1.00  0.00    -0.380 OA
BRANCH  21  22
HETATM   22  C21 UNL     1       1.250  20.428   3.830  1.00  0.00     0.122 C 
HETATM   23  C22 UNL     1       2.180  21.600   3.903  1.00  0.00     0.035 C 
HETATM   24  C23 UNL     1       2.473  22.132   2.519  1.00  0.00     0.040 C 
HETATM   25  C24 UNL     1       1.205  22.740   1.914  1.00  0.00     0.170 C 
HETATM   26  F1  UNL     1       1.421  23.020   0.586  1.00  0.00    -0.249 F 
HETATM   27  C25 UNL     1       0.051  21.802   2.115  1.00  0.00     0.040 C 
HETATM   28  C26 UNL     1       0.557  20.436   2.451  1.00  0.00     0.035 C 
ENDBRANCH  21  22
ENDBRANCH  18  21
BRANCH  10  29
HETATM   29  O5  UNL     1       8.492  17.351   4.921  1.00  0.00    -0.395 OA
ATOM     30  H5  UNL     1       8.366  16.426   5.102  1.00  0.00     0.210 HD
ENDBRANCH  10  29
BRANCH   1  31
HETATM   31  C2  UNL     1       8.988  18.835   0.264  1.00  0.00     0.022 C 
HETATM   32  C1  UNL     1       9.496  17.779  -0.665  1.00  0.00     0.013 C 
BRANCH  31  33
HETATM   33  C3  UNL     1       9.466  20.177  -0.225  1.00  0.00     0.120 C 
BRANCH  33  34
HETATM   34  C4  UNL     1       9.644  20.315  -1.657  1.00  0.00     0.172 C 
HETATM   35  O1  UNL     1       8.664  20.443  -2.428  1.00  0.00    -0.648 OA
HETATM   36  O2  UNL     1      10.894  20.316  -2.274  1.00  0.00    -0.648 OA
ENDBRANCH  33  34
ENDBRANCH  31  33
ENDBRANCH   1  31
TORSDOF 6
ENDMDL
MODEL 4
REMARK VINA RESULT: -6.734405570      4.284      6.945
REMARK  6 active torsions:
REMARK  status: ('A' for Active; 'I' for Inactive)
REMARK    1  A    between atoms: C2_2  and  C3_3 
REMARK    2  A    between atoms: C2_2  and  C5_7 
REMARK    3  A    between atoms: C3_3  and  C4_4 
REMARK    4  A    between atoms: C12_16  and  O5_17 
REMARK    5  A    between atoms: C20_26  and  O6_27 
REMARK    6  A    between atoms: O6_27  and  C21_28 
ROOT
HETATM    1  C5  UNL     1       9.656  18.280  -1.097  1.00  0.00     0.145 C 
HETATM    2  O3  UNL     1       8.449  18.468  -1.854  1.00  0.00    -0.315 OA
HETATM    3  C6  UNL     1       7.552  17.644  -1.250  1.00  0.00     0.264 C 
HETATM    4  O4  UNL     1       6.700  16.889  -1.784  1.00  0.00    -0.265 OA
HETATM    5  C7  UNL     1       7.778  17.814   0.231  1.00  0.00     0.101 C 
HETATM    6  C8  UNL     1       6.532  18.355   0.756  1.00  0.00     0.011 C 
HETATM    7  C9  UNL     1       6.111  19.723   0.308  1.00  0.00     0.007 C 
HETATM    8  C10 UNL     1       6.462  20.826   1.238  1.00  0.00     0.008 C 
HETATM    9  C11 UNL     1       7.255  20.376   2.410  1.00  0.00     0.023 C 
HETATM   10  C12 UNL     1       8.678  20.093   2.156  1.00  0.00     0.123 C 
HETATM   11  C13 UNL     1       9.098  19.905   0.743  1.00  0.00     0.044 C 
HETATM   12  C14 UNL     1       9.087  18.485   0.294  1.00  0.00    -0.002 C 
HETATM   13  C15 UNL     1      10.078  17.747   1.197  1.00  0.00     0.019 C 
HETATM   14  C16 UNL     1       6.571  19.195   3.122  1.00  0.00    -0.028 C 
HETATM   15  C17 UNL     1       7.476  18.813   4.268  1.00  0.00     0.016 C 
HETATM   16  C18 UNL     1       5.296  19.727   3.802  1.00  0.00     0.013 C 
HETATM   17  C19 UNL     1       4.491  18.446   3.835  1.00  0.00     0.034 C 
HETATM   18  C20 UNL     1       4.642  18.044   2.376  1.00  0.00     0.131 C 
HETATM   19  C27 UNL     1       6.183  18.092   2.218  1.00  0.00    -0.006 C 
HETATM   20  C28 UNL     1       6.574  16.711   2.604  1.00  0.00     0.019 C 
ENDROOT
BRANCH  18  21
HETATM   21  O6  UNL     1       4.113  16.812   2.118  1.00  0.00    -0.380 OA
BRANCH  21  22
HETATM   22  C21 UNL     1       2.970  16.752   1.378  1.00  0.00     0.122 C 
HETATM   23  C22 UNL     1       2.810  17.994   0.556  1.00  0.00     0.035 C 
HETATM   24  C23 UNL     1       3.302  17.766  -0.854  1.00  0.00     0.040 C 
HETATM   25  C24 UNL     1       2.390  16.765  -1.568  1.00  0.00     0.170 C 
HETATM   26  F1  UNL     1       2.963  16.397  -2.763  1.00  0.00    -0.249 F 
HETATM   27  C25 UNL     1       2.137  15.586  -0.675  1.00  0.00     0.040 C 
HETATM   28  C26 UNL     1       3.151  15.553   0.424  1.00  0.00     0.035 C 
ENDBRANCH  21  22
ENDBRANCH  18  21
BRANCH  10  29
HETATM   29  O5  UNL     1       9.429  21.159   2.728  1.00  0.00    -0.395 OA
ATOM     30  H5  UNL     1       9.380  21.062   3.673  1.00  0.00     0.210 HD
ENDBRANCH  10  29
BRANCH   1  31
HETATM   31  C2  UNL     1      10.734  19.152  -1.562  1.00  0.00     0.022 C 
HETATM   32  C1  UNL     1      11.912  18.418  -2.116  1.00  0.00     0.013 C 
BRANCH  31  33
HETATM   33  C3  UNL     1      10.252  20.138  -2.595  1.00  0.00     0.120 C 
BRANCH  33  34
HETATM   34  C4  UNL     1      10.088  21.508  -2.150  1.00  0.00     0.172 C 
HETATM   35  O1  UNL     1       8.998  22.113  -2.285  1.00  0.00    -0.648 OA
HETATM   36  O2  UNL     1      11.109  22.243  -1.550  1.00  0.00    -0.648 OA
ENDBRANCH  33  34
ENDBRANCH  31  33
ENDBRANCH   1  31
TORSDOF 6
ENDMDL
MODEL 5
REMARK VINA RESULT: -6.676966513      3.600      6.929
REMARK  6 active torsions:
REMARK  status: ('A' for Active; 'I' for Inactive)
REMARK    1  A    between atoms: C2_2  and  C3_3 
REMARK    2  A    between atoms: C2_2  and  C5_7 
REMARK    3  A    between atoms: C3_3  and  C4_4 
REMARK    4  A    between atoms: C12_16  and  O5_17 
REMARK    5  A    between atoms: C20_26  and  O6_27 
REMARK    6  A    between atoms: O6_27  and  C21_28 
ROOT
HETATM    1  C5  UNL     1       7.940  17.089  -1.605  1.00  0.00     0.145 C 
HETATM    2  O3  UNL     1       7.207  18.308  -1.813  1.00  0.00    -0.315 OA
HETATM    3  C6  UNL     1       6.154  18.206  -0.959  1.00  0.00     0.264 C 
HETATM    4  O4  UNL     1       4.950  18.507  -1.164  1.00  0.00    -0.265 OA
HETATM    5  C7  UNL     1       6.721  17.649   0.321  1.00  0.00     0.101 C 
HETATM    6  C8  UNL     1       6.497  18.678   1.327  1.00  0.00     0.011 C 
HETATM    7  C9  UNL     1       7.212  19.987   1.170  1.00  0.00     0.007 C 
HETATM    8  C10 UNL     1       8.465  20.120   1.956  1.00  0.00     0.008 C 
HETATM    9  C11 UNL     1       8.830  18.882   2.691  1.00  0.00     0.023 C 
HETATM   10  C12 UNL     1       9.415  17.799   1.880  1.00  0.00     0.123 C 
HETATM   11  C13 UNL     1       9.235  17.872   0.407  1.00  0.00     0.044 C 
HETATM   12  C14 UNL     1       8.039  17.138  -0.092  1.00  0.00    -0.002 C 
HETATM   13  C15 UNL     1       8.247  15.673   0.300  1.00  0.00     0.019 C 
HETATM   14  C16 UNL     1       7.650  18.370   3.536  1.00  0.00    -0.028 C 
HETATM   15  C17 UNL     1       8.130  17.106   4.208  1.00  0.00     0.016 C 
HETATM   16  C18 UNL     1       7.434  19.361   4.695  1.00  0.00     0.013 C 
HETATM   17  C19 UNL     1       5.966  19.103   4.959  1.00  0.00     0.034 C 
HETATM   18  C20 UNL     1       5.451  19.243   3.535  1.00  0.00     0.131 C 
HETATM   19  C27 UNL     1       6.381  18.254   2.788  1.00  0.00    -0.006 C 
HETATM   20  C28 UNL     1       5.625  16.979   2.900  1.00  0.00     0.019 C 
ENDROOT
BRANCH  18  21
HETATM   21  O6  UNL     1       4.128  18.924   3.427  1.00  0.00    -0.380 OA
BRANCH  21  22
HETATM   22  C21 UNL     1       3.236  19.943   3.277  1.00  0.00     0.122 C 
HETATM   23  C22 UNL     1       3.879  21.107   2.587  1.00  0.00     0.035 C 
HETATM   24  C23 UNL     1       3.555  21.094   1.111  1.00  0.00     0.040 C 
HETATM   25  C24 UNL     1       2.061  21.356   0.902  1.00  0.00     0.170 C 
HETATM   26  F1  UNL     1       1.736  21.126  -0.414  1.00  0.00    -0.249 F 
HETATM   27  C25 UNL     1       1.263  20.500   1.841  1.00  0.00     0.040 C 
HETATM   28  C26 UNL     1       2.116  19.392   2.370  1.00  0.00     0.035 C 
ENDBRANCH  21  22
ENDBRANCH  18  21
BRANCH  10  29
HETATM   29  O5  UNL     1      10.806  17.752   2.180  1.00  0.00    -0.395 OA
ATOM     30  H5  UNL     1      10.946  17.005   2.750  1.00  0.00     0.210 HD
ENDBRANCH  10  29
BRANCH   1  31
HETATM   31  C2  UNL     1       9.167  17.048  -2.398  1.00  0.00     0.022 C 
HETATM   32  C1  UNL     1       9.371  15.763  -3.134  1.00  0.00     0.013 C 
BRANCH  31  33
HETATM   33  C3  UNL     1       9.237  18.183  -3.386  1.00  0.00     0.120 C 
BRANCH  33  34
HETATM   34  C4  UNL     1      10.394  19.051  -3.290  1.00  0.00     0.172 C 
HETATM   35  O1  UNL     1      11.287  18.858  -2.431  1.00  0.00    -0.648 OA
HETATM   36  O2  UNL     1      10.599  20.145  -4.130  1.00  0.00    -0.648 OA
ENDBRANCH  33  34
ENDBRANCH  31  33
ENDBRANCH   1  31
TORSDOF 6
ENDMDL
