MODEL 1
REMARK VINA RESULT: -6.535768529      0.000      0.000
REMARK  7 active torsions:
REMARK  status: ('A' for Active; 'I' for Inactive)
REMARK    1  A    between atoms: C2_2  and  C3_3 
REMARK    2  A    between atoms: C12_13  and  O2_14 
REMARK    3  A    between atoms: O2_14  and  C13_15 
REMARK    4  A    between atoms: C13_15  and  C14_17 
REMARK    5  A    between atoms: C17_21  and  C18_22 
REMARK    6  A    between atoms: C18_22  and  C19_23 
REMARK    7  A    between atoms: C27_33  and  O5_34 
ROOT
HETATM    1  C3  UNL     1       2.027  22.652   1.927  1.00  0.00     0.101 C 
HETATM    2  C4  UNL     1       2.644  23.809   1.076  1.00  0.00     0.053 C 
HETATM    3  O1  UNL     1       3.039  21.960   2.412  1.00  0.00    -0.360 OA
HETATM    4  C5  UNL     1       3.083  20.594   2.580  1.00  0.00     0.094 C 
HETATM    5  C6  UNL     1       2.825  20.456   4.104  1.00  0.00     0.050 C 
HETATM    6  C7  UNL     1       4.516  20.200   2.363  1.00  0.00     0.036 C 
HETATM    7  C8  UNL     1       5.138  21.221   1.421  1.00  0.00     0.036 C 
HETATM    8  C9  UNL     1       6.492  20.979   0.993  1.00  0.00    -0.023 C 
HETATM    9  C10 UNL     1       7.156  19.868   1.255  1.00  0.00    -0.072 C 
HETATM   10  C11 UNL     1       8.527  19.777   0.747  1.00  0.00     0.067 C 
HETATM   11  C12 UNL     1       8.976  18.381   0.365  1.00  0.00     0.136 C 
HETATM   12  C15 UNL     1       7.649  17.635   0.105  1.00  0.00     0.034 C 
HETATM   13  C16 UNL     1       6.921  17.497   1.415  1.00  0.00     0.017 C 
HETATM   14  C17 UNL     1       6.486  18.839   2.024  1.00  0.00    -0.008 C 
HETATM   15  C20 UNL     1       4.940  18.881   1.957  1.00  0.00    -0.024 C 
HETATM   16  C21 UNL     1       4.537  17.663   2.691  1.00  0.00     0.017 C 
HETATM   17  C22 UNL     1       4.498  18.631   0.497  1.00  0.00     0.037 C 
HETATM   18  C23 UNL     1       3.026  18.212   0.459  1.00  0.00     0.169 C 
HETATM   19  O4  UNL     1       2.446  18.586   1.593  1.00  0.00    -0.377 OA
HETATM   20  C24 UNL     1       2.040  19.840   1.821  1.00  0.00     0.091 C 
HETATM   21  C25 UNL     1       0.749  19.667   2.645  1.00  0.00     0.049 C 
HETATM   22  C26 UNL     1       1.582  20.593   0.578  1.00  0.00     0.075 C 
HETATM   23  C27 UNL     1       1.076  21.975   0.978  1.00  0.00     0.159 C 
ENDROOT
BRANCH  11  24
HETATM   24  O2  UNL     1       9.601  18.376  -0.936  1.00  0.00    -0.315 OA
BRANCH  24  25
HETATM   25  C13 UNL     1       9.406  19.361  -1.860  1.00  0.00     0.273 C 
HETATM   26  O3  UNL     1       8.401  19.268  -2.617  1.00  0.00    -0.264 OA
BRANCH  25  27
HETATM   27  C14 UNL     1      10.365  20.488  -1.939  1.00  0.00     0.225 C 
HETATM   28 CL1  UNL     1       9.509  22.023  -1.944  1.00  0.00    -0.120 Cl
ENDBRANCH  25  27
ENDBRANCH  24  25
ENDBRANCH  11  24
BRANCH  14  29
HETATM   29  C18 UNL     1       6.880  18.929   3.456  1.00  0.00     0.030 C 
BRANCH  29  30
HETATM   30  C19 UNL     1       7.901  17.953   3.967  1.00  0.00     0.116 C 
HETATM   31 CL2  UNL     1       7.170  17.294   5.493  1.00  0.00    -0.130 Cl
ENDBRANCH  29  30
ENDBRANCH  14  29
BRANCH   1  32
HETATM   32  C2  UNL     1       1.328  23.490   2.945  1.00  0.00     0.003 C 
HETATM   33  C1  UNL     1       1.334  24.807   2.984  1.00  0.00     0.010 C 
ENDBRANCH   1  32
BRANCH  23  34
HETATM   34  O5  UNL     1      -0.232  21.890   1.482  1.00  0.00    -0.392 OA
ATOM     35  H5  UNL     1      -0.834  22.485   1.051  1.00  0.00     0.210 HD
ENDBRANCH  23  34
TORSDOF 7
ENDMDL
MODEL 2
REMARK VINA RESULT: -6.350496011      3.405      6.098
REMARK  7 active torsions:
REMARK  status: ('A' for Active; 'I' for Inactive)
REMARK    1  A    between atoms: C2_2  and  C3_3 
REMARK    2  A    between atoms: C12_13  and  O2_14 
REMARK    3  A    between atoms: O2_14  and  C13_15 
REMARK    4  A    between atoms: C13_15  and  C14_17 
REMARK    5  A    between atoms: C17_21  and  C18_22 
REMARK    6  A    between atoms: C18_22  and  C19_23 
REMARK    7  A    between atoms: C27_33  and  O5_34 
ROOT
HETATM    1  C3  UNL     1      -0.801  18.555  -2.487  1.00  0.00     0.101 C 
HETATM    2  C4  UNL     1       0.250  17.509  -2.979  1.00  0.00     0.053 C 
HETATM    3  O1  UNL     1      -0.121  19.569  -1.989  1.00  0.00    -0.360 OA
HETATM    4  C5  UNL     1      -0.469  20.322  -0.891  1.00  0.00     0.094 C 
HETATM    5  C6  UNL     1      -1.046  21.600  -1.556  1.00  0.00     0.050 C 
HETATM    6  C7  UNL     1       0.824  20.734  -0.249  1.00  0.00     0.036 C 
HETATM    7  C8  UNL     1       1.863  19.671  -0.578  1.00  0.00     0.036 C 
HETATM    8  C9  UNL     1       3.162  19.813   0.025  1.00  0.00    -0.023 C 
HETATM    9  C10 UNL     1       3.448  20.718   0.944  1.00  0.00    -0.072 C 
HETATM   10  C11 UNL     1       4.819  20.732   1.461  1.00  0.00     0.067 C 
HETATM   11  C12 UNL     1       4.952  21.150   2.911  1.00  0.00     0.136 C 
HETATM   12  C15 UNL     1       3.553  20.863   3.498  1.00  0.00     0.034 C 
HETATM   13  C16 UNL     1       2.574  21.821   2.874  1.00  0.00     0.017 C 
HETATM   14  C17 UNL     1       2.396  21.623   1.361  1.00  0.00    -0.008 C 
HETATM   15  C20 UNL     1       0.958  21.090   1.144  1.00  0.00    -0.024 C 
HETATM   16  C21 UNL     1       0.116  22.128   1.777  1.00  0.00     0.017 C 
HETATM   17  C22 UNL     1       0.759  19.829   2.015  1.00  0.00     0.037 C 
HETATM   18  C23 UNL     1      -0.735  19.545   2.192  1.00  0.00     0.169 C 
HETATM   19  O4  UNL     1      -1.405  20.173   1.234  1.00  0.00    -0.377 OA
HETATM   20  C24 UNL     1      -1.505  19.698  -0.013  1.00  0.00     0.091 C 
HETATM   21  C25 UNL     1      -2.931  20.092  -0.446  1.00  0.00     0.049 C 
HETATM   22  C26 UNL     1      -1.500  18.178  -0.114  1.00  0.00     0.075 C 
HETATM   23  C27 UNL     1      -1.694  17.763  -1.569  1.00  0.00     0.159 C 
ENDROOT
BRANCH  11  24
HETATM   24  O2  UNL     1       5.794  20.233   3.640  1.00  0.00    -0.315 OA
BRANCH  24  25
HETATM   25  C13 UNL     1       7.144  20.149   3.451  1.00  0.00     0.273 C 
HETATM   26  O3  UNL     1       7.781  21.223   3.275  1.00  0.00    -0.264 OA
BRANCH  25  27
HETATM   27  C14 UNL     1       7.801  18.822   3.459  1.00  0.00     0.225 C 
HETATM   28 CL1  UNL     1       7.727  18.110   5.065  1.00  0.00    -0.120 Cl
ENDBRANCH  25  27
ENDBRANCH  24  25
ENDBRANCH  11  24
BRANCH  14  29
HETATM   29  C18 UNL     1       2.514  22.916   0.634  1.00  0.00     0.030 C 
BRANCH  29  30
HETATM   30  C19 UNL     1       3.282  24.025   1.294  1.00  0.00     0.116 C 
HETATM   31 CL2  UNL     1       2.012  25.230   1.775  1.00  0.00    -0.130 Cl
ENDBRANCH  29  30
ENDBRANCH  14  29
BRANCH   1  32
HETATM   32  C2  UNL     1      -1.440  18.847  -3.803  1.00  0.00     0.003 C 
HETATM   33  C1  UNL     1      -0.906  19.569  -4.767  1.00  0.00     0.010 C 
ENDBRANCH   1  32
BRANCH  23  34
HETATM   34  O5  UNL     1      -3.051  17.842  -1.923  1.00  0.00    -0.392 OA
ATOM     35  H5  UNL     1      -3.359  17.068  -2.379  1.00  0.00     0.210 HD
ENDBRANCH  23  34
TORSDOF 7
ENDMDL
MODEL 3
REMARK VINA RESULT: -6.268310782      3.565      6.165
REMARK  7 active torsions:
REMARK  status: ('A' for Active; 'I' for Inactive)
REMARK    1  A    between atoms: C2_2  and  C3_3 
REMARK    2  A    between atoms: C12_13  and  O2_14 
REMARK    3  A    between atoms: O2_14  and  C13_15 
REMARK    4  A    between atoms: C13_15  and  C14_17 
REMARK    5  A    between atoms: C17_21  and  C18_22 
REMARK    6  A    between atoms: C18_22  and  C19_23 
REMARK    7  A    between atoms: C27_33  and  O5_34 
ROOT
HETATM    1  C3  UNL     1       0.034  18.807  -3.331  1.00  0.00     0.101 C 
HETATM    2  C4  UNL     1       1.049  17.651  -3.606  1.00  0.00     0.053 C 
HETATM    3  O1  UNL     1       0.682  19.720  -2.634  1.00  0.00    -0.360 OA
HETATM    4  C5  UNL     1       0.161  20.488  -1.617  1.00  0.00     0.094 C 
HETATM    5  C6  UNL     1      -0.085  21.840  -2.337  1.00  0.00     0.050 C 
HETATM    6  C7  UNL     1       1.295  20.726  -0.661  1.00  0.00     0.036 C 
HETATM    7  C8  UNL     1       2.256  19.551  -0.782  1.00  0.00     0.036 C 
HETATM    8  C9  UNL     1       3.374  19.522   0.124  1.00  0.00    -0.023 C 
HETATM    9  C10 UNL     1       3.525  20.366   1.129  1.00  0.00    -0.072 C 
HETATM   10  C11 UNL     1       4.719  20.202   1.961  1.00  0.00     0.067 C 
HETATM   11  C12 UNL     1       4.538  20.572   3.420  1.00  0.00     0.136 C 
HETATM   12  C15 UNL     1       3.014  20.446   3.636  1.00  0.00     0.034 C 
HETATM   13  C16 UNL     1       2.334  21.529   2.841  1.00  0.00     0.017 C 
HETATM   14  C17 UNL     1       2.513  21.384   1.323  1.00  0.00    -0.008 C 
HETATM   15  C20 UNL     1       1.121  21.035   0.739  1.00  0.00    -0.024 C 
HETATM   16  C21 UNL     1       0.272  22.155   1.199  1.00  0.00     0.017 C 
HETATM   17  C22 UNL     1       0.573  19.790   1.472  1.00  0.00     0.037 C 
HETATM   18  C23 UNL     1      -0.942  19.687   1.268  1.00  0.00     0.169 C 
HETATM   19  O4  UNL     1      -1.280  20.411   0.208  1.00  0.00    -0.377 OA
HETATM   20  C24 UNL     1      -1.123  19.977  -1.047  1.00  0.00     0.091 C 
HETATM   21  C25 UNL     1      -2.344  20.551  -1.793  1.00  0.00     0.049 C 
HETATM   22  C26 UNL     1      -1.265  18.471  -1.219  1.00  0.00     0.075 C 
HETATM   23  C27 UNL     1      -1.140  18.112  -2.697  1.00  0.00     0.159 C 
ENDROOT
BRANCH  11  24
HETATM   24  O2  UNL     1       5.065  19.544   4.285  1.00  0.00    -0.315 OA
BRANCH  24  25
HETATM   25  C13 UNL     1       6.391  19.222   4.336  1.00  0.00     0.273 C 
HETATM   26  O3  UNL     1       6.712  18.019   4.135  1.00  0.00    -0.264 OA
BRANCH  25  27
HETATM   27  C14 UNL     1       7.388  20.279   4.621  1.00  0.00     0.225 C 
HETATM   28 CL1  UNL     1       8.315  20.655   3.175  1.00  0.00    -0.120 Cl
ENDBRANCH  25  27
ENDBRANCH  24  25
ENDBRANCH  11  24
BRANCH  14  29
HETATM   29  C18 UNL     1       2.951  22.668   0.711  1.00  0.00     0.030 C 
BRANCH  29  30
HETATM   30  C19 UNL     1       3.503  23.727   1.621  1.00  0.00     0.116 C 
HETATM   31 CL2  UNL     1       2.236  25.027   1.621  1.00  0.00    -0.130 Cl
ENDBRANCH  29  30
ENDBRANCH  14  29
BRANCH   1  32
HETATM   32  C2  UNL     1      -0.224  19.201  -4.746  1.00  0.00     0.003 C 
HETATM   33  C1  UNL     1       0.594  19.904  -5.504  1.00  0.00     0.010 C 
ENDBRANCH   1  32
BRANCH  23  34
HETATM   34  O5  UNL     1      -2.350  18.363  -3.365  1.00  0.00    -0.392 OA
ATOM     35  H5  UNL     1      -2.937  18.920  -2.869  1.00  0.00     0.210 HD
ENDBRANCH  23  34
TORSDOF 7
ENDMDL
MODEL 4
REMARK VINA RESULT: -6.219229206      4.965      6.979
REMARK  7 active torsions:
REMARK  status: ('A' for Active; 'I' for Inactive)
REMARK    1  A    between atoms: C2_2  and  C3_3 
REMARK    2  A    between atoms: C12_13  and  O2_14 
REMARK    3  A    between atoms: O2_14  and  C13_15 
REMARK    4  A    between atoms: C13_15  and  C14_17 
REMARK    5  A    between atoms: C17_21  and  C18_22 
REMARK    6  A    between atoms: C18_22  and  C19_23 
REMARK    7  A    between atoms: C27_33  and  O5_34 
ROOT
HETATM    1  C3  UNL     1      -1.161  19.345   6.445  1.00  0.00     0.101 C 
HETATM    2  C4  UNL     1      -2.542  18.937   5.838  1.00  0.00     0.053 C 
HETATM    3  O1  UNL     1      -0.686  20.312   5.686  1.00  0.00    -0.360 OA
HETATM    4  C5  UNL     1       0.634  20.506   5.346  1.00  0.00     0.094 C 
HETATM    5  C6  UNL     1       1.042  21.653   6.308  1.00  0.00     0.050 C 
HETATM    6  C7  UNL     1       0.619  21.104   3.968  1.00  0.00     0.036 C 
HETATM    7  C8  UNL     1      -0.646  20.624   3.269  1.00  0.00     0.036 C 
HETATM    8  C9  UNL     1      -0.816  20.998   1.890  1.00  0.00    -0.023 C 
HETATM    9  C10 UNL     1       0.117  21.599   1.173  1.00  0.00    -0.072 C 
HETATM   10  C11 UNL     1      -0.212  21.911  -0.219  1.00  0.00     0.067 C 
HETATM   11  C12 UNL     1       0.959  21.860  -1.180  1.00  0.00     0.136 C 
HETATM   12  C15 UNL     1       1.972  20.942  -0.464  1.00  0.00     0.034 C 
HETATM   13  C16 UNL     1       2.469  21.656   0.765  1.00  0.00     0.017 C 
HETATM   14  C17 UNL     1       1.378  21.907   1.816  1.00  0.00    -0.008 C 
HETATM   15  C20 UNL     1       1.719  21.016   3.037  1.00  0.00    -0.024 C 
HETATM   16  C21 UNL     1       3.089  21.443   3.393  1.00  0.00     0.017 C 
HETATM   17  C22 UNL     1       1.868  19.554   2.559  1.00  0.00     0.037 C 
HETATM   18  C23 UNL     1       2.636  18.737   3.602  1.00  0.00     0.169 C 
HETATM   19  O4  UNL     1       2.581  19.372   4.766  1.00  0.00    -0.377 OA
HETATM   20  C24 UNL     1       1.514  19.320   5.572  1.00  0.00     0.091 C 
HETATM   21  C25 UNL     1       2.120  19.322   6.989  1.00  0.00     0.049 C 
HETATM   22  C26 UNL     1       0.737  18.011   5.509  1.00  0.00     0.075 C 
HETATM   23  C27 UNL     1      -0.404  18.047   6.521  1.00  0.00     0.159 C 
ENDROOT
BRANCH  11  24
HETATM   24  O2  UNL     1       0.626  21.101  -2.362  1.00  0.00    -0.315 OA
BRANCH  24  25
HETATM   25  C13 UNL     1       0.230  21.681  -3.533  1.00  0.00     0.273 C 
HETATM   26  O3  UNL     1      -0.746  22.479  -3.494  1.00  0.00    -0.264 OA
BRANCH  25  27
HETATM   27  C14 UNL     1       0.951  21.360  -4.787  1.00  0.00     0.225 C 
HETATM   28 CL1  UNL     1       0.666  19.688  -5.248  1.00  0.00    -0.120 Cl
ENDBRANCH  25  27
ENDBRANCH  24  25
ENDBRANCH  11  24
BRANCH  14  29
HETATM   29  C18 UNL     1       1.390  23.323   2.272  1.00  0.00     0.030 C 
BRANCH  29  30
HETATM   30  C19 UNL     1       2.160  24.319   1.452  1.00  0.00     0.116 C 
HETATM   31 CL2  UNL     1       1.773  25.923   2.210  1.00  0.00    -0.130 Cl
ENDBRANCH  29  30
ENDBRANCH  14  29
BRANCH   1  32
HETATM   32  C2  UNL     1      -1.646  19.809   7.778  1.00  0.00     0.003 C 
HETATM   33  C1  UNL     1      -2.206  20.977   8.022  1.00  0.00     0.010 C 
ENDBRANCH   1  32
BRANCH  23  34
HETATM   34  O5  UNL     1       0.078  17.768   7.811  1.00  0.00    -0.392 OA
ATOM     35  H5  UNL     1       0.992  18.000   7.922  1.00  0.00     0.210 HD
ENDBRANCH  23  34
TORSDOF 7
ENDMDL
MODEL 5
REMARK VINA RESULT: -6.051395826      2.014      2.134
REMARK  7 active torsions:
REMARK  status: ('A' for Active; 'I' for Inactive)
REMARK    1  A    between atoms: C2_2  and  C3_3 
REMARK    2  A    between atoms: C12_13  and  O2_14 
REMARK    3  A    between atoms: O2_14  and  C13_15 
REMARK    4  A    between atoms: C13_15  and  C14_17 
REMARK    5  A    between atoms: C17_21  and  C18_22 
REMARK    6  A    between atoms: C18_22  and  C19_23 
REMARK    7  A    between atoms: C27_33  and  O5_34 
ROOT
HETATM    1  C3  UNL     1       2.280  22.843   1.889  1.00  0.00     0.101 C 
HETATM    2  C4  UNL     1       3.137  23.981   1.247  1.00  0.00     0.053 C 
HETATM    3  O1  UNL     1       3.104  22.117   2.619  1.00  0.00    -0.360 OA
HETATM    4  C5  UNL     1       3.060  20.751   2.779  1.00  0.00     0.094 C 
HETATM    5  C6  UNL     1       2.399  20.617   4.176  1.00  0.00     0.050 C 
HETATM    6  C7  UNL     1       4.486  20.312   2.949  1.00  0.00     0.036 C 
HETATM    7  C8  UNL     1       5.369  21.314   2.218  1.00  0.00     0.036 C 
HETATM    8  C9  UNL     1       6.779  21.030   2.166  1.00  0.00    -0.023 C 
HETATM    9  C10 UNL     1       7.315  19.898   2.584  1.00  0.00    -0.072 C 
HETATM   10  C11 UNL     1       8.769  19.764   2.460  1.00  0.00     0.067 C 
HETATM   11  C12 UNL     1       9.261  18.355   2.197  1.00  0.00     0.136 C 
HETATM   12  C15 UNL     1       8.031  17.652   1.584  1.00  0.00     0.034 C 
HETATM   13  C16 UNL     1       6.974  17.535   2.650  1.00  0.00     0.017 C 
HETATM   14  C17 UNL     1       6.434  18.888   3.134  1.00  0.00    -0.008 C 
HETATM   15  C20 UNL     1       4.963  18.980   2.656  1.00  0.00    -0.024 C 
HETATM   16  C21 UNL     1       4.342  17.774   3.243  1.00  0.00     0.017 C 
HETATM   17  C22 UNL     1       4.922  18.748   1.129  1.00  0.00     0.037 C 
HETATM   18  C23 UNL     1       3.501  18.376   0.694  1.00  0.00     0.169 C 
HETATM   19  O4  UNL     1       2.651  18.766   1.635  1.00  0.00    -0.377 OA
HETATM   20  C24 UNL     1       2.237  20.032   1.759  1.00  0.00     0.091 C 
HETATM   21  C25 UNL     1       0.767  19.898   2.206  1.00  0.00     0.049 C 
HETATM   22  C26 UNL     1       2.151  20.802   0.448  1.00  0.00     0.075 C 
HETATM   23  C27 UNL     1       1.598  22.199   0.713  1.00  0.00     0.159 C 
ENDROOT
BRANCH  11  24
HETATM   24  O2  UNL     1      10.212  18.333   1.111  1.00  0.00    -0.315 OA
BRANCH  24  25
HETATM   25  C13 UNL     1      10.998  17.253   0.831  1.00  0.00     0.273 C 
HETATM   26  O3  UNL     1      11.309  17.047  -0.374  1.00  0.00    -0.264 OA
BRANCH  25  27
HETATM   27  C14 UNL     1      11.453  16.376   1.935  1.00  0.00     0.225 C 
HETATM   28 CL1  UNL     1      13.018  16.905   2.535  1.00  0.00    -0.120 Cl
ENDBRANCH  25  27
ENDBRANCH  24  25
ENDBRANCH  11  24
BRANCH  14  29
HETATM   29  C18 UNL     1       6.432  18.963   4.620  1.00  0.00     0.030 C 
BRANCH  29  30
HETATM   30  C19 UNL     1       7.335  18.027   5.372  1.00  0.00     0.116 C 
HETATM   31 CL2  UNL     1       6.201  16.958   6.304  1.00  0.00    -0.130 Cl
ENDBRANCH  29  30
ENDBRANCH  14  29
BRANCH   1  32
HETATM   32  C2  UNL     1       1.360  23.700   2.692  1.00  0.00     0.003 C 
HETATM   33  C1  UNL     1       1.398  25.016   2.748  1.00  0.00     0.010 C 
ENDBRANCH   1  32
BRANCH  23  34
HETATM   34  O5  UNL     1       0.201  22.155   0.847  1.00  0.00    -0.392 OA
ATOM     35  H5  UNL     1      -0.081  21.711   1.638  1.00  0.00     0.210 HD
ENDBRANCH  23  34
TORSDOF 7
ENDMDL
