MODEL 1
REMARK VINA RESULT: -6.243440652      0.000      0.000
REMARK  7 active torsions:
REMARK  status: ('A' for Active; 'I' for Inactive)
REMARK    1  A    between atoms: O1_2  and  C2_3 
REMARK    2  A    between atoms: C17_25  and  N4_26 
REMARK    3  A    between atoms: N4_26  and  C18_28 
REMARK    4  A    between atoms: C21_31  and  C22_32 
REMARK    5  A    between atoms: C23_33  and  C24_34 
REMARK    6  A    between atoms: C24_34  and  O2_37 
REMARK    7  A    between atoms: C27_39  and  C28_40 
ROOT
HETATM    1  C2  UNL     1       5.684  20.250   1.246  1.00  0.00     0.149 A 
HETATM    2  N1  UNL     1       4.779  19.478   0.643  1.00  0.00    -0.346 N 
ATOM      3  H1  UNL     1       3.959  19.910   0.217  1.00  0.00     0.167 HD
HETATM    4  C3  UNL     1       4.926  18.143   0.584  1.00  0.00     0.091 A 
HETATM    5  C4  UNL     1       6.001  17.501   1.135  1.00  0.00     0.030 A 
HETATM    6  C5  UNL     1       6.955  18.302   1.768  1.00  0.00    -0.011 A 
HETATM    7  C6  UNL     1       8.114  17.621   2.285  1.00  0.00     0.011 A 
HETATM    8  C7  UNL     1       8.056  16.836   3.427  1.00  0.00     0.012 A 
HETATM    9  C8  UNL     1       6.860  16.643   4.220  1.00  0.00     0.019 A 
HETATM   10  C9  UNL     1       6.486  17.591   5.136  1.00  0.00     0.017 A 
HETATM   11  C10 UNL     1       5.353  17.469   5.914  1.00  0.00     0.027 A 
HETATM   12  C11 UNL     1       4.539  16.370   5.800  1.00  0.00     0.086 A 
HETATM   13  C12 UNL     1       3.360  16.192   6.575  1.00  0.00     0.102 C 
HETATM   14  N2  UNL     1       2.398  16.062   7.194  1.00  0.00    -0.191 NA
HETATM   15  C13 UNL     1       4.886  15.402   4.891  1.00  0.00     0.176 A 
HETATM   16  F1  UNL     1       4.107  14.296   4.740  1.00  0.00    -0.201 F 
HETATM   17  C14 UNL     1       6.029  15.546   4.119  1.00  0.00     0.167 A 
HETATM   18  F2  UNL     1       6.303  14.527   3.248  1.00  0.00    -0.202 F 
HETATM   19  C15 UNL     1       9.256  16.211   3.775  1.00  0.00     0.019 A 
HETATM   20  C16 UNL     1       9.273  15.344   4.996  1.00  0.00     0.069 C 
HETATM   21  N3  UNL     1      10.391  16.352   3.065  1.00  0.00    -0.344 N 
ATOM     22  H3  UNL     1      11.238  15.872   3.367  1.00  0.00     0.167 HD
HETATM   23  C17 UNL     1      10.418  17.119   1.962  1.00  0.00     0.121 A 
HETATM   24  C21 UNL     1       9.284  17.775   1.536  1.00  0.00     0.073 A 
HETATM   25  C27 UNL     1       6.839  19.663   1.847  1.00  0.00     0.008 A 
ENDROOT
BRANCH  24  26
HETATM   26  C22 UNL     1       9.346  18.537   0.318  1.00  0.00    -0.059 C 
HETATM   27  C23 UNL     1       9.421  19.165  -0.716  1.00  0.00    -0.063 C 
BRANCH  27  28
HETATM   28  C24 UNL     1       9.531  19.912  -1.994  1.00  0.00     0.114 C 
HETATM   29  C25 UNL     1      10.868  19.600  -2.650  1.00  0.00     0.060 C 
HETATM   30  C26 UNL     1       9.375  21.358  -1.685  1.00  0.00     0.060 C 
BRANCH  28  31
HETATM   31  O2  UNL     1       8.523  19.530  -2.879  1.00  0.00    -0.378 OA
ATOM     32  H2  UNL     1       7.665  19.703  -2.508  1.00  0.00     0.211 HD
ENDBRANCH  28  31
ENDBRANCH  27  28
ENDBRANCH  24  26
BRANCH  25  33
HETATM   33  C28 UNL     1       7.746  20.664   2.432  1.00  0.00     0.024 A 
HETATM   34  C29 UNL     1       8.851  20.504   3.341  1.00  0.00     0.010 A 
HETATM   35  C30 UNL     1       7.577  21.030   3.906  1.00  0.00     0.010 A 
ENDBRANCH  25  33
BRANCH  23  36
HETATM   36  N4  UNL     1      11.497  17.279   1.263  1.00  0.00    -0.371 N 
ATOM     37  H4  UNL     1      11.837  18.229   1.114  1.00  0.00     0.161 HD
BRANCH  36  38
HETATM   38  C18 UNL     1      12.243  16.190   0.685  1.00  0.00     0.075 C 
HETATM   39  C19 UNL     1      11.452  15.500  -0.385  1.00  0.00     0.031 C 
HETATM   40  C20 UNL     1      13.494  16.764   0.021  1.00  0.00     0.031 C 
ENDBRANCH  36  38
ENDBRANCH  23  36
BRANCH   1  41
HETATM   41  O1  UNL     1       5.538  21.646   1.308  1.00  0.00    -0.340 OA
HETATM   42  C1  UNL     1       4.266  22.154   1.617  1.00  0.00     0.211 C 
ENDBRANCH   1  41
TORSDOF 7
ENDMDL
MODEL 2
REMARK VINA RESULT: -5.936414468      4.457      7.855
REMARK  7 active torsions:
REMARK  status: ('A' for Active; 'I' for Inactive)
REMARK    1  A    between atoms: O1_2  and  C2_3 
REMARK    2  A    between atoms: C17_25  and  N4_26 
REMARK    3  A    between atoms: N4_26  and  C18_28 
REMARK    4  A    between atoms: C21_31  and  C22_32 
REMARK    5  A    between atoms: C23_33  and  C24_34 
REMARK    6  A    between atoms: C24_34  and  O2_37 
REMARK    7  A    between atoms: C27_39  and  C28_40 
ROOT
HETATM    1  C2  UNL     1       4.711  19.207   3.843  1.00  0.00     0.149 A 
HETATM    2  N1  UNL     1       5.577  20.221   3.871  1.00  0.00    -0.346 N 
ATOM      3  H1  UNL     1       6.254  20.279   4.631  1.00  0.00     0.167 HD
HETATM    4  C3  UNL     1       5.574  21.169   2.917  1.00  0.00     0.091 A 
HETATM    5  C4  UNL     1       4.692  21.152   1.872  1.00  0.00     0.030 A 
HETATM    6  C5  UNL     1       3.782  20.092   1.834  1.00  0.00    -0.011 A 
HETATM    7  C6  UNL     1       2.904  20.049   0.694  1.00  0.00     0.011 A 
HETATM    8  C7  UNL     1       1.842  20.929   0.551  1.00  0.00     0.012 A 
HETATM    9  C8  UNL     1       1.491  21.943   1.523  1.00  0.00     0.019 A 
HETATM   10  C9  UNL     1       0.759  21.606   2.631  1.00  0.00     0.017 A 
HETATM   11  C10 UNL     1       0.403  22.524   3.597  1.00  0.00     0.027 A 
HETATM   12  C11 UNL     1       0.775  23.841   3.484  1.00  0.00     0.086 A 
HETATM   13  C12 UNL     1       0.435  24.830   4.447  1.00  0.00     0.102 C 
HETATM   14  N2  UNL     1       0.172  25.623   5.240  1.00  0.00    -0.191 NA
HETATM   15  C13 UNL     1       1.509  24.211   2.385  1.00  0.00     0.176 A 
HETATM   16  F1  UNL     1       1.904  25.505   2.232  1.00  0.00    -0.201 F 
HETATM   17  C14 UNL     1       1.856  23.271   1.427  1.00  0.00     0.167 A 
HETATM   18  F2  UNL     1       2.580  23.731   0.361  1.00  0.00    -0.202 F 
HETATM   19  C15 UNL     1       1.109  20.784  -0.630  1.00  0.00     0.019 A 
HETATM   20  C16 UNL     1      -0.053  21.700  -0.857  1.00  0.00     0.069 C 
HETATM   21  N3  UNL     1       1.401  19.863  -1.567  1.00  0.00    -0.344 N 
ATOM     22  H3  UNL     1       0.831  19.802  -2.410  1.00  0.00     0.167 HD
HETATM   23  C17 UNL     1       2.437  19.023  -1.403  1.00  0.00     0.121 A 
HETATM   24  C21 UNL     1       3.221  19.089  -0.272  1.00  0.00     0.073 A 
HETATM   25  C27 UNL     1       3.755  19.110   2.786  1.00  0.00     0.008 A 
ENDROOT
BRANCH  24  26
HETATM   26  C22 UNL     1       4.353  18.209  -0.167  1.00  0.00    -0.059 C 
HETATM   27  C23 UNL     1       5.319  17.484  -0.060  1.00  0.00    -0.063 C 
BRANCH  27  28
HETATM   28  C24 UNL     1       6.510  16.612   0.097  1.00  0.00     0.114 C 
HETATM   29  C25 UNL     1       6.165  15.199  -0.348  1.00  0.00     0.060 C 
HETATM   30  C26 UNL     1       6.927  16.672   1.523  1.00  0.00     0.060 C 
BRANCH  28  31
HETATM   31  O2  UNL     1       7.562  17.064  -0.699  1.00  0.00    -0.378 OA
ATOM     32  H2  UNL     1       8.084  17.708  -0.234  1.00  0.00     0.211 HD
ENDBRANCH  28  31
ENDBRANCH  27  28
ENDBRANCH  24  26
BRANCH  25  33
HETATM   33  C28 UNL     1       2.908  17.911   2.895  1.00  0.00     0.024 A 
HETATM   34  C29 UNL     1       1.649  17.599   2.271  1.00  0.00     0.010 A 
HETATM   35  C30 UNL     1       1.616  18.001   3.705  1.00  0.00     0.010 A 
ENDBRANCH  25  33
BRANCH  23  36
HETATM   36  N4  UNL     1       2.737  18.121  -2.284  1.00  0.00    -0.371 N 
ATOM     37  H4  UNL     1       3.531  18.295  -2.900  1.00  0.00     0.161 HD
BRANCH  36  38
HETATM   38  C18 UNL     1       2.011  16.886  -2.441  1.00  0.00     0.075 C 
HETATM   39  C19 UNL     1       1.072  16.956  -3.607  1.00  0.00     0.031 C 
HETATM   40  C20 UNL     1       3.016  15.774  -2.738  1.00  0.00     0.031 C 
ENDBRANCH  36  38
ENDBRANCH  23  36
BRANCH   1  41
HETATM   41  O1  UNL     1       4.711  18.212   4.835  1.00  0.00    -0.340 OA
HETATM   42  C1  UNL     1       4.606  18.625   6.173  1.00  0.00     0.211 C 
ENDBRANCH   1  41
TORSDOF 7
ENDMDL
MODEL 3
REMARK VINA RESULT: -5.899201672      2.885      5.939
REMARK  7 active torsions:
REMARK  status: ('A' for Active; 'I' for Inactive)
REMARK    1  A    between atoms: O1_2  and  C2_3 
REMARK    2  A    between atoms: C17_25  and  N4_26 
REMARK    3  A    between atoms: N4_26  and  C18_28 
REMARK    4  A    between atoms: C21_31  and  C22_32 
REMARK    5  A    between atoms: C23_33  and  C24_34 
REMARK    6  A    between atoms: C24_34  and  O2_37 
REMARK    7  A    between atoms: C27_39  and  C28_40 
ROOT
HETATM    1  C2  UNL     1       8.308  18.607   0.903  1.00  0.00     0.149 A 
HETATM    2  N1  UNL     1       7.654  17.864   0.010  1.00  0.00    -0.346 N 
ATOM      3  H1  UNL     1       7.998  17.816  -0.949  1.00  0.00     0.167 HD
HETATM    4  C3  UNL     1       6.549  17.175   0.348  1.00  0.00     0.091 A 
HETATM    5  C4  UNL     1       6.034  17.196   1.615  1.00  0.00     0.030 A 
HETATM    6  C5  UNL     1       6.715  17.971   2.558  1.00  0.00    -0.011 A 
HETATM    7  C6  UNL     1       6.201  17.932   3.902  1.00  0.00     0.011 A 
HETATM    8  C7  UNL     1       5.027  18.577   4.259  1.00  0.00     0.012 A 
HETATM    9  C8  UNL     1       4.224  19.366   3.349  1.00  0.00     0.019 A 
HETATM   10  C9  UNL     1       4.577  20.661   3.072  1.00  0.00     0.017 A 
HETATM   11  C10 UNL     1       3.859  21.459   2.205  1.00  0.00     0.027 A 
HETATM   12  C11 UNL     1       2.739  20.979   1.574  1.00  0.00     0.086 A 
HETATM   13  C12 UNL     1       1.960  21.756   0.673  1.00  0.00     0.102 C 
HETATM   14  N2  UNL     1       1.344  22.386  -0.070  1.00  0.00    -0.191 NA
HETATM   15  C13 UNL     1       2.359  19.685   1.830  1.00  0.00     0.176 A 
HETATM   16  F1  UNL     1       1.257  19.164   1.225  1.00  0.00    -0.201 F 
HETATM   17  C14 UNL     1       3.096  18.901   2.704  1.00  0.00     0.167 A 
HETATM   18  F2  UNL     1       2.638  17.628   2.909  1.00  0.00    -0.202 F 
HETATM   19  C15 UNL     1       4.643  18.409   5.593  1.00  0.00     0.019 A 
HETATM   20  C16 UNL     1       3.383  19.075   6.054  1.00  0.00     0.069 C 
HETATM   21  N3  UNL     1       5.349  17.678   6.474  1.00  0.00    -0.344 N 
ATOM     22  H3  UNL     1       5.021  17.591   7.436  1.00  0.00     0.167 HD
HETATM   23  C17 UNL     1       6.484  17.063   6.100  1.00  0.00     0.121 A 
HETATM   24  C21 UNL     1       6.944  17.167   4.806  1.00  0.00     0.073 A 
HETATM   25  C27 UNL     1       7.841  18.685   2.250  1.00  0.00     0.008 A 
ENDROOT
BRANCH  24  26
HETATM   26  C22 UNL     1       8.131  16.444   4.437  1.00  0.00    -0.059 C 
HETATM   27  C23 UNL     1       9.138  15.830   4.154  1.00  0.00    -0.063 C 
BRANCH  27  28
HETATM   28  C24 UNL     1      10.371  15.068   3.836  1.00  0.00     0.114 C 
HETATM   29  C25 UNL     1      10.120  14.177   2.629  1.00  0.00     0.060 C 
HETATM   30  C26 UNL     1      10.745  14.290   5.047  1.00  0.00     0.060 C 
BRANCH  28  31
HETATM   31  O2  UNL     1      11.418  15.934   3.516  1.00  0.00    -0.378 OA
ATOM     32  H2  UNL     1      11.959  15.567   2.827  1.00  0.00     0.211 HD
ENDBRANCH  28  31
ENDBRANCH  27  28
ENDBRANCH  24  26
BRANCH  25  33
HETATM   33  C28 UNL     1       8.704  19.517   3.104  1.00  0.00     0.024 A 
HETATM   34  C29 UNL     1       8.426  20.170   4.357  1.00  0.00     0.010 A 
HETATM   35  C30 UNL     1       8.461  21.025   3.138  1.00  0.00     0.010 A 
ENDBRANCH  25  33
BRANCH  23  36
HETATM   36  N4  UNL     1       7.190  16.359   6.929  1.00  0.00    -0.371 N 
ATOM     37  H4  UNL     1       8.141  16.665   7.132  1.00  0.00     0.161 HD
BRANCH  36  38
HETATM   38  C18 UNL     1       6.704  15.169   7.580  1.00  0.00     0.075 C 
HETATM   39  C19 UNL     1       7.665  14.031   7.413  1.00  0.00     0.031 C 
HETATM   40  C20 UNL     1       6.596  15.451   9.078  1.00  0.00     0.031 C 
ENDBRANCH  36  38
ENDBRANCH  23  36
BRANCH   1  41
HETATM   41  O1  UNL     1       9.464  19.326   0.557  1.00  0.00    -0.340 OA
HETATM   42  C1  UNL     1       9.407  20.143  -0.584  1.00  0.00     0.211 C 
ENDBRANCH   1  41
TORSDOF 7
ENDMDL
MODEL 4
REMARK VINA RESULT: -5.839838825      3.041      6.428
REMARK  7 active torsions:
REMARK  status: ('A' for Active; 'I' for Inactive)
REMARK    1  A    between atoms: O1_2  and  C2_3 
REMARK    2  A    between atoms: C17_25  and  N4_26 
REMARK    3  A    between atoms: N4_26  and  C18_28 
REMARK    4  A    between atoms: C21_31  and  C22_32 
REMARK    5  A    between atoms: C23_33  and  C24_34 
REMARK    6  A    between atoms: C24_34  and  O2_37 
REMARK    7  A    between atoms: C27_39  and  C28_40 
ROOT
HETATM    1  C2  UNL     1       8.069  18.142   1.388  1.00  0.00     0.149 A 
HETATM    2  N1  UNL     1       7.420  17.382   0.505  1.00  0.00    -0.346 N 
ATOM      3  H1  UNL     1       7.831  17.221  -0.414  1.00  0.00     0.167 HD
HETATM    4  C3  UNL     1       6.233  16.823   0.803  1.00  0.00     0.091 A 
HETATM    5  C4  UNL     1       5.626  16.999   2.016  1.00  0.00     0.030 A 
HETATM    6  C5  UNL     1       6.301  17.793   2.948  1.00  0.00    -0.011 A 
HETATM    7  C6  UNL     1       5.683  17.916   4.243  1.00  0.00     0.011 A 
HETATM    8  C7  UNL     1       4.550  18.689   4.446  1.00  0.00     0.012 A 
HETATM    9  C8  UNL     1       3.897  19.460   3.410  1.00  0.00     0.019 A 
HETATM   10  C9  UNL     1       4.387  20.691   3.060  1.00  0.00     0.017 A 
HETATM   11  C10 UNL     1       3.815  21.468   2.074  1.00  0.00     0.027 A 
HETATM   12  C11 UNL     1       2.708  21.032   1.391  1.00  0.00     0.086 A 
HETATM   13  C12 UNL     1       2.076  21.791   0.367  1.00  0.00     0.102 C 
HETATM   14  N2  UNL     1       1.580  22.403  -0.473  1.00  0.00    -0.191 NA
HETATM   15  C13 UNL     1       2.191  19.803   1.718  1.00  0.00     0.176 A 
HETATM   16  F1  UNL     1       1.096  19.327   1.066  1.00  0.00    -0.201 F 
HETATM   17  C14 UNL     1       2.783  19.039   2.712  1.00  0.00     0.167 A 
HETATM   18  F2  UNL     1       2.195  17.832   2.979  1.00  0.00    -0.202 F 
HETATM   19  C15 UNL     1       4.051  18.672   5.751  1.00  0.00     0.019 A 
HETATM   20  C16 UNL     1       2.826  19.481   6.049  1.00  0.00     0.069 C 
HETATM   21  N3  UNL     1       4.616  17.964   6.745  1.00  0.00    -0.344 N 
ATOM     22  H3  UNL     1       4.208  17.990   7.680  1.00  0.00     0.167 HD
HETATM   23  C17 UNL     1       5.715  17.223   6.519  1.00  0.00     0.121 A 
HETATM   24  C21 UNL     1       6.281  17.173   5.265  1.00  0.00     0.073 A 
HETATM   25  C27 UNL     1       7.508  18.378   2.680  1.00  0.00     0.008 A 
ENDROOT
BRANCH  24  26
HETATM   26  C22 UNL     1       7.421  16.321   5.058  1.00  0.00    -0.059 C 
HETATM   27  C23 UNL     1       8.373  15.598   4.857  1.00  0.00    -0.063 C 
BRANCH  27  28
HETATM   28  C24 UNL     1       9.532  14.712   4.582  1.00  0.00     0.114 C 
HETATM   29  C25 UNL     1      10.495  15.416   3.638  1.00  0.00     0.060 C 
HETATM   30  C26 UNL     1       9.004  13.444   4.011  1.00  0.00     0.060 C 
BRANCH  28  31
HETATM   31  O2  UNL     1      10.223  14.423   5.758  1.00  0.00    -0.378 OA
ATOM     32  H2  UNL     1       9.947  13.586   6.114  1.00  0.00     0.211 HD
ENDBRANCH  28  31
ENDBRANCH  27  28
ENDBRANCH  24  26
BRANCH  25  33
HETATM   33  C28 UNL     1       8.376  19.205   3.534  1.00  0.00     0.024 A 
HETATM   34  C29 UNL     1       8.060  20.004   4.689  1.00  0.00     0.010 A 
HETATM   35  C30 UNL     1       8.291  20.725   3.406  1.00  0.00     0.010 A 
ENDBRANCH  25  33
BRANCH  23  36
HETATM   36  N4  UNL     1       6.287  16.537   7.459  1.00  0.00    -0.371 N 
ATOM     37  H4  UNL     1       7.284  16.678   7.619  1.00  0.00     0.161 HD
BRANCH  36  38
HETATM   38  C18 UNL     1       5.590  15.588   8.290  1.00  0.00     0.075 C 
HETATM   39  C19 UNL     1       5.168  14.386   7.501  1.00  0.00     0.031 C 
HETATM   40  C20 UNL     1       6.554  15.100   9.371  1.00  0.00     0.031 C 
ENDBRANCH  36  38
ENDBRANCH  23  36
BRANCH   1  41
HETATM   41  O1  UNL     1       9.310  18.727   1.083  1.00  0.00    -0.340 OA
HETATM   42  C1  UNL     1       9.388  19.528  -0.067  1.00  0.00     0.211 C 
ENDBRANCH   1  41
TORSDOF 7
ENDMDL
MODEL 5
REMARK VINA RESULT: -5.799809194      5.420     10.329
REMARK  7 active torsions:
REMARK  status: ('A' for Active; 'I' for Inactive)
REMARK    1  A    between atoms: O1_2  and  C2_3 
REMARK    2  A    between atoms: C17_25  and  N4_26 
REMARK    3  A    between atoms: N4_26  and  C18_28 
REMARK    4  A    between atoms: C21_31  and  C22_32 
REMARK    5  A    between atoms: C23_33  and  C24_34 
REMARK    6  A    between atoms: C24_34  and  O2_37 
REMARK    7  A    between atoms: C27_39  and  C28_40 
ROOT
HETATM    1  C2  UNL     1       3.806  20.793   2.200  1.00  0.00     0.149 A 
HETATM    2  N1  UNL     1       4.244  19.679   1.611  1.00  0.00    -0.346 N 
ATOM      3  H1  UNL     1       5.242  19.564   1.439  1.00  0.00     0.167 HD
HETATM    4  C3  UNL     1       3.395  18.704   1.239  1.00  0.00     0.091 A 
HETATM    5  C4  UNL     1       2.045  18.795   1.439  1.00  0.00     0.030 A 
HETATM    6  C5  UNL     1       1.577  19.958   2.057  1.00  0.00    -0.011 A 
HETATM    7  C6  UNL     1       0.163  20.012   2.322  1.00  0.00     0.011 A 
HETATM    8  C7  UNL     1      -0.766  20.209   1.312  1.00  0.00     0.012 A 
HETATM    9  C8  UNL     1      -0.423  20.405  -0.081  1.00  0.00     0.019 A 
HETATM   10  C9  UNL     1      -0.031  21.642  -0.521  1.00  0.00     0.017 A 
HETATM   11  C10 UNL     1       0.319  21.889  -1.833  1.00  0.00     0.027 A 
HETATM   12  C11 UNL     1       0.285  20.886  -2.769  1.00  0.00     0.086 A 
HETATM   13  C12 UNL     1       0.633  21.084  -4.134  1.00  0.00     0.102 C 
HETATM   14  N2  UNL     1       0.932  21.246  -5.234  1.00  0.00    -0.191 NA
HETATM   15  C13 UNL     1      -0.105  19.635  -2.360  1.00  0.00     0.176 A 
HETATM   16  F1  UNL     1      -0.150  18.608  -3.251  1.00  0.00    -0.201 F 
HETATM   17  C14 UNL     1      -0.451  19.409  -1.036  1.00  0.00     0.167 A 
HETATM   18  F2  UNL     1      -0.837  18.135  -0.720  1.00  0.00    -0.202 F 
HETATM   19  C15 UNL     1      -2.101  20.196   1.727  1.00  0.00     0.019 A 
HETATM   20  C16 UNL     1      -3.164  20.400   0.692  1.00  0.00     0.069 C 
HETATM   21  N3  UNL     1      -2.470  20.008   3.007  1.00  0.00    -0.344 N 
ATOM     22  H3  UNL     1      -3.460  20.009   3.252  1.00  0.00     0.167 HD
HETATM   23  C17 UNL     1      -1.547  19.819   3.966  1.00  0.00     0.121 A 
HETATM   24  C21 UNL     1      -0.205  19.813   3.655  1.00  0.00     0.073 A 
HETATM   25  C27 UNL     1       2.411  20.970   2.448  1.00  0.00     0.008 A 
ENDROOT
BRANCH  24  26
HETATM   26  C22 UNL     1       0.742  19.550   4.704  1.00  0.00    -0.059 C 
HETATM   27  C23 UNL     1       1.531  19.301   5.591  1.00  0.00    -0.063 C 
BRANCH  27  28
HETATM   28  C24 UNL     1       2.492  18.967   6.672  1.00  0.00     0.114 C 
HETATM   29  C25 UNL     1       3.889  18.836   6.086  1.00  0.00     0.060 C 
HETATM   30  C26 UNL     1       2.026  17.709   7.315  1.00  0.00     0.060 C 
BRANCH  28  31
HETATM   31  O2  UNL     1       2.526  19.977   7.633  1.00  0.00    -0.378 OA
ATOM     32  H2  UNL     1       3.012  20.729   7.315  1.00  0.00     0.211 HD
ENDBRANCH  28  31
ENDBRANCH  27  28
ENDBRANCH  24  26
BRANCH  25  33
HETATM   33  C28 UNL     1       2.113  22.236   3.138  1.00  0.00     0.024 A 
HETATM   34  C29 UNL     1       0.859  22.909   3.354  1.00  0.00     0.010 A 
HETATM   35  C30 UNL     1       1.752  23.458   2.296  1.00  0.00     0.010 A 
ENDBRANCH  25  33
BRANCH  23  36
HETATM   36  N4  UNL     1      -1.873  19.644   5.208  1.00  0.00    -0.371 N 
ATOM     37  H4  UNL     1      -1.571  18.786   5.668  1.00  0.00     0.161 HD
BRANCH  36  38
HETATM   38  C18 UNL     1      -2.639  20.595   5.974  1.00  0.00     0.075 C 
HETATM   39  C19 UNL     1      -2.802  20.140   7.393  1.00  0.00     0.031 C 
HETATM   40  C20 UNL     1      -1.867  21.913   6.010  1.00  0.00     0.031 C 
ENDBRANCH  36  38
ENDBRANCH  23  36
BRANCH   1  41
HETATM   41  O1  UNL     1       4.688  21.813   2.593  1.00  0.00    -0.340 OA
HETATM   42  C1  UNL     1       5.941  21.432   3.098  1.00  0.00     0.211 C 
ENDBRANCH   1  41
TORSDOF 7
ENDMDL
