MODEL 1
REMARK VINA RESULT: -7.577666371      0.000      0.000
REMARK  7 active torsions:
REMARK  status: ('A' for Active; 'I' for Inactive)
REMARK    1  A    between atoms: C2_2  and  C3_3 
REMARK    2  A    between atoms: C3_3  and  C4_4 
REMARK    3  A    between atoms: C4_4  and  N1_5 
REMARK    4  A    between atoms: N1_5  and  C5_7 
REMARK    5  A    between atoms: C6_10  and  N3_11 
REMARK    6  A    between atoms: N3_11  and  C7_13 
REMARK    7  A    between atoms: C10_16  and  N4_17 
ROOT
HETATM    1  C5  UNL     1       2.586  19.039  -0.905  1.00  0.00     0.680 A 
HETATM    2  N2  UNL     1       2.595  20.262  -0.357  1.00  0.00    -0.176 N 
ATOM      3  H2  UNL     1       1.884  20.922  -0.670  1.00  0.00     0.186 HD
HETATM    4  C6  UNL     1       3.467  20.687   0.572  1.00  0.00     0.131 A 
HETATM    5  C15 UNL     1       4.474  19.816   1.041  1.00  0.00     0.054 A 
HETATM    6  C16 UNL     1       4.448  18.574   0.471  1.00  0.00     0.106 A 
HETATM    7  N5  UNL     1       3.534  18.204  -0.468  1.00  0.00    -0.184 N 
ATOM      8  H5  UNL     1       3.575  17.259  -0.851  1.00  0.00     0.185 HD
HETATM    9  S1  UNL     1       5.751  17.758   1.219  1.00  0.00    -0.070 SA
HETATM   10  C17 UNL     1       6.302  19.014   2.241  1.00  0.00     0.020 A 
HETATM   11  C18 UNL     1       7.354  19.101   3.174  1.00  0.00     0.043 A 
HETATM   12  C19 UNL     1       7.571  20.257   3.869  1.00  0.00     0.035 A 
HETATM   13 CL1  UNL     1       8.872  20.321   5.004  1.00  0.00    -0.084 Cl
HETATM   14  C20 UNL     1       6.718  21.294   3.603  1.00  0.00     0.025 A 
HETATM   15  C21 UNL     1       5.699  21.217   2.702  1.00  0.00     0.015 A 
HETATM   16  C22 UNL     1       5.444  20.040   1.964  1.00  0.00    -0.002 A 
ENDROOT
BRANCH   1  17
HETATM   17  N1  UNL     1       1.706  18.753  -1.779  1.00  0.00    -0.225 N 
ATOM     18  H1  UNL     1       2.063  18.443  -2.683  1.00  0.00     0.177 HD
BRANCH  17  19
HETATM   19  C4  UNL     1       0.293  18.809  -1.664  1.00  0.00     0.148 C 
BRANCH  19  20
HETATM   20  C3  UNL     1      -0.388  19.596  -2.748  1.00  0.00    -0.012 C 
HETATM   21  C23 UNL     1      -1.758  18.958  -3.028  1.00  0.00     0.050 C 
HETATM   22  C24 UNL     1      -2.257  20.370  -3.276  1.00  0.00     0.179 C 
HETATM   23  F1  UNL     1      -3.497  20.606  -2.743  1.00  0.00    -0.249 F 
HETATM   24  C25 UNL     1      -1.109  20.834  -2.369  1.00  0.00    -0.007 C 
HETATM   25  C26 UNL     1      -1.614  20.930  -0.963  1.00  0.00     0.018 C 
HETATM   26  C27 UNL     1      -0.534  22.141  -2.828  1.00  0.00     0.018 C 
BRANCH  20  27
HETATM   27  C2  UNL     1       0.363  19.690  -4.048  1.00  0.00     0.007 C 
HETATM   28  C1  UNL     1       0.178  18.476  -4.925  1.00  0.00     0.006 C 
ENDBRANCH  20  27
ENDBRANCH  19  20
ENDBRANCH  17  19
ENDBRANCH   1  17
BRANCH   4  29
HETATM   29  N3  UNL     1       3.344  21.897   0.999  1.00  0.00    -0.370 N 
ATOM     30  H3  UNL     1       3.987  22.166   1.744  1.00  0.00     0.161 HD
BRANCH  29  31
HETATM   31  C7  UNL     1       2.445  22.899   0.581  1.00  0.00     0.083 C 
HETATM   32  C8  UNL     1       0.995  22.543   0.835  1.00  0.00     0.027 C 
HETATM   33  C9  UNL     1       0.630  22.525   2.289  1.00  0.00     0.038 C 
HETATM   34  C10 UNL     1       1.389  23.552   3.092  1.00  0.00     0.222 C 
HETATM   35  C13 UNL     1       1.700  24.698   2.155  1.00  0.00     0.038 C 
HETATM   36  C14 UNL     1       2.808  24.221   1.238  1.00  0.00     0.027 C 
BRANCH  34  37
HETATM   37  N4  UNL     1       0.693  23.986   4.274  1.00  0.00     0.084 N 
HETATM   38  C11 UNL     1      -0.393  23.116   4.617  1.00  0.00     0.309 C 
HETATM   39  C12 UNL     1       0.259  25.346   4.248  1.00  0.00     0.309 C 
ENDBRANCH  34  37
ENDBRANCH  29  31
ENDBRANCH   4  29
TORSDOF 7
ENDMDL
MODEL 2
REMARK VINA RESULT: -7.576539996      1.111      1.930
REMARK  7 active torsions:
REMARK  status: ('A' for Active; 'I' for Inactive)
REMARK    1  A    between atoms: C2_2  and  C3_3 
REMARK    2  A    between atoms: C3_3  and  C4_4 
REMARK    3  A    between atoms: C4_4  and  N1_5 
REMARK    4  A    between atoms: N1_5  and  C5_7 
REMARK    5  A    between atoms: C6_10  and  N3_11 
REMARK    6  A    between atoms: N3_11  and  C7_13 
REMARK    7  A    between atoms: C10_16  and  N4_17 
ROOT
HETATM    1  C5  UNL     1       2.482  19.127  -0.953  1.00  0.00     0.680 A 
HETATM    2  N2  UNL     1       2.517  20.354  -0.416  1.00  0.00    -0.176 N 
ATOM      3  H2  UNL     1       1.830  21.031  -0.747  1.00  0.00     0.186 HD
HETATM    4  C6  UNL     1       3.385  20.765   0.523  1.00  0.00     0.131 A 
HETATM    5  C15 UNL     1       4.358  19.870   1.018  1.00  0.00     0.054 A 
HETATM    6  C16 UNL     1       4.307  18.624   0.460  1.00  0.00     0.106 A 
HETATM    7  N5  UNL     1       3.399  18.270  -0.492  1.00  0.00    -0.184 N 
ATOM      8  H5  UNL     1       3.419  17.321  -0.864  1.00  0.00     0.185 HD
HETATM    9  S1  UNL     1       5.573  17.780   1.237  1.00  0.00    -0.070 SA
HETATM   10  C17 UNL     1       6.142  19.030   2.257  1.00  0.00     0.020 A 
HETATM   11  C18 UNL     1       7.180  19.097   3.207  1.00  0.00     0.043 A 
HETATM   12  C19 UNL     1       7.418  20.253   3.894  1.00  0.00     0.035 A 
HETATM   13 CL1  UNL     1       8.701  20.293   5.051  1.00  0.00    -0.084 Cl
HETATM   14  C20 UNL     1       6.600  21.311   3.603  1.00  0.00     0.025 A 
HETATM   15  C21 UNL     1       5.594  21.253   2.686  1.00  0.00     0.015 A 
HETATM   16  C22 UNL     1       5.318  20.076   1.956  1.00  0.00    -0.002 A 
ENDROOT
BRANCH   1  17
HETATM   17  N1  UNL     1       1.609  18.857  -1.839  1.00  0.00    -0.225 N 
ATOM     18  H1  UNL     1       1.942  18.319  -2.639  1.00  0.00     0.177 HD
BRANCH  17  19
HETATM   19  C4  UNL     1       0.234  19.205  -1.863  1.00  0.00     0.148 C 
BRANCH  19  20
HETATM   20  C3  UNL     1      -0.203  19.927  -3.106  1.00  0.00    -0.012 C 
HETATM   21  C23 UNL     1       1.047  20.440  -3.837  1.00  0.00     0.050 C 
HETATM   22  C24 UNL     1       0.294  20.152  -5.124  1.00  0.00     0.179 C 
HETATM   23  F1  UNL     1       1.079  19.584  -6.093  1.00  0.00    -0.249 F 
HETATM   24  C25 UNL     1      -0.507  19.123  -4.314  1.00  0.00    -0.007 C 
HETATM   25  C26 UNL     1       0.159  17.789  -4.435  1.00  0.00     0.018 C 
HETATM   26  C27 UNL     1      -1.937  19.058  -4.763  1.00  0.00     0.018 C 
BRANCH  20  27
HETATM   27  C2  UNL     1      -1.131  21.089  -2.885  1.00  0.00     0.007 C 
HETATM   28  C1  UNL     1      -1.665  21.159  -1.476  1.00  0.00     0.006 C 
ENDBRANCH  20  27
ENDBRANCH  19  20
ENDBRANCH  17  19
ENDBRANCH   1  17
BRANCH   4  29
HETATM   29  N3  UNL     1       3.288  21.982   0.936  1.00  0.00    -0.370 N 
ATOM     30  H3  UNL     1       4.004  22.277   1.600  1.00  0.00     0.161 HD
BRANCH  29  31
HETATM   31  C7  UNL     1       2.331  22.961   0.600  1.00  0.00     0.083 C 
HETATM   32  C8  UNL     1       0.911  22.538   0.911  1.00  0.00     0.027 C 
HETATM   33  C9  UNL     1       0.620  22.456   2.380  1.00  0.00     0.038 C 
HETATM   34  C10 UNL     1       1.379  23.484   3.182  1.00  0.00     0.222 C 
HETATM   35  C13 UNL     1       1.598  24.673   2.273  1.00  0.00     0.038 C 
HETATM   36  C14 UNL     1       2.676  24.273   1.285  1.00  0.00     0.027 C 
BRANCH  34  37
HETATM   37  N4  UNL     1       0.727  23.849   4.411  1.00  0.00     0.084 N 
HETATM   38  C11 UNL     1      -0.322  22.938   4.762  1.00  0.00     0.309 C 
HETATM   39  C12 UNL     1       0.261  25.197   4.465  1.00  0.00     0.309 C 
ENDBRANCH  34  37
ENDBRANCH  29  31
ENDBRANCH   4  29
TORSDOF 7
ENDMDL
MODEL 3
REMARK VINA RESULT: -7.478386983      0.942      1.648
REMARK  7 active torsions:
REMARK  status: ('A' for Active; 'I' for Inactive)
REMARK    1  A    between atoms: C2_2  and  C3_3 
REMARK    2  A    between atoms: C3_3  and  C4_4 
REMARK    3  A    between atoms: C4_4  and  N1_5 
REMARK    4  A    between atoms: N1_5  and  C5_7 
REMARK    5  A    between atoms: C6_10  and  N3_11 
REMARK    6  A    between atoms: N3_11  and  C7_13 
REMARK    7  A    between atoms: C10_16  and  N4_17 
ROOT
HETATM    1  C5  UNL     1       2.563  18.987  -0.824  1.00  0.00     0.680 A 
HETATM    2  N2  UNL     1       2.569  20.218  -0.295  1.00  0.00    -0.176 N 
ATOM      3  H2  UNL     1       1.841  20.863  -0.599  1.00  0.00     0.186 HD
HETATM    4  C6  UNL     1       3.458  20.670   0.605  1.00  0.00     0.131 A 
HETATM    5  C15 UNL     1       4.488  19.820   1.062  1.00  0.00     0.054 A 
HETATM    6  C16 UNL     1       4.465  18.569   0.512  1.00  0.00     0.106 A 
HETATM    7  N5  UNL     1       3.533  18.171  -0.398  1.00  0.00    -0.184 N 
ATOM      8  H5  UNL     1       3.578  17.221  -0.767  1.00  0.00     0.185 HD
HETATM    9  S1  UNL     1       5.798  17.783   1.239  1.00  0.00    -0.070 SA
HETATM   10  C17 UNL     1       6.357  19.062   2.228  1.00  0.00     0.020 A 
HETATM   11  C18 UNL     1       7.430  19.179   3.132  1.00  0.00     0.043 A 
HETATM   12  C19 UNL     1       7.649  20.348   3.803  1.00  0.00     0.035 A 
HETATM   13 CL1  UNL     1       8.977  20.448   4.904  1.00  0.00    -0.084 Cl
HETATM   14  C20 UNL     1       6.775  21.369   3.542  1.00  0.00     0.025 A 
HETATM   15  C21 UNL     1       5.735  21.264   2.669  1.00  0.00     0.015 A 
HETATM   16  C22 UNL     1       5.477  20.072   1.957  1.00  0.00    -0.002 A 
ENDROOT
BRANCH   1  17
HETATM   17  N1  UNL     1       1.665  18.675  -1.670  1.00  0.00    -0.225 N 
ATOM     18  H1  UNL     1       1.007  17.955  -1.373  1.00  0.00     0.177 HD
BRANCH  17  19
HETATM   19  C4  UNL     1       1.457  19.196  -2.973  1.00  0.00     0.148 C 
BRANCH  19  20
HETATM   20  C3  UNL     1       0.052  19.660  -3.240  1.00  0.00    -0.012 C 
HETATM   21  C23 UNL     1      -0.087  19.955  -4.741  1.00  0.00     0.050 C 
HETATM   22  C24 UNL     1      -1.509  19.436  -4.612  1.00  0.00     0.179 C 
HETATM   23  F1  UNL     1      -1.893  18.645  -5.662  1.00  0.00    -0.249 F 
HETATM   24  C25 UNL     1      -1.006  18.636  -3.402  1.00  0.00    -0.007 C 
HETATM   25  C26 UNL     1      -0.581  17.278  -3.866  1.00  0.00     0.018 C 
HETATM   26  C27 UNL     1      -2.050  18.539  -2.330  1.00  0.00     0.018 C 
BRANCH  20  27
HETATM   27  C2  UNL     1      -0.380  20.882  -2.477  1.00  0.00     0.007 C 
HETATM   28  C1  UNL     1       0.432  22.107  -2.817  1.00  0.00     0.006 C 
ENDBRANCH  20  27
ENDBRANCH  19  20
ENDBRANCH  17  19
ENDBRANCH   1  17
BRANCH   4  29
HETATM   29  N3  UNL     1       3.329  21.884   1.016  1.00  0.00    -0.370 N 
ATOM     30  H3  UNL     1       3.980  22.172   1.747  1.00  0.00     0.161 HD
BRANCH  29  31
HETATM   31  C7  UNL     1       2.412  22.871   0.598  1.00  0.00     0.083 C 
HETATM   32  C8  UNL     1       0.971  22.504   0.880  1.00  0.00     0.027 C 
HETATM   33  C9  UNL     1       0.629  22.504   2.340  1.00  0.00     0.038 C 
HETATM   34  C10 UNL     1       1.389  23.551   3.115  1.00  0.00     0.222 C 
HETATM   35  C13 UNL     1       1.674  24.686   2.157  1.00  0.00     0.038 C 
HETATM   36  C14 UNL     1       2.772  24.206   1.229  1.00  0.00     0.027 C 
BRANCH  34  37
HETATM   37  N4  UNL     1       0.708  23.996   4.302  1.00  0.00     0.084 N 
HETATM   38  C11 UNL     1      -0.370  23.125   4.668  1.00  0.00     0.309 C 
HETATM   39  C12 UNL     1       0.268  25.353   4.266  1.00  0.00     0.309 C 
ENDBRANCH  34  37
ENDBRANCH  29  31
ENDBRANCH   4  29
TORSDOF 7
ENDMDL
MODEL 4
REMARK VINA RESULT: -7.240484469      0.987      1.067
REMARK  7 active torsions:
REMARK  status: ('A' for Active; 'I' for Inactive)
REMARK    1  A    between atoms: C2_2  and  C3_3 
REMARK    2  A    between atoms: C3_3  and  C4_4 
REMARK    3  A    between atoms: C4_4  and  N1_5 
REMARK    4  A    between atoms: N1_5  and  C5_7 
REMARK    5  A    between atoms: C6_10  and  N3_11 
REMARK    6  A    between atoms: N3_11  and  C7_13 
REMARK    7  A    between atoms: C10_16  and  N4_17 
ROOT
HETATM    1  C5  UNL     1       2.012  19.171  -1.271  1.00  0.00     0.680 A 
HETATM    2  N2  UNL     1       2.072  20.407  -0.757  1.00  0.00    -0.176 N 
ATOM      3  H2  UNL     1       1.406  21.094  -1.109  1.00  0.00     0.186 HD
HETATM    4  C6  UNL     1       2.940  20.813   0.184  1.00  0.00     0.131 A 
HETATM    5  C15 UNL     1       3.885  19.904   0.707  1.00  0.00     0.054 A 
HETATM    6  C16 UNL     1       3.808  18.649   0.171  1.00  0.00     0.106 A 
HETATM    7  N5  UNL     1       2.902  18.300  -0.784  1.00  0.00    -0.184 N 
ATOM      8  H5  UNL     1       2.903  17.343  -1.138  1.00  0.00     0.185 HD
HETATM    9  S1  UNL     1       5.044  17.789   0.979  1.00  0.00    -0.070 SA
HETATM   10  C17 UNL     1       5.634  19.043   1.981  1.00  0.00     0.020 A 
HETATM   11  C18 UNL     1       6.663  19.102   2.941  1.00  0.00     0.043 A 
HETATM   12  C19 UNL     1       6.922  20.265   3.609  1.00  0.00     0.035 A 
HETATM   13 CL1  UNL     1       8.193  20.294   4.779  1.00  0.00    -0.084 Cl
HETATM   14  C20 UNL     1       6.134  21.337   3.290  1.00  0.00     0.025 A 
HETATM   15  C21 UNL     1       5.137  21.287   2.362  1.00  0.00     0.015 A 
HETATM   16  C22 UNL     1       4.839  20.104   1.651  1.00  0.00    -0.002 A 
ENDROOT
BRANCH   1  17
HETATM   17  N1  UNL     1       1.142  18.906  -2.162  1.00  0.00    -0.225 N 
ATOM     18  H1  UNL     1       1.468  18.955  -3.127  1.00  0.00     0.177 HD
BRANCH  17  19
HETATM   19  C4  UNL     1      -0.221  18.551  -1.991  1.00  0.00     0.148 C 
BRANCH  19  20
HETATM   20  C3  UNL     1      -1.187  19.412  -2.755  1.00  0.00    -0.012 C 
HETATM   21  C23 UNL     1      -2.534  18.676  -2.841  1.00  0.00     0.050 C 
HETATM   22  C24 UNL     1      -3.179  20.047  -2.734  1.00  0.00     0.179 C 
HETATM   23  F1  UNL     1      -4.279  20.063  -1.916  1.00  0.00    -0.249 F 
HETATM   24  C25 UNL     1      -1.892  20.494  -2.026  1.00  0.00    -0.007 C 
HETATM   25  C26 UNL     1      -2.069  20.323  -0.550  1.00  0.00     0.018 C 
HETATM   26  C27 UNL     1      -1.535  21.909  -2.369  1.00  0.00     0.018 C 
BRANCH  20  27
HETATM   27  C2  UNL     1      -0.761  19.781  -4.149  1.00  0.00     0.007 C 
HETATM   28  C1  UNL     1      -0.820  18.619  -5.110  1.00  0.00     0.006 C 
ENDBRANCH  20  27
ENDBRANCH  19  20
ENDBRANCH  17  19
ENDBRANCH   1  17
BRANCH   4  29
HETATM   29  N3  UNL     1       2.869  22.040   0.574  1.00  0.00    -0.370 N 
ATOM     30  H3  UNL     1       3.765  22.503   0.727  1.00  0.00     0.161 HD
BRANCH  29  31
HETATM   31  C7  UNL     1       1.728  22.830   0.818  1.00  0.00     0.083 C 
HETATM   32  C8  UNL     1       0.562  22.038   1.372  1.00  0.00     0.027 C 
HETATM   33  C9  UNL     1       0.783  21.548   2.772  1.00  0.00     0.038 C 
HETATM   34  C10 UNL     1       1.610  22.502   3.598  1.00  0.00     0.222 C 
HETATM   35  C13 UNL     1       1.351  23.889   3.055  1.00  0.00     0.038 C 
HETATM   36  C14 UNL     1       2.091  23.986   1.736  1.00  0.00     0.027 C 
BRANCH  34  37
HETATM   37  N4  UNL     1       1.353  22.410   5.010  1.00  0.00     0.084 N 
HETATM   38  C11 UNL     1       1.024  21.076   5.418  1.00  0.00     0.309 C 
HETATM   39  C12 UNL     1       0.389  23.339   5.505  1.00  0.00     0.309 C 
ENDBRANCH  34  37
ENDBRANCH  29  31
ENDBRANCH   4  29
TORSDOF 7
ENDMDL
MODEL 5
REMARK VINA RESULT: -7.115223767      4.679      8.137
REMARK  7 active torsions:
REMARK  status: ('A' for Active; 'I' for Inactive)
REMARK    1  A    between atoms: C2_2  and  C3_3 
REMARK    2  A    between atoms: C3_3  and  C4_4 
REMARK    3  A    between atoms: C4_4  and  N1_5 
REMARK    4  A    between atoms: N1_5  and  C5_7 
REMARK    5  A    between atoms: C6_10  and  N3_11 
REMARK    6  A    between atoms: N3_11  and  C7_13 
REMARK    7  A    between atoms: C10_16  and  N4_17 
ROOT
HETATM    1  C5  UNL     1       6.354  20.538   1.309  1.00  0.00     0.680 A 
HETATM    2  N2  UNL     1       7.413  20.583   0.488  1.00  0.00    -0.176 N 
ATOM      3  H2  UNL     1       7.430  21.320  -0.216  1.00  0.00     0.186 HD
HETATM    4  C6  UNL     1       8.453  19.734   0.519  1.00  0.00     0.131 A 
HETATM    5  C15 UNL     1       8.483  18.694   1.473  1.00  0.00     0.054 A 
HETATM    6  C16 UNL     1       7.395  18.665   2.301  1.00  0.00     0.106 A 
HETATM    7  N5  UNL     1       6.371  19.558   2.218  1.00  0.00    -0.184 N 
ATOM      8  H5  UNL     1       5.590  19.475   2.870  1.00  0.00     0.185 HD
HETATM    9  S1  UNL     1       7.704  17.333   3.327  1.00  0.00    -0.070 SA
HETATM   10  C17 UNL     1       9.209  16.840   2.681  1.00  0.00     0.020 A 
HETATM   11  C18 UNL     1      10.099  15.797   3.006  1.00  0.00     0.043 A 
HETATM   12  C19 UNL     1      11.260  15.632   2.306  1.00  0.00     0.035 A 
HETATM   13 CL1  UNL     1      12.323  14.341   2.738  1.00  0.00    -0.084 Cl
HETATM   14  C20 UNL     1      11.491  16.526   1.296  1.00  0.00     0.025 A 
HETATM   15  C21 UNL     1      10.636  17.537   0.976  1.00  0.00     0.015 A 
HETATM   16  C22 UNL     1       9.426  17.739   1.676  1.00  0.00    -0.002 A 
ENDROOT
BRANCH   1  17
HETATM   17  N1  UNL     1       5.428  21.401   1.181  1.00  0.00    -0.225 N 
ATOM     18  H1  UNL     1       5.279  21.754   0.235  1.00  0.00     0.177 HD
BRANCH  17  19
HETATM   19  C4  UNL     1       4.573  21.938   2.177  1.00  0.00     0.148 C 
BRANCH  19  20
HETATM   20  C3  UNL     1       3.107  21.748   1.906  1.00  0.00    -0.012 C 
HETATM   21  C23 UNL     1       2.321  22.159   3.162  1.00  0.00     0.050 C 
HETATM   22  C24 UNL     1       1.256  22.673   2.209  1.00  0.00     0.179 C 
HETATM   23  F1  UNL     1       0.722  23.874   2.595  1.00  0.00    -0.249 F 
HETATM   24  C25 UNL     1       2.384  22.816   1.176  1.00  0.00    -0.007 C 
HETATM   25  C26 UNL     1       2.942  24.202   1.260  1.00  0.00     0.018 C 
HETATM   26  C27 UNL     1       1.905  22.508  -0.211  1.00  0.00     0.018 C 
BRANCH  20  27
HETATM   27  C2  UNL     1       2.695  20.352   1.529  1.00  0.00     0.007 C 
HETATM   28  C1  UNL     1       2.799  19.376   2.674  1.00  0.00     0.006 C 
ENDBRANCH  20  27
ENDBRANCH  19  20
ENDBRANCH  17  19
ENDBRANCH   1  17
BRANCH   4  29
HETATM   29  N3  UNL     1       9.395  19.910  -0.342  1.00  0.00    -0.370 N 
ATOM     30  H3  UNL     1      10.323  20.069   0.049  1.00  0.00     0.161 HD
BRANCH  29  31
HETATM   31  C7  UNL     1       9.322  19.915  -1.750  1.00  0.00     0.083 C 
HETATM   32  C8  UNL     1      10.656  20.179  -2.416  1.00  0.00     0.027 C 
HETATM   33  C9  UNL     1      11.635  19.054  -2.260  1.00  0.00     0.038 C 
HETATM   34  C10 UNL     1      10.968  17.701  -2.238  1.00  0.00     0.222 C 
HETATM   35  C13 UNL     1       9.709  17.820  -3.066  1.00  0.00     0.038 C 
HETATM   36  C14 UNL     1       8.715  18.609  -2.237  1.00  0.00     0.027 C 
BRANCH  34  37
HETATM   37  N4  UNL     1      11.821  16.633  -2.688  1.00  0.00     0.084 N 
HETATM   38  C11 UNL     1      11.288  15.341  -2.371  1.00  0.00     0.309 C 
HETATM   39  C12 UNL     1      13.180  16.734  -2.264  1.00  0.00     0.309 C 
ENDBRANCH  34  37
ENDBRANCH  29  31
ENDBRANCH   4  29
TORSDOF 7
ENDMDL
