MODEL 1
REMARK VINA RESULT: -6.873210891      0.000      0.000
REMARK  8 active torsions:
REMARK  status: ('A' for Active; 'I' for Inactive)
REMARK    1  A    between atoms: O1_2  and  C2_3 
REMARK    2  A    between atoms: C2_3  and  C3_5 
REMARK    3  A    between atoms: C8_10  and  O3_11 
REMARK    4  A    between atoms: C8_10  and  C9_13 
REMARK    5  A    between atoms: C10_14  and  C11_16 
REMARK    6  A    between atoms: C11_16  and  C12_17 
REMARK    7  A    between atoms: C21_27  and  O4_28 
REMARK    8  A    between atoms: O4_28  and  C22_29 
ROOT
HETATM    1  C9  UNL     1       1.007  21.106  -0.735  1.00  0.00     0.025 C 
HETATM    2  C10 UNL     1       1.940  20.579   0.086  1.00  0.00    -0.012 C 
HETATM    3 BR1  UNL     1       2.027  18.678   0.119  1.00  0.00    -0.056 Br
ENDROOT
BRANCH   2   4
HETATM    4  C11 UNL     1       2.797  21.429   0.914  1.00  0.00     0.058 C 
BRANCH   4   5
HETATM    5  C12 UNL     1       2.383  21.774   2.268  1.00  0.00     0.053 C 
HETATM    6  C13 UNL     1       2.002  23.241   2.424  1.00  0.00    -0.042 A 
HETATM    7  C14 UNL     1       2.406  24.158   1.495  1.00  0.00     0.008 A 
HETATM    8  C18 UNL     1       1.265  23.653   3.484  1.00  0.00    -0.013 A 
HETATM    9  C15 UNL     1       2.068  25.517   1.624  1.00  0.00     0.004 A 
HETATM   10  C16 UNL     1       1.331  25.951   2.679  1.00  0.00     0.043 A 
HETATM   11  C17 UNL     1       0.933  25.002   3.609  1.00  0.00     0.123 A 
HETATM   12  F1  UNL     1       0.197  25.441   4.659  1.00  0.00    -0.206 F 
HETATM   13  C19 UNL     1       0.767  22.753   4.536  1.00  0.00     0.045 C 
HETATM   14  C20 UNL     1       1.518  21.453   4.499  1.00  0.00     0.038 C 
HETATM   15  C21 UNL     1       1.371  20.958   2.995  1.00  0.00     0.141 C 
BRANCH  15  16
HETATM   16  O4  UNL     1       0.046  21.263   2.719  1.00  0.00    -0.316 OA
BRANCH  16  17
HETATM   17  C22 UNL     1      -0.928  20.371   2.392  1.00  0.00     0.255 C 
HETATM   18  C23 UNL     1      -1.048  19.018   3.027  1.00  0.00     0.126 C 
HETATM   19  O5  UNL     1      -1.790  20.641   1.530  1.00  0.00    -0.266 OA
ENDBRANCH  16  17
ENDBRANCH  15  16
ENDBRANCH   4   5
ENDBRANCH   2   4
BRANCH   1  20
HETATM   20  C8  UNL     1       0.101  20.309  -1.562  1.00  0.00     0.077 C 
HETATM   21  C7  UNL     1       0.924  19.476  -2.550  1.00  0.00     0.047 C 
HETATM   22  C5  UNL     1      -0.058  18.521  -3.199  1.00  0.00     0.003 C 
HETATM   23  C3  UNL     1      -0.967  19.358  -4.072  1.00  0.00     0.051 C 
HETATM   24  C6  UNL     1       0.623  17.432  -3.965  1.00  0.00     0.011 C 
HETATM   25  C4  UNL     1      -0.138  20.166  -5.029  1.00  0.00     0.027 C 
HETATM   26  C25 UNL     1      -1.743  20.317  -3.207  1.00  0.00     0.003 C 
HETATM   27  C24 UNL     1      -0.878  21.158  -2.338  1.00  0.00     0.047 C 
HETATM   28  C26 UNL     1      -2.841  19.661  -2.422  1.00  0.00     0.011 C 
BRANCH  23  29
HETATM   29  C2  UNL     1      -1.844  18.458  -4.810  1.00  0.00     0.267 C 
HETATM   30  O2  UNL     1      -2.412  18.864  -5.854  1.00  0.00    -0.264 OA
BRANCH  29  31
HETATM   31  O1  UNL     1      -2.112  17.142  -4.441  1.00  0.00    -0.326 OA
HETATM   32  C1  UNL     1      -2.609  16.195  -5.359  1.00  0.00     0.213 C 
ENDBRANCH  29  31
ENDBRANCH  23  29
BRANCH  20  33
HETATM   33  O3  UNL     1      -0.592  19.384  -0.798  1.00  0.00    -0.386 OA
ATOM     34  H3  UNL     1      -0.486  19.674   0.100  1.00  0.00     0.211 HD
ENDBRANCH  20  33
ENDBRANCH   1  20
TORSDOF 8
ENDMDL
MODEL 2
REMARK VINA RESULT: -6.761593432      5.303      8.551
REMARK  8 active torsions:
REMARK  status: ('A' for Active; 'I' for Inactive)
REMARK    1  A    between atoms: O1_2  and  C2_3 
REMARK    2  A    between atoms: C2_3  and  C3_5 
REMARK    3  A    between atoms: C8_10  and  O3_11 
REMARK    4  A    between atoms: C8_10  and  C9_13 
REMARK    5  A    between atoms: C10_14  and  C11_16 
REMARK    6  A    between atoms: C11_16  and  C12_17 
REMARK    7  A    between atoms: C21_27  and  O4_28 
REMARK    8  A    between atoms: O4_28  and  C22_29 
ROOT
HETATM    1  C9  UNL     1       3.391  19.117   4.727  1.00  0.00     0.025 C 
HETATM    2  C10 UNL     1       2.445  19.249   3.773  1.00  0.00    -0.012 C 
HETATM    3 BR1  UNL     1       2.370  17.847   2.489  1.00  0.00    -0.056 Br
ENDROOT
BRANCH   2   4
HETATM    4  C11 UNL     1       1.565  20.418   3.727  1.00  0.00     0.058 C 
BRANCH   4   5
HETATM    5  C12 UNL     1       1.668  21.359   2.619  1.00  0.00     0.053 C 
HETATM    6  C13 UNL     1       1.375  22.798   3.024  1.00  0.00    -0.042 A 
HETATM    7  C14 UNL     1       0.708  23.062   4.186  1.00  0.00     0.008 A 
HETATM    8  C18 UNL     1       1.767  23.829   2.236  1.00  0.00    -0.013 A 
HETATM    9  C15 UNL     1       0.424  24.384   4.574  1.00  0.00     0.004 A 
HETATM   10  C16 UNL     1       0.808  25.432   3.800  1.00  0.00     0.043 A 
HETATM   11  C17 UNL     1       1.484  25.139   2.624  1.00  0.00     0.123 A 
HETATM   12  F1  UNL     1       1.865  26.188   1.857  1.00  0.00    -0.206 F 
HETATM   13  C19 UNL     1       2.502  23.662   0.973  1.00  0.00     0.045 C 
HETATM   14  C20 UNL     1       2.379  22.246   0.489  1.00  0.00     0.038 C 
HETATM   15  C21 UNL     1       2.859  21.367   1.725  1.00  0.00     0.141 C 
BRANCH  15  16
HETATM   16  O4  UNL     1       3.949  22.091   2.187  1.00  0.00    -0.316 OA
BRANCH  16  17
HETATM   17  C22 UNL     1       5.252  21.706   2.114  1.00  0.00     0.255 C 
HETATM   18  C23 UNL     1       6.074  21.356   3.318  1.00  0.00     0.126 C 
HETATM   19  O5  UNL     1       5.841  21.623   1.016  1.00  0.00    -0.266 OA
ENDBRANCH  16  17
ENDBRANCH  15  16
ENDBRANCH   4   5
ENDBRANCH   2   4
BRANCH   1  20
HETATM   20  C8  UNL     1       4.319  17.990   4.807  1.00  0.00     0.077 C 
HETATM   21  C7  UNL     1       5.125  18.092   6.106  1.00  0.00     0.047 C 
HETATM   22  C5  UNL     1       5.883  16.785   6.223  1.00  0.00     0.003 C 
HETATM   23  C3  UNL     1       6.926  16.787   5.127  1.00  0.00     0.051 C 
HETATM   24  C6  UNL     1       6.483  16.589   7.579  1.00  0.00     0.011 C 
HETATM   25  C4  UNL     1       7.770  18.024   5.240  1.00  0.00     0.027 C 
HETATM   26  C25 UNL     1       6.239  16.815   3.786  1.00  0.00     0.003 C 
HETATM   27  C24 UNL     1       5.278  17.940   3.641  1.00  0.00     0.047 C 
HETATM   28  C26 UNL     1       5.614  15.504   3.406  1.00  0.00     0.011 C 
BRANCH  23  29
HETATM   29  C2  UNL     1       7.757  15.601   5.288  1.00  0.00     0.267 C 
HETATM   30  O2  UNL     1       8.983  15.661   5.019  1.00  0.00    -0.264 OA
BRANCH  29  31
HETATM   31  O1  UNL     1       7.290  14.366   5.730  1.00  0.00    -0.326 OA
HETATM   32  C1  UNL     1       8.132  13.432   6.365  1.00  0.00     0.213 C 
ENDBRANCH  29  31
ENDBRANCH  23  29
BRANCH  20  33
HETATM   33  O3  UNL     1       3.638  16.785   4.898  1.00  0.00    -0.386 OA
ATOM     34  H3  UNL     1       2.729  17.001   4.729  1.00  0.00     0.211 HD
ENDBRANCH  20  33
ENDBRANCH   1  20
TORSDOF 8
ENDMDL
MODEL 3
REMARK VINA RESULT: -6.722413809      1.132      2.046
REMARK  8 active torsions:
REMARK  status: ('A' for Active; 'I' for Inactive)
REMARK    1  A    between atoms: O1_2  and  C2_3 
REMARK    2  A    between atoms: C2_3  and  C3_5 
REMARK    3  A    between atoms: C8_10  and  O3_11 
REMARK    4  A    between atoms: C8_10  and  C9_13 
REMARK    5  A    between atoms: C10_14  and  C11_16 
REMARK    6  A    between atoms: C11_16  and  C12_17 
REMARK    7  A    between atoms: C21_27  and  O4_28 
REMARK    8  A    between atoms: O4_28  and  C22_29 
ROOT
HETATM    1  C9  UNL     1       1.372  21.542  -0.430  1.00  0.00     0.025 C 
HETATM    2  C10 UNL     1       2.395  20.877   0.147  1.00  0.00    -0.012 C 
HETATM    3 BR1  UNL     1       2.627  19.074  -0.417  1.00  0.00    -0.056 Br
ENDROOT
BRANCH   2   4
HETATM    4  C11 UNL     1       3.240  21.508   1.163  1.00  0.00     0.058 C 
BRANCH   4   5
HETATM    5  C12 UNL     1       2.689  21.810   2.478  1.00  0.00     0.053 C 
HETATM    6  C13 UNL     1       2.162  23.234   2.595  1.00  0.00    -0.042 A 
HETATM    7  C14 UNL     1       2.551  24.187   1.696  1.00  0.00     0.008 A 
HETATM    8  C18 UNL     1       1.307  23.573   3.591  1.00  0.00    -0.013 A 
HETATM    9  C15 UNL     1       2.080  25.508   1.792  1.00  0.00     0.004 A 
HETATM   10  C16 UNL     1       1.222  25.869   2.782  1.00  0.00     0.043 A 
HETATM   11  C17 UNL     1       0.841  24.885   3.682  1.00  0.00     0.123 A 
HETATM   12  F1  UNL     1      -0.014  25.251   4.667  1.00  0.00    -0.206 F 
HETATM   13  C19 UNL     1       0.812  22.628   4.604  1.00  0.00     0.045 C 
HETATM   14  C20 UNL     1       1.681  21.404   4.634  1.00  0.00     0.038 C 
HETATM   15  C21 UNL     1       1.702  20.901   3.125  1.00  0.00     0.141 C 
BRANCH  15  16
HETATM   16  O4  UNL     1       0.381  21.082   2.743  1.00  0.00    -0.316 OA
BRANCH  16  17
HETATM   17  C22 UNL     1      -0.508  20.095   2.447  1.00  0.00     0.255 C 
HETATM   18  C23 UNL     1      -0.128  18.647   2.362  1.00  0.00     0.126 C 
HETATM   19  O5  UNL     1      -1.711  20.351   2.229  1.00  0.00    -0.266 OA
ENDBRANCH  16  17
ENDBRANCH  15  16
ENDBRANCH   4   5
ENDBRANCH   2   4
BRANCH   1  20
HETATM   20  C8  UNL     1       0.475  20.957  -1.426  1.00  0.00     0.077 C 
HETATM   21  C7  UNL     1      -0.825  21.767  -1.470  1.00  0.00     0.047 C 
HETATM   22  C5  UNL     1      -1.592  21.247  -2.669  1.00  0.00     0.003 C 
HETATM   23  C3  UNL     1      -2.032  19.840  -2.328  1.00  0.00     0.051 C 
HETATM   24  C6  UNL     1      -2.742  22.128  -3.040  1.00  0.00     0.011 C 
HETATM   25  C4  UNL     1      -2.800  19.853  -1.039  1.00  0.00     0.027 C 
HETATM   26  C25 UNL     1      -0.815  18.972  -2.134  1.00  0.00     0.003 C 
HETATM   27  C24 UNL     1       0.141  19.514  -1.132  1.00  0.00     0.047 C 
HETATM   28  C26 UNL     1      -0.124  18.613  -3.417  1.00  0.00     0.011 C 
BRANCH  23  29
HETATM   29  C2  UNL     1      -2.880  19.354  -3.408  1.00  0.00     0.267 C 
HETATM   30  O2  UNL     1      -4.040  18.945  -3.151  1.00  0.00    -0.264 OA
BRANCH  29  31
HETATM   31  O1  UNL     1      -2.499  19.304  -4.747  1.00  0.00    -0.326 OA
HETATM   32  C1  UNL     1      -3.094  18.411  -5.661  1.00  0.00     0.213 C 
ENDBRANCH  29  31
ENDBRANCH  23  29
BRANCH  20  33
HETATM   33  O3  UNL     1       1.008  21.058  -2.701  1.00  0.00    -0.386 OA
ATOM     34  H3  UNL     1       1.385  20.206  -2.881  1.00  0.00     0.211 HD
ENDBRANCH  20  33
ENDBRANCH   1  20
TORSDOF 8
ENDMDL
MODEL 4
REMARK VINA RESULT: -6.615028993      1.199      1.646
REMARK  8 active torsions:
REMARK  status: ('A' for Active; 'I' for Inactive)
REMARK    1  A    between atoms: O1_2  and  C2_3 
REMARK    2  A    between atoms: C2_3  and  C3_5 
REMARK    3  A    between atoms: C8_10  and  O3_11 
REMARK    4  A    between atoms: C8_10  and  C9_13 
REMARK    5  A    between atoms: C10_14  and  C11_16 
REMARK    6  A    between atoms: C11_16  and  C12_17 
REMARK    7  A    between atoms: C21_27  and  O4_28 
REMARK    8  A    between atoms: O4_28  and  C22_29 
ROOT
HETATM    1  C9  UNL     1       1.677  21.535  -0.085  1.00  0.00     0.025 C 
HETATM    2  C10 UNL     1       2.435  20.983   0.885  1.00  0.00    -0.012 C 
HETATM    3 BR1  UNL     1       2.541  19.082   0.866  1.00  0.00    -0.056 Br
ENDROOT
BRANCH   2   4
HETATM    4  C11 UNL     1       3.097  21.806   1.899  1.00  0.00     0.058 C 
BRANCH   4   5
HETATM    5  C12 UNL     1       2.385  22.163   3.120  1.00  0.00     0.053 C 
HETATM    6  C13 UNL     1       1.789  23.564   3.078  1.00  0.00    -0.042 A 
HETATM    7  C14 UNL     1       2.239  24.476   2.166  1.00  0.00     0.008 A 
HETATM    8  C18 UNL     1       0.811  23.924   3.946  1.00  0.00    -0.013 A 
HETATM    9  C15 UNL     1       1.705  25.776   2.116  1.00  0.00     0.004 A 
HETATM   10  C16 UNL     1       0.724  26.156   2.977  1.00  0.00     0.043 A 
HETATM   11  C17 UNL     1       0.284  25.214   3.894  1.00  0.00     0.123 A 
HETATM   12  F1  UNL     1      -0.694  25.599   4.749  1.00  0.00    -0.206 F 
HETATM   13  C19 UNL     1       0.243  23.022   4.960  1.00  0.00     0.045 C 
HETATM   14  C20 UNL     1       1.154  21.846   5.172  1.00  0.00     0.038 C 
HETATM   15  C21 UNL     1       1.370  21.250   3.713  1.00  0.00     0.141 C 
BRANCH  15  16
HETATM   16  O4  UNL     1       0.095  21.341   3.173  1.00  0.00    -0.316 OA
BRANCH  16  17
HETATM   17  C22 UNL     1      -0.762  20.303   2.969  1.00  0.00     0.255 C 
HETATM   18  C23 UNL     1      -0.390  18.871   3.214  1.00  0.00     0.126 C 
HETATM   19  O5  UNL     1      -1.926  20.497   2.560  1.00  0.00    -0.266 OA
ENDBRANCH  16  17
ENDBRANCH  15  16
ENDBRANCH   4   5
ENDBRANCH   2   4
BRANCH   1  20
HETATM   20  C8  UNL     1       0.967  20.765  -1.106  1.00  0.00     0.077 C 
HETATM   21  C7  UNL     1       0.667  21.671  -2.304  1.00  0.00     0.047 C 
HETATM   22  C5  UNL     1       0.148  20.754  -3.393  1.00  0.00     0.003 C 
HETATM   23  C3  UNL     1      -1.210  20.264  -2.939  1.00  0.00     0.051 C 
HETATM   24  C6  UNL     1       0.093  21.424  -4.729  1.00  0.00     0.011 C 
HETATM   25  C4  UNL     1      -2.088  21.441  -2.625  1.00  0.00     0.027 C 
HETATM   26  C25 UNL     1      -1.050  19.456  -1.677  1.00  0.00     0.003 C 
HETATM   27  C24 UNL     1      -0.331  20.184  -0.598  1.00  0.00     0.047 C 
HETATM   28  C26 UNL     1      -0.462  18.094  -1.909  1.00  0.00     0.011 C 
BRANCH  23  29
HETATM   29  C2  UNL     1      -1.795  19.480  -4.017  1.00  0.00     0.267 C 
HETATM   30  O2  UNL     1      -3.044  19.442  -4.151  1.00  0.00    -0.264 OA
BRANCH  29  31
HETATM   31  O1  UNL     1      -1.061  18.745  -4.945  1.00  0.00    -0.326 OA
HETATM   32  C1  UNL     1      -1.317  17.382  -5.191  1.00  0.00     0.213 C 
ENDBRANCH  29  31
ENDBRANCH  23  29
BRANCH  20  33
HETATM   33  O3  UNL     1       1.762  19.748  -1.611  1.00  0.00    -0.386 OA
ATOM     34  H3  UNL     1       1.297  18.945  -1.407  1.00  0.00     0.211 HD
ENDBRANCH  20  33
ENDBRANCH   1  20
TORSDOF 8
ENDMDL
MODEL 5
REMARK VINA RESULT: -6.580470011      1.203      1.248
REMARK  8 active torsions:
REMARK  status: ('A' for Active; 'I' for Inactive)
REMARK    1  A    between atoms: O1_2  and  C2_3 
REMARK    2  A    between atoms: C2_3  and  C3_5 
REMARK    3  A    between atoms: C8_10  and  O3_11 
REMARK    4  A    between atoms: C8_10  and  C9_13 
REMARK    5  A    between atoms: C10_14  and  C11_16 
REMARK    6  A    between atoms: C11_16  and  C12_17 
REMARK    7  A    between atoms: C21_27  and  O4_28 
REMARK    8  A    between atoms: O4_28  and  C22_29 
ROOT
HETATM    1  C9  UNL     1       0.955  21.213   0.122  1.00  0.00     0.025 C 
HETATM    2  C10 UNL     1       1.498  20.460   1.101  1.00  0.00    -0.012 C 
HETATM    3 BR1  UNL     1       0.879  18.663   1.199  1.00  0.00    -0.056 Br
ENDROOT
BRANCH   2   4
HETATM    4  C11 UNL     1       2.475  21.017   2.039  1.00  0.00     0.058 C 
BRANCH   4   5
HETATM    5  C12 UNL     1       2.016  21.702   3.241  1.00  0.00     0.053 C 
HETATM    6  C13 UNL     1       1.770  23.190   3.026  1.00  0.00    -0.042 A 
HETATM    7  C14 UNL     1       2.316  23.828   1.948  1.00  0.00     0.008 A 
HETATM    8  C18 UNL     1       1.014  23.898   3.901  1.00  0.00    -0.013 A 
HETATM    9  C15 UNL     1       2.104  25.202   1.736  1.00  0.00     0.004 A 
HETATM   10  C16 UNL     1       1.350  25.929   2.601  1.00  0.00     0.043 A 
HETATM   11  C17 UNL     1       0.807  25.260   3.688  1.00  0.00     0.123 A 
HETATM   12  F1  UNL     1       0.056  25.991   4.546  1.00  0.00    -0.206 F 
HETATM   13  C19 UNL     1       0.369  23.312   5.087  1.00  0.00     0.045 C 
HETATM   14  C20 UNL     1       0.992  21.984   5.409  1.00  0.00     0.038 C 
HETATM   15  C21 UNL     1       0.889  21.164   4.050  1.00  0.00     0.141 C 
BRANCH  15  16
HETATM   16  O4  UNL     1      -0.382  21.500   3.606  1.00  0.00    -0.316 OA
BRANCH  16  17
HETATM   17  C22 UNL     1      -1.451  20.662   3.531  1.00  0.00     0.255 C 
HETATM   18  C23 UNL     1      -2.054  19.992   4.729  1.00  0.00     0.126 C 
HETATM   19  O5  UNL     1      -1.994  20.404   2.437  1.00  0.00    -0.266 OA
ENDBRANCH  16  17
ENDBRANCH  15  16
ENDBRANCH   4   5
ENDBRANCH   2   4
BRANCH   1  20
HETATM   20  C8  UNL     1      -0.047  20.723  -0.824  1.00  0.00     0.077 C 
HETATM   21  C7  UNL     1       0.461  19.431  -1.471  1.00  0.00     0.047 C 
HETATM   22  C5  UNL     1      -0.714  18.872  -2.250  1.00  0.00     0.003 C 
HETATM   23  C3  UNL     1      -0.951  19.811  -3.413  1.00  0.00     0.051 C 
HETATM   24  C6  UNL     1      -0.489  17.462  -2.694  1.00  0.00     0.011 C 
HETATM   25  C4  UNL     1       0.318  19.965  -4.199  1.00  0.00     0.027 C 
HETATM   26  C25 UNL     1      -1.338  21.168  -2.884  1.00  0.00     0.003 C 
HETATM   27  C24 UNL     1      -0.359  21.723  -1.913  1.00  0.00     0.047 C 
HETATM   28  C26 UNL     1      -2.739  21.226  -2.348  1.00  0.00     0.011 C 
BRANCH  23  29
HETATM   29  C2  UNL     1      -1.992  19.238  -4.255  1.00  0.00     0.267 C 
HETATM   30  O2  UNL     1      -1.796  19.116  -5.490  1.00  0.00    -0.264 OA
BRANCH  29  31
HETATM   31  O1  UNL     1      -3.229  18.798  -3.789  1.00  0.00    -0.326 OA
HETATM   32  C1  UNL     1      -4.389  18.844  -4.587  1.00  0.00     0.213 C 
ENDBRANCH  29  31
ENDBRANCH  23  29
BRANCH  20  33
HETATM   33  O3  UNL     1      -1.219  20.367  -0.175  1.00  0.00    -0.386 OA
ATOM     34  H3  UNL     1      -0.970  20.240   0.733  1.00  0.00     0.211 HD
ENDBRANCH  20  33
ENDBRANCH   1  20
TORSDOF 8
ENDMDL
