MODEL 1
REMARK VINA RESULT: -8.274467021      0.000      0.000
REMARK  6 active torsions:
REMARK  status: ('A' for Active; 'I' for Inactive)
REMARK    1  A    between atoms: C7_7  and  C8_8 
REMARK    2  A    between atoms: C9_11  and  N2_12 
REMARK    3  A    between atoms: N2_12  and  C10_14 
REMARK    4  A    between atoms: C10_14  and  C11_15 
REMARK    5  A    between atoms: C10_14  and  C15_23 
REMARK    6  A    between atoms: C11_15  and  C12_16 
ROOT
HETATM    1  C8  UNL     1       1.374  21.217   1.025  1.00  0.00     0.070 A 
HETATM    2  N1  UNL     1       0.280  21.061   0.227  1.00  0.00    -0.190 N 
ATOM      3  H1  UNL     1      -0.526  21.666   0.384  1.00  0.00     0.184 HD
HETATM    4  C9  UNL     1       0.212  20.163  -0.739  1.00  0.00     0.681 A 
HETATM    5  N5  UNL     1       1.263  19.370  -0.955  1.00  0.00    -0.182 N 
HETATM    6  C19 UNL     1       1.245  18.361  -2.004  1.00  0.00     0.176 C 
HETATM    7  C20 UNL     1       2.374  19.497  -0.183  1.00  0.00     0.130 A 
HETATM    8  C21 UNL     1       2.493  20.414   0.844  1.00  0.00     0.031 A 
HETATM    9  C22 UNL     1       3.781  20.219   1.493  1.00  0.00     0.065 C 
HETATM   10  C23 UNL     1       3.755  19.341   2.737  1.00  0.00     0.042 C 
HETATM   11  C24 UNL     1       5.226  18.965   3.015  1.00  0.00     0.082 C 
HETATM   12  C25 UNL     1       6.022  20.190   3.342  1.00  0.00     0.243 C 
HETATM   13  F1  UNL     1       7.245  20.135   2.705  1.00  0.00    -0.206 F 
HETATM   14  F2  UNL     1       6.322  20.232   4.716  1.00  0.00    -0.206 F 
HETATM   15  C26 UNL     1       5.266  21.446   3.053  1.00  0.00     0.082 C 
HETATM   16  C27 UNL     1       4.606  21.449   1.700  1.00  0.00     0.042 C 
HETATM   17  N6  UNL     1       4.537  19.394   0.535  1.00  0.00    -0.342 N 
ATOM     18  H6  UNL     1       5.548  19.255   0.547  1.00  0.00     0.164 HD
HETATM   19  C28 UNL     1       3.660  18.834  -0.387  1.00  0.00     0.270 C 
HETATM   20  O1  UNL     1       3.969  17.926  -1.221  1.00  0.00    -0.266 OA
ENDROOT
BRANCH   4  21
HETATM   21  N2  UNL     1      -0.832  20.049  -1.459  1.00  0.00    -0.221 N 
ATOM     22  H2  UNL     1      -0.932  19.177  -1.980  1.00  0.00     0.178 HD
BRANCH  21  23
HETATM   23  C10 UNL     1      -1.878  21.004  -1.618  1.00  0.00     0.109 C 
BRANCH  23  24
HETATM   24  C11 UNL     1      -1.657  21.950  -2.771  1.00  0.00     0.084 C 
BRANCH  24  25
HETATM   25  C12 UNL     1      -0.481  21.616  -3.590  1.00  0.00     0.027 A 
HETATM   26  C13 UNL     1       0.747  22.230  -3.556  1.00  0.00     0.114 A 
HETATM   27  N3  UNL     1       1.545  21.615  -4.470  1.00  0.00    -0.360 N 
HETATM   28  C14 UNL     1       0.835  20.634  -5.068  1.00  0.00     0.180 A 
ATOM     29  H3  UNL     1       2.516  21.856  -4.670  1.00  0.00     0.166 HD
HETATM   30  N4  UNL     1      -0.384  20.652  -4.523  1.00  0.00    -0.355 N 
ATOM     31  H4  UNL     1      -1.141  20.019  -4.781  1.00  0.00     0.166 HD
ENDBRANCH  24  25
ENDBRANCH  23  24
BRANCH  23  32
HETATM   32  C15 UNL     1      -3.224  20.334  -1.646  1.00  0.00     0.009 C 
HETATM   33  C16 UNL     1      -3.206  18.847  -1.405  1.00  0.00     0.007 C 
HETATM   34  C17 UNL     1      -4.131  18.657  -2.610  1.00  0.00     0.001 C 
HETATM   35  C18 UNL     1      -3.663  20.023  -3.081  1.00  0.00     0.007 C 
ENDBRANCH  23  32
ENDBRANCH  21  23
ENDBRANCH   4  21
BRANCH   1  36
HETATM   36  C7  UNL     1       1.331  22.285   1.960  1.00  0.00    -0.007 A 
HETATM   37  C6  UNL     1       1.545  23.583   1.688  1.00  0.00     0.020 A 
HETATM   38  C4  UNL     1       1.453  24.549   2.658  1.00  0.00    -0.061 A 
HETATM   39  C3  UNL     1       1.138  24.170   3.938  1.00  0.00     0.013 A 
HETATM   40  C5  UNL     1       1.687  26.001   2.373  1.00  0.00     0.048 C 
HETATM   41  C2  UNL     1       0.907  22.855   4.291  1.00  0.00    -0.061 A 
HETATM   42  C1  UNL     1       0.565  22.473   5.692  1.00  0.00     0.048 C 
HETATM   43  C29 UNL     1       1.010  21.929   3.282  1.00  0.00     0.020 A 
ENDBRANCH   1  36
TORSDOF 6
ENDMDL
MODEL 2
REMARK VINA RESULT: -8.156828640      0.421      1.470
REMARK  6 active torsions:
REMARK  status: ('A' for Active; 'I' for Inactive)
REMARK    1  A    between atoms: C7_7  and  C8_8 
REMARK    2  A    between atoms: C9_11  and  N2_12 
REMARK    3  A    between atoms: N2_12  and  C10_14 
REMARK    4  A    between atoms: C10_14  and  C11_15 
REMARK    5  A    between atoms: C10_14  and  C15_23 
REMARK    6  A    between atoms: C11_15  and  C12_16 
ROOT
HETATM    1  C8  UNL     1       1.272  21.182   1.271  1.00  0.00     0.070 A 
HETATM    2  N1  UNL     1       0.207  21.094   0.425  1.00  0.00    -0.190 N 
ATOM      3  H1  UNL     1      -0.606  21.683   0.605  1.00  0.00     0.184 HD
HETATM    4  C9  UNL     1       0.177  20.282  -0.617  1.00  0.00     0.681 A 
HETATM    5  N5  UNL     1       1.237  19.512  -0.863  1.00  0.00    -0.182 N 
HETATM    6  C19 UNL     1       1.260  18.597  -1.995  1.00  0.00     0.176 C 
HETATM    7  C20 UNL     1       2.320  19.573  -0.045  1.00  0.00     0.130 A 
HETATM    8  C21 UNL     1       2.400  20.398   1.060  1.00  0.00     0.031 A 
HETATM    9  C22 UNL     1       3.665  20.150   1.735  1.00  0.00     0.065 C 
HETATM   10  C23 UNL     1       3.599  19.167   2.898  1.00  0.00     0.042 C 
HETATM   11  C24 UNL     1       5.061  18.770   3.193  1.00  0.00     0.082 C 
HETATM   12  C25 UNL     1       5.841  19.963   3.652  1.00  0.00     0.243 C 
HETATM   13  F1  UNL     1       7.085  19.964   3.055  1.00  0.00    -0.206 F 
HETATM   14  F2  UNL     1       6.093  19.888   5.034  1.00  0.00    -0.206 F 
HETATM   15  C26 UNL     1       5.091  21.239   3.445  1.00  0.00     0.082 C 
HETATM   16  C27 UNL     1       4.478  21.358   2.075  1.00  0.00     0.042 C 
HETATM   17  N6  UNL     1       4.458  19.410   0.737  1.00  0.00    -0.342 N 
ATOM     18  H6  UNL     1       5.467  19.272   0.772  1.00  0.00     0.164 HD
HETATM   19  C28 UNL     1       3.615  18.931  -0.260  1.00  0.00     0.270 C 
HETATM   20  O1  UNL     1       3.956  18.098  -1.158  1.00  0.00    -0.266 OA
ENDROOT
BRANCH   4  21
HETATM   21  N2  UNL     1      -0.842  20.230  -1.381  1.00  0.00    -0.221 N 
ATOM     22  H2  UNL     1      -0.970  19.366  -1.908  1.00  0.00     0.178 HD
BRANCH  21  23
HETATM   23  C10 UNL     1      -1.823  21.244  -1.579  1.00  0.00     0.109 C 
BRANCH  23  24
HETATM   24  C11 UNL     1      -1.548  22.121  -2.774  1.00  0.00     0.084 C 
BRANCH  24  25
HETATM   25  C12 UNL     1      -0.477  21.611  -3.644  1.00  0.00     0.027 A 
HETATM   26  C13 UNL     1       0.800  22.104  -3.754  1.00  0.00     0.114 A 
HETATM   27  N3  UNL     1       1.463  21.344  -4.667  1.00  0.00    -0.360 N 
HETATM   28  C14 UNL     1       0.622  20.392  -5.123  1.00  0.00     0.180 A 
ATOM     29  H3  UNL     1       2.433  21.472  -4.957  1.00  0.00     0.166 HD
HETATM   30  N4  UNL     1      -0.543  20.571  -4.495  1.00  0.00    -0.355 N 
ATOM     31  H4  UNL     1      -1.372  19.995  -4.640  1.00  0.00     0.166 HD
ENDBRANCH  24  25
ENDBRANCH  23  24
BRANCH  23  32
HETATM   32  C15 UNL     1      -3.211  20.664  -1.572  1.00  0.00     0.009 C 
HETATM   33  C16 UNL     1      -3.654  20.074  -0.260  1.00  0.00     0.007 C 
HETATM   34  C17 UNL     1      -4.151  18.832  -1.003  1.00  0.00     0.001 C 
HETATM   35  C18 UNL     1      -3.222  19.237  -2.134  1.00  0.00     0.007 C 
ENDBRANCH  23  32
ENDBRANCH  21  23
ENDBRANCH   4  21
BRANCH   1  36
HETATM   36  C7  UNL     1       1.193  22.166   2.291  1.00  0.00    -0.007 A 
HETATM   37  C6  UNL     1       0.934  21.940   3.589  1.00  0.00     0.020 A 
HETATM   38  C4  UNL     1       0.907  22.957   4.509  1.00  0.00    -0.061 A 
HETATM   39  C3  UNL     1       1.150  24.238   4.082  1.00  0.00     0.013 A 
HETATM   40  C5  UNL     1       0.622  22.724   5.960  1.00  0.00     0.048 C 
HETATM   41  C2  UNL     1       1.421  24.546   2.763  1.00  0.00    -0.061 A 
HETATM   42  C1  UNL     1       1.681  25.949   2.328  1.00  0.00     0.048 C 
HETATM   43  C29 UNL     1       1.437  23.491   1.885  1.00  0.00     0.020 A 
ENDBRANCH   1  36
TORSDOF 6
ENDMDL
MODEL 3
REMARK VINA RESULT: -7.868669475      3.256      7.856
REMARK  6 active torsions:
REMARK  status: ('A' for Active; 'I' for Inactive)
REMARK    1  A    between atoms: C7_7  and  C8_8 
REMARK    2  A    between atoms: C9_11  and  N2_12 
REMARK    3  A    between atoms: N2_12  and  C10_14 
REMARK    4  A    between atoms: C10_14  and  C11_15 
REMARK    5  A    between atoms: C10_14  and  C15_23 
REMARK    6  A    between atoms: C11_15  and  C12_16 
ROOT
HETATM    1  C8  UNL     1       2.508  21.086   1.716  1.00  0.00     0.070 A 
HETATM    2  N1  UNL     1       3.693  20.747   2.297  1.00  0.00    -0.190 N 
ATOM      3  H1  UNL     1       3.981  21.246   3.138  1.00  0.00     0.184 HD
HETATM    4  C9  UNL     1       4.486  19.802   1.824  1.00  0.00     0.681 A 
HETATM    5  N5  UNL     1       4.114  19.140   0.728  1.00  0.00    -0.182 N 
HETATM    6  C19 UNL     1       4.948  18.090   0.160  1.00  0.00     0.176 C 
HETATM    7  C20 UNL     1       2.938  19.447   0.120  1.00  0.00     0.130 A 
HETATM    8  C21 UNL     1       2.077  20.430   0.569  1.00  0.00     0.031 A 
HETATM    9  C22 UNL     1       0.961  20.530  -0.359  1.00  0.00     0.065 C 
HETATM   10  C23 UNL     1       1.096  21.611  -1.423  1.00  0.00     0.042 C 
HETATM   11  C24 UNL     1       0.030  21.283  -2.491  1.00  0.00     0.082 C 
HETATM   12  C25 UNL     1      -1.343  21.393  -1.905  1.00  0.00     0.243 C 
HETATM   13  F1  UNL     1      -2.123  20.342  -2.342  1.00  0.00    -0.206 F 
HETATM   14  F2  UNL     1      -1.989  22.552  -2.372  1.00  0.00    -0.206 F 
HETATM   15  C26 UNL     1      -1.311  21.519  -0.415  1.00  0.00     0.082 C 
HETATM   16  C27 UNL     1      -0.405  20.517   0.250  1.00  0.00     0.042 C 
HETATM   17  N6  UNL     1       1.050  19.290  -1.151  1.00  0.00    -0.342 N 
ATOM     18  H6  UNL     1       0.305  18.910  -1.735  1.00  0.00     0.164 HD
HETATM   19  C28 UNL     1       2.305  18.719  -0.978  1.00  0.00     0.270 C 
HETATM   20  O1  UNL     1       2.763  17.754  -1.667  1.00  0.00    -0.266 OA
ENDROOT
BRANCH   4  21
HETATM   21  N2  UNL     1       5.587  19.519   2.398  1.00  0.00    -0.221 N 
ATOM     22  H2  UNL     1       6.286  19.041   1.829  1.00  0.00     0.178 HD
BRANCH  21  23
HETATM   23  C10 UNL     1       5.951  19.796   3.748  1.00  0.00     0.109 C 
BRANCH  23  24
HETATM   24  C11 UNL     1       6.124  18.557   4.590  1.00  0.00     0.084 C 
BRANCH  24  25
HETATM   25  C12 UNL     1       5.008  18.315   5.518  1.00  0.00     0.027 A 
HETATM   26  C13 UNL     1       5.026  17.521   6.639  1.00  0.00     0.114 A 
HETATM   27  N3  UNL     1       3.791  17.575   7.208  1.00  0.00    -0.360 N 
HETATM   28  C14 UNL     1       3.011  18.387   6.462  1.00  0.00     0.180 A 
ATOM     29  H3  UNL     1       3.504  17.085   8.054  1.00  0.00     0.166 HD
HETATM   30  N4  UNL     1       3.764  18.822   5.448  1.00  0.00    -0.355 N 
ATOM     31  H4  UNL     1       3.438  19.456   4.717  1.00  0.00     0.166 HD
ENDBRANCH  24  25
ENDBRANCH  23  24
BRANCH  23  32
HETATM   32  C15 UNL     1       7.129  20.728   3.811  1.00  0.00     0.009 C 
HETATM   33  C16 UNL     1       8.095  20.622   2.660  1.00  0.00     0.007 C 
HETATM   34  C17 UNL     1       9.256  20.594   3.656  1.00  0.00     0.001 C 
HETATM   35  C18 UNL     1       8.242  20.163   4.702  1.00  0.00     0.007 C 
ENDBRANCH  23  32
ENDBRANCH  21  23
ENDBRANCH   4  21
BRANCH   1  36
HETATM   36  C7  UNL     1       1.723  22.058   2.392  1.00  0.00    -0.007 A 
HETATM   37  C6  UNL     1       0.759  21.808   3.293  1.00  0.00     0.020 A 
HETATM   38  C4  UNL     1       0.073  22.819   3.916  1.00  0.00    -0.061 A 
HETATM   39  C3  UNL     1       0.384  24.118   3.603  1.00  0.00     0.013 A 
HETATM   40  C5  UNL     1      -1.004  22.560   4.924  1.00  0.00     0.048 C 
HETATM   41  C2  UNL     1       1.362  24.450   2.685  1.00  0.00    -0.061 A 
HETATM   42  C1  UNL     1       1.679  25.872   2.364  1.00  0.00     0.048 C 
HETATM   43  C29 UNL     1       2.019  23.400   2.092  1.00  0.00     0.020 A 
ENDBRANCH   1  36
TORSDOF 6
ENDMDL
MODEL 4
REMARK VINA RESULT: -7.828379819      3.263      7.455
REMARK  6 active torsions:
REMARK  status: ('A' for Active; 'I' for Inactive)
REMARK    1  A    between atoms: C7_7  and  C8_8 
REMARK    2  A    between atoms: C9_11  and  N2_12 
REMARK    3  A    between atoms: N2_12  and  C10_14 
REMARK    4  A    between atoms: C10_14  and  C11_15 
REMARK    5  A    between atoms: C10_14  and  C15_23 
REMARK    6  A    between atoms: C11_15  and  C12_16 
ROOT
HETATM    1  C8  UNL     1       3.099  21.823   2.068  1.00  0.00     0.070 A 
HETATM    2  N1  UNL     1       4.376  21.746   2.537  1.00  0.00    -0.190 N 
ATOM      3  H1  UNL     1       4.654  22.370   3.294  1.00  0.00     0.184 HD
HETATM    4  C9  UNL     1       5.272  20.901   2.059  1.00  0.00     0.681 A 
HETATM    5  N5  UNL     1       4.917  20.078   1.072  1.00  0.00    -0.182 N 
HETATM    6  C19 UNL     1       5.861  19.127   0.504  1.00  0.00     0.176 C 
HETATM    7  C20 UNL     1       3.651  20.122   0.579  1.00  0.00     0.130 A 
HETATM    8  C21 UNL     1       2.679  20.990   1.038  1.00  0.00     0.031 A 
HETATM    9  C22 UNL     1       1.477  20.807   0.238  1.00  0.00     0.065 C 
HETATM   10  C23 UNL     1       1.316  21.781  -0.922  1.00  0.00     0.042 C 
HETATM   11  C24 UNL     1       0.225  21.173  -1.830  1.00  0.00     0.082 C 
HETATM   12  C25 UNL     1      -1.082  21.114  -1.102  1.00  0.00     0.243 C 
HETATM   13  F1  UNL     1      -1.705  19.909  -1.357  1.00  0.00    -0.206 F 
HETATM   14  F2  UNL     1      -1.964  22.097  -1.589  1.00  0.00    -0.206 F 
HETATM   15  C26 UNL     1      -0.927  21.397   0.358  1.00  0.00     0.082 C 
HETATM   16  C27 UNL     1       0.201  20.633   0.998  1.00  0.00     0.042 C 
HETATM   17  N6  UNL     1       1.704  19.524  -0.451  1.00  0.00    -0.342 N 
ATOM     18  H6  UNL     1       0.984  18.968  -0.911  1.00  0.00     0.164 HD
HETATM   19  C28 UNL     1       3.051  19.189  -0.374  1.00  0.00     0.270 C 
HETATM   20  O1  UNL     1       3.601  18.248  -1.026  1.00  0.00    -0.266 OA
ENDROOT
BRANCH   4  21
HETATM   21  N2  UNL     1       6.457  20.864   2.525  1.00  0.00    -0.221 N 
ATOM     22  H2  UNL     1       6.954  21.754   2.571  1.00  0.00     0.178 HD
BRANCH  21  23
HETATM   23  C10 UNL     1       7.164  19.718   2.990  1.00  0.00     0.109 C 
BRANCH  23  24
HETATM   24  C11 UNL     1       8.659  19.828   2.828  1.00  0.00     0.084 C 
BRANCH  24  25
HETATM   25  C12 UNL     1       9.119  19.614   1.447  1.00  0.00     0.027 A 
HETATM   26  C13 UNL     1       9.593  18.443   0.909  1.00  0.00     0.114 A 
HETATM   27  N3  UNL     1       9.908  18.679  -0.393  1.00  0.00    -0.360 N 
HETATM   28  C14 UNL     1       9.639  19.973  -0.670  1.00  0.00     0.180 A 
ATOM     29  H3  UNL     1      10.285  17.995  -1.048  1.00  0.00     0.166 HD
HETATM   30  N4  UNL     1       9.165  20.519   0.453  1.00  0.00    -0.355 N 
ATOM     31  H4  UNL     1       8.875  21.493   0.545  1.00  0.00     0.166 HD
ENDBRANCH  24  25
ENDBRANCH  23  24
BRANCH  23  32
HETATM   32  C15 UNL     1       6.741  19.350   4.386  1.00  0.00     0.009 C 
HETATM   33  C16 UNL     1       7.665  18.406   5.110  1.00  0.00     0.007 C 
HETATM   34  C17 UNL     1       6.455  17.568   5.529  1.00  0.00     0.001 C 
HETATM   35  C18 UNL     1       5.708  18.216   4.376  1.00  0.00     0.007 C 
ENDBRANCH  23  32
ENDBRANCH  21  23
ENDBRANCH   4  21
BRANCH   1  36
HETATM   36  C7  UNL     1       2.226  22.716   2.744  1.00  0.00    -0.007 A 
HETATM   37  C6  UNL     1       1.488  22.431   3.829  1.00  0.00     0.020 A 
HETATM   38  C4  UNL     1       0.694  23.373   4.431  1.00  0.00    -0.061 A 
HETATM   39  C3  UNL     1       0.655  24.639   3.902  1.00  0.00     0.013 A 
HETATM   40  C5  UNL     1      -0.135  23.075   5.642  1.00  0.00     0.048 C 
HETATM   41  C2  UNL     1       1.385  25.003   2.787  1.00  0.00    -0.061 A 
HETATM   42  C1  UNL     1       1.323  26.387   2.233  1.00  0.00     0.048 C 
HETATM   43  C29 UNL     1       2.164  24.022   2.225  1.00  0.00     0.020 A 
ENDBRANCH   1  36
TORSDOF 6
ENDMDL
MODEL 5
REMARK VINA RESULT: -7.817286563      1.594      2.378
REMARK  6 active torsions:
REMARK  status: ('A' for Active; 'I' for Inactive)
REMARK    1  A    between atoms: C7_7  and  C8_8 
REMARK    2  A    between atoms: C9_11  and  N2_12 
REMARK    3  A    between atoms: N2_12  and  C10_14 
REMARK    4  A    between atoms: C10_14  and  C11_15 
REMARK    5  A    between atoms: C10_14  and  C15_23 
REMARK    6  A    between atoms: C11_15  and  C12_16 
ROOT
HETATM    1  C8  UNL     1       2.215  20.652   0.557  1.00  0.00     0.070 A 
HETATM    2  N1  UNL     1       1.318  20.439  -0.447  1.00  0.00    -0.190 N 
ATOM      3  H1  UNL     1       0.483  21.023  -0.484  1.00  0.00     0.184 HD
HETATM    4  C9  UNL     1       1.478  19.512  -1.375  1.00  0.00     0.681 A 
HETATM    5  N5  UNL     1       2.569  18.746  -1.337  1.00  0.00    -0.182 N 
HETATM    6  C19 UNL     1       2.798  17.708  -2.331  1.00  0.00     0.176 C 
HETATM    7  C20 UNL     1       3.489  18.930  -0.354  1.00  0.00     0.130 A 
HETATM    8  C21 UNL     1       3.367  19.879   0.643  1.00  0.00     0.031 A 
HETATM    9  C22 UNL     1       4.493  19.743   1.554  1.00  0.00     0.065 C 
HETATM   10  C23 UNL     1       4.226  18.900   2.794  1.00  0.00     0.042 C 
HETATM   11  C24 UNL     1       5.615  18.578   3.388  1.00  0.00     0.082 C 
HETATM   12  C25 UNL     1       6.294  19.836   3.832  1.00  0.00     0.243 C 
HETATM   13  F1  UNL     1       7.625  19.801   3.468  1.00  0.00    -0.206 F 
HETATM   14  F2  UNL     1       6.297  19.927   5.236  1.00  0.00    -0.206 F 
HETATM   15  C26 UNL     1       5.586  21.060   3.347  1.00  0.00     0.082 C 
HETATM   16  C27 UNL     1       5.226  21.004   1.887  1.00  0.00     0.042 C 
HETATM   17  N6  UNL     1       5.455  18.914   0.805  1.00  0.00    -0.342 N 
ATOM     18  H6  UNL     1       6.443  18.808   1.034  1.00  0.00     0.164 HD
HETATM   19  C28 UNL     1       4.805  18.301  -0.261  1.00  0.00     0.270 C 
HETATM   20  O1  UNL     1       5.305  17.380  -0.979  1.00  0.00    -0.266 OA
ENDROOT
BRANCH   4  21
HETATM   21  N2  UNL     1       0.612  19.345  -2.293  1.00  0.00    -0.221 N 
ATOM     22  H2  UNL     1      -0.033  18.563  -2.173  1.00  0.00     0.178 HD
BRANCH  21  23
HETATM   23  C10 UNL     1       0.444  20.129  -3.472  1.00  0.00     0.109 C 
BRANCH  23  24
HETATM   24  C11 UNL     1       0.664  19.354  -4.746  1.00  0.00     0.084 C 
BRANCH  24  25
HETATM   25  C12 UNL     1      -0.174  18.149  -4.855  1.00  0.00     0.027 A 
HETATM   26  C13 UNL     1       0.229  16.848  -4.681  1.00  0.00     0.114 A 
HETATM   27  N3  UNL     1      -0.854  16.048  -4.871  1.00  0.00    -0.360 N 
HETATM   28  C14 UNL     1      -1.918  16.828  -5.157  1.00  0.00     0.180 A 
ATOM     29  H3  UNL     1      -0.861  15.030  -4.807  1.00  0.00     0.166 HD
HETATM   30  N4  UNL     1      -1.486  18.092  -5.144  1.00  0.00    -0.355 N 
ATOM     31  H4  UNL     1      -2.074  18.905  -5.327  1.00  0.00     0.166 HD
ENDBRANCH  24  25
ENDBRANCH  23  24
BRANCH  23  32
HETATM   32  C15 UNL     1      -0.863  20.873  -3.445  1.00  0.00     0.009 C 
HETATM   33  C16 UNL     1      -0.846  22.176  -2.690  1.00  0.00     0.007 C 
HETATM   34  C17 UNL     1      -2.140  21.766  -1.983  1.00  0.00     0.001 C 
HETATM   35  C18 UNL     1      -1.790  20.334  -2.348  1.00  0.00     0.007 C 
ENDBRANCH  23  32
ENDBRANCH  21  23
ENDBRANCH   4  21
BRANCH   1  36
HETATM   36  C7  UNL     1       1.951  21.745   1.424  1.00  0.00    -0.007 A 
HETATM   37  C6  UNL     1       2.138  23.044   1.139  1.00  0.00     0.020 A 
HETATM   38  C4  UNL     1       1.825  24.033   2.037  1.00  0.00    -0.061 A 
HETATM   39  C3  UNL     1       1.310  23.676   3.257  1.00  0.00     0.013 A 
HETATM   40  C5  UNL     1       2.025  25.486   1.737  1.00  0.00     0.048 C 
HETATM   41  C2  UNL     1       1.093  22.361   3.620  1.00  0.00    -0.061 A 
HETATM   42  C1  UNL     1       0.532  22.004   4.955  1.00  0.00     0.048 C 
HETATM   43  C29 UNL     1       1.422  21.412   2.684  1.00  0.00     0.020 A 
ENDBRANCH   1  36
TORSDOF 6
ENDMDL
