MODEL 1
REMARK VINA RESULT: -6.997998927      0.000      0.000
REMARK  6 active torsions:
REMARK  status: ('A' for Active; 'I' for Inactive)
REMARK    1  A    between atoms: C2_2  and  N1_3 
REMARK    2  A    between atoms: C6_7  and  C7_8 
REMARK    3  A    between atoms: C8_11  and  C9_12 
REMARK    4  A    between atoms: C12_15  and  C13_16 
REMARK    5  A    between atoms: C13_16  and  N3_17 
REMARK    6  A    between atoms: C24_30  and  N4_31 
ROOT
HETATM    1  C7  UNL     1       0.044  21.770   3.037  1.00  0.00     0.118 A 
HETATM    2  N2  UNL     1      -0.677  20.919   2.225  1.00  0.00    -0.339 N 
ATOM      3  H2  UNL     1      -1.387  20.268   2.560  1.00  0.00     0.167 HD
HETATM    4  C8  UNL     1      -0.330  21.057   0.961  1.00  0.00     0.075 A 
HETATM    5  C23 UNL     1       0.676  22.050   0.965  1.00  0.00     0.112 A 
HETATM    6  C24 UNL     1       1.432  22.616  -0.021  1.00  0.00     0.129 A 
HETATM    7  N5  UNL     1       2.369  23.573   0.251  1.00  0.00    -0.349 N 
ATOM      8  H5  UNL     1       2.925  23.986  -0.497  1.00  0.00     0.167 HD
HETATM    9  C25 UNL     1       2.540  23.954   1.518  1.00  0.00     0.107 A 
HETATM   10  C26 UNL     1       1.788  23.395   2.545  1.00  0.00     0.116 A 
HETATM   11  N6  UNL     1       0.879  22.463   2.253  1.00  0.00    -0.301 N 
ENDROOT
BRANCH   4  12
HETATM   12  C9  UNL     1      -0.783  20.447  -0.291  1.00  0.00    -0.007 A 
HETATM   13  C10 UNL     1      -1.715  20.984  -1.130  1.00  0.00     0.014 A 
HETATM   14  C11 UNL     1      -2.105  20.370  -2.312  1.00  0.00     0.011 A 
HETATM   15  C12 UNL     1      -1.545  19.174  -2.674  1.00  0.00    -0.020 A 
HETATM   16  C21 UNL     1      -0.593  18.630  -1.819  1.00  0.00     0.011 A 
HETATM   17  C22 UNL     1      -0.215  19.224  -0.674  1.00  0.00     0.014 A 
BRANCH  15  18
HETATM   18  C13 UNL     1      -1.956  18.421  -3.904  1.00  0.00     0.186 C 
HETATM   19  C16 UNL     1      -3.233  19.015  -4.504  1.00  0.00     0.052 C 
HETATM   20  C17 UNL     1      -3.381  18.342  -5.887  1.00  0.00     0.082 C 
HETATM   21  C18 UNL     1      -3.484  16.863  -5.757  1.00  0.00     0.243 C 
HETATM   22  F1  UNL     1      -4.783  16.528  -6.180  1.00  0.00    -0.206 F 
HETATM   23  F2  UNL     1      -2.674  16.186  -6.685  1.00  0.00    -0.206 F 
HETATM   24  C19 UNL     1      -3.341  16.360  -4.368  1.00  0.00     0.082 C 
HETATM   25  C20 UNL     1      -2.256  17.016  -3.548  1.00  0.00     0.052 C 
BRANCH  18  26
HETATM   26  N3  UNL     1      -0.944  18.637  -4.886  1.00  0.00     0.094 N 
HETATM   27  C14 UNL     1       0.124  17.712  -4.959  1.00  0.00     0.310 C 
HETATM   28  C15 UNL     1      -0.398  19.964  -4.807  1.00  0.00     0.310 C 
ENDBRANCH  18  26
ENDBRANCH  15  18
ENDBRANCH   4  12
BRANCH   1  29
HETATM   29  C6  UNL     1      -0.253  21.808   4.457  1.00  0.00    -0.017 C 
HETATM   30  C5  UNL     1      -0.977  22.687   5.100  1.00  0.00    -0.009 C 
HETATM   31  C4  UNL     1      -1.122  22.481   6.550  1.00  0.00     0.043 C 
HETATM   32  C3  UNL     1      -1.702  23.617   7.326  1.00  0.00     0.281 C 
HETATM   33  C29 UNL     1       0.281  22.494   7.132  1.00  0.00     0.023 C 
HETATM   34  N1  UNL     1      -1.429  23.105   8.687  1.00  0.00     0.089 N 
HETATM   35  C30 UNL     1      -0.078  22.529   8.595  1.00  0.00     0.277 C 
HETATM   36  C28 UNL     1       0.922  21.260   6.628  1.00  0.00     0.011 C 
HETATM   37  C27 UNL     1       0.315  20.728   5.359  1.00  0.00     0.042 C 
BRANCH  34  38
HETATM   38  C2  UNL     1      -1.560  24.121   9.679  1.00  0.00     0.268 C 
HETATM   39  C1  UNL     1      -1.958  25.437   9.099  1.00  0.00     0.037 C 
ENDBRANCH  34  38
ENDBRANCH   1  29
BRANCH   6  40
HETATM   40  N4  UNL     1       1.305  22.243  -1.243  1.00  0.00    -0.384 N 
ATOM     41  H42 UNL     1       1.151  21.250  -1.417  1.00  0.00     0.157 HD
ATOM     42  H41 UNL     1       1.336  22.923  -2.002  1.00  0.00     0.157 HD
ENDBRANCH   6  40
TORSDOF 6
ENDMDL
MODEL 2
REMARK VINA RESULT: -6.894484740      6.601     10.987
REMARK  6 active torsions:
REMARK  status: ('A' for Active; 'I' for Inactive)
REMARK    1  A    between atoms: C2_2  and  N1_3 
REMARK    2  A    between atoms: C6_7  and  C7_8 
REMARK    3  A    between atoms: C8_11  and  C9_12 
REMARK    4  A    between atoms: C12_15  and  C13_16 
REMARK    5  A    between atoms: C13_16  and  N3_17 
REMARK    6  A    between atoms: C24_30  and  N4_31 
ROOT
HETATM    1  C7  UNL     1       1.270  20.985   3.288  1.00  0.00     0.118 A 
HETATM    2  N2  UNL     1       2.173  19.943   3.352  1.00  0.00    -0.339 N 
ATOM      3  H2  UNL     1       2.567  19.472   2.538  1.00  0.00     0.167 HD
HETATM    4  C8  UNL     1       2.460  19.636   4.601  1.00  0.00     0.075 A 
HETATM    5  C23 UNL     1       1.691  20.529   5.382  1.00  0.00     0.112 A 
HETATM    6  C24 UNL     1       1.542  20.701   6.729  1.00  0.00     0.129 A 
HETATM    7  N5  UNL     1       0.708  21.652   7.245  1.00  0.00    -0.349 N 
ATOM      8  H5  UNL     1       0.609  21.767   8.253  1.00  0.00     0.167 HD
HETATM    9  C25 UNL     1       0.027  22.426   6.399  1.00  0.00     0.107 A 
HETATM   10  C26 UNL     1       0.154  22.276   5.023  1.00  0.00     0.116 A 
HETATM   11  N6  UNL     1       0.975  21.339   4.545  1.00  0.00    -0.301 N 
ENDROOT
BRANCH   4  12
HETATM   12  C9  UNL     1       3.356  18.663   5.230  1.00  0.00    -0.007 A 
HETATM   13  C10 UNL     1       4.658  18.899   5.560  1.00  0.00     0.014 A 
HETATM   14  C11 UNL     1       5.465  17.944   6.164  1.00  0.00     0.011 A 
HETATM   15  C12 UNL     1       4.956  16.706   6.451  1.00  0.00    -0.020 A 
HETATM   16  C21 UNL     1       3.626  16.469   6.117  1.00  0.00     0.011 A 
HETATM   17  C22 UNL     1       2.845  17.393   5.532  1.00  0.00     0.014 A 
BRANCH  15  18
HETATM   18  C13 UNL     1       5.779  15.605   7.048  1.00  0.00     0.186 C 
HETATM   19  C16 UNL     1       4.899  14.413   7.430  1.00  0.00     0.052 C 
HETATM   20  C17 UNL     1       5.886  13.271   7.761  1.00  0.00     0.082 C 
HETATM   21  C18 UNL     1       6.794  13.651   8.878  1.00  0.00     0.243 C 
HETATM   22  F1  UNL     1       6.465  12.799   9.949  1.00  0.00    -0.206 F 
HETATM   23  F2  UNL     1       8.134  13.316   8.618  1.00  0.00    -0.206 F 
HETATM   24  C19 UNL     1       6.614  15.042   9.364  1.00  0.00     0.082 C 
HETATM   25  C20 UNL     1       6.423  16.085   8.291  1.00  0.00     0.052 C 
BRANCH  18  26
HETATM   26  N3  UNL     1       6.641  15.121   6.019  1.00  0.00     0.094 N 
HETATM   27  C14 UNL     1       7.913  15.724   5.874  1.00  0.00     0.310 C 
HETATM   28  C15 UNL     1       5.990  15.108   4.738  1.00  0.00     0.310 C 
ENDBRANCH  18  26
ENDBRANCH  15  18
ENDBRANCH   4  12
BRANCH   1  29
HETATM   29  C6  UNL     1       0.890  21.508   1.989  1.00  0.00    -0.017 C 
HETATM   30  C5  UNL     1       0.049  20.987   1.132  1.00  0.00    -0.009 C 
HETATM   31  C4  UNL     1      -0.159  21.735  -0.118  1.00  0.00     0.043 C 
HETATM   32  C3  UNL     1      -0.888  21.019  -1.206  1.00  0.00     0.281 C 
HETATM   33  C29 UNL     1       1.200  21.852  -0.785  1.00  0.00     0.023 C 
HETATM   34  N1  UNL     1      -0.647  21.989  -2.296  1.00  0.00     0.089 N 
HETATM   35  C30 UNL     1       0.755  22.397  -2.118  1.00  0.00     0.277 C 
HETATM   36  C28 UNL     1       1.983  22.758   0.082  1.00  0.00     0.011 C 
HETATM   37  C27 UNL     1       1.503  22.808   1.507  1.00  0.00     0.042 C 
BRANCH  34  38
HETATM   38  C2  UNL     1      -0.932  21.436  -3.580  1.00  0.00     0.268 C 
HETATM   39  C1  UNL     1       0.293  21.279  -4.417  1.00  0.00     0.037 C 
ENDBRANCH  34  38
ENDBRANCH   1  29
BRANCH   6  40
HETATM   40  N4  UNL     1       2.165  19.947   7.560  1.00  0.00    -0.384 N 
ATOM     41  H42 UNL     1       2.054  18.938   7.454  1.00  0.00     0.157 HD
ATOM     42  H41 UNL     1       2.765  20.348   8.281  1.00  0.00     0.157 HD
ENDBRANCH   6  40
TORSDOF 6
ENDMDL
MODEL 3
REMARK VINA RESULT: -6.815622281      6.187      7.808
REMARK  6 active torsions:
REMARK  status: ('A' for Active; 'I' for Inactive)
REMARK    1  A    between atoms: C2_2  and  N1_3 
REMARK    2  A    between atoms: C6_7  and  C7_8 
REMARK    3  A    between atoms: C8_11  and  C9_12 
REMARK    4  A    between atoms: C12_15  and  C13_16 
REMARK    5  A    between atoms: C13_16  and  N3_17 
REMARK    6  A    between atoms: C24_30  and  N4_31 
ROOT
HETATM    1  C7  UNL     1       6.015  18.199   4.516  1.00  0.00     0.118 A 
HETATM    2  N2  UNL     1       4.806  18.188   3.851  1.00  0.00    -0.339 N 
ATOM      3  H2  UNL     1       4.037  17.553   4.063  1.00  0.00     0.167 HD
HETATM    4  C8  UNL     1       4.774  19.105   2.905  1.00  0.00     0.075 A 
HETATM    5  C23 UNL     1       6.038  19.735   2.964  1.00  0.00     0.112 A 
HETATM    6  C24 UNL     1       6.614  20.742   2.243  1.00  0.00     0.129 A 
HETATM    7  N5  UNL     1       7.886  21.171   2.496  1.00  0.00    -0.349 N 
ATOM      8  H5  UNL     1       8.301  21.924   1.948  1.00  0.00     0.167 HD
HETATM    9  C25 UNL     1       8.571  20.583   3.478  1.00  0.00     0.107 A 
HETATM   10  C26 UNL     1       8.015  19.555   4.230  1.00  0.00     0.116 A 
HETATM   11  N6  UNL     1       6.771  19.154   3.961  1.00  0.00    -0.301 N 
ENDROOT
BRANCH   4  12
HETATM   12  C9  UNL     1       3.758  19.543   1.945  1.00  0.00    -0.007 A 
HETATM   13  C10 UNL     1       2.886  20.573   2.144  1.00  0.00     0.014 A 
HETATM   14  C11 UNL     1       1.945  20.954   1.197  1.00  0.00     0.011 A 
HETATM   15  C12 UNL     1       1.868  20.284   0.005  1.00  0.00    -0.020 A 
HETATM   16  C21 UNL     1       2.760  19.236  -0.196  1.00  0.00     0.011 A 
HETATM   17  C22 UNL     1       3.671  18.866   0.720  1.00  0.00     0.014 A 
BRANCH  15  18
HETATM   18  C13 UNL     1       0.842  20.598  -1.041  1.00  0.00     0.186 C 
HETATM   19  C16 UNL     1       1.153  19.862  -2.347  1.00  0.00     0.052 C 
HETATM   20  C17 UNL     1      -0.106  20.046  -3.224  1.00  0.00     0.082 C 
HETATM   21  C18 UNL     1      -0.383  21.488  -3.471  1.00  0.00     0.243 C 
HETATM   22  F1  UNL     1      -0.188  21.687  -4.850  1.00  0.00    -0.206 F 
HETATM   23  F2  UNL     1      -1.740  21.810  -3.302  1.00  0.00    -0.206 F 
HETATM   24  C19 UNL     1       0.538  22.416  -2.769  1.00  0.00     0.082 C 
HETATM   25  C20 UNL     1       0.869  22.047  -1.343  1.00  0.00     0.052 C 
BRANCH  18  26
HETATM   26  N3  UNL     1      -0.398  20.055  -0.590  1.00  0.00     0.094 N 
HETATM   27  C14 UNL     1      -1.207  20.850   0.257  1.00  0.00     0.310 C 
HETATM   28  C15 UNL     1      -0.226  18.764   0.019  1.00  0.00     0.310 C 
ENDBRANCH  18  26
ENDBRANCH  15  18
ENDBRANCH   4  12
BRANCH   1  29
HETATM   29  C6  UNL     1       6.207  17.301   5.640  1.00  0.00    -0.017 C 
HETATM   30  C5  UNL     1       7.038  16.295   5.727  1.00  0.00    -0.009 C 
HETATM   31  C4  UNL     1       7.033  15.548   6.995  1.00  0.00     0.043 C 
HETATM   32  C3  UNL     1       7.763  14.246   7.001  1.00  0.00     0.281 C 
HETATM   33  C29 UNL     1       5.620  15.025   7.184  1.00  0.00     0.023 C 
HETATM   34  N1  UNL     1       7.296  13.748   8.313  1.00  0.00     0.089 N 
HETATM   35  C30 UNL     1       5.870  14.107   8.353  1.00  0.00     0.277 C 
HETATM   36  C28 UNL     1       4.791  16.223   7.437  1.00  0.00     0.011 C 
HETATM   37  C27 UNL     1       5.377  17.498   6.894  1.00  0.00     0.042 C 
BRANCH  34  38
HETATM   38  C2  UNL     1       7.548  12.354   8.480  1.00  0.00     0.268 C 
HETATM   39  C1  UNL     1       6.439  11.656   9.194  1.00  0.00     0.037 C 
ENDBRANCH  34  38
ENDBRANCH   1  29
BRANCH   6  40
HETATM   40  N4  UNL     1       5.983  21.300   1.274  1.00  0.00    -0.384 N 
ATOM     41  H42 UNL     1       5.790  20.732   0.450  1.00  0.00     0.157 HD
ATOM     42  H41 UNL     1       5.671  22.268   1.345  1.00  0.00     0.157 HD
ENDBRANCH   6  40
TORSDOF 6
ENDMDL
MODEL 4
REMARK VINA RESULT: -6.665368653      1.780      2.241
REMARK  6 active torsions:
REMARK  status: ('A' for Active; 'I' for Inactive)
REMARK    1  A    between atoms: C2_2  and  N1_3 
REMARK    2  A    between atoms: C6_7  and  C7_8 
REMARK    3  A    between atoms: C8_11  and  C9_12 
REMARK    4  A    between atoms: C12_15  and  C13_16 
REMARK    5  A    between atoms: C13_16  and  N3_17 
REMARK    6  A    between atoms: C24_30  and  N4_31 
ROOT
HETATM    1  C7  UNL     1       0.961  22.387   2.407  1.00  0.00     0.118 A 
HETATM    2  N2  UNL     1      -0.009  21.956   1.525  1.00  0.00    -0.339 N 
ATOM      3  H2  UNL     1      -0.995  22.208   1.586  1.00  0.00     0.167 HD
HETATM    4  C8  UNL     1       0.505  21.177   0.596  1.00  0.00     0.075 A 
HETATM    5  C23 UNL     1       1.883  21.099   0.904  1.00  0.00     0.112 A 
HETATM    6  C24 UNL     1       2.932  20.442   0.329  1.00  0.00     0.129 A 
HETATM    7  N5  UNL     1       4.198  20.523   0.838  1.00  0.00    -0.349 N 
ATOM      8  H5  UNL     1       4.971  20.026   0.396  1.00  0.00     0.167 HD
HETATM    9  C25 UNL     1       4.398  21.268   1.926  1.00  0.00     0.107 A 
HETATM   10  C26 UNL     1       3.351  21.948   2.536  1.00  0.00     0.116 A 
HETATM   11  N6  UNL     1       2.125  21.852   2.019  1.00  0.00    -0.301 N 
ENDROOT
BRANCH   4  12
HETATM   12  C9  UNL     1      -0.045  20.490  -0.575  1.00  0.00    -0.007 A 
HETATM   13  C10 UNL     1      -0.333  21.086  -1.768  1.00  0.00     0.014 A 
HETATM   14  C11 UNL     1      -0.846  20.388  -2.853  1.00  0.00     0.011 A 
HETATM   15  C12 UNL     1      -1.083  19.043  -2.746  1.00  0.00    -0.020 A 
HETATM   16  C21 UNL     1      -0.786  18.437  -1.530  1.00  0.00     0.011 A 
HETATM   17  C22 UNL     1      -0.289  19.112  -0.480  1.00  0.00     0.014 A 
BRANCH  15  18
HETATM   18  C13 UNL     1      -1.690  18.233  -3.851  1.00  0.00     0.186 C 
HETATM   19  C16 UNL     1      -2.755  19.042  -4.597  1.00  0.00     0.052 C 
HETATM   20  C17 UNL     1      -3.087  18.209  -5.856  1.00  0.00     0.082 C 
HETATM   21  C18 UNL     1      -3.595  16.859  -5.488  1.00  0.00     0.243 C 
HETATM   22  F1  UNL     1      -4.938  16.824  -5.907  1.00  0.00    -0.206 F 
HETATM   23  F2  UNL     1      -3.007  15.838  -6.255  1.00  0.00    -0.206 F 
HETATM   24  C19 UNL     1      -3.593  16.581  -4.030  1.00  0.00     0.082 C 
HETATM   25  C20 UNL     1      -2.366  17.045  -3.283  1.00  0.00     0.052 C 
BRANCH  18  26
HETATM   26  N3  UNL     1      -0.661  17.993  -4.810  1.00  0.00     0.094 N 
HETATM   27  C14 UNL     1       0.169  16.861  -4.630  1.00  0.00     0.310 C 
HETATM   28  C15 UNL     1       0.173  19.149  -4.999  1.00  0.00     0.310 C 
ENDBRANCH  18  26
ENDBRANCH  15  18
ENDBRANCH   4  12
BRANCH   1  29
HETATM   29  C6  UNL     1       0.591  23.314   3.462  1.00  0.00    -0.017 C 
HETATM   30  C5  UNL     1      -0.238  23.109   4.452  1.00  0.00    -0.009 C 
HETATM   31  C4  UNL     1      -0.427  24.227   5.391  1.00  0.00     0.043 C 
HETATM   32  C3  UNL     1      -1.566  24.105   6.347  1.00  0.00     0.281 C 
HETATM   33  C29 UNL     1      -0.934  25.401   4.571  1.00  0.00     0.023 C 
HETATM   34  N1  UNL     1      -1.542  25.484   6.881  1.00  0.00     0.089 N 
HETATM   35  C30 UNL     1      -1.299  26.329   5.701  1.00  0.00     0.277 C 
HETATM   36  C28 UNL     1       0.205  25.800   3.717  1.00  0.00     0.011 C 
HETATM   37  C27 UNL     1       1.204  24.701   3.475  1.00  0.00     0.042 C 
BRANCH  34  38
HETATM   38  C2  UNL     1      -2.738  25.807   7.589  1.00  0.00     0.268 C 
HETATM   39  C1  UNL     1      -3.968  25.465   6.815  1.00  0.00     0.037 C 
ENDBRANCH  34  38
ENDBRANCH   1  29
BRANCH   6  40
HETATM   40  N4  UNL     1       2.756  19.696  -0.701  1.00  0.00    -0.384 N 
ATOM     41  H42 UNL     1       2.831  20.136  -1.618  1.00  0.00     0.157 HD
ATOM     42  H41 UNL     1       2.572  18.698  -0.597  1.00  0.00     0.157 HD
ENDBRANCH   6  40
TORSDOF 6
ENDMDL
MODEL 5
REMARK VINA RESULT: -6.597805056      1.092      1.746
REMARK  6 active torsions:
REMARK  status: ('A' for Active; 'I' for Inactive)
REMARK    1  A    between atoms: C2_2  and  N1_3 
REMARK    2  A    between atoms: C6_7  and  C7_8 
REMARK    3  A    between atoms: C8_11  and  C9_12 
REMARK    4  A    between atoms: C12_15  and  C13_16 
REMARK    5  A    between atoms: C13_16  and  N3_17 
REMARK    6  A    between atoms: C24_30  and  N4_31 
ROOT
HETATM    1  C7  UNL     1       0.154  21.925   3.054  1.00  0.00     0.118 A 
HETATM    2  N2  UNL     1      -0.581  21.066   2.262  1.00  0.00    -0.339 N 
ATOM      3  H2  UNL     1      -1.296  20.430   2.613  1.00  0.00     0.167 HD
HETATM    4  C8  UNL     1      -0.237  21.174   0.995  1.00  0.00     0.075 A 
HETATM    5  C23 UNL     1       0.781  22.154   0.975  1.00  0.00     0.112 A 
HETATM    6  C24 UNL     1       1.540  22.691  -0.026  1.00  0.00     0.129 A 
HETATM    7  N5  UNL     1       2.490  23.641   0.223  1.00  0.00    -0.349 N 
ATOM      8  H5  UNL     1       3.048  24.032  -0.536  1.00  0.00     0.167 HD
HETATM    9  C25 UNL     1       2.670  24.046   1.481  1.00  0.00     0.107 A 
HETATM   10  C26 UNL     1       1.915  23.518   2.522  1.00  0.00     0.116 A 
HETATM   11  N6  UNL     1       0.995  22.591   2.253  1.00  0.00    -0.301 N 
ENDROOT
BRANCH   4  12
HETATM   12  C9  UNL     1      -0.702  20.544  -0.243  1.00  0.00    -0.007 A 
HETATM   13  C10 UNL     1      -1.673  21.047  -1.059  1.00  0.00     0.014 A 
HETATM   14  C11 UNL     1      -2.073  20.415  -2.229  1.00  0.00     0.011 A 
HETATM   15  C12 UNL     1      -1.484  19.236  -2.601  1.00  0.00    -0.020 A 
HETATM   16  C21 UNL     1      -0.493  18.727  -1.769  1.00  0.00     0.011 A 
HETATM   17  C22 UNL     1      -0.105  19.338  -0.636  1.00  0.00     0.014 A 
BRANCH  15  18
HETATM   18  C13 UNL     1      -1.902  18.465  -3.816  1.00  0.00     0.186 C 
HETATM   19  C16 UNL     1      -3.205  19.024  -4.394  1.00  0.00     0.052 C 
HETATM   20  C17 UNL     1      -3.365  18.338  -5.769  1.00  0.00     0.082 C 
HETATM   21  C18 UNL     1      -3.430  16.858  -5.627  1.00  0.00     0.243 C 
HETATM   22  F1  UNL     1      -4.730  16.489  -6.021  1.00  0.00    -0.206 F 
HETATM   23  F2  UNL     1      -2.624  16.193  -6.567  1.00  0.00    -0.206 F 
HETATM   24  C19 UNL     1      -3.247  16.369  -4.238  1.00  0.00     0.082 C 
HETATM   25  C20 UNL     1      -2.162  17.056  -3.445  1.00  0.00     0.052 C 
BRANCH  18  26
HETATM   26  N3  UNL     1      -0.916  18.698  -4.821  1.00  0.00     0.094 N 
HETATM   27  C14 UNL     1       0.161  17.786  -4.923  1.00  0.00     0.310 C 
HETATM   28  C15 UNL     1      -0.384  20.031  -4.748  1.00  0.00     0.310 C 
ENDBRANCH  18  26
ENDBRANCH  15  18
ENDBRANCH   4  12
BRANCH   1  29
HETATM   29  C6  UNL     1      -0.136  21.995   4.474  1.00  0.00    -0.017 C 
HETATM   30  C5  UNL     1       0.482  21.380   5.449  1.00  0.00    -0.009 C 
HETATM   31  C4  UNL     1      -0.019  21.637   6.808  1.00  0.00     0.043 C 
HETATM   32  C3  UNL     1       0.490  20.737   7.885  1.00  0.00     0.281 C 
HETATM   33  C29 UNL     1      -1.478  21.214   6.820  1.00  0.00     0.023 C 
HETATM   34  N1  UNL     1      -0.426  21.161   8.966  1.00  0.00     0.089 N 
HETATM   35  C30 UNL     1      -1.731  21.306   8.303  1.00  0.00     0.277 C 
HETATM   36  C28 UNL     1      -2.174  22.195   5.959  1.00  0.00     0.011 C 
HETATM   37  C27 UNL     1      -1.282  22.867   4.952  1.00  0.00     0.042 C 
BRANCH  34  38
HETATM   38  C2  UNL     1      -0.429  20.243  10.058  1.00  0.00     0.268 C 
HETATM   39  C1  UNL     1       0.321  18.990   9.751  1.00  0.00     0.037 C 
ENDBRANCH  34  38
ENDBRANCH   1  29
BRANCH   6  40
HETATM   40  N4  UNL     1       1.404  22.294  -1.239  1.00  0.00    -0.384 N 
ATOM     41  H42 UNL     1       1.102  22.984  -1.927  1.00  0.00     0.157 HD
ATOM     42  H41 UNL     1       1.615  21.331  -1.500  1.00  0.00     0.157 HD
ENDBRANCH   6  40
TORSDOF 6
ENDMDL
