MODEL 1
REMARK VINA RESULT: -7.122872180      0.000      0.000
REMARK  7 active torsions:
REMARK  status: ('A' for Active; 'I' for Inactive)
REMARK    1  A    between atoms: C2_2  and  C5_5 
REMARK    2  A    between atoms: C5_5  and  C6_6 
REMARK    3  A    between atoms: C5_5  and  C22_32 
REMARK       I    between atoms: C6_6  and  N1_8 
REMARK    4  A    between atoms: N1_8  and  C7_10 
REMARK    5  A    between atoms: C7_10  and  C9_12 
REMARK    6  A    between atoms: C7_10  and  C15_25 
REMARK    7  A    between atoms: N5_19  and  C10_20 
ROOT
HETATM    1  C7  UNL     1       0.915  19.132  -1.665  1.00  0.00     0.096 C 
HETATM    2  C8  UNL     1      -0.157  18.857  -0.706  1.00  0.00     0.047 C 
ENDROOT
BRANCH   1   3
HETATM    3  N1  UNL     1       1.886  19.998  -0.967  1.00  0.00    -0.341 N 
HETATM    4  C6  UNL     1       2.078  20.119   0.402  1.00  0.00     0.250 C 
HETATM    5  O1  UNL     1       1.384  19.449   1.201  1.00  0.00    -0.268 OA
ATOM      6  H1  UNL     1       2.486  20.572  -1.559  1.00  0.00     0.164 HD
BRANCH   4   7
HETATM    7  C5  UNL     1       3.085  21.014   1.021  1.00  0.00     0.027 C 
BRANCH   7   8
HETATM    8  C2  UNL     1       4.098  20.369   1.882  1.00  0.00    -0.018 C 
HETATM    9  C1  UNL     1       3.793  20.265   3.348  1.00  0.00     0.019 C 
HETATM   10  C3  UNL     1       4.480  18.978   1.407  1.00  0.00     0.019 C 
HETATM   11  C4  UNL     1       5.419  21.169   1.790  1.00  0.00     0.019 C 
ENDBRANCH   7   8
BRANCH   7  12
HETATM   12  C22 UNL     1       2.494  22.265   1.542  1.00  0.00    -0.021 A 
HETATM   13  C23 UNL     1       2.876  23.502   1.040  1.00  0.00     0.013 A 
HETATM   14  C24 UNL     1       2.334  24.663   1.497  1.00  0.00     0.010 A 
HETATM   15  C25 UNL     1       1.371  24.674   2.488  1.00  0.00    -0.029 A 
HETATM   16  C26 UNL     1       0.985  23.456   2.992  1.00  0.00     0.036 A 
HETATM   17  C29 UNL     1       0.626  25.793   3.158  1.00  0.00     0.082 C 
HETATM   18  C27 UNL     1       1.535  22.275   2.529  1.00  0.00     0.042 A 
HETATM   19  N6  UNL     1      -0.019  23.695   4.009  1.00  0.00    -0.372 N 
HETATM   20  C28 UNL     1      -0.363  25.093   4.040  1.00  0.00     0.183 C 
ATOM     21  H6  UNL     1      -0.422  22.979   4.614  1.00  0.00     0.161 HD
HETATM   22 CL1  UNL     1      -0.200  25.653   5.740  1.00  0.00    -0.102 Cl
ENDBRANCH   7  12
ENDBRANCH   4   7
ENDBRANCH   1   3
BRANCH   1  23
HETATM   23  C9  UNL     1       0.580  19.901  -2.883  1.00  0.00     0.144 A 
HETATM   24  N2  UNL     1       1.136  21.110  -3.096  1.00  0.00    -0.270 N 
HETATM   25  N3  UNL     1       0.721  21.603  -4.228  1.00  0.00    -0.227 N 
ATOM     26  H2  UNL     1       1.788  21.572  -2.462  1.00  0.00     0.190 HD
HETATM   27  N4  UNL     1      -0.097  20.710  -4.735  1.00  0.00    -0.224 N 
ATOM     28  H3  UNL     1       0.980  22.501  -4.638  1.00  0.00     0.210 HD
HETATM   29  N5  UNL     1      -0.196  19.647  -3.912  1.00  0.00    -0.256 N 
ATOM     30  H4  UNL     1      -0.588  20.806  -5.624  1.00  0.00     0.210 HD
BRANCH  29  31
HETATM   31  C10 UNL     1      -1.033  18.528  -4.246  1.00  0.00     0.111 C 
HETATM   32  C11 UNL     1      -1.414  18.497  -5.710  1.00  0.00     0.027 C 
HETATM   33  C12 UNL     1      -2.902  18.597  -5.804  1.00  0.00     0.002 C 
HETATM   34  C13 UNL     1      -3.336  19.294  -4.533  1.00  0.00     0.002 C 
HETATM   35  C14 UNL     1      -2.383  18.730  -3.533  1.00  0.00     0.027 C 
ENDBRANCH  29  31
ENDBRANCH   1  23
BRANCH   1  36
HETATM   36  C15 UNL     1       1.641  17.893  -2.160  1.00  0.00     0.038 A 
HETATM   37  C16 UNL     1       2.300  16.860  -1.412  1.00  0.00    -0.033 A 
HETATM   38  C17 UNL     1       2.168  16.454  -0.010  1.00  0.00     0.016 C 
HETATM   39  C18 UNL     1       3.671  16.398  -1.982  1.00  0.00     0.016 C 
HETATM   40  C19 UNL     1       1.081  16.555  -2.303  1.00  0.00    -0.033 A 
HETATM   41  C20 UNL     1      -0.148  15.987  -1.721  1.00  0.00     0.016 C 
HETATM   42  C21 UNL     1       1.471  15.732  -3.575  1.00  0.00     0.016 C 
ENDBRANCH   1  36
TORSDOF 7
ENDMDL
MODEL 2
REMARK VINA RESULT: -6.934288230      4.047      7.866
REMARK  7 active torsions:
REMARK  status: ('A' for Active; 'I' for Inactive)
REMARK    1  A    between atoms: C2_2  and  C5_5 
REMARK    2  A    between atoms: C5_5  and  C6_6 
REMARK    3  A    between atoms: C5_5  and  C22_32 
REMARK       I    between atoms: C6_6  and  N1_8 
REMARK    4  A    between atoms: N1_8  and  C7_10 
REMARK    5  A    between atoms: C7_10  and  C9_12 
REMARK    6  A    between atoms: C7_10  and  C15_25 
REMARK    7  A    between atoms: N5_19  and  C10_20 
ROOT
HETATM    1  C7  UNL     1       5.063  18.977   2.457  1.00  0.00     0.096 C 
HETATM    2  C8  UNL     1       4.776  17.985   1.419  1.00  0.00     0.047 C 
ENDROOT
BRANCH   1   3
HETATM    3  N1  UNL     1       4.120  20.092   2.240  1.00  0.00    -0.341 N 
HETATM    4  C6  UNL     1       2.736  20.024   2.157  1.00  0.00     0.250 C 
HETATM    5  O1  UNL     1       2.149  18.924   2.270  1.00  0.00    -0.268 OA
ATOM      6  H1  UNL     1       4.533  21.020   2.139  1.00  0.00     0.164 HD
BRANCH   4   7
HETATM    7  C5  UNL     1       1.861  21.200   1.940  1.00  0.00     0.027 C 
BRANCH   7   8
HETATM    8  C2  UNL     1       1.094  21.676   3.111  1.00  0.00    -0.018 C 
HETATM    9  C1  UNL     1      -0.230  21.021   3.381  1.00  0.00     0.019 C 
HETATM   10  C3  UNL     1       1.890  21.618   4.403  1.00  0.00     0.019 C 
HETATM   11  C4  UNL     1       0.784  23.181   2.932  1.00  0.00     0.019 C 
ENDBRANCH   7   8
BRANCH   7  12
HETATM   12  C22 UNL     1       1.118  21.133   0.664  1.00  0.00    -0.021 A 
HETATM   13  C23 UNL     1      -0.023  20.351   0.538  1.00  0.00     0.013 A 
HETATM   14  C24 UNL     1      -0.727  20.286  -0.624  1.00  0.00     0.010 A 
HETATM   15  C25 UNL     1      -0.344  20.998  -1.746  1.00  0.00    -0.029 A 
HETATM   16  C26 UNL     1       0.783  21.775  -1.633  1.00  0.00     0.036 A 
HETATM   17  C29 UNL     1      -0.932  21.101  -3.123  1.00  0.00     0.082 C 
HETATM   18  C27 UNL     1       1.500  21.841  -0.452  1.00  0.00     0.042 A 
HETATM   19  N6  UNL     1       1.004  22.424  -2.909  1.00  0.00    -0.372 N 
HETATM   20  C28 UNL     1      -0.096  22.148  -3.797  1.00  0.00     0.183 C 
ATOM     21  H6  UNL     1       1.818  22.992  -3.144  1.00  0.00     0.161 HD
HETATM   22 CL1  UNL     1       0.593  21.514  -5.331  1.00  0.00    -0.102 Cl
ENDBRANCH   7  12
ENDBRANCH   4   7
ENDBRANCH   1   3
BRANCH   1  23
HETATM   23  C9  UNL     1       6.387  19.637   2.443  1.00  0.00     0.144 A 
HETATM   24  N2  UNL     1       6.569  20.804   3.090  1.00  0.00    -0.270 N 
HETATM   25  N3  UNL     1       7.805  21.200   2.965  1.00  0.00    -0.227 N 
ATOM     26  H2  UNL     1       5.845  21.307   3.603  1.00  0.00     0.190 HD
HETATM   27  N4  UNL     1       8.407  20.285   2.241  1.00  0.00    -0.224 N 
ATOM     28  H3  UNL     1       8.219  22.048   3.352  1.00  0.00     0.210 HD
HETATM   29  N5  UNL     1       7.541  19.308   1.908  1.00  0.00    -0.256 N 
ATOM     30  H4  UNL     1       9.390  20.310   1.969  1.00  0.00     0.210 HD
BRANCH  29  31
HETATM   31  C10 UNL     1       7.960  18.185   1.116  1.00  0.00     0.111 C 
HETATM   32  C11 UNL     1       9.269  17.590   1.590  1.00  0.00     0.027 C 
HETATM   33  C12 UNL     1      10.261  17.708   0.479  1.00  0.00     0.002 C 
HETATM   34  C13 UNL     1       9.782  18.871  -0.363  1.00  0.00     0.002 C 
HETATM   35  C14 UNL     1       8.300  18.711  -0.290  1.00  0.00     0.027 C 
ENDBRANCH  29  31
ENDBRANCH   1  23
BRANCH   1  36
HETATM   36  C15 UNL     1       4.885  18.464   3.875  1.00  0.00     0.038 A 
HETATM   37  C16 UNL     1       4.153  17.325   4.351  1.00  0.00    -0.033 A 
HETATM   38  C17 UNL     1       3.691  16.121   3.655  1.00  0.00     0.016 C 
HETATM   39  C18 UNL     1       3.311  17.564   5.636  1.00  0.00     0.016 C 
HETATM   40  C19 UNL     1       5.679  17.434   4.534  1.00  0.00    -0.033 A 
HETATM   41  C20 UNL     1       6.578  16.425   3.946  1.00  0.00     0.016 C 
HETATM   42  C21 UNL     1       6.078  17.664   6.029  1.00  0.00     0.016 C 
ENDBRANCH   1  36
TORSDOF 7
ENDMDL
MODEL 3
REMARK VINA RESULT: -6.903008393      2.094      2.614
REMARK  7 active torsions:
REMARK  status: ('A' for Active; 'I' for Inactive)
REMARK    1  A    between atoms: C2_2  and  C5_5 
REMARK    2  A    between atoms: C5_5  and  C6_6 
REMARK    3  A    between atoms: C5_5  and  C22_32 
REMARK       I    between atoms: C6_6  and  N1_8 
REMARK    4  A    between atoms: N1_8  and  C7_10 
REMARK    5  A    between atoms: C7_10  and  C9_12 
REMARK    6  A    between atoms: C7_10  and  C15_25 
REMARK    7  A    between atoms: N5_19  and  C10_20 
ROOT
HETATM    1  C7  UNL     1       0.690  18.560   0.367  1.00  0.00     0.096 C 
HETATM    2  C8  UNL     1      -0.633  18.812   0.940  1.00  0.00     0.047 C 
ENDROOT
BRANCH   1   3
HETATM    3  N1  UNL     1       1.607  19.536   0.992  1.00  0.00    -0.341 N 
HETATM    4  C6  UNL     1       2.961  19.704   0.740  1.00  0.00     0.250 C 
HETATM    5  O1  UNL     1       3.543  18.981  -0.101  1.00  0.00    -0.268 OA
ATOM      6  H1  UNL     1       1.197  20.158   1.689  1.00  0.00     0.164 HD
BRANCH   4   7
HETATM    7  C5  UNL     1       3.809  20.715   1.413  1.00  0.00     0.027 C 
BRANCH   7   8
HETATM    8  C2  UNL     1       4.761  20.210   2.424  1.00  0.00    -0.018 C 
HETATM    9  C1  UNL     1       5.545  21.226   3.203  1.00  0.00     0.019 C 
HETATM   10  C3  UNL     1       4.113  19.279   3.435  1.00  0.00     0.019 C 
HETATM   11  C4  UNL     1       5.816  19.321   1.723  1.00  0.00     0.019 C 
ENDBRANCH   7   8
BRANCH   7  12
HETATM   12  C22 UNL     1       3.061  21.936   1.782  1.00  0.00    -0.021 A 
HETATM   13  C23 UNL     1       3.263  23.132   1.107  1.00  0.00     0.013 A 
HETATM   14  C24 UNL     1       2.574  24.262   1.423  1.00  0.00     0.010 A 
HETATM   15  C25 UNL     1       1.633  24.280   2.435  1.00  0.00    -0.029 A 
HETATM   16  C26 UNL     1       1.424  23.101   3.109  1.00  0.00     0.036 A 
HETATM   17  C29 UNL     1       0.752  25.370   2.974  1.00  0.00     0.082 C 
HETATM   18  C27 UNL     1       2.124  21.952   2.790  1.00  0.00     0.042 A 
HETATM   19  N6  UNL     1       0.413  23.341   4.119  1.00  0.00    -0.372 N 
HETATM   20  C28 UNL     1      -0.119  24.671   3.975  1.00  0.00     0.183 C 
ATOM     21  H6  UNL     1       0.121  22.666   4.827  1.00  0.00     0.161 HD
HETATM   22 CL1  UNL     1      -0.009  25.475   5.579  1.00  0.00    -0.102 Cl
ENDBRANCH   7  12
ENDBRANCH   4   7
ENDBRANCH   1   3
BRANCH   1  23
HETATM   23  C9  UNL     1       0.878  18.790  -1.082  1.00  0.00     0.144 A 
HETATM   24  N2  UNL     1       1.477  17.854  -1.844  1.00  0.00    -0.270 N 
HETATM   25  N3  UNL     1       1.524  18.248  -3.085  1.00  0.00    -0.227 N 
ATOM     26  H2  UNL     1       1.842  16.966  -1.499  1.00  0.00     0.190 HD
HETATM   27  N4  UNL     1       0.956  19.431  -3.112  1.00  0.00    -0.224 N 
ATOM     28  H3  UNL     1       1.922  17.740  -3.875  1.00  0.00     0.210 HD
HETATM   29  N5  UNL     1       0.549  19.782  -1.876  1.00  0.00    -0.256 N 
ATOM     30  H4  UNL     1       0.838  20.003  -3.949  1.00  0.00     0.210 HD
BRANCH  29  31
HETATM   31  C10 UNL     1      -0.109  21.038  -1.643  1.00  0.00     0.111 C 
HETATM   32  C11 UNL     1      -1.590  20.990  -1.952  1.00  0.00     0.027 C 
HETATM   33  C12 UNL     1      -1.869  21.974  -3.041  1.00  0.00     0.002 C 
HETATM   34  C13 UNL     1      -0.559  22.127  -3.785  1.00  0.00     0.002 C 
HETATM   35  C14 UNL     1       0.434  22.044  -2.675  1.00  0.00     0.027 C 
ENDBRANCH  29  31
ENDBRANCH   1  23
BRANCH   1  36
HETATM   36  C15 UNL     1       1.226  17.163   0.625  1.00  0.00     0.038 A 
HETATM   37  C16 UNL     1       1.593  16.538   1.864  1.00  0.00    -0.033 A 
HETATM   38  C17 UNL     1       1.231  16.860   3.247  1.00  0.00     0.016 C 
HETATM   39  C18 UNL     1       2.910  15.712   1.829  1.00  0.00     0.016 C 
HETATM   40  C19 UNL     1       0.446  15.987   0.995  1.00  0.00    -0.033 A 
HETATM   41  C20 UNL     1      -0.924  15.902   1.530  1.00  0.00     0.016 C 
HETATM   42  C21 UNL     1       0.818  14.624   0.324  1.00  0.00     0.016 C 
ENDBRANCH   1  36
TORSDOF 7
ENDMDL
MODEL 4
REMARK VINA RESULT: -6.785941541      2.154      3.290
REMARK  7 active torsions:
REMARK  status: ('A' for Active; 'I' for Inactive)
REMARK    1  A    between atoms: C2_2  and  C5_5 
REMARK    2  A    between atoms: C5_5  and  C6_6 
REMARK    3  A    between atoms: C5_5  and  C22_32 
REMARK       I    between atoms: C6_6  and  N1_8 
REMARK    4  A    between atoms: N1_8  and  C7_10 
REMARK    5  A    between atoms: C7_10  and  C9_12 
REMARK    6  A    between atoms: C7_10  and  C15_25 
REMARK    7  A    between atoms: N5_19  and  C10_20 
ROOT
HETATM    1  C7  UNL     1      -1.277  18.290  -1.609  1.00  0.00     0.096 C 
HETATM    2  C8  UNL     1      -2.188  17.566  -0.720  1.00  0.00     0.047 C 
ENDROOT
BRANCH   1   3
HETATM    3  N1  UNL     1      -0.099  18.649  -0.794  1.00  0.00    -0.341 N 
HETATM    4  C6  UNL     1      -0.077  19.393   0.377  1.00  0.00     0.250 C 
HETATM    5  O1  UNL     1      -1.141  19.846   0.860  1.00  0.00    -0.268 OA
ATOM      6  H1  UNL     1       0.803  18.311  -1.131  1.00  0.00     0.164 HD
BRANCH   4   7
HETATM    7  C5  UNL     1       1.156  19.705   1.138  1.00  0.00     0.027 C 
BRANCH   7   8
HETATM    8  C2  UNL     1       1.713  18.616   1.966  1.00  0.00    -0.018 C 
HETATM    9  C1  UNL     1       2.719  18.991   3.015  1.00  0.00     0.019 C 
HETATM   10  C3  UNL     1       0.641  17.788   2.655  1.00  0.00     0.019 C 
HETATM   11  C4  UNL     1       2.432  17.600   1.047  1.00  0.00     0.019 C 
ENDBRANCH   7   8
BRANCH   7  12
HETATM   12  C22 UNL     1       1.116  21.042   1.767  1.00  0.00    -0.021 A 
HETATM   13  C23 UNL     1       0.665  21.209   3.070  1.00  0.00     0.013 A 
HETATM   14  C24 UNL     1       0.634  22.429   3.671  1.00  0.00     0.010 A 
HETATM   15  C25 UNL     1       1.051  23.572   3.015  1.00  0.00    -0.029 A 
HETATM   16  C26 UNL     1       1.501  23.419   1.726  1.00  0.00     0.036 A 
HETATM   17  C29 UNL     1       1.119  25.010   3.440  1.00  0.00     0.082 C 
HETATM   18  C27 UNL     1       1.532  22.179   1.114  1.00  0.00     0.042 A 
HETATM   19  N6  UNL     1       1.881  24.726   1.231  1.00  0.00    -0.372 N 
HETATM   20  C28 UNL     1       1.794  25.697   2.292  1.00  0.00     0.183 C 
ATOM     21  H6  UNL     1       2.169  24.929   0.274  1.00  0.00     0.161 HD
HETATM   22 CL1  UNL     1       0.790  27.063   1.694  1.00  0.00    -0.102 Cl
ENDBRANCH   7  12
ENDBRANCH   4   7
ENDBRANCH   1   3
BRANCH   1  23
HETATM   23  C9  UNL     1      -1.724  19.587  -2.160  1.00  0.00     0.144 A 
HETATM   24  N2  UNL     1      -3.032  19.912  -2.152  1.00  0.00    -0.270 N 
HETATM   25  N3  UNL     1      -3.204  21.098  -2.666  1.00  0.00    -0.227 N 
ATOM     26  H2  UNL     1      -3.779  19.317  -1.796  1.00  0.00     0.190 HD
HETATM   27  N4  UNL     1      -2.007  21.526  -2.999  1.00  0.00    -0.224 N 
ATOM     28  H3  UNL     1      -4.088  21.592  -2.784  1.00  0.00     0.210 HD
HETATM   29  N5  UNL     1      -1.078  20.599  -2.692  1.00  0.00    -0.256 N 
ATOM     30  H4  UNL     1      -1.810  22.429  -3.429  1.00  0.00     0.210 HD
BRANCH  29  31
HETATM   31  C10 UNL     1       0.315  20.832  -2.957  1.00  0.00     0.111 C 
HETATM   32  C11 UNL     1       0.614  22.278  -3.291  1.00  0.00     0.027 C 
HETATM   33  C12 UNL     1       1.178  22.328  -4.674  1.00  0.00     0.002 C 
HETATM   34  C13 UNL     1       0.649  21.090  -5.366  1.00  0.00     0.002 C 
HETATM   35  C14 UNL     1       0.669  20.089  -4.259  1.00  0.00     0.027 C 
ENDBRANCH  29  31
ENDBRANCH   1  23
BRANCH   1  36
HETATM   36  C15 UNL     1      -0.806  17.485  -2.808  1.00  0.00     0.038 A 
HETATM   37  C16 UNL     1      -0.728  16.062  -2.981  1.00  0.00    -0.033 A 
HETATM   38  C17 UNL     1      -1.399  14.969  -2.271  1.00  0.00     0.016 C 
HETATM   39  C18 UNL     1       0.568  15.545  -3.668  1.00  0.00     0.016 C 
HETATM   40  C19 UNL     1      -1.642  16.930  -3.867  1.00  0.00    -0.033 A 
HETATM   41  C20 UNL     1      -3.098  16.704  -3.889  1.00  0.00     0.016 C 
HETATM   42  C21 UNL     1      -1.117  17.028  -5.337  1.00  0.00     0.016 C 
ENDBRANCH   1  36
TORSDOF 7
ENDMDL
MODEL 5
REMARK VINA RESULT: -6.748702292      2.096      3.600
REMARK  7 active torsions:
REMARK  status: ('A' for Active; 'I' for Inactive)
REMARK    1  A    between atoms: C2_2  and  C5_5 
REMARK    2  A    between atoms: C5_5  and  C6_6 
REMARK    3  A    between atoms: C5_5  and  C22_32 
REMARK       I    between atoms: C6_6  and  N1_8 
REMARK    4  A    between atoms: N1_8  and  C7_10 
REMARK    5  A    between atoms: C7_10  and  C9_12 
REMARK    6  A    between atoms: C7_10  and  C15_25 
REMARK    7  A    between atoms: N5_19  and  C10_20 
ROOT
HETATM    1  C7  UNL     1      -1.716  20.485  -2.480  1.00  0.00     0.096 C 
HETATM    2  C8  UNL     1      -2.414  21.769  -2.391  1.00  0.00     0.047 C 
ENDROOT
BRANCH   1   3
HETATM    3  N1  UNL     1      -0.526  20.597  -1.613  1.00  0.00    -0.341 N 
HETATM    4  C6  UNL     1       0.509  19.682  -1.477  1.00  0.00     0.250 C 
HETATM    5  O1  UNL     1       0.501  18.615  -2.132  1.00  0.00    -0.268 OA
ATOM      6  H1  UNL     1      -0.455  21.444  -1.050  1.00  0.00     0.164 HD
BRANCH   4   7
HETATM    7  C5  UNL     1       1.674  19.877  -0.582  1.00  0.00     0.027 C 
BRANCH   7   8
HETATM    8  C2  UNL     1       2.301  18.653  -0.041  1.00  0.00    -0.018 C 
HETATM    9  C1  UNL     1       3.349  18.826   1.020  1.00  0.00     0.019 C 
HETATM   10  C3  UNL     1       1.288  17.655   0.494  1.00  0.00     0.019 C 
HETATM   11  C4  UNL     1       3.000  17.892  -1.193  1.00  0.00     0.019 C 
ENDBRANCH   7   8
BRANCH   7  12
HETATM   12  C22 UNL     1       1.479  20.984   0.378  1.00  0.00    -0.021 A 
HETATM   13  C23 UNL     1       0.820  20.780   1.583  1.00  0.00     0.013 A 
HETATM   14  C24 UNL     1       0.642  21.783   2.485  1.00  0.00     0.010 A 
HETATM   15  C25 UNL     1       1.111  23.062   2.251  1.00  0.00    -0.029 A 
HETATM   16  C26 UNL     1       1.765  23.275   1.062  1.00  0.00     0.036 A 
HETATM   17  C29 UNL     1       1.049  24.323   3.063  1.00  0.00     0.082 C 
HETATM   18  C27 UNL     1       1.946  22.256   0.143  1.00  0.00     0.042 A 
HETATM   19  N6  UNL     1       2.165  24.667   1.019  1.00  0.00    -0.372 N 
HETATM   20  C28 UNL     1       1.870  25.301   2.277  1.00  0.00     0.183 C 
ATOM     21  H6  UNL     1       2.592  25.129   0.216  1.00  0.00     0.161 HD
HETATM   22 CL1  UNL     1       0.917  26.784   1.926  1.00  0.00    -0.102 Cl
ENDBRANCH   7  12
ENDBRANCH   4   7
ENDBRANCH   1   3
BRANCH   1  23
HETATM   23  C9  UNL     1      -1.154  20.086  -3.789  1.00  0.00     0.144 A 
HETATM   24  N2  UNL     1      -0.135  20.782  -4.329  1.00  0.00    -0.270 N 
HETATM   25  N3  UNL     1       0.216  20.255  -5.468  1.00  0.00    -0.227 N 
ATOM     26  H2  UNL     1       0.300  21.604  -3.908  1.00  0.00     0.190 HD
HETATM   27  N4  UNL     1      -0.578  19.226  -5.651  1.00  0.00    -0.224 N 
ATOM     28  H3  UNL     1       0.958  20.578  -6.090  1.00  0.00     0.210 HD
HETATM   29  N5  UNL     1      -1.435  19.107  -4.618  1.00  0.00    -0.256 N 
ATOM     30  H4  UNL     1      -0.551  18.605  -6.460  1.00  0.00     0.210 HD
BRANCH  29  31
HETATM   31  C10 UNL     1      -2.408  18.051  -4.581  1.00  0.00     0.111 C 
HETATM   32  C11 UNL     1      -1.988  16.839  -5.384  1.00  0.00     0.027 C 
HETATM   33  C12 UNL     1      -2.996  16.627  -6.467  1.00  0.00     0.002 C 
HETATM   34  C13 UNL     1      -3.616  17.987  -6.705  1.00  0.00     0.002 C 
HETATM   35  C14 UNL     1      -3.661  18.550  -5.324  1.00  0.00     0.027 C 
ENDBRANCH  29  31
ENDBRANCH   1  23
BRANCH   1  36
HETATM   36  C15 UNL     1      -2.539  19.295  -2.017  1.00  0.00     0.038 A 
HETATM   37  C16 UNL     1      -2.720  18.767  -0.695  1.00  0.00    -0.033 A 
HETATM   38  C17 UNL     1      -2.517  19.380   0.621  1.00  0.00     0.016 C 
HETATM   39  C18 UNL     1      -2.665  17.217  -0.584  1.00  0.00     0.016 C 
HETATM   40  C19 UNL     1      -3.904  19.327  -1.506  1.00  0.00    -0.033 A 
HETATM   41  C20 UNL     1      -4.687  20.467  -0.997  1.00  0.00     0.016 C 
HETATM   42  C21 UNL     1      -4.884  18.200  -1.972  1.00  0.00     0.016 C 
ENDBRANCH   1  36
TORSDOF 7
ENDMDL
