MODEL 1
REMARK VINA RESULT: -6.142982777      0.000      0.000
REMARK  7 active torsions:
REMARK  status: ('A' for Active; 'I' for Inactive)
REMARK    1  A    between atoms: N1_2  and  C2_3 
REMARK    2  A    between atoms: N1_2  and  C10_12 
REMARK    3  A    between atoms: C2_3  and  C3_4 
REMARK    4  A    between atoms: C3_4  and  N2_5 
REMARK    5  A    between atoms: C13_15  and  C14_16 
REMARK    6  A    between atoms: N4_22  and  C17_24 
REMARK    7  A    between atoms: C20_27  and  O1_28 
ROOT
HETATM    1  C14 UNL     1       1.804  20.622   0.796  1.00  0.00     0.062 A 
HETATM    2  N3  UNL     1       1.909  21.641   1.675  1.00  0.00    -0.324 N 
ATOM      3  H3  UNL     1       1.271  22.428   1.795  1.00  0.00     0.174 HD
HETATM    4  S1  UNL     1       3.303  21.332   2.515  1.00  0.00    -0.010 SA
HETATM    5  C15 UNL     1       3.784  19.882   1.751  1.00  0.00     0.079 A 
HETATM    6  C16 UNL     1       4.872  19.017   1.889  1.00  0.00     0.121 A 
HETATM    7  N4  UNL     1       5.759  19.215   2.737  1.00  0.00    -0.370 N 
ATOM      8  H4  UNL     1       6.457  18.474   2.676  1.00  0.00     0.161 HD
HETATM    9  N5  UNL     1       4.993  17.913   1.084  1.00  0.00    -0.350 N 
ATOM     10  H5  UNL     1       5.778  17.267   1.169  1.00  0.00     0.166 HD
HETATM   11  C23 UNL     1       4.037  17.735   0.195  1.00  0.00     0.114 A 
HETATM   12  C24 UNL     1       2.935  18.554   0.008  1.00  0.00     0.063 A 
HETATM   13 CL1  UNL     1       1.873  18.106  -1.284  1.00  0.00    -0.082 Cl
HETATM   14  C25 UNL     1       2.784  19.690   0.822  1.00  0.00     0.037 A 
ENDROOT
BRANCH   1  15
HETATM   15  C13 UNL     1       0.601  20.701  -0.086  1.00  0.00    -0.006 A 
HETATM   16  C12 UNL     1      -0.507  19.938   0.287  1.00  0.00     0.016 A 
HETATM   17  C11 UNL     1      -1.617  19.906  -0.526  1.00  0.00     0.032 A 
HETATM   18  C10 UNL     1      -1.677  20.610  -1.716  1.00  0.00     0.051 A 
HETATM   19  C27 UNL     1      -0.578  21.355  -2.066  1.00  0.00     0.061 A 
HETATM   20  C26 UNL     1       0.543  21.389  -1.249  1.00  0.00     0.040 A 
HETATM   21 CL2  UNL     1      -0.593  22.279  -3.552  1.00  0.00    -0.082 Cl
BRANCH  18  22
HETATM   22  N1  UNL     1      -2.867  20.495  -2.475  1.00  0.00    -0.381 N 
HETATM   23  C1  UNL     1      -4.116  20.805  -1.818  1.00  0.00     0.150 C 
BRANCH  22  24
HETATM   24  C2  UNL     1      -2.750  20.056  -3.848  1.00  0.00     0.153 C 
BRANCH  24  25
HETATM   25  C3  UNL     1      -2.517  18.581  -4.019  1.00  0.00     0.043 C 
HETATM   26  C6  UNL     1      -2.987  18.266  -5.452  1.00  0.00     0.032 C 
HETATM   27  C7  UNL     1      -2.182  17.105  -5.928  1.00  0.00     0.002 C 
HETATM   28  C8  UNL     1      -0.852  17.329  -5.290  1.00  0.00     0.002 C 
HETATM   29  C9  UNL     1      -1.048  18.286  -4.141  1.00  0.00     0.032 C 
BRANCH  25  30
HETATM   30  N2  UNL     1      -3.208  17.838  -3.056  1.00  0.00    -0.410 N 
HETATM   31  C4  UNL     1      -4.491  17.362  -3.454  1.00  0.00     0.143 C 
HETATM   32  C5  UNL     1      -2.501  16.845  -2.338  1.00  0.00     0.143 C 
ENDBRANCH  25  30
ENDBRANCH  24  25
ENDBRANCH  22  24
ENDBRANCH  18  22
ENDBRANCH   1  15
BRANCH   7  33
HETATM   33  C17 UNL     1       6.116  20.103   3.736  1.00  0.00     0.083 C 
HETATM   34  C18 UNL     1       6.702  19.407   4.965  1.00  0.00     0.028 C 
HETATM   35  C19 UNL     1       8.061  18.850   4.711  1.00  0.00     0.034 C 
HETATM   36  C20 UNL     1       8.500  18.866   3.285  1.00  0.00     0.118 C 
HETATM   37  C21 UNL     1       8.243  20.143   2.556  1.00  0.00     0.034 C 
HETATM   38  C22 UNL     1       7.233  21.036   3.239  1.00  0.00     0.028 C 
BRANCH  36  39
HETATM   39  O1  UNL     1       9.900  18.670   3.285  1.00  0.00    -0.396 OA
ATOM     40  H1  UNL     1      10.252  19.197   2.577  1.00  0.00     0.210 HD
ENDBRANCH  36  39
ENDBRANCH   7  33
TORSDOF 7
ENDMDL
MODEL 2
REMARK VINA RESULT: -6.062292501      0.836      1.386
REMARK  7 active torsions:
REMARK  status: ('A' for Active; 'I' for Inactive)
REMARK    1  A    between atoms: N1_2  and  C2_3 
REMARK    2  A    between atoms: N1_2  and  C10_12 
REMARK    3  A    between atoms: C2_3  and  C3_4 
REMARK    4  A    between atoms: C3_4  and  N2_5 
REMARK    5  A    between atoms: C13_15  and  C14_16 
REMARK    6  A    between atoms: N4_22  and  C17_24 
REMARK    7  A    between atoms: C20_27  and  O1_28 
ROOT
HETATM    1  C14 UNL     1       1.866  20.552   0.883  1.00  0.00     0.062 A 
HETATM    2  N3  UNL     1       1.913  21.516   1.828  1.00  0.00    -0.324 N 
ATOM      3  H3  UNL     1       1.263  22.290   1.960  1.00  0.00     0.174 HD
HETATM    4  S1  UNL     1       3.259  21.161   2.725  1.00  0.00    -0.010 SA
HETATM    5  C15 UNL     1       3.795  19.763   1.901  1.00  0.00     0.079 A 
HETATM    6  C16 UNL     1       4.880  18.897   2.047  1.00  0.00     0.121 A 
HETATM    7  N4  UNL     1       5.716  19.045   2.956  1.00  0.00    -0.370 N 
ATOM      8  H4  UNL     1       6.423  18.313   2.889  1.00  0.00     0.161 HD
HETATM    9  N5  UNL     1       5.056  17.845   1.183  1.00  0.00    -0.350 N 
ATOM     10  H5  UNL     1       5.839  17.198   1.273  1.00  0.00     0.166 HD
HETATM   11  C23 UNL     1       4.153  17.719   0.232  1.00  0.00     0.114 A 
HETATM   12  C24 UNL     1       3.057  18.543   0.034  1.00  0.00     0.063 A 
HETATM   13 CL1  UNL     1       2.073  18.172  -1.342  1.00  0.00    -0.082 Cl
HETATM   14  C25 UNL     1       2.850  19.626   0.907  1.00  0.00     0.037 A 
ENDROOT
BRANCH   1  15
HETATM   15  C13 UNL     1       0.715  20.681  -0.060  1.00  0.00    -0.006 A 
HETATM   16  C12 UNL     1      -0.437  19.954   0.247  1.00  0.00     0.016 A 
HETATM   17  C11 UNL     1      -1.503  19.967  -0.623  1.00  0.00     0.032 A 
HETATM   18  C10 UNL     1      -1.477  20.684  -1.806  1.00  0.00     0.051 A 
HETATM   19  C27 UNL     1      -0.336  21.393  -2.091  1.00  0.00     0.061 A 
HETATM   20  C26 UNL     1       0.741  21.381  -1.216  1.00  0.00     0.040 A 
HETATM   21 CL2  UNL     1      -0.241  22.330  -3.566  1.00  0.00    -0.082 Cl
BRANCH  18  22
HETATM   22  N1  UNL     1      -2.629  20.617  -2.628  1.00  0.00    -0.381 N 
HETATM   23  C1  UNL     1      -3.222  21.862  -3.056  1.00  0.00     0.150 C 
BRANCH  22  24
HETATM   24  C2  UNL     1      -3.142  19.307  -2.963  1.00  0.00     0.153 C 
BRANCH  24  25
HETATM   25  C3  UNL     1      -2.581  18.716  -4.226  1.00  0.00     0.043 C 
HETATM   26  C6  UNL     1      -3.087  17.261  -4.244  1.00  0.00     0.032 C 
HETATM   27  C7  UNL     1      -3.200  16.858  -5.676  1.00  0.00     0.002 C 
HETATM   28  C8  UNL     1      -3.621  18.120  -6.351  1.00  0.00     0.002 C 
HETATM   29  C9  UNL     1      -3.288  19.267  -5.432  1.00  0.00     0.032 C 
BRANCH  25  30
HETATM   30  N2  UNL     1      -1.185  18.794  -4.252  1.00  0.00    -0.410 N 
HETATM   31  C4  UNL     1      -0.497  17.625  -3.814  1.00  0.00     0.143 C 
HETATM   32  C5  UNL     1      -0.563  19.348  -5.396  1.00  0.00     0.143 C 
ENDBRANCH  25  30
ENDBRANCH  24  25
ENDBRANCH  22  24
ENDBRANCH  18  22
ENDBRANCH   1  15
BRANCH   7  33
HETATM   33  C17 UNL     1       6.009  19.871   4.026  1.00  0.00     0.083 C 
HETATM   34  C18 UNL     1       6.699  19.131   5.172  1.00  0.00     0.028 C 
HETATM   35  C19 UNL     1       8.100  18.744   4.841  1.00  0.00     0.034 C 
HETATM   36  C20 UNL     1       8.493  18.937   3.415  1.00  0.00     0.118 C 
HETATM   37  C21 UNL     1       8.085  20.241   2.814  1.00  0.00     0.034 C 
HETATM   38  C22 UNL     1       7.010  20.957   3.597  1.00  0.00     0.028 C 
BRANCH  36  39
HETATM   39  O1  UNL     1       9.906  18.890   3.369  1.00  0.00    -0.396 OA
ATOM     40  H1  UNL     1      10.151  17.972   3.359  1.00  0.00     0.210 HD
ENDBRANCH  36  39
ENDBRANCH   7  33
TORSDOF 7
ENDMDL
MODEL 3
REMARK VINA RESULT: -6.011275284      5.944     10.224
REMARK  7 active torsions:
REMARK  status: ('A' for Active; 'I' for Inactive)
REMARK    1  A    between atoms: N1_2  and  C2_3 
REMARK    2  A    between atoms: N1_2  and  C10_12 
REMARK    3  A    between atoms: C2_3  and  C3_4 
REMARK    4  A    between atoms: C3_4  and  N2_5 
REMARK    5  A    between atoms: C13_15  and  C14_16 
REMARK    6  A    between atoms: N4_22  and  C17_24 
REMARK    7  A    between atoms: C20_27  and  O1_28 
ROOT
HETATM    1  C14 UNL     1       1.424  22.098   3.795  1.00  0.00     0.062 A 
HETATM    2  N3  UNL     1       0.710  21.505   4.776  1.00  0.00    -0.324 N 
ATOM      3  H3  UNL     1       0.808  20.553   5.128  1.00  0.00     0.174 HD
HETATM    4  S1  UNL     1      -0.358  22.665   5.281  1.00  0.00    -0.010 SA
HETATM    5  C15 UNL     1       0.089  23.942   4.238  1.00  0.00     0.079 A 
HETATM    6  C16 UNL     1      -0.364  25.248   4.040  1.00  0.00     0.121 A 
HETATM    7  N4  UNL     1      -1.283  25.731   4.724  1.00  0.00    -0.370 N 
ATOM      8  H4  UNL     1      -1.461  26.689   4.424  1.00  0.00     0.161 HD
HETATM    9  N5  UNL     1       0.200  26.045   3.075  1.00  0.00    -0.350 N 
ATOM     10  H5  UNL     1      -0.113  27.002   2.915  1.00  0.00     0.166 HD
HETATM   11  C23 UNL     1       1.169  25.501   2.368  1.00  0.00     0.114 A 
HETATM   12  C24 UNL     1       1.663  24.215   2.515  1.00  0.00     0.063 A 
HETATM   13 CL1  UNL     1       2.902  23.750   1.397  1.00  0.00    -0.082 Cl
HETATM   14  C25 UNL     1       1.107  23.378   3.499  1.00  0.00     0.037 A 
ENDROOT
BRANCH   1  15
HETATM   15  C13 UNL     1       2.460  21.216   3.178  1.00  0.00    -0.006 A 
HETATM   16  C12 UNL     1       3.701  21.160   3.815  1.00  0.00     0.016 A 
HETATM   17  C11 UNL     1       4.723  20.429   3.253  1.00  0.00     0.032 A 
HETATM   18  C10 UNL     1       4.564  19.738   2.064  1.00  0.00     0.051 A 
HETATM   19  C27 UNL     1       3.336  19.804   1.453  1.00  0.00     0.061 A 
HETATM   20  C26 UNL     1       2.305  20.541   2.017  1.00  0.00     0.040 A 
HETATM   21 CL2  UNL     1       3.066  18.944  -0.046  1.00  0.00    -0.082 Cl
BRANCH  18  22
HETATM   22  N1  UNL     1       5.688  19.027   1.576  1.00  0.00    -0.381 N 
HETATM   23  C1  UNL     1       5.521  17.620   1.293  1.00  0.00     0.150 C 
BRANCH  22  24
HETATM   24  C2  UNL     1       6.927  19.754   1.415  1.00  0.00     0.153 C 
BRANCH  24  25
HETATM   25  C3  UNL     1       8.050  19.287   2.298  1.00  0.00     0.043 C 
HETATM   26  C6  UNL     1       8.465  20.531   3.107  1.00  0.00     0.032 C 
HETATM   27  C7  UNL     1       9.004  20.042   4.409  1.00  0.00     0.002 C 
HETATM   28  C8  UNL     1       8.164  18.843   4.695  1.00  0.00     0.002 C 
HETATM   29  C9  UNL     1       7.530  18.406   3.399  1.00  0.00     0.032 C 
BRANCH  25  30
HETATM   30  N2  UNL     1       9.107  18.762   1.548  1.00  0.00    -0.410 N 
HETATM   31  C4  UNL     1       9.215  17.341   1.552  1.00  0.00     0.143 C 
HETATM   32  C5  UNL     1       9.336  19.282   0.252  1.00  0.00     0.143 C 
ENDBRANCH  25  30
ENDBRANCH  24  25
ENDBRANCH  22  24
ENDBRANCH  18  22
ENDBRANCH   1  15
BRANCH   7  33
HETATM   33  C17 UNL     1      -2.146  25.403   5.754  1.00  0.00     0.083 C 
HETATM   34  C18 UNL     1      -1.712  25.988   7.098  1.00  0.00     0.028 C 
HETATM   35  C19 UNL     1      -1.893  27.466   7.162  1.00  0.00     0.034 C 
HETATM   36  C20 UNL     1      -2.237  28.122   5.867  1.00  0.00     0.118 C 
HETATM   37  C21 UNL     1      -3.294  27.434   5.067  1.00  0.00     0.034 C 
HETATM   38  C22 UNL     1      -3.537  26.005   5.491  1.00  0.00     0.028 C 
BRANCH  36  39
HETATM   39  O1  UNL     1      -2.733  29.409   6.178  1.00  0.00    -0.396 OA
ATOM     40  H1  UNL     1      -2.417  29.997   5.501  1.00  0.00     0.210 HD
ENDBRANCH  36  39
ENDBRANCH   7  33
TORSDOF 7
ENDMDL
MODEL 4
REMARK VINA RESULT: -5.942216147      3.645     10.160
REMARK  7 active torsions:
REMARK  status: ('A' for Active; 'I' for Inactive)
REMARK    1  A    between atoms: N1_2  and  C2_3 
REMARK    2  A    between atoms: N1_2  and  C10_12 
REMARK    3  A    between atoms: C2_3  and  C3_4 
REMARK    4  A    between atoms: C3_4  and  N2_5 
REMARK    5  A    between atoms: C13_15  and  C14_16 
REMARK    6  A    between atoms: N4_22  and  C17_24 
REMARK    7  A    between atoms: C20_27  and  O1_28 
ROOT
HETATM    1  C14 UNL     1       3.680  20.414   1.492  1.00  0.00     0.062 A 
HETATM    2  N3  UNL     1       3.486  21.746   1.396  1.00  0.00    -0.324 N 
ATOM      3  H3  UNL     1       3.976  22.485   1.901  1.00  0.00     0.174 HD
HETATM    4  S1  UNL     1       2.278  21.918   0.277  1.00  0.00    -0.010 SA
HETATM    5  C15 UNL     1       1.992  20.274  -0.092  1.00  0.00     0.079 A 
HETATM    6  C16 UNL     1       1.107  19.600  -0.936  1.00  0.00     0.121 A 
HETATM    7  N4  UNL     1       0.299  20.212  -1.657  1.00  0.00    -0.370 N 
ATOM      8  H4  UNL     1      -0.252  19.541  -2.193  1.00  0.00     0.161 HD
HETATM    9  N5  UNL     1       1.103  18.229  -0.994  1.00  0.00    -0.350 N 
ATOM     10  H5  UNL     1       0.467  17.717  -1.604  1.00  0.00     0.166 HD
HETATM   11  C23 UNL     1       1.969  17.614  -0.215  1.00  0.00     0.114 A 
HETATM   12  C24 UNL     1       2.872  18.223   0.642  1.00  0.00     0.063 A 
HETATM   13 CL1  UNL     1       3.847  17.154   1.594  1.00  0.00    -0.082 Cl
HETATM   14  C25 UNL     1       2.900  19.627   0.718  1.00  0.00     0.037 A 
ENDROOT
BRANCH   1  15
HETATM   15  C13 UNL     1       4.740  20.022   2.469  1.00  0.00    -0.006 A 
HETATM   16  C12 UNL     1       6.058  20.035   2.009  1.00  0.00     0.016 A 
HETATM   17  C11 UNL     1       7.073  19.609   2.835  1.00  0.00     0.032 A 
HETATM   18  C10 UNL     1       6.832  19.161   4.123  1.00  0.00     0.051 A 
HETATM   19  C27 UNL     1       5.530  19.155   4.557  1.00  0.00     0.061 A 
HETATM   20  C26 UNL     1       4.505  19.584   3.726  1.00  0.00     0.040 A 
HETATM   21 CL2  UNL     1       5.159  18.612   6.179  1.00  0.00    -0.082 Cl
BRANCH  18  22
HETATM   22  N1  UNL     1       7.953  18.738   4.879  1.00  0.00    -0.381 N 
HETATM   23  C1  UNL     1       9.045  19.669   5.039  1.00  0.00     0.150 C 
BRANCH  22  24
HETATM   24  C2  UNL     1       7.933  17.397   5.420  1.00  0.00     0.153 C 
BRANCH  24  25
HETATM   25  C3  UNL     1       8.197  16.310   4.417  1.00  0.00     0.043 C 
HETATM   26  C6  UNL     1       6.862  16.123   3.671  1.00  0.00     0.032 C 
HETATM   27  C7  UNL     1       7.195  15.647   2.297  1.00  0.00     0.002 C 
HETATM   28  C8  UNL     1       8.471  16.357   1.992  1.00  0.00     0.002 C 
HETATM   29  C9  UNL     1       9.066  16.816   3.299  1.00  0.00     0.032 C 
BRANCH  25  30
HETATM   30  N2  UNL     1       8.630  15.134   5.038  1.00  0.00    -0.410 N 
HETATM   31  C4  UNL     1      10.003  14.807   4.842  1.00  0.00     0.143 C 
HETATM   32  C5  UNL     1       8.240  14.898   6.377  1.00  0.00     0.143 C 
ENDBRANCH  25  30
ENDBRANCH  24  25
ENDBRANCH  22  24
ENDBRANCH  18  22
ENDBRANCH   1  15
BRANCH   7  33
HETATM   33  C17 UNL     1      -0.103  21.496  -1.975  1.00  0.00     0.083 C 
HETATM   34  C18 UNL     1       0.692  22.094  -3.136  1.00  0.00     0.028 C 
HETATM   35  C19 UNL     1       0.356  21.461  -4.443  1.00  0.00     0.034 C 
HETATM   36  C20 UNL     1      -0.497  20.240  -4.359  1.00  0.00     0.118 C 
HETATM   37  C21 UNL     1      -1.668  20.346  -3.439  1.00  0.00     0.034 C 
HETATM   38  C22 UNL     1      -1.563  21.489  -2.457  1.00  0.00     0.028 C 
BRANCH  36  39
HETATM   39  O1  UNL     1      -1.015  20.011  -5.654  1.00  0.00    -0.396 OA
ATOM     40  H1  UNL     1      -1.956  20.133  -5.600  1.00  0.00     0.210 HD
ENDBRANCH  36  39
ENDBRANCH   7  33
TORSDOF 7
ENDMDL
MODEL 5
REMARK VINA RESULT: -5.928792176      0.687      1.137
REMARK  7 active torsions:
REMARK  status: ('A' for Active; 'I' for Inactive)
REMARK    1  A    between atoms: N1_2  and  C2_3 
REMARK    2  A    between atoms: N1_2  and  C10_12 
REMARK    3  A    between atoms: C2_3  and  C3_4 
REMARK    4  A    between atoms: C3_4  and  N2_5 
REMARK    5  A    between atoms: C13_15  and  C14_16 
REMARK    6  A    between atoms: N4_22  and  C17_24 
REMARK    7  A    between atoms: C20_27  and  O1_28 
ROOT
HETATM    1  C14 UNL     1       1.667  20.509   0.778  1.00  0.00     0.062 A 
HETATM    2  N3  UNL     1       1.715  21.513   1.679  1.00  0.00    -0.324 N 
ATOM      3  H3  UNL     1       1.037  22.262   1.813  1.00  0.00     0.174 HD
HETATM    4  S1  UNL     1       3.119  21.259   2.520  1.00  0.00    -0.010 SA
HETATM    5  C15 UNL     1       3.679  19.853   1.727  1.00  0.00     0.079 A 
HETATM    6  C16 UNL     1       4.810  19.043   1.853  1.00  0.00     0.121 A 
HETATM    7  N4  UNL     1       5.682  19.269   2.710  1.00  0.00    -0.370 N 
ATOM      8  H4  UNL     1       6.418  18.567   2.637  1.00  0.00     0.161 HD
HETATM    9  N5  UNL     1       4.992  17.964   1.024  1.00  0.00    -0.350 N 
ATOM     10  H5  UNL     1       5.809  17.358   1.100  1.00  0.00     0.166 HD
HETATM   11  C23 UNL     1       4.051  17.757   0.127  1.00  0.00     0.114 A 
HETATM   12  C24 UNL     1       2.909  18.520  -0.048  1.00  0.00     0.063 A 
HETATM   13 CL1  UNL     1       1.877  18.046  -1.356  1.00  0.00    -0.082 Cl
HETATM   14  C25 UNL     1       2.694  19.630   0.789  1.00  0.00     0.037 A 
ENDROOT
BRANCH   1  15
HETATM   15  C13 UNL     1       0.466  20.545  -0.109  1.00  0.00    -0.006 A 
HETATM   16  C12 UNL     1      -0.603  19.717   0.242  1.00  0.00     0.016 A 
HETATM   17  C11 UNL     1      -1.706  19.645  -0.578  1.00  0.00     0.032 A 
HETATM   18  C10 UNL     1      -1.797  20.371  -1.753  1.00  0.00     0.051 A 
HETATM   19  C27 UNL     1      -0.737  21.179  -2.081  1.00  0.00     0.061 A 
HETATM   20  C26 UNL     1       0.377  21.253  -1.257  1.00  0.00     0.040 A 
HETATM   21 CL2  UNL     1      -0.793  22.132  -3.547  1.00  0.00    -0.082 Cl
BRANCH  18  22
HETATM   22  N1  UNL     1      -2.977  20.210  -2.521  1.00  0.00    -0.381 N 
HETATM   23  C1  UNL     1      -4.243  20.276  -1.829  1.00  0.00     0.150 C 
BRANCH  22  24
HETATM   24  C2  UNL     1      -2.829  19.971  -3.939  1.00  0.00     0.153 C 
BRANCH  24  25
HETATM   25  C3  UNL     1      -2.493  18.553  -4.307  1.00  0.00     0.043 C 
HETATM   26  C6  UNL     1      -1.042  18.607  -4.821  1.00  0.00     0.032 C 
HETATM   27  C7  UNL     1      -0.428  17.279  -4.531  1.00  0.00     0.002 C 
HETATM   28  C8  UNL     1      -1.064  16.885  -3.241  1.00  0.00     0.002 C 
HETATM   29  C9  UNL     1      -2.314  17.712  -3.074  1.00  0.00     0.032 C 
BRANCH  25  30
HETATM   30  N2  UNL     1      -3.379  18.048  -5.263  1.00  0.00    -0.410 N 
HETATM   31  C4  UNL     1      -4.499  17.334  -4.745  1.00  0.00     0.143 C 
HETATM   32  C5  UNL     1      -3.767  18.890  -6.332  1.00  0.00     0.143 C 
ENDBRANCH  25  30
ENDBRANCH  24  25
ENDBRANCH  22  24
ENDBRANCH  18  22
ENDBRANCH   1  15
BRANCH   7  33
HETATM   33  C17 UNL     1       5.988  20.152   3.729  1.00  0.00     0.083 C 
HETATM   34  C18 UNL     1       6.521  19.451   4.979  1.00  0.00     0.028 C 
HETATM   35  C19 UNL     1       7.893  18.903   4.785  1.00  0.00     0.034 C 
HETATM   36  C20 UNL     1       8.397  18.931   3.381  1.00  0.00     0.118 C 
HETATM   37  C21 UNL     1       8.166  20.211   2.648  1.00  0.00     0.034 C 
HETATM   38  C22 UNL     1       7.121  21.094   3.290  1.00  0.00     0.028 C 
BRANCH  36  39
HETATM   39  O1  UNL     1       9.797  18.743   3.444  1.00  0.00    -0.396 OA
ATOM     40  H1  UNL     1      10.015  18.080   2.798  1.00  0.00     0.210 HD
ENDBRANCH  36  39
ENDBRANCH   7  33
TORSDOF 7
ENDMDL
