MODEL 1
REMARK VINA RESULT: -7.531978189      0.000      0.000
REMARK  7 active torsions:
REMARK  status: ('A' for Active; 'I' for Inactive)
REMARK    1  A    between atoms: C2_2  and  C3_3 
REMARK    2  A    between atoms: C2_2  and  C17_28 
REMARK       I    between atoms: C3_3  and  N1_5 
REMARK    3  A    between atoms: N1_5  and  C4_7 
REMARK    4  A    between atoms: C7_10  and  N2_11 
REMARK    5  A    between atoms: C10_16  and  S1_17 
REMARK    6  A    between atoms: C20_31  and  N5_32 
REMARK    7  A    between atoms: C24_36  and  N6_37 
ROOT
HETATM    1  C3  UNL     1       3.327  21.953   1.115  1.00  0.00     0.248 C 
HETATM    2  O1  UNL     1       4.037  23.009   1.066  1.00  0.00    -0.268 OA
HETATM    3  N1  UNL     1       3.815  20.670   1.254  1.00  0.00    -0.336 N 
ATOM      4  H1  UNL     1       3.112  19.932   1.224  1.00  0.00     0.164 HD
ENDROOT
BRANCH   3   5
HETATM    5  C4  UNL     1       5.161  20.225   1.436  1.00  0.00     0.182 C 
HETATM    6  C5  UNL     1       5.230  18.815   2.010  1.00  0.00     0.049 C 
HETATM    7  C6  UNL     1       5.002  18.848   3.505  1.00  0.00     0.034 C 
HETATM    8  C7  UNL     1       6.278  19.480   4.072  1.00  0.00     0.144 C 
HETATM    9  C16 UNL     1       6.765  20.594   3.224  1.00  0.00     0.290 C 
HETATM   10  F1  UNL     1       7.051  21.663   4.115  1.00  0.00    -0.225 F 
HETATM   11  N4  UNL     1       5.922  21.120   2.208  1.00  0.00    -0.371 N 
ATOM     12  H4  UNL     1       5.871  22.126   2.042  1.00  0.00     0.158 HD
BRANCH   8  13
HETATM   13  N2  UNL     1       7.260  18.399   4.135  1.00  0.00    -0.332 N 
HETATM   14  C8  UNL     1       8.245  18.075   3.298  1.00  0.00     0.184 A 
HETATM   15  N3  UNL     1       8.890  16.950   3.731  1.00  0.00    -0.349 N 
HETATM   16  C9  UNL     1       8.312  16.543   4.864  1.00  0.00     0.077 A 
ATOM     17  H3  UNL     1       9.679  16.498   3.268  1.00  0.00     0.166 HD
HETATM   18  C10 UNL     1       8.547  15.451   5.704  1.00  0.00     0.030 A 
HETATM   19  C15 UNL     1       7.296  17.447   5.119  1.00  0.00     0.065 A 
HETATM   20  C12 UNL     1       7.731  15.319   6.788  1.00  0.00     0.044 A 
HETATM   21  C13 UNL     1       6.718  16.184   7.086  1.00  0.00     0.037 A 
HETATM   22 CL1  UNL     1       5.657  16.017   8.458  1.00  0.00    -0.084 Cl
HETATM   23  C14 UNL     1       6.500  17.272   6.229  1.00  0.00     0.056 A 
BRANCH  18  24
HETATM   24  S1  UNL     1       9.853  14.316   5.300  1.00  0.00    -0.132 SA
HETATM   25  C11 UNL     1       9.567  12.700   6.086  1.00  0.00     0.095 C 
ENDBRANCH  18  24
ENDBRANCH   8  13
ENDBRANCH   3   5
BRANCH   1  26
HETATM   26  C2  UNL     1       1.873  22.239   1.000  1.00  0.00     0.004 C 
HETATM   27  C1  UNL     1       1.300  22.139  -0.176  1.00  0.00     0.025 C 
BRANCH  26  28
HETATM   28  C17 UNL     1       1.137  22.701   2.173  1.00  0.00     0.023 C 
HETATM   29  C18 UNL     1       1.180  24.170   2.417  1.00  0.00     0.011 C 
HETATM   30  C19 UNL     1       0.982  24.592   3.830  1.00  0.00     0.026 C 
HETATM   31  C20 UNL     1       0.638  23.603   4.857  1.00  0.00     0.083 C 
HETATM   32  C26 UNL     1       0.761  22.156   4.495  1.00  0.00     0.026 C 
HETATM   33  C27 UNL     1       1.794  22.016   3.410  1.00  0.00     0.011 C 
BRANCH  31  34
HETATM   34  N5  UNL     1      -0.621  23.910   5.472  1.00  0.00    -0.387 N 
HETATM   35  C21 UNL     1      -1.474  22.867   5.827  1.00  0.00     0.058 C 
HETATM   36  C22 UNL     1      -2.836  23.396   6.199  1.00  0.00     0.046 C 
HETATM   37  C23 UNL     1      -2.702  24.609   7.061  1.00  0.00     0.039 C 
HETATM   38  C24 UNL     1      -1.959  25.738   6.376  1.00  0.00     0.201 C 
HETATM   39  C25 UNL     1      -1.131  25.201   5.223  1.00  0.00     0.155 C 
BRANCH  38  40
HETATM   40  N6  UNL     1      -1.084  26.463   7.270  1.00  0.00    -0.073 N 
ATOM     41  H63 UNL     1      -1.443  27.400   7.450  1.00  0.00     0.274 HD
ATOM     42  H62 UNL     1      -1.132  26.082   8.215  1.00  0.00     0.274 HD
ATOM     43  H61 UNL     1      -0.119  26.500   6.940  1.00  0.00     0.274 HD
ENDBRANCH  38  40
ENDBRANCH  31  34
ENDBRANCH  26  28
ENDBRANCH   1  26
TORSDOF 7
ENDMDL
MODEL 2
REMARK VINA RESULT: -7.497327137      1.600      2.098
REMARK  7 active torsions:
REMARK  status: ('A' for Active; 'I' for Inactive)
REMARK    1  A    between atoms: C2_2  and  C3_3 
REMARK    2  A    between atoms: C2_2  and  C17_28 
REMARK       I    between atoms: C3_3  and  N1_5 
REMARK    3  A    between atoms: N1_5  and  C4_7 
REMARK    4  A    between atoms: C7_10  and  N2_11 
REMARK    5  A    between atoms: C10_16  and  S1_17 
REMARK    6  A    between atoms: C20_31  and  N5_32 
REMARK    7  A    between atoms: C24_36  and  N6_37 
ROOT
HETATM    1  C3  UNL     1       3.986  21.241   1.536  1.00  0.00     0.248 C 
HETATM    2  O1  UNL     1       3.657  20.445   0.598  1.00  0.00    -0.268 OA
HETATM    3  N1  UNL     1       5.160  21.183   2.257  1.00  0.00    -0.336 N 
ATOM      4  H1  UNL     1       5.243  21.866   3.009  1.00  0.00     0.164 HD
ENDROOT
BRANCH   3   5
HETATM    5  C4  UNL     1       6.278  20.305   2.103  1.00  0.00     0.182 C 
HETATM    6  C5  UNL     1       6.061  18.968   2.802  1.00  0.00     0.049 C 
HETATM    7  C6  UNL     1       6.328  19.105   4.285  1.00  0.00     0.034 C 
HETATM    8  C7  UNL     1       7.848  19.269   4.386  1.00  0.00     0.144 C 
HETATM    9  C16 UNL     1       8.383  20.133   3.306  1.00  0.00     0.290 C 
HETATM   10  F1  UNL     1       9.257  21.054   3.943  1.00  0.00    -0.225 F 
HETATM   11  N4  UNL     1       7.485  20.898   2.513  1.00  0.00    -0.371 N 
ATOM     12  H4  UNL     1       7.712  21.856   2.247  1.00  0.00     0.158 HD
BRANCH   8  13
HETATM   13  N2  UNL     1       8.399  17.918   4.300  1.00  0.00    -0.332 N 
HETATM   14  C8  UNL     1       9.124  17.339   3.345  1.00  0.00     0.184 A 
HETATM   15  N3  UNL     1       9.382  16.034   3.665  1.00  0.00    -0.349 N 
HETATM   16  C9  UNL     1       8.813  15.770   4.843  1.00  0.00     0.077 A 
ATOM     17  H3  UNL     1       9.917  15.375   3.099  1.00  0.00     0.166 HD
HETATM   18  C10 UNL     1       8.739  14.607   5.615  1.00  0.00     0.030 A 
HETATM   19  C15 UNL     1       8.201  16.945   5.243  1.00  0.00     0.065 A 
HETATM   20  C12 UNL     1       8.038  14.683   6.782  1.00  0.00     0.044 A 
HETATM   21  C13 UNL     1       7.419  15.818   7.223  1.00  0.00     0.037 A 
HETATM   22 CL1  UNL     1       6.505  15.926   8.702  1.00  0.00    -0.084 Cl
HETATM   23  C14 UNL     1       7.506  16.972   6.431  1.00  0.00     0.056 A 
BRANCH  18  24
HETATM   24  S1  UNL     1       9.527  13.127   5.026  1.00  0.00    -0.132 SA
HETATM   25  C11 UNL     1      11.338  13.288   5.103  1.00  0.00     0.095 C 
ENDBRANCH  18  24
ENDBRANCH   8  13
ENDBRANCH   3   5
BRANCH   1  26
HETATM   26  C2  UNL     1       2.949  22.274   1.795  1.00  0.00     0.004 C 
HETATM   27  C1  UNL     1       2.822  23.269   0.951  1.00  0.00     0.025 C 
BRANCH  26  28
HETATM   28  C17 UNL     1       2.154  22.202   3.019  1.00  0.00     0.023 C 
HETATM   29  C18 UNL     1       1.415  20.924   3.227  1.00  0.00     0.011 C 
HETATM   30  C19 UNL     1       0.196  21.019   4.074  1.00  0.00     0.026 C 
HETATM   31  C20 UNL     1      -0.141  22.278   4.748  1.00  0.00     0.083 C 
HETATM   32  C26 UNL     1       0.612  23.505   4.342  1.00  0.00     0.026 C 
HETATM   33  C27 UNL     1       1.087  23.333   2.924  1.00  0.00     0.011 C 
BRANCH  31  34
HETATM   34  N5  UNL     1      -0.187  22.108   6.171  1.00  0.00    -0.387 N 
HETATM   35  C21 UNL     1       0.815  21.372   6.800  1.00  0.00     0.058 C 
HETATM   36  C22 UNL     1       0.445  21.083   8.233  1.00  0.00     0.046 C 
HETATM   37  C23 UNL     1      -0.130  22.304   8.874  1.00  0.00     0.039 C 
HETATM   38  C24 UNL     1      -1.386  22.795   8.182  1.00  0.00     0.201 C 
HETATM   39  C25 UNL     1      -1.457  22.247   6.769  1.00  0.00     0.155 C 
BRANCH  38  40
HETATM   40  N6  UNL     1      -1.469  24.237   8.119  1.00  0.00    -0.073 N 
ATOM     41  H63 UNL     1      -0.576  24.641   7.835  1.00  0.00     0.274 HD
ATOM     42  H62 UNL     1      -2.044  24.535   7.332  1.00  0.00     0.274 HD
ATOM     43  H61 UNL     1      -1.797  24.655   8.989  1.00  0.00     0.274 HD
ENDBRANCH  38  40
ENDBRANCH  31  34
ENDBRANCH  26  28
ENDBRANCH   1  26
TORSDOF 7
ENDMDL
MODEL 3
REMARK VINA RESULT: -7.471608037      0.783      1.191
REMARK  7 active torsions:
REMARK  status: ('A' for Active; 'I' for Inactive)
REMARK    1  A    between atoms: C2_2  and  C3_3 
REMARK    2  A    between atoms: C2_2  and  C17_28 
REMARK       I    between atoms: C3_3  and  N1_5 
REMARK    3  A    between atoms: N1_5  and  C4_7 
REMARK    4  A    between atoms: C7_10  and  N2_11 
REMARK    5  A    between atoms: C10_16  and  S1_17 
REMARK    6  A    between atoms: C20_31  and  N5_32 
REMARK    7  A    between atoms: C24_36  and  N6_37 
ROOT
HETATM    1  C3  UNL     1       3.340  22.012   1.091  1.00  0.00     0.248 C 
HETATM    2  O1  UNL     1       4.039  23.076   1.078  1.00  0.00    -0.268 OA
HETATM    3  N1  UNL     1       3.833  20.735   1.260  1.00  0.00    -0.336 N 
ATOM      4  H1  UNL     1       3.141  19.989   1.192  1.00  0.00     0.164 HD
ENDROOT
BRANCH   3   5
HETATM    5  C4  UNL     1       5.172  20.306   1.517  1.00  0.00     0.182 C 
HETATM    6  C5  UNL     1       5.235  18.848   1.958  1.00  0.00     0.049 C 
HETATM    7  C6  UNL     1       4.879  18.730   3.423  1.00  0.00     0.034 C 
HETATM    8  C7  UNL     1       6.080  19.332   4.159  1.00  0.00     0.144 C 
HETATM    9  C16 UNL     1       6.603  20.535   3.469  1.00  0.00     0.290 C 
HETATM   10  F1  UNL     1       6.777  21.518   4.480  1.00  0.00    -0.225 F 
HETATM   11  N4  UNL     1       5.835  21.139   2.436  1.00  0.00    -0.371 N 
ATOM     12  H4  UNL     1       5.766  22.154   2.363  1.00  0.00     0.158 HD
BRANCH   8  13
HETATM   13  N2  UNL     1       7.087  18.273   4.205  1.00  0.00    -0.332 N 
HETATM   14  C8  UNL     1       8.049  17.956   3.341  1.00  0.00     0.184 A 
HETATM   15  N3  UNL     1       8.733  16.852   3.769  1.00  0.00    -0.349 N 
HETATM   16  C9  UNL     1       8.203  16.453   4.928  1.00  0.00     0.077 A 
ATOM     17  H3  UNL     1       9.515  16.409   3.286  1.00  0.00     0.166 HD
HETATM   18  C10 UNL     1       8.490  15.380   5.776  1.00  0.00     0.030 A 
HETATM   19  C15 UNL     1       7.177  17.340   5.203  1.00  0.00     0.065 A 
HETATM   20  C12 UNL     1       7.715  15.249   6.891  1.00  0.00     0.044 A 
HETATM   21  C13 UNL     1       6.694  16.098   7.210  1.00  0.00     0.037 A 
HETATM   22 CL1  UNL     1       5.685  15.933   8.620  1.00  0.00    -0.084 Cl
HETATM   23  C14 UNL     1       6.423  17.166   6.343  1.00  0.00     0.056 A 
BRANCH  18  24
HETATM   24  S1  UNL     1       9.805  14.266   5.346  1.00  0.00    -0.132 SA
HETATM   25  C11 UNL     1       9.552  12.640   6.123  1.00  0.00     0.095 C 
ENDBRANCH  18  24
ENDBRANCH   8  13
ENDBRANCH   3   5
BRANCH   1  26
HETATM   26  C2  UNL     1       1.891  22.281   0.894  1.00  0.00     0.004 C 
HETATM   27  C1  UNL     1       1.324  21.903  -0.226  1.00  0.00     0.025 C 
BRANCH  26  28
HETATM   28  C17 UNL     1       1.155  23.029   1.911  1.00  0.00     0.023 C 
HETATM   29  C18 UNL     1       1.527  24.466   2.041  1.00  0.00     0.011 C 
HETATM   30  C19 UNL     1       1.271  25.076   3.374  1.00  0.00     0.026 C 
HETATM   31  C20 UNL     1       0.575  24.314   4.416  1.00  0.00     0.083 C 
HETATM   32  C26 UNL     1       0.382  22.848   4.190  1.00  0.00     0.026 C 
HETATM   33  C27 UNL     1       1.471  22.352   3.278  1.00  0.00     0.011 C 
BRANCH  31  34
HETATM   34  N5  UNL     1      -0.635  24.971   4.818  1.00  0.00    -0.387 N 
HETATM   35  C21 UNL     1      -1.089  26.065   4.085  1.00  0.00     0.058 C 
HETATM   36  C22 UNL     1      -2.203  26.771   4.816  1.00  0.00     0.046 C 
HETATM   37  C23 UNL     1      -3.161  25.775   5.384  1.00  0.00     0.039 C 
HETATM   38  C24 UNL     1      -2.508  24.831   6.375  1.00  0.00     0.201 C 
HETATM   39  C25 UNL     1      -1.004  24.809   6.170  1.00  0.00     0.155 C 
BRANCH  38  40
HETATM   40  N6  UNL     1      -3.004  23.477   6.275  1.00  0.00    -0.073 N 
ATOM     41  H63 UNL     1      -4.024  23.463   6.250  1.00  0.00     0.274 HD
ATOM     42  H62 UNL     1      -2.809  23.084   5.355  1.00  0.00     0.274 HD
ATOM     43  H61 UNL     1      -2.650  22.868   7.013  1.00  0.00     0.274 HD
ENDBRANCH  38  40
ENDBRANCH  31  34
ENDBRANCH  26  28
ENDBRANCH   1  26
TORSDOF 7
ENDMDL
MODEL 4
REMARK VINA RESULT: -7.459734833      5.586     11.047
REMARK  7 active torsions:
REMARK  status: ('A' for Active; 'I' for Inactive)
REMARK    1  A    between atoms: C2_2  and  C3_3 
REMARK    2  A    between atoms: C2_2  and  C17_28 
REMARK       I    between atoms: C3_3  and  N1_5 
REMARK    3  A    between atoms: N1_5  and  C4_7 
REMARK    4  A    between atoms: C7_10  and  N2_11 
REMARK    5  A    between atoms: C10_16  and  S1_17 
REMARK    6  A    between atoms: C20_31  and  N5_32 
REMARK    7  A    between atoms: C24_36  and  N6_37 
ROOT
HETATM    1  C3  UNL     1       4.835  20.872   2.693  1.00  0.00     0.248 C 
HETATM    2  O1  UNL     1       4.740  21.919   1.975  1.00  0.00    -0.268 OA
HETATM    3  N1  UNL     1       3.775  20.102   3.124  1.00  0.00    -0.336 N 
ATOM      4  H1  UNL     1       4.023  19.325   3.736  1.00  0.00     0.164 HD
ENDROOT
BRANCH   3   5
HETATM    5  C4  UNL     1       2.381  20.234   2.838  1.00  0.00     0.182 C 
HETATM    6  C5  UNL     1       1.949  19.367   1.661  1.00  0.00     0.049 C 
HETATM    7  C6  UNL     1       2.316  20.038   0.356  1.00  0.00     0.034 C 
HETATM    8  C7  UNL     1       1.346  21.219   0.247  1.00  0.00     0.144 C 
HETATM    9  C16 UNL     1       1.136  21.883   1.556  1.00  0.00     0.290 C 
HETATM   10  F1  UNL     1       1.268  23.276   1.311  1.00  0.00    -0.225 F 
HETATM   11  N4  UNL     1       1.998  21.573   2.643  1.00  0.00    -0.371 N 
ATOM     12  H4  UNL     1       2.332  22.307   3.270  1.00  0.00     0.158 HD
BRANCH   8  13
HETATM   13  N2  UNL     1       0.096  20.660  -0.265  1.00  0.00    -0.332 N 
HETATM   14  C8  UNL     1      -0.900  20.045   0.370  1.00  0.00     0.184 A 
HETATM   15  N3  UNL     1      -1.856  19.640  -0.520  1.00  0.00    -0.349 N 
HETATM   16  C9  UNL     1      -1.469  20.000  -1.746  1.00  0.00     0.077 A 
ATOM     17  H3  UNL     1      -2.718  19.147  -0.287  1.00  0.00     0.166 HD
HETATM   18  C10 UNL     1      -2.042  19.816  -3.007  1.00  0.00     0.030 A 
HETATM   19  C15 UNL     1      -0.251  20.638  -1.589  1.00  0.00     0.065 A 
HETATM   20  C12 UNL     1      -1.347  20.299  -4.077  1.00  0.00     0.044 A 
HETATM   21  C13 UNL     1      -0.145  20.939  -3.976  1.00  0.00     0.037 A 
HETATM   22 CL1  UNL     1       0.762  21.544  -5.335  1.00  0.00    -0.084 Cl
HETATM   23  C14 UNL     1       0.411  21.110  -2.700  1.00  0.00     0.056 A 
BRANCH  18  24
HETATM   24  S1  UNL     1      -3.595  18.964  -3.136  1.00  0.00    -0.132 SA
HETATM   25  C11 UNL     1      -3.592  17.831  -4.561  1.00  0.00     0.095 C 
ENDBRANCH  18  24
ENDBRANCH   8  13
ENDBRANCH   3   5
BRANCH   1  26
HETATM   26  C2  UNL     1       6.243  20.547   3.041  1.00  0.00     0.004 C 
HETATM   27  C1  UNL     1       6.610  20.591   4.299  1.00  0.00     0.025 C 
BRANCH  26  28
HETATM   28  C17 UNL     1       7.200  20.268   1.973  1.00  0.00     0.023 C 
HETATM   29  C18 UNL     1       6.833  19.147   1.063  1.00  0.00     0.011 C 
HETATM   30  C19 UNL     1       7.973  18.467   0.390  1.00  0.00     0.026 C 
HETATM   31  C20 UNL     1       9.336  18.987   0.538  1.00  0.00     0.083 C 
HETATM   32  C26 UNL     1       9.571  20.031   1.584  1.00  0.00     0.026 C 
HETATM   33  C27 UNL     1       8.538  19.870   2.666  1.00  0.00     0.011 C 
BRANCH  31  34
HETATM   34  N5  UNL     1       9.896  19.348  -0.732  1.00  0.00    -0.387 N 
HETATM   35  C21 UNL     1      10.354  18.343  -1.582  1.00  0.00     0.058 C 
HETATM   36  C22 UNL     1      11.141  18.931  -2.726  1.00  0.00     0.046 C 
HETATM   37  C23 UNL     1      10.445  20.137  -3.266  1.00  0.00     0.039 C 
HETATM   38  C24 UNL     1      10.279  21.233  -2.232  1.00  0.00     0.201 C 
HETATM   39  C25 UNL     1      10.403  20.660  -0.832  1.00  0.00     0.155 C 
BRANCH  38  40
HETATM   40  N6  UNL     1       9.012  21.919  -2.335  1.00  0.00    -0.073 N 
ATOM     41  H63 UNL     1       8.726  22.013  -3.310  1.00  0.00     0.274 HD
ATOM     42  H62 UNL     1       8.250  21.333  -1.995  1.00  0.00     0.274 HD
ATOM     43  H61 UNL     1       9.010  22.826  -1.867  1.00  0.00     0.274 HD
ENDBRANCH  38  40
ENDBRANCH  31  34
ENDBRANCH  26  28
ENDBRANCH   1  26
TORSDOF 7
ENDMDL
MODEL 5
REMARK VINA RESULT: -7.262784433      2.099      2.801
REMARK  7 active torsions:
REMARK  status: ('A' for Active; 'I' for Inactive)
REMARK    1  A    between atoms: C2_2  and  C3_3 
REMARK    2  A    between atoms: C2_2  and  C17_28 
REMARK       I    between atoms: C3_3  and  N1_5 
REMARK    3  A    between atoms: N1_5  and  C4_7 
REMARK    4  A    between atoms: C7_10  and  N2_11 
REMARK    5  A    between atoms: C10_16  and  S1_17 
REMARK    6  A    between atoms: C20_31  and  N5_32 
REMARK    7  A    between atoms: C24_36  and  N6_37 
ROOT
HETATM    1  C3  UNL     1       3.542  21.930   1.862  1.00  0.00     0.248 C 
HETATM    2  O1  UNL     1       4.136  22.635   0.983  1.00  0.00    -0.268 OA
HETATM    3  N1  UNL     1       3.998  20.728   2.361  1.00  0.00    -0.336 N 
ATOM      4  H1  UNL     1       3.374  20.267   3.023  1.00  0.00     0.164 HD
ENDROOT
BRANCH   3   5
HETATM    5  C4  UNL     1       5.217  20.034   2.086  1.00  0.00     0.182 C 
HETATM    6  C5  UNL     1       5.335  18.739   2.881  1.00  0.00     0.049 C 
HETATM    7  C6  UNL     1       5.781  19.034   4.296  1.00  0.00     0.034 C 
HETATM    8  C7  UNL     1       7.249  19.450   4.155  1.00  0.00     0.144 C 
HETATM    9  C16 UNL     1       7.469  20.301   2.961  1.00  0.00     0.290 C 
HETATM   10  F1  UNL     1       8.252  21.399   3.406  1.00  0.00    -0.225 F 
HETATM   11  N4  UNL     1       6.350  20.845   2.275  1.00  0.00    -0.371 N 
ATOM     12  H4  UNL     1       6.368  21.804   1.926  1.00  0.00     0.158 HD
BRANCH   8  13
HETATM   13  N2  UNL     1       8.006  18.203   4.060  1.00  0.00    -0.332 N 
HETATM   14  C8  UNL     1       8.807  17.750   3.097  1.00  0.00     0.184 A 
HETATM   15  N3  UNL     1       9.270  16.502   3.409  1.00  0.00    -0.349 N 
HETATM   16  C9  UNL     1       8.760  16.146   4.589  1.00  0.00     0.077 A 
ATOM     17  H3  UNL     1       9.899  15.938   2.836  1.00  0.00     0.166 HD
HETATM   18  C10 UNL     1       8.876  14.983   5.356  1.00  0.00     0.030 A 
HETATM   19  C15 UNL     1       7.971  17.208   4.999  1.00  0.00     0.065 A 
HETATM   20  C12 UNL     1       8.180  14.944   6.528  1.00  0.00     0.044 A 
HETATM   21  C13 UNL     1       7.393  15.964   6.979  1.00  0.00     0.037 A 
HETATM   22 CL1  UNL     1       6.484  15.921   8.464  1.00  0.00    -0.084 Cl
HETATM   23  C14 UNL     1       7.290  17.121   6.192  1.00  0.00     0.056 A 
BRANCH  18  24
HETATM   24  S1  UNL     1       9.884  13.649   4.755  1.00  0.00    -0.132 SA
HETATM   25  C11 UNL     1      11.649  14.085   4.847  1.00  0.00     0.095 C 
ENDBRANCH  18  24
ENDBRANCH   8  13
ENDBRANCH   3   5
BRANCH   1  26
HETATM   26  C2  UNL     1       2.265  22.541   2.313  1.00  0.00     0.004 C 
HETATM   27  C1  UNL     1       1.800  23.584   1.668  1.00  0.00     0.025 C 
BRANCH  26  28
HETATM   28  C17 UNL     1       1.602  22.022   3.507  1.00  0.00     0.023 C 
HETATM   29  C18 UNL     1       0.555  20.991   3.258  1.00  0.00     0.011 C 
HETATM   30  C19 UNL     1      -0.501  20.886   4.301  1.00  0.00     0.026 C 
HETATM   31  C20 UNL     1      -0.403  21.669   5.536  1.00  0.00     0.083 C 
HETATM   32  C26 UNL     1       0.625  22.755   5.589  1.00  0.00     0.026 C 
HETATM   33  C27 UNL     1       0.895  23.232   4.187  1.00  0.00     0.011 C 
BRANCH  31  34
HETATM   34  N5  UNL     1      -0.360  20.818   6.690  1.00  0.00    -0.387 N 
HETATM   35  C21 UNL     1      -1.512  20.135   7.072  1.00  0.00     0.058 C 
HETATM   36  C22 UNL     1      -1.340  19.522   8.439  1.00  0.00     0.046 C 
HETATM   37  C23 UNL     1       0.006  18.883   8.552  1.00  0.00     0.039 C 
HETATM   38  C24 UNL     1       1.142  19.868   8.361  1.00  0.00     0.201 C 
HETATM   39  C25 UNL     1       0.650  21.105   7.631  1.00  0.00     0.155 C 
BRANCH  38  40
HETATM   40  N6  UNL     1       2.253  19.312   7.623  1.00  0.00    -0.073 N 
ATOM     41  H63 UNL     1       2.651  18.510   8.113  1.00  0.00     0.274 HD
ATOM     42  H62 UNL     1       1.931  18.845   6.776  1.00  0.00     0.274 HD
ATOM     43  H61 UNL     1       2.973  20.001   7.408  1.00  0.00     0.274 HD
ENDBRANCH  38  40
ENDBRANCH  31  34
ENDBRANCH  26  28
ENDBRANCH   1  26
TORSDOF 7
ENDMDL
