MODEL 1
REMARK VINA RESULT: -7.562061263      0.000      0.000
REMARK  10 active torsions:
REMARK  status: ('A' for Active; 'I' for Inactive)
REMARK    1  A    between atoms: C2_2  and  C3_3 
REMARK    2  A    between atoms: C2_2  and  C12_15 
REMARK    3  A    between atoms: C3_3  and  C4_4 
REMARK    4  A    between atoms: C4_4  and  N1_5 
REMARK    5  A    between atoms: C15_18  and  N2_19 
REMARK    6  A    between atoms: N2_19  and  C16_21 
REMARK    7  A    between atoms: C16_21  and  O3_22 
REMARK    8  A    between atoms: C16_21  and  C17_24 
REMARK    9  A    between atoms: C20_29  and  C21_30 
REMARK   10  A    between atoms: C26_39  and  C27_40 
ROOT
HETATM    1  N2  UNL     1       2.681  23.897   0.668  1.00  0.00    -0.336 N 
ATOM      2  H2  UNL     1       3.160  24.573   0.074  1.00  0.00     0.168 HD
ENDROOT
BRANCH   1   3
HETATM    3  C15 UNL     1       1.846  24.354   1.748  1.00  0.00     0.034 A 
HETATM    4  C14 UNL     1       1.346  23.422   2.644  1.00  0.00     0.030 A 
HETATM    5  C13 UNL     1       0.508  23.811   3.666  1.00  0.00     0.010 A 
HETATM    6  C12 UNL     1       0.148  25.154   3.816  1.00  0.00    -0.054 A 
HETATM    7  C29 UNL     1       0.661  26.045   2.922  1.00  0.00     0.010 A 
HETATM    8  C28 UNL     1       1.513  25.659   1.881  1.00  0.00     0.030 A 
BRANCH   6   9
HETATM    9  C2  UNL     1      -0.812  25.501   4.890  1.00  0.00     0.019 C 
HETATM   10  C1  UNL     1      -1.734  26.570   4.305  1.00  0.00     0.015 C 
BRANCH   9  11
HETATM   11  C3  UNL     1      -1.588  24.286   5.312  1.00  0.00     0.053 C 
BRANCH  11  12
HETATM   12  C4  UNL     1      -1.529  24.015   6.768  1.00  0.00     0.063 C 
BRANCH  12  13
HETATM   13  N1  UNL     1      -1.241  22.709   7.191  1.00  0.00    -0.373 N 
HETATM   14  C5  UNL     1      -1.000  22.448   8.549  1.00  0.00     0.068 C 
HETATM   15  C6  UNL     1       0.390  21.910   8.837  1.00  0.00     0.113 C 
HETATM   16  C7  UNL     1       0.692  20.796   7.881  1.00  0.00     0.169 C 
HETATM   17  C8  UNL     1       0.680  21.371   6.478  1.00  0.00     0.089 C 
HETATM   18  O1  UNL     1       1.887  20.146   8.160  1.00  0.00    -0.353 OA
HETATM   19  O2  UNL     1      -0.296  19.789   7.917  1.00  0.00    -0.353 OA
HETATM   20  C9  UNL     1      -0.759  21.796   6.226  1.00  0.00     0.132 C 
HETATM   21  C10 UNL     1       1.773  19.006   7.343  1.00  0.00     0.197 C 
HETATM   22  C11 UNL     1       0.288  18.765   7.167  1.00  0.00     0.197 C 
ENDBRANCH  12  13
ENDBRANCH  11  12
ENDBRANCH   9  11
ENDBRANCH   6   9
ENDBRANCH   1   3
BRANCH   1  23
HETATM   23  C16 UNL     1       2.837  22.544   0.436  1.00  0.00     0.153 C 
BRANCH  23  24
HETATM   24  O3  UNL     1       2.258  22.106  -0.658  1.00  0.00    -0.345 OA
ATOM     25  H3  UNL     1       1.356  22.382  -0.768  1.00  0.00     0.219 HD
ENDBRANCH  23  24
BRANCH  23  26
HETATM   26  C17 UNL     1       3.511  21.515   1.186  1.00  0.00     0.045 A 
HETATM   27  C18 UNL     1       4.884  21.750   1.501  1.00  0.00     0.051 A 
HETATM   28  C19 UNL     1       5.635  20.789   2.106  1.00  0.00     0.079 A 
HETATM   29  N3  UNL     1       6.917  20.777   2.485  1.00  0.00    -0.342 N 
HETATM   30  C25 UNL     1       5.074  19.570   2.423  1.00  0.00     0.134 A 
HETATM   31  C20 UNL     1       7.215  19.579   3.042  1.00  0.00     0.091 A 
ATOM     32  H3  UNL     1       7.572  21.551   2.372  1.00  0.00     0.167 HD
HETATM   33  N4  UNL     1       6.084  18.864   2.995  1.00  0.00    -0.330 N 
ATOM     34  H4  UNL     1       5.991  17.911   3.345  1.00  0.00     0.168 HD
HETATM   35  N5  UNL     1       3.784  19.336   2.136  1.00  0.00    -0.339 N 
HETATM   36  C26 UNL     1       3.014  20.313   1.521  1.00  0.00     0.090 A 
ATOM     37  H5  UNL     1       3.367  18.436   2.371  1.00  0.00     0.167 HD
BRANCH  31  38
HETATM   38  C21 UNL     1       8.566  19.189   3.578  1.00  0.00     0.007 C 
HETATM   39  C22 UNL     1       8.294  18.357   4.832  1.00  0.00     0.022 C 
HETATM   40  C23 UNL     1       9.291  18.390   2.532  1.00  0.00     0.022 C 
HETATM   41  C24 UNL     1       9.291  20.424   4.007  1.00  0.00     0.022 C 
ENDBRANCH  31  38
BRANCH  36  42
HETATM   42  C27 UNL     1       1.568  19.991   1.350  1.00  0.00     0.404 C 
HETATM   43  F1  UNL     1       0.981  20.081   2.625  1.00  0.00    -0.207 F 
HETATM   44  F2  UNL     1       1.423  18.630   1.018  1.00  0.00    -0.207 F 
ENDBRANCH  36  42
ENDBRANCH  23  26
ENDBRANCH   1  23
TORSDOF 10
ENDMDL
MODEL 2
REMARK VINA RESULT: -7.526507812      4.432      7.856
REMARK  10 active torsions:
REMARK  status: ('A' for Active; 'I' for Inactive)
REMARK    1  A    between atoms: C2_2  and  C3_3 
REMARK    2  A    between atoms: C2_2  and  C12_15 
REMARK    3  A    between atoms: C3_3  and  C4_4 
REMARK    4  A    between atoms: C4_4  and  N1_5 
REMARK    5  A    between atoms: C15_18  and  N2_19 
REMARK    6  A    between atoms: N2_19  and  C16_21 
REMARK    7  A    between atoms: C16_21  and  O3_22 
REMARK    8  A    between atoms: C16_21  and  C17_24 
REMARK    9  A    between atoms: C20_29  and  C21_30 
REMARK   10  A    between atoms: C26_39  and  C27_40 
ROOT
HETATM    1  N2  UNL     1       5.365  19.512   3.897  1.00  0.00    -0.336 N 
ATOM      2  H2  UNL     1       5.073  18.747   4.505  1.00  0.00     0.168 HD
ENDROOT
BRANCH   1   3
HETATM    3  C15 UNL     1       4.378  20.267   3.169  1.00  0.00     0.034 A 
HETATM    4  C14 UNL     1       4.733  20.824   1.950  1.00  0.00     0.030 A 
HETATM    5  C13 UNL     1       3.834  21.591   1.241  1.00  0.00     0.010 A 
HETATM    6  C12 UNL     1       2.548  21.818   1.741  1.00  0.00    -0.054 A 
HETATM    7  C29 UNL     1       2.230  21.253   2.938  1.00  0.00     0.010 A 
HETATM    8  C28 UNL     1       3.137  20.473   3.666  1.00  0.00     0.030 A 
BRANCH   6   9
HETATM    9  C2  UNL     1       1.649  22.709   0.968  1.00  0.00     0.019 C 
HETATM   10  C1  UNL     1       2.271  24.103   1.039  1.00  0.00     0.015 C 
BRANCH   9  11
HETATM   11  C3  UNL     1       1.537  22.235  -0.453  1.00  0.00     0.053 C 
BRANCH  11  12
HETATM   12  C4  UNL     1       0.586  21.112  -0.635  1.00  0.00     0.063 C 
BRANCH  12  13
HETATM   13  N1  UNL     1       0.091  20.862  -1.923  1.00  0.00    -0.373 N 
HETATM   14  C5  UNL     1      -0.428  21.915  -2.693  1.00  0.00     0.068 C 
HETATM   15  C6  UNL     1      -1.895  21.755  -3.048  1.00  0.00     0.113 C 
HETATM   16  C7  UNL     1      -2.125  20.370  -3.572  1.00  0.00     0.169 C 
HETATM   17  C8  UNL     1      -1.790  19.391  -2.464  1.00  0.00     0.089 C 
HETATM   18  O1  UNL     1      -3.412  20.177  -4.057  1.00  0.00    -0.353 OA
HETATM   19  O2  UNL     1      -1.272  20.069  -4.655  1.00  0.00    -0.353 OA
HETATM   20  C9  UNL     1      -0.293  19.537  -2.234  1.00  0.00     0.132 C 
HETATM   21  C10 UNL     1      -3.265  18.954  -4.738  1.00  0.00     0.197 C 
HETATM   22  C11 UNL     1      -1.806  18.872  -5.138  1.00  0.00     0.197 C 
ENDBRANCH  12  13
ENDBRANCH  11  12
ENDBRANCH   9  11
ENDBRANCH   6   9
ENDBRANCH   1   3
BRANCH   1  23
HETATM   23  C16 UNL     1       6.705  19.821   3.774  1.00  0.00     0.153 C 
BRANCH  23  24
HETATM   24  O3  UNL     1       7.059  20.960   4.324  1.00  0.00    -0.345 OA
ATOM     25  H3  UNL     1       7.759  21.417   3.874  1.00  0.00     0.219 HD
ENDBRANCH  23  24
BRANCH  23  26
HETATM   26  C17 UNL     1       7.794  19.124   3.137  1.00  0.00     0.045 A 
HETATM   27  C18 UNL     1       8.116  19.527   1.805  1.00  0.00     0.051 A 
HETATM   28  C19 UNL     1       9.051  18.854   1.079  1.00  0.00     0.079 A 
HETATM   29  N3  UNL     1       9.507  19.038  -0.164  1.00  0.00    -0.342 N 
HETATM   30  C25 UNL     1       9.702  17.768   1.628  1.00  0.00     0.134 A 
HETATM   31  C20 UNL     1      10.439  18.099  -0.449  1.00  0.00     0.091 A 
ATOM     32  H3  UNL     1       9.200  19.773  -0.801  1.00  0.00     0.167 HD
HETATM   33  N4  UNL     1      10.542  17.341   0.650  1.00  0.00    -0.330 N 
ATOM     34  H4  UNL     1      11.172  16.544   0.742  1.00  0.00     0.168 HD
HETATM   35  N5  UNL     1       9.411  17.380   2.879  1.00  0.00    -0.339 N 
HETATM   36  C26 UNL     1       8.460  18.064   3.622  1.00  0.00     0.090 A 
ATOM     37  H5  UNL     1       9.892  16.578   3.286  1.00  0.00     0.167 HD
BRANCH  31  38
HETATM   38  C21 UNL     1      11.170  17.979  -1.760  1.00  0.00     0.007 C 
HETATM   39  C22 UNL     1      11.006  19.330  -2.456  1.00  0.00     0.022 C 
HETATM   40  C23 UNL     1      12.614  17.672  -1.484  1.00  0.00     0.022 C 
HETATM   41  C24 UNL     1      10.484  16.953  -2.603  1.00  0.00     0.022 C 
ENDBRANCH  31  38
BRANCH  36  42
HETATM   42  C27 UNL     1       8.296  17.620   5.036  1.00  0.00     0.404 C 
HETATM   43  F1  UNL     1       8.984  18.552   5.834  1.00  0.00    -0.207 F 
HETATM   44  F2  UNL     1       9.010  16.423   5.242  1.00  0.00    -0.207 F 
ENDBRANCH  36  42
ENDBRANCH  23  26
ENDBRANCH   1  23
TORSDOF 10
ENDMDL
MODEL 3
REMARK VINA RESULT: -7.481281851      4.595      7.951
REMARK  10 active torsions:
REMARK  status: ('A' for Active; 'I' for Inactive)
REMARK    1  A    between atoms: C2_2  and  C3_3 
REMARK    2  A    between atoms: C2_2  and  C12_15 
REMARK    3  A    between atoms: C3_3  and  C4_4 
REMARK    4  A    between atoms: C4_4  and  N1_5 
REMARK    5  A    between atoms: C15_18  and  N2_19 
REMARK    6  A    between atoms: N2_19  and  C16_21 
REMARK    7  A    between atoms: C16_21  and  O3_22 
REMARK    8  A    between atoms: C16_21  and  C17_24 
REMARK    9  A    between atoms: C20_29  and  C21_30 
REMARK   10  A    between atoms: C26_39  and  C27_40 
ROOT
HETATM    1  N2  UNL     1       4.897  18.134   3.341  1.00  0.00    -0.336 N 
ATOM      2  H2  UNL     1       4.421  17.541   4.021  1.00  0.00     0.168 HD
ENDROOT
BRANCH   1   3
HETATM    3  C15 UNL     1       4.169  19.175   2.663  1.00  0.00     0.034 A 
HETATM    4  C14 UNL     1       3.881  20.343   3.351  1.00  0.00     0.030 A 
HETATM    5  C13 UNL     1       3.149  21.346   2.755  1.00  0.00     0.010 A 
HETATM    6  C12 UNL     1       2.684  21.201   1.444  1.00  0.00    -0.054 A 
HETATM    7  C29 UNL     1       2.988  20.044   0.795  1.00  0.00     0.010 A 
HETATM    8  C28 UNL     1       3.731  19.019   1.392  1.00  0.00     0.030 A 
BRANCH   6   9
HETATM    9  C2  UNL     1       1.842  22.284   0.881  1.00  0.00     0.019 C 
HETATM   10  C1  UNL     1       2.672  23.562   0.982  1.00  0.00     0.015 C 
BRANCH   9  11
HETATM   11  C3  UNL     1       1.483  21.980  -0.545  1.00  0.00     0.053 C 
BRANCH  11  12
HETATM   12  C4  UNL     1       0.212  21.232  -0.695  1.00  0.00     0.063 C 
BRANCH  12  13
HETATM   13  N1  UNL     1      -0.222  20.909  -1.989  1.00  0.00    -0.373 N 
HETATM   14  C5  UNL     1      -0.779  21.902  -2.811  1.00  0.00     0.068 C 
HETATM   15  C6  UNL     1      -2.220  21.637  -3.209  1.00  0.00     0.113 C 
HETATM   16  C7  UNL     1      -2.344  20.224  -3.693  1.00  0.00     0.169 C 
HETATM   17  C8  UNL     1      -1.987  19.304  -2.541  1.00  0.00     0.089 C 
HETATM   18  O1  UNL     1      -3.598  19.934  -4.212  1.00  0.00    -0.353 OA
HETATM   19  O2  UNL     1      -1.436  19.943  -4.736  1.00  0.00    -0.353 OA
HETATM   20  C9  UNL     1      -0.510  19.553  -2.267  1.00  0.00     0.132 C 
HETATM   21  C10 UNL     1      -3.351  18.701  -4.845  1.00  0.00     0.197 C 
HETATM   22  C11 UNL     1      -1.877  18.700  -5.195  1.00  0.00     0.197 C 
ENDBRANCH  12  13
ENDBRANCH  11  12
ENDBRANCH   9  11
ENDBRANCH   6   9
ENDBRANCH   1   3
BRANCH   1  23
HETATM   23  C16 UNL     1       6.237  17.936   3.074  1.00  0.00     0.153 C 
BRANCH  23  24
HETATM   24  O3  UNL     1       6.786  16.940   3.730  1.00  0.00    -0.345 OA
ATOM     25  H3  UNL     1       6.173  16.287   4.045  1.00  0.00     0.219 HD
ENDBRANCH  23  24
BRANCH  23  26
HETATM   26  C17 UNL     1       7.155  18.636   2.211  1.00  0.00     0.045 A 
HETATM   27  C18 UNL     1       7.343  18.092   0.904  1.00  0.00     0.051 A 
HETATM   28  C19 UNL     1       8.273  18.614   0.058  1.00  0.00     0.079 A 
HETATM   29  N3  UNL     1       8.627  18.276  -1.186  1.00  0.00    -0.342 N 
HETATM   30  C25 UNL     1       9.048  19.683   0.458  1.00  0.00     0.134 A 
HETATM   31  C20 UNL     1       9.618  19.093  -1.615  1.00  0.00     0.091 A 
ATOM     32  H3  UNL     1       8.214  17.518  -1.729  1.00  0.00     0.167 HD
HETATM   33  N4  UNL     1       9.857  19.938  -0.604  1.00  0.00    -0.330 N 
ATOM     34  H4  UNL     1      10.556  20.679  -0.628  1.00  0.00     0.168 HD
HETATM   35  N5  UNL     1       8.881  20.206   1.682  1.00  0.00    -0.339 N 
HETATM   36  C26 UNL     1       7.933  19.678   2.546  1.00  0.00     0.090 A 
ATOM     37  H5  UNL     1       9.452  20.997   1.978  1.00  0.00     0.167 HD
BRANCH  31  38
HETATM   38  C21 UNL     1      10.281  19.010  -2.963  1.00  0.00     0.007 C 
HETATM   39  C22 UNL     1      11.614  18.297  -2.731  1.00  0.00     0.022 C 
HETATM   40  C23 UNL     1       9.395  18.233  -3.894  1.00  0.00     0.022 C 
HETATM   41  C24 UNL     1      10.589  20.394  -3.436  1.00  0.00     0.022 C 
ENDBRANCH  31  38
BRANCH  36  42
HETATM   42  C27 UNL     1       7.751  20.404   3.836  1.00  0.00     0.404 C 
HETATM   43  F1  UNL     1       7.029  21.574   3.542  1.00  0.00    -0.207 F 
HETATM   44  F2  UNL     1       8.995  20.892   4.284  1.00  0.00    -0.207 F 
ENDBRANCH  36  42
ENDBRANCH  23  26
ENDBRANCH   1  23
TORSDOF 10
ENDMDL
MODEL 4
REMARK VINA RESULT: -7.464569953      3.996      9.780
REMARK  10 active torsions:
REMARK  status: ('A' for Active; 'I' for Inactive)
REMARK    1  A    between atoms: C2_2  and  C3_3 
REMARK    2  A    between atoms: C2_2  and  C12_15 
REMARK    3  A    between atoms: C3_3  and  C4_4 
REMARK    4  A    between atoms: C4_4  and  N1_5 
REMARK    5  A    between atoms: C15_18  and  N2_19 
REMARK    6  A    between atoms: N2_19  and  C16_21 
REMARK    7  A    between atoms: C16_21  and  O3_22 
REMARK    8  A    between atoms: C16_21  and  C17_24 
REMARK    9  A    between atoms: C20_29  and  C21_30 
REMARK   10  A    between atoms: C26_39  and  C27_40 
ROOT
HETATM    1  N2  UNL     1       2.668  19.947   3.386  1.00  0.00    -0.336 N 
ATOM      2  H2  UNL     1       2.194  19.104   3.709  1.00  0.00     0.168 HD
ENDROOT
BRANCH   1   3
HETATM    3  C15 UNL     1       4.100  20.050   3.488  1.00  0.00     0.034 A 
HETATM    4  C14 UNL     1       4.777  19.147   4.294  1.00  0.00     0.030 A 
HETATM    5  C13 UNL     1       6.142  19.236   4.455  1.00  0.00     0.010 A 
HETATM    6  C12 UNL     1       6.868  20.239   3.806  1.00  0.00    -0.054 A 
HETATM    7  C29 UNL     1       6.175  21.106   3.017  1.00  0.00     0.010 A 
HETATM    8  C28 UNL     1       4.787  21.024   2.848  1.00  0.00     0.030 A 
BRANCH   6   9
HETATM    9  C2  UNL     1       8.323  20.328   4.073  1.00  0.00     0.019 C 
HETATM   10  C1  UNL     1       8.635  19.230   5.090  1.00  0.00     0.015 C 
BRANCH   9  11
HETATM   11  C3  UNL     1       9.102  20.130   2.804  1.00  0.00     0.053 C 
BRANCH  11  12
HETATM   12  C4  UNL     1       9.364  18.708   2.478  1.00  0.00     0.063 C 
BRANCH  12  13
HETATM   13  N1  UNL     1       9.231  18.295   1.145  1.00  0.00    -0.373 N 
HETATM   14  C5  UNL     1       9.968  17.198   0.673  1.00  0.00     0.068 C 
HETATM   15  C6  UNL     1      10.934  17.539  -0.448  1.00  0.00     0.113 C 
HETATM   16  C7  UNL     1      10.218  18.354  -1.481  1.00  0.00     0.169 C 
HETATM   17  C8  UNL     1       9.767  19.645  -0.825  1.00  0.00     0.089 C 
HETATM   18  O1  UNL     1      10.984  18.594  -2.614  1.00  0.00    -0.353 OA
HETATM   19  O2  UNL     1       9.055  17.707  -1.949  1.00  0.00    -0.353 OA
HETATM   20  C9  UNL     1       8.733  19.233   0.212  1.00  0.00     0.132 C 
HETATM   21  C10 UNL     1      10.009  19.086  -3.501  1.00  0.00     0.197 C 
HETATM   22  C11 UNL     1       8.692  18.493  -3.046  1.00  0.00     0.197 C 
ENDBRANCH  12  13
ENDBRANCH  11  12
ENDBRANCH   9  11
ENDBRANCH   6   9
ENDBRANCH   1   3
BRANCH   1  23
HETATM   23  C16 UNL     1       1.933  20.988   2.852  1.00  0.00     0.153 C 
BRANCH  23  24
HETATM   24  O3  UNL     1       1.396  21.792   3.740  1.00  0.00    -0.345 OA
ATOM     25  H3  UNL     1       0.449  21.854   3.697  1.00  0.00     0.219 HD
ENDBRANCH  23  24
BRANCH  23  26
HETATM   26  C17 UNL     1       1.633  21.348   1.489  1.00  0.00     0.045 A 
HETATM   27  C18 UNL     1       0.930  20.376   0.714  1.00  0.00     0.051 A 
HETATM   28  C19 UNL     1       0.702  20.577  -0.614  1.00  0.00     0.079 A 
HETATM   29  N3  UNL     1       0.084  19.822  -1.529  1.00  0.00    -0.342 N 
HETATM   30  C25 UNL     1       1.150  21.728  -1.227  1.00  0.00     0.134 A 
HETATM   31  C20 UNL     1       0.117  20.447  -2.730  1.00  0.00     0.091 A 
ATOM     32  H3  UNL     1      -0.345  18.915  -1.351  1.00  0.00     0.167 HD
HETATM   33  N4  UNL     1       0.766  21.600  -2.523  1.00  0.00    -0.330 N 
ATOM     34  H4  UNL     1       0.949  22.294  -3.248  1.00  0.00     0.168 HD
HETATM   35  N5  UNL     1       1.809  22.651  -0.509  1.00  0.00    -0.339 N 
HETATM   36  C26 UNL     1       2.042  22.452   0.844  1.00  0.00     0.090 A 
ATOM     37  H5  UNL     1       2.140  23.503  -0.960  1.00  0.00     0.167 HD
BRANCH  31  38
HETATM   38  C21 UNL     1      -0.468  19.899  -4.004  1.00  0.00     0.007 C 
HETATM   39  C22 UNL     1      -1.967  20.195  -3.937  1.00  0.00     0.022 C 
HETATM   40  C23 UNL     1       0.179  20.589  -5.171  1.00  0.00     0.022 C 
HETATM   41  C24 UNL     1      -0.303  18.414  -4.011  1.00  0.00     0.022 C 
ENDBRANCH  31  38
BRANCH  36  42
HETATM   42  C27 UNL     1       2.683  23.586   1.569  1.00  0.00     0.404 C 
HETATM   43  F1  UNL     1       1.642  24.431   1.996  1.00  0.00    -0.207 F 
HETATM   44  F2  UNL     1       3.399  24.387   0.656  1.00  0.00    -0.207 F 
ENDBRANCH  36  42
ENDBRANCH  23  26
ENDBRANCH   1  23
TORSDOF 10
ENDMDL
MODEL 5
REMARK VINA RESULT: -7.428165603      2.909      9.014
REMARK  10 active torsions:
REMARK  status: ('A' for Active; 'I' for Inactive)
REMARK    1  A    between atoms: C2_2  and  C3_3 
REMARK    2  A    between atoms: C2_2  and  C12_15 
REMARK    3  A    between atoms: C3_3  and  C4_4 
REMARK    4  A    between atoms: C4_4  and  N1_5 
REMARK    5  A    between atoms: C15_18  and  N2_19 
REMARK    6  A    between atoms: N2_19  and  C16_21 
REMARK    7  A    between atoms: C16_21  and  O3_22 
REMARK    8  A    between atoms: C16_21  and  C17_24 
REMARK    9  A    between atoms: C20_29  and  C21_30 
REMARK   10  A    between atoms: C26_39  and  C27_40 
ROOT
HETATM    1  N2  UNL     1       2.869  21.082   0.691  1.00  0.00    -0.336 N 
ATOM      2  H2  UNL     1       3.031  20.860  -0.291  1.00  0.00     0.168 HD
ENDROOT
BRANCH   1   3
HETATM    3  C15 UNL     1       3.837  20.694   1.684  1.00  0.00     0.034 A 
HETATM    4  C14 UNL     1       3.645  19.506   2.372  1.00  0.00     0.030 A 
HETATM    5  C13 UNL     1       4.522  19.118   3.360  1.00  0.00     0.010 A 
HETATM    6  C12 UNL     1       5.623  19.917   3.685  1.00  0.00    -0.054 A 
HETATM    7  C29 UNL     1       5.786  21.075   2.986  1.00  0.00     0.010 A 
HETATM    8  C28 UNL     1       4.899  21.477   1.981  1.00  0.00     0.030 A 
BRANCH   6   9
HETATM    9  C2  UNL     1       6.492  19.483   4.804  1.00  0.00     0.019 C 
HETATM   10  C1  UNL     1       6.176  18.006   5.038  1.00  0.00     0.015 C 
BRANCH   9  11
HETATM   11  C3  UNL     1       7.939  19.680   4.452  1.00  0.00     0.053 C 
BRANCH  11  12
HETATM   12  C4  UNL     1       8.581  18.478   3.870  1.00  0.00     0.063 C 
BRANCH  12  13
HETATM   13  N1  UNL     1       9.134  18.574   2.585  1.00  0.00    -0.373 N 
HETATM   14  C5  UNL     1       9.074  19.789   1.884  1.00  0.00     0.068 C 
HETATM   15  C6  UNL     1       8.288  19.716   0.587  1.00  0.00     0.113 C 
HETATM   16  C7  UNL     1       8.738  18.518  -0.193  1.00  0.00     0.169 C 
HETATM   17  C8  UNL     1       8.425  17.283   0.629  1.00  0.00     0.089 C 
HETATM   18  O1  UNL     1       8.174  18.449  -1.460  1.00  0.00    -0.353 OA
HETATM   19  O2  UNL     1      10.133  18.523  -0.407  1.00  0.00    -0.353 OA
HETATM   20  C9  UNL     1       9.320  17.376   1.857  1.00  0.00     0.132 C 
HETATM   21  C10 UNL     1       8.969  17.452  -2.056  1.00  0.00     0.197 C 
HETATM   22  C11 UNL     1      10.300  17.493  -1.335  1.00  0.00     0.197 C 
ENDBRANCH  12  13
ENDBRANCH  11  12
ENDBRANCH   9  11
ENDBRANCH   6   9
ENDBRANCH   1   3
BRANCH   1  23
HETATM   23  C16 UNL     1       1.722  21.754   1.065  1.00  0.00     0.153 C 
BRANCH  23  24
HETATM   24  O3  UNL     1       0.775  21.770   0.156  1.00  0.00    -0.345 OA
ATOM     25  H3  UNL     1       0.890  22.420  -0.527  1.00  0.00     0.219 HD
ENDBRANCH  23  24
BRANCH  23  26
HETATM   26  C17 UNL     1       1.376  22.460   2.273  1.00  0.00     0.045 A 
HETATM   27  C18 UNL     1       0.865  21.671   3.348  1.00  0.00     0.051 A 
HETATM   28  C19 UNL     1       0.404  22.259   4.487  1.00  0.00     0.079 A 
HETATM   29  N3  UNL     1      -0.115  21.738   5.603  1.00  0.00    -0.342 N 
HETATM   30  C25 UNL     1       0.427  23.632   4.614  1.00  0.00     0.134 A 
HETATM   31  C20 UNL     1      -0.438  22.734   6.461  1.00  0.00     0.091 A 
ATOM     32  H3  UNL     1      -0.249  20.742   5.781  1.00  0.00     0.167 HD
HETATM   33  N4  UNL     1      -0.101  23.872   5.842  1.00  0.00    -0.330 N 
ATOM     34  H4  UNL     1      -0.223  24.802   6.243  1.00  0.00     0.168 HD
HETATM   35  N5  UNL     1       0.907  24.385   3.613  1.00  0.00    -0.339 N 
HETATM   36  C26 UNL     1       1.379  23.791   2.452  1.00  0.00     0.090 A 
ATOM     37  H5  UNL     1       0.925  25.401   3.706  1.00  0.00     0.167 HD
BRANCH  31  38
HETATM   38  C21 UNL     1      -1.058  22.536   7.818  1.00  0.00     0.007 C 
HETATM   39  C22 UNL     1      -2.101  21.431   7.645  1.00  0.00     0.022 C 
HETATM   40  C23 UNL     1       0.016  22.134   8.789  1.00  0.00     0.022 C 
HETATM   41  C24 UNL     1      -1.786  23.784   8.204  1.00  0.00     0.022 C 
ENDBRANCH  31  38
BRANCH  36  42
HETATM   42  C27 UNL     1       1.992  24.711   1.452  1.00  0.00     0.404 C 
HETATM   43  F1  UNL     1       3.380  24.488   1.496  1.00  0.00    -0.207 F 
HETATM   44  F2  UNL     1       1.861  26.043   1.891  1.00  0.00    -0.207 F 
ENDBRANCH  36  42
ENDBRANCH  23  26
ENDBRANCH   1  23
TORSDOF 10
ENDMDL
