MODEL 1
REMARK VINA RESULT: -6.970998619      0.000      0.000
REMARK  10 active torsions:
REMARK  status: ('A' for Active; 'I' for Inactive)
REMARK    1  A    between atoms: O1_2  and  C2_3 
REMARK    2  A    between atoms: C5_7  and  O3_8 
REMARK    3  A    between atoms: O3_8  and  C6_9 
REMARK    4  A    between atoms: C8_11  and  C25_32 
REMARK    5  A    between atoms: C11_14  and  O4_15 
REMARK    6  A    between atoms: C11_14  and  C22_29 
REMARK    7  A    between atoms: O4_15  and  C12_16 
REMARK    8  A    between atoms: C12_16  and  C14_18 
REMARK    9  A    between atoms: C26_34  and  C27_35 
REMARK   10  A    between atoms: C27_35  and  O6_36 
ROOT
HETATM    1  C6  UNL     1      -1.223  19.052   3.728  1.00  0.00     0.162 C 
HETATM    2  C7  UNL     1      -2.434  18.106   3.754  1.00  0.00     0.040 C 
HETATM    3  C8  UNL     1      -3.535  18.849   4.498  1.00  0.00    -0.003 C 
HETATM    4  C9  UNL     1      -3.505  20.345   4.250  1.00  0.00     0.008 C 
HETATM    5  C10 UNL     1      -2.252  20.965   4.761  1.00  0.00     0.042 C 
HETATM    6  C11 UNL     1      -1.225  19.832   5.015  1.00  0.00     0.095 C 
ENDROOT
BRANCH   6   7
HETATM    7  O4  UNL     1      -0.069  20.463   5.280  1.00  0.00    -0.367 OA
BRANCH   7   8
HETATM    8  C12 UNL     1       0.165  21.769   4.976  1.00  0.00     0.154 C 
HETATM    9  C13 UNL     1       0.789  22.416   6.280  1.00  0.00     0.045 C 
BRANCH   8  10
HETATM   10  C14 UNL     1       1.286  21.846   4.014  1.00  0.00    -0.002 A 
HETATM   11  C15 UNL     1       2.171  20.791   3.726  1.00  0.00     0.099 A 
HETATM   12  N1  UNL     1       3.037  21.154   2.765  1.00  0.00    -0.365 N 
HETATM   13  C16 UNL     1       2.779  22.415   2.387  1.00  0.00     0.043 A 
ATOM     14  H1  UNL     1       3.775  20.564   2.382  1.00  0.00     0.165 HD
HETATM   15  C17 UNL     1       3.383  23.225   1.463  1.00  0.00     0.032 A 
HETATM   16  C21 UNL     1       1.705  22.848   3.148  1.00  0.00     0.002 A 
HETATM   17  C18 UNL     1       2.919  24.517   1.277  1.00  0.00     0.026 A 
HETATM   18  C19 UNL     1       1.843  24.955   2.042  1.00  0.00     0.035 A 
HETATM   19 CL1  UNL     1       1.195  26.592   1.862  1.00  0.00    -0.084 Cl
HETATM   20  C20 UNL     1       1.251  24.120   2.965  1.00  0.00     0.038 A 
ENDBRANCH   8  10
ENDBRANCH   7   8
ENDBRANCH   6   7
BRANCH   6  21
HETATM   21  C22 UNL     1      -1.797  19.056   6.173  1.00  0.00     0.053 A 
HETATM   22  C23 UNL     1      -0.684  18.379   6.907  1.00  0.00    -0.022 A 
HETATM   23  C24 UNL     1      -0.746  19.116   8.039  1.00  0.00    -0.024 A 
HETATM   24  C25 UNL     1      -1.848  19.848   7.426  1.00  0.00     0.022 A 
ENDBRANCH   6  21
BRANCH   1  25
HETATM   25  O3  UNL     1      -1.436  19.958   2.688  1.00  0.00    -0.331 OA
BRANCH  25  26
HETATM   26  C5  UNL     1      -0.747  19.735   1.534  1.00  0.00     0.414 C 
HETATM   27  O2  UNL     1      -1.683  19.169   0.634  1.00  0.00    -0.331 OA
HETATM   28  C3  UNL     1      -2.241  20.218  -0.071  1.00  0.00     0.154 C 
HETATM   29  C2  UNL     1      -1.186  20.628  -1.111  1.00  0.00     0.180 C 
HETATM   30  C4  UNL     1      -3.540  19.869  -0.728  1.00  0.00     0.042 C 
HETATM   31  C26 UNL     1       0.059  20.922  -0.303  1.00  0.00     0.182 C 
HETATM   32  O5  UNL     1      -0.232  20.912   1.058  1.00  0.00    -0.329 OA
BRANCH  29  33
HETATM   33  O1  UNL     1      -1.629  21.678  -1.875  1.00  0.00    -0.385 OA
HETATM   34  C1  UNL     1      -1.686  21.359  -3.230  1.00  0.00     0.202 C 
ENDBRANCH  29  33
BRANCH  31  35
HETATM   35  C27 UNL     1       0.565  22.339  -0.597  1.00  0.00     0.199 C 
BRANCH  35  36
HETATM   36  O6  UNL     1       1.270  22.398  -1.797  1.00  0.00    -0.398 OA
ATOM     37  H6  UNL     1       1.550  23.284  -1.998  1.00  0.00     0.209 HD
ENDBRANCH  35  36
ENDBRANCH  31  35
ENDBRANCH  25  26
ENDBRANCH   1  25
TORSDOF 10
ENDMDL
MODEL 2
REMARK VINA RESULT: -6.278275137      1.953      5.857
REMARK  10 active torsions:
REMARK  status: ('A' for Active; 'I' for Inactive)
REMARK    1  A    between atoms: O1_2  and  C2_3 
REMARK    2  A    between atoms: C5_7  and  O3_8 
REMARK    3  A    between atoms: O3_8  and  C6_9 
REMARK    4  A    between atoms: C8_11  and  C25_32 
REMARK    5  A    between atoms: C11_14  and  O4_15 
REMARK    6  A    between atoms: C11_14  and  C22_29 
REMARK    7  A    between atoms: O4_15  and  C12_16 
REMARK    8  A    between atoms: C12_16  and  C14_18 
REMARK    9  A    between atoms: C26_34  and  C27_35 
REMARK   10  A    between atoms: C27_35  and  O6_36 
ROOT
HETATM    1  C6  UNL     1      -2.745  19.996   0.942  1.00  0.00     0.162 C 
HETATM    2  C7  UNL     1      -4.136  19.909   0.293  1.00  0.00     0.040 C 
HETATM    3  C8  UNL     1      -4.052  18.792  -0.737  1.00  0.00    -0.003 C 
HETATM    4  C9  UNL     1      -3.134  17.664  -0.308  1.00  0.00     0.008 C 
HETATM    5  C10 UNL     1      -1.724  18.121  -0.167  1.00  0.00     0.042 C 
HETATM    6  C11 UNL     1      -1.725  19.670  -0.117  1.00  0.00     0.095 C 
ENDROOT
BRANCH   6   7
HETATM    7  O4  UNL     1      -0.466  20.010   0.207  1.00  0.00    -0.367 OA
BRANCH   7   8
HETATM    8  C12 UNL     1      -0.129  20.637   1.366  1.00  0.00     0.154 C 
HETATM    9  C13 UNL     1       0.822  19.636   2.143  1.00  0.00     0.045 C 
BRANCH   8  10
HETATM   10  C14 UNL     1       0.778  21.763   1.057  1.00  0.00    -0.002 A 
HETATM   11  C15 UNL     1       1.602  21.843  -0.080  1.00  0.00     0.099 A 
HETATM   12  N1  UNL     1       2.256  23.017  -0.106  1.00  0.00    -0.365 N 
HETATM   13  C16 UNL     1       1.911  23.740   0.969  1.00  0.00     0.043 A 
ATOM     14  H1  UNL     1       2.911  23.312  -0.829  1.00  0.00     0.165 HD
HETATM   15  C17 UNL     1       2.310  24.981   1.392  1.00  0.00     0.032 A 
HETATM   16  C21 UNL     1       1.005  22.980   1.690  1.00  0.00     0.002 A 
HETATM   17  C18 UNL     1       1.801  25.499   2.572  1.00  0.00     0.026 A 
HETATM   18  C19 UNL     1       0.893  24.736   3.298  1.00  0.00     0.035 A 
HETATM   19 CL1  UNL     1       0.201  25.329   4.814  1.00  0.00    -0.084 Cl
HETATM   20  C20 UNL     1       0.507  23.490   2.851  1.00  0.00     0.038 A 
ENDBRANCH   8  10
ENDBRANCH   7   8
ENDBRANCH   6   7
BRANCH   6  21
HETATM   21  C22 UNL     1      -2.156  20.094  -1.498  1.00  0.00     0.053 A 
HETATM   22  C23 UNL     1      -1.726  21.507  -1.733  1.00  0.00    -0.022 A 
HETATM   23  C24 UNL     1      -0.783  21.250  -2.666  1.00  0.00    -0.024 A 
HETATM   24  C25 UNL     1      -1.118  19.838  -2.526  1.00  0.00     0.022 A 
ENDBRANCH   6  21
BRANCH   1  25
HETATM   25  O3  UNL     1      -2.682  18.989   1.908  1.00  0.00    -0.331 OA
BRANCH  25  26
HETATM   26  C5  UNL     1      -3.558  19.086   2.947  1.00  0.00     0.414 C 
HETATM   27  O2  UNL     1      -3.260  17.995   3.800  1.00  0.00    -0.331 OA
HETATM   28  C3  UNL     1      -2.339  18.451   4.721  1.00  0.00     0.154 C 
HETATM   29  C2  UNL     1      -3.140  19.285   5.735  1.00  0.00     0.180 C 
HETATM   30  C4  UNL     1      -1.585  17.352   5.403  1.00  0.00     0.042 C 
HETATM   31  C26 UNL     1      -3.856  20.323   4.900  1.00  0.00     0.182 C 
HETATM   32  O5  UNL     1      -3.400  20.288   3.584  1.00  0.00    -0.329 OA
BRANCH  29  33
HETATM   33  O1  UNL     1      -2.322  19.802   6.706  1.00  0.00    -0.385 OA
HETATM   34  C1  UNL     1      -2.617  19.298   7.971  1.00  0.00     0.202 C 
ENDBRANCH  29  33
BRANCH  31  35
HETATM   35  C27 UNL     1      -3.527  21.733   5.403  1.00  0.00     0.199 C 
BRANCH  35  36
HETATM   36  O6  UNL     1      -4.618  22.592   5.288  1.00  0.00    -0.398 OA
ATOM     37  H6  UNL     1      -4.629  23.039   4.450  1.00  0.00     0.209 HD
ENDBRANCH  35  36
ENDBRANCH  31  35
ENDBRANCH  25  26
ENDBRANCH   1  25
TORSDOF 10
ENDMDL
MODEL 3
REMARK VINA RESULT: -6.253480733      1.097      1.119
REMARK  10 active torsions:
REMARK  status: ('A' for Active; 'I' for Inactive)
REMARK    1  A    between atoms: O1_2  and  C2_3 
REMARK    2  A    between atoms: C5_7  and  O3_8 
REMARK    3  A    between atoms: O3_8  and  C6_9 
REMARK    4  A    between atoms: C8_11  and  C25_32 
REMARK    5  A    between atoms: C11_14  and  O4_15 
REMARK    6  A    between atoms: C11_14  and  C22_29 
REMARK    7  A    between atoms: O4_15  and  C12_16 
REMARK    8  A    between atoms: C12_16  and  C14_18 
REMARK    9  A    between atoms: C26_34  and  C27_35 
REMARK   10  A    between atoms: C27_35  and  O6_36 
ROOT
HETATM    1  C6  UNL     1      -1.016  18.551   3.779  1.00  0.00     0.162 C 
HETATM    2  C7  UNL     1      -2.216  17.595   3.871  1.00  0.00     0.040 C 
HETATM    3  C8  UNL     1      -3.392  18.436   4.344  1.00  0.00    -0.003 C 
HETATM    4  C9  UNL     1      -3.350  19.857   3.815  1.00  0.00     0.008 C 
HETATM    5  C10 UNL     1      -2.161  20.598   4.315  1.00  0.00     0.042 C 
HETATM    6  C11 UNL     1      -1.155  19.565   4.884  1.00  0.00     0.095 C 
ENDROOT
BRANCH   6   7
HETATM    7  O4  UNL     1      -0.037  20.267   5.133  1.00  0.00    -0.367 OA
BRANCH   7   8
HETATM    8  C12 UNL     1       0.126  21.573   4.789  1.00  0.00     0.154 C 
HETATM    9  C13 UNL     1       0.697  22.296   6.077  1.00  0.00     0.045 C 
BRANCH   8  10
HETATM   10  C14 UNL     1       1.251  21.683   3.836  1.00  0.00    -0.002 A 
HETATM   11  C15 UNL     1       2.124  20.633   3.498  1.00  0.00     0.099 A 
HETATM   12  N1  UNL     1       2.998  21.032   2.559  1.00  0.00    -0.365 N 
HETATM   13  C16 UNL     1       2.758  22.313   2.244  1.00  0.00     0.043 A 
ATOM     14  H1  UNL     1       3.730  20.452   2.149  1.00  0.00     0.165 HD
HETATM   15  C17 UNL     1       3.377  23.161   1.365  1.00  0.00     0.032 A 
HETATM   16  C21 UNL     1       1.687  22.722   3.022  1.00  0.00     0.002 A 
HETATM   17  C18 UNL     1       2.930  24.467   1.242  1.00  0.00     0.026 A 
HETATM   18  C19 UNL     1       1.857  24.880   2.025  1.00  0.00     0.035 A 
HETATM   19 CL1  UNL     1       1.232  26.532   1.925  1.00  0.00    -0.084 Cl
HETATM   20  C20 UNL     1       1.251  24.008   2.903  1.00  0.00     0.038 A 
ENDBRANCH   8  10
ENDBRANCH   7   8
ENDBRANCH   6   7
BRANCH   6  21
HETATM   21  C22 UNL     1      -1.835  19.010   6.109  1.00  0.00     0.053 A 
HETATM   22  C23 UNL     1      -0.795  18.571   7.091  1.00  0.00    -0.022 A 
HETATM   23  C24 UNL     1      -1.024  19.520   8.025  1.00  0.00    -0.024 A 
HETATM   24  C25 UNL     1      -2.069  20.039   7.152  1.00  0.00     0.022 A 
ENDBRANCH   6  21
BRANCH   1  25
HETATM   25  O3  UNL     1      -1.130  19.234   2.567  1.00  0.00    -0.331 OA
BRANCH  25  26
HETATM   26  C5  UNL     1      -0.934  18.503   1.435  1.00  0.00     0.414 C 
HETATM   27  O2  UNL     1      -2.053  18.769   0.609  1.00  0.00    -0.331 OA
HETATM   28  C3  UNL     1      -1.710  19.839  -0.193  1.00  0.00     0.154 C 
HETATM   29  C2  UNL     1      -0.790  19.264  -1.283  1.00  0.00     0.180 C 
HETATM   30  C4  UNL     1      -2.891  20.534  -0.796  1.00  0.00     0.042 C 
HETATM   31  C26 UNL     1       0.326  18.581  -0.525  1.00  0.00     0.182 C 
HETATM   32  O5  UNL     1       0.240  18.873   0.834  1.00  0.00    -0.329 OA
BRANCH  29  33
HETATM   33  O1  UNL     1      -0.375  20.245  -2.147  1.00  0.00    -0.385 OA
HETATM   34  C1  UNL     1      -0.707  19.962  -3.469  1.00  0.00     0.202 C 
ENDBRANCH  29  33
BRANCH  31  35
HETATM   35  C27 UNL     1       1.687  19.128  -0.970  1.00  0.00     0.199 C 
BRANCH  35  36
HETATM   36  O6  UNL     1       1.983  20.342  -0.354  1.00  0.00    -0.398 OA
ATOM     37  H6  UNL     1       2.354  20.967  -0.966  1.00  0.00     0.209 HD
ENDBRANCH  35  36
ENDBRANCH  31  35
ENDBRANCH  25  26
ENDBRANCH   1  25
TORSDOF 10
ENDMDL
MODEL 4
REMARK VINA RESULT: -6.204855799      1.838      5.684
REMARK  10 active torsions:
REMARK  status: ('A' for Active; 'I' for Inactive)
REMARK    1  A    between atoms: O1_2  and  C2_3 
REMARK    2  A    between atoms: C5_7  and  O3_8 
REMARK    3  A    between atoms: O3_8  and  C6_9 
REMARK    4  A    between atoms: C8_11  and  C25_32 
REMARK    5  A    between atoms: C11_14  and  O4_15 
REMARK    6  A    between atoms: C11_14  and  C22_29 
REMARK    7  A    between atoms: O4_15  and  C12_16 
REMARK    8  A    between atoms: C12_16  and  C14_18 
REMARK    9  A    between atoms: C26_34  and  C27_35 
REMARK   10  A    between atoms: C27_35  and  O6_36 
ROOT
HETATM    1  C6  UNL     1      -1.976  19.939   1.195  1.00  0.00     0.162 C 
HETATM    2  C7  UNL     1      -3.355  19.817   0.526  1.00  0.00     0.040 C 
HETATM    3  C8  UNL     1      -3.214  18.739  -0.539  1.00  0.00    -0.003 C 
HETATM    4  C9  UNL     1      -2.254  17.636  -0.137  1.00  0.00     0.008 C 
HETATM    5  C10 UNL     1      -0.867  18.146   0.037  1.00  0.00     0.042 C 
HETATM    6  C11 UNL     1      -0.932  19.691   0.138  1.00  0.00     0.095 C 
ENDROOT
BRANCH   6   7
HETATM    7  O4  UNL     1       0.308  20.071   0.488  1.00  0.00    -0.367 OA
BRANCH   7   8
HETATM    8  C12 UNL     1       0.611  20.650   1.682  1.00  0.00     0.154 C 
HETATM    9  C13 UNL     1       1.791  19.791   2.297  1.00  0.00     0.045 C 
BRANCH   8  10
HETATM   10  C14 UNL     1       1.262  21.954   1.432  1.00  0.00    -0.002 A 
HETATM   11  C15 UNL     1       2.142  22.222   0.368  1.00  0.00     0.099 A 
HETATM   12  N1  UNL     1       2.512  23.514   0.379  1.00  0.00    -0.365 N 
HETATM   13  C16 UNL     1       1.922  24.137   1.409  1.00  0.00     0.043 A 
ATOM     14  H1  UNL     1       3.144  23.952  -0.291  1.00  0.00     0.165 HD
HETATM   15  C17 UNL     1       1.991  25.434   1.843  1.00  0.00     0.032 A 
HETATM   16  C21 UNL     1       1.152  23.188   2.062  1.00  0.00     0.002 A 
HETATM   17  C18 UNL     1       1.278  25.819   2.967  1.00  0.00     0.026 A 
HETATM   18  C19 UNL     1       0.507  24.867   3.625  1.00  0.00     0.035 A 
HETATM   19 CL1  UNL     1      -0.430  25.283   5.067  1.00  0.00    -0.084 Cl
HETATM   20  C20 UNL     1       0.453  23.568   3.168  1.00  0.00     0.038 A 
ENDBRANCH   8  10
ENDBRANCH   7   8
ENDBRANCH   6   7
BRANCH   6  21
HETATM   21  C22 UNL     1      -1.365  20.143  -1.233  1.00  0.00     0.053 A 
HETATM   22  C23 UNL     1      -1.020  21.588  -1.405  1.00  0.00    -0.022 A 
HETATM   23  C24 UNL     1      -0.048  21.428  -2.329  1.00  0.00    -0.024 A 
HETATM   24  C25 UNL     1      -0.296  19.994  -2.251  1.00  0.00     0.022 A 
ENDBRANCH   6  21
BRANCH   1  25
HETATM   25  O3  UNL     1      -1.882  18.904   2.127  1.00  0.00    -0.331 OA
BRANCH  25  26
HETATM   26  C5  UNL     1      -2.497  19.107   3.326  1.00  0.00     0.414 C 
HETATM   27  O2  UNL     1      -1.968  18.123   4.197  1.00  0.00    -0.331 OA
HETATM   28  C3  UNL     1      -0.876  18.692   4.823  1.00  0.00     0.154 C 
HETATM   29  C2  UNL     1      -1.454  19.625   5.901  1.00  0.00     0.180 C 
HETATM   30  C4  UNL     1       0.057  17.687   5.423  1.00  0.00     0.042 C 
HETATM   31  C26 UNL     1      -2.384  20.553   5.151  1.00  0.00     0.182 C 
HETATM   32  O5  UNL     1      -2.243  20.375   3.777  1.00  0.00    -0.329 OA
BRANCH  29  33
HETATM   33  O1  UNL     1      -0.454  20.259   6.593  1.00  0.00    -0.385 OA
HETATM   34  C1  UNL     1      -0.495  19.982   7.957  1.00  0.00     0.202 C 
ENDBRANCH  29  33
BRANCH  31  35
HETATM   35  C27 UNL     1      -2.002  22.015   5.409  1.00  0.00     0.199 C 
BRANCH  35  36
HETATM   36  O6  UNL     1      -3.125  22.833   5.509  1.00  0.00    -0.398 OA
ATOM     37  H6  UNL     1      -3.821  22.550   4.928  1.00  0.00     0.209 HD
ENDBRANCH  35  36
ENDBRANCH  31  35
ENDBRANCH  25  26
ENDBRANCH   1  25
TORSDOF 10
ENDMDL
MODEL 5
REMARK VINA RESULT: -6.152575113      2.183      6.005
REMARK  10 active torsions:
REMARK  status: ('A' for Active; 'I' for Inactive)
REMARK    1  A    between atoms: O1_2  and  C2_3 
REMARK    2  A    between atoms: C5_7  and  O3_8 
REMARK    3  A    between atoms: O3_8  and  C6_9 
REMARK    4  A    between atoms: C8_11  and  C25_32 
REMARK    5  A    between atoms: C11_14  and  O4_15 
REMARK    6  A    between atoms: C11_14  and  C22_29 
REMARK    7  A    between atoms: O4_15  and  C12_16 
REMARK    8  A    between atoms: C12_16  and  C14_18 
REMARK    9  A    between atoms: C26_34  and  C27_35 
REMARK   10  A    between atoms: C27_35  and  O6_36 
ROOT
HETATM    1  C6  UNL     1      -0.703  20.133   3.058  1.00  0.00     0.162 C 
HETATM    2  C7  UNL     1      -2.168  19.943   2.635  1.00  0.00     0.040 C 
HETATM    3  C8  UNL     1      -2.208  18.662   1.814  1.00  0.00    -0.003 C 
HETATM    4  C9  UNL     1      -1.219  17.621   2.300  1.00  0.00     0.008 C 
HETATM    5  C10 UNL     1       0.188  18.086   2.161  1.00  0.00     0.042 C 
HETATM    6  C11 UNL     1       0.166  19.620   1.940  1.00  0.00     0.095 C 
ENDROOT
BRANCH   6   7
HETATM    7  O4  UNL     1       1.452  20.003   2.021  1.00  0.00    -0.367 OA
BRANCH   7   8
HETATM    8  C12 UNL     1       1.938  20.809   3.003  1.00  0.00     0.154 C 
HETATM    9  C13 UNL     1       3.389  20.266   3.336  1.00  0.00     0.045 C 
BRANCH   8  10
HETATM   10  C14 UNL     1       2.221  22.144   2.432  1.00  0.00    -0.002 A 
HETATM   11  C15 UNL     1       3.145  22.400   1.403  1.00  0.00     0.099 A 
HETATM   12  N1  UNL     1       3.124  23.700   1.064  1.00  0.00    -0.365 N 
HETATM   13  C16 UNL     1       2.222  24.341   1.822  1.00  0.00     0.043 A 
ATOM     14  H1  UNL     1       3.702  24.131   0.344  1.00  0.00     0.165 HD
HETATM   15  C17 UNL     1       1.847  25.658   1.863  1.00  0.00     0.032 A 
HETATM   16  C21 UNL     1       1.662  23.396   2.665  1.00  0.00     0.002 A 
HETATM   17  C18 UNL     1       0.883  26.067   2.770  1.00  0.00     0.026 A 
HETATM   18  C19 UNL     1       0.322  25.120   3.619  1.00  0.00     0.035 A 
HETATM   19 CL1  UNL     1      -0.913  25.567   4.804  1.00  0.00    -0.084 Cl
HETATM   20  C20 UNL     1       0.716  23.801   3.558  1.00  0.00     0.038 A 
ENDBRANCH   8  10
ENDBRANCH   7   8
ENDBRANCH   6   7
BRANCH   6  21
HETATM   21  C22 UNL     1      -0.459  19.798   0.581  1.00  0.00     0.053 A 
HETATM   22  C23 UNL     1      -0.230  21.200   0.115  1.00  0.00    -0.022 A 
HETATM   23  C24 UNL     1       0.631  20.915  -0.887  1.00  0.00    -0.024 A 
HETATM   24  C25 UNL     1       0.484  19.510  -0.527  1.00  0.00     0.022 A 
ENDBRANCH   6  21
BRANCH   1  25
HETATM   25  O3  UNL     1      -0.488  19.311   4.166  1.00  0.00    -0.331 OA
BRANCH  25  26
HETATM   26  C5  UNL     1      -1.076  19.696   5.333  1.00  0.00     0.414 C 
HETATM   27  O2  UNL     1      -1.646  18.521   5.880  1.00  0.00    -0.331 OA
HETATM   28  C3  UNL     1      -0.693  17.965   6.709  1.00  0.00     0.154 C 
HETATM   29  C2  UNL     1      -0.713  18.812   7.993  1.00  0.00     0.180 C 
HETATM   30  C4  UNL     1      -0.938  16.519   7.013  1.00  0.00     0.042 C 
HETATM   31  C26 UNL     1      -0.479  20.230   7.523  1.00  0.00     0.182 C 
HETATM   32  O5  UNL     1      -0.142  20.245   6.171  1.00  0.00    -0.329 OA
BRANCH  29  33
HETATM   33  O1  UNL     1       0.208  18.354   8.900  1.00  0.00    -0.385 OA
HETATM   34  C1  UNL     1      -0.363  18.075  10.139  1.00  0.00     0.202 C 
ENDBRANCH  29  33
BRANCH  31  35
HETATM   35  C27 UNL     1       0.727  20.841   8.246  1.00  0.00     0.199 C 
BRANCH  35  36
HETATM   36  O6  UNL     1       1.929  20.300   7.797  1.00  0.00    -0.398 OA
ATOM     37  H6  UNL     1       2.676  20.678   8.245  1.00  0.00     0.209 HD
ENDBRANCH  35  36
ENDBRANCH  31  35
ENDBRANCH  25  26
ENDBRANCH   1  25
TORSDOF 10
ENDMDL
