MODEL 1
REMARK VINA RESULT: -7.405835397      0.000      0.000
REMARK  7 active torsions:
REMARK  status: ('A' for Active; 'I' for Inactive)
REMARK    1  A    between atoms: C2_2  and  C3_3 
REMARK    2  A    between atoms: C2_2  and  C8_9 
REMARK    3  A    between atoms: C3_3  and  C4_4 
REMARK    4  A    between atoms: C4_4  and  C5_5 
REMARK    5  A    between atoms: C5_5  and  N1_6 
REMARK    6  A    between atoms: C21_22  and  C22_23 
REMARK    7  A    between atoms: C28_36  and  O3_37 
ROOT
HETATM    1  C8  UNL     1      -1.857  19.431   5.836  1.00  0.00    -0.006 C 
HETATM    2  C9  UNL     1      -2.891  19.774   4.789  1.00  0.00     0.006 C 
HETATM    3  C10 UNL     1      -2.165  20.061   3.523  1.00  0.00     0.006 C 
HETATM    4  C11 UNL     1      -0.692  19.755   3.840  1.00  0.00    -0.005 C 
HETATM    5  C12 UNL     1      -0.563  20.027   5.332  1.00  0.00    -0.006 C 
HETATM    6  C13 UNL     1      -0.442  21.482   5.618  1.00  0.00     0.006 C 
HETATM    7  C14 UNL     1       0.776  22.078   4.960  1.00  0.00     0.013 C 
HETATM    8  C15 UNL     1       1.321  21.293   3.823  1.00  0.00    -0.008 C 
HETATM    9  C16 UNL     1       2.286  20.274   4.348  1.00  0.00     0.019 C 
HETATM   10  C17 UNL     1       0.137  20.699   3.085  1.00  0.00     0.002 C 
HETATM   11  C18 UNL     1       0.715  20.186   1.795  1.00  0.00     0.021 C 
HETATM   12  C19 UNL     1       1.615  21.346   1.405  1.00  0.00     0.020 C 
HETATM   13  C20 UNL     1       2.865  20.749   0.791  1.00  0.00     0.021 C 
HETATM   14  C21 UNL     1       0.930  22.308   0.474  1.00  0.00     0.178 C 
HETATM   15  O1  UNL     1       1.865  23.376   0.251  1.00  0.00    -0.310 OA
HETATM   16  C26 UNL     1       2.118  24.122   1.422  1.00  0.00     0.262 C 
HETATM   17  O2  UNL     1       2.766  25.192   1.417  1.00  0.00    -0.265 OA
HETATM   18  C27 UNL     1       1.540  23.522   2.668  1.00  0.00     0.150 C 
HETATM   19  C28 UNL     1       1.935  22.090   2.700  1.00  0.00     0.084 C 
ENDROOT
BRANCH  14  20
HETATM   20  C22 UNL     1       0.438  21.721  -0.779  1.00  0.00     0.003 A 
HETATM   21  C23 UNL     1      -0.407  20.640  -0.822  1.00  0.00     0.101 A 
HETATM   22  N2  UNL     1      -0.791  20.176  -2.021  1.00  0.00    -0.342 N 
HETATM   23  C24 UNL     1      -0.408  20.698  -3.197  1.00  0.00     0.178 A 
ATOM     24  H2  UNL     1      -1.418  19.371  -2.041  1.00  0.00     0.167 HD
HETATM   25 CL1  UNL     1      -0.955  20.031  -4.745  1.00  0.00    -0.045 Cl
HETATM   26  N3  UNL     1       0.417  21.754  -3.161  1.00  0.00    -0.342 N 
HETATM   27  C25 UNL     1       0.832  22.256  -1.988  1.00  0.00     0.101 A 
ATOM     28  H3  UNL     1       0.732  22.180  -4.033  1.00  0.00     0.167 HD
ENDBRANCH  14  20
BRANCH  19  29
HETATM   29  O3  UNL     1       3.320  22.046   2.865  1.00  0.00    -0.388 OA
ATOM     30  H3  UNL     1       3.646  21.326   2.338  1.00  0.00     0.210 HD
ENDBRANCH  19  29
BRANCH   1  31
HETATM   31  C2  UNL     1      -2.293  19.912   7.174  1.00  0.00    -0.014 C 
HETATM   32  C1  UNL     1      -1.464  19.274   8.282  1.00  0.00     0.010 C 
BRANCH  31  33
HETATM   33  C3  UNL     1      -3.759  19.488   7.318  1.00  0.00     0.006 C 
BRANCH  33  34
HETATM   34  C4  UNL     1      -4.076  19.073   8.743  1.00  0.00     0.030 C 
BRANCH  34  35
HETATM   35  C5  UNL     1      -4.531  17.619   8.633  1.00  0.00     0.271 C 
BRANCH  35  36
HETATM   36  N1  UNL     1      -4.602  16.951   9.898  1.00  0.00     0.080 N 
HETATM   37  C6  UNL     1      -4.513  15.518   9.808  1.00  0.00     0.309 C 
HETATM   38  C7  UNL     1      -3.585  17.416  10.811  1.00  0.00     0.309 C 
ENDBRANCH  35  36
ENDBRANCH  34  35
ENDBRANCH  33  34
ENDBRANCH  31  33
ENDBRANCH   1  31
TORSDOF 7
ENDMDL
MODEL 2
REMARK VINA RESULT: -7.392174462      5.798      9.316
REMARK  7 active torsions:
REMARK  status: ('A' for Active; 'I' for Inactive)
REMARK    1  A    between atoms: C2_2  and  C3_3 
REMARK    2  A    between atoms: C2_2  and  C8_9 
REMARK    3  A    between atoms: C3_3  and  C4_4 
REMARK    4  A    between atoms: C4_4  and  C5_5 
REMARK    5  A    between atoms: C5_5  and  N1_6 
REMARK    6  A    between atoms: C21_22  and  C22_23 
REMARK    7  A    between atoms: C28_36  and  O3_37 
ROOT
HETATM    1  C8  UNL     1       0.195  23.202   4.658  1.00  0.00    -0.006 C 
HETATM    2  C9  UNL     1       0.776  23.335   6.047  1.00  0.00     0.006 C 
HETATM    3  C10 UNL     1       0.667  22.005   6.705  1.00  0.00     0.006 C 
HETATM    4  C11 UNL     1       0.118  21.073   5.613  1.00  0.00    -0.005 C 
HETATM    5  C12 UNL     1      -0.702  21.987   4.714  1.00  0.00    -0.006 C 
HETATM    6  C13 UNL     1      -2.039  22.279   5.300  1.00  0.00     0.006 C 
HETATM    7  C14 UNL     1      -2.847  21.020   5.494  1.00  0.00     0.013 C 
HETATM    8  C15 UNL     1      -2.051  19.767   5.538  1.00  0.00    -0.008 C 
HETATM    9  C16 UNL     1      -1.863  19.254   4.144  1.00  0.00     0.019 C 
HETATM   10  C17 UNL     1      -0.755  20.089   6.257  1.00  0.00     0.002 C 
HETATM   11  C18 UNL     1      -0.140  18.747   6.545  1.00  0.00     0.021 C 
HETATM   12  C19 UNL     1      -1.352  17.976   7.036  1.00  0.00     0.020 C 
HETATM   13  C20 UNL     1      -1.225  16.564   6.503  1.00  0.00     0.021 C 
HETATM   14  C21 UNL     1      -1.476  18.008   8.534  1.00  0.00     0.178 C 
HETATM   15  O1  UNL     1      -2.692  17.308   8.845  1.00  0.00    -0.310 OA
HETATM   16  C26 UNL     1      -3.837  17.983   8.373  1.00  0.00     0.262 C 
HETATM   17  O2  UNL     1      -5.001  17.640   8.678  1.00  0.00    -0.265 OA
HETATM   18  C27 UNL     1      -3.537  19.147   7.478  1.00  0.00     0.150 C 
HETATM   19  C28 UNL     1      -2.572  18.682   6.447  1.00  0.00     0.084 C 
ENDROOT
BRANCH  14  20
HETATM   20  C22 UNL     1      -0.319  17.478   9.268  1.00  0.00     0.003 A 
HETATM   21  C23 UNL     1      -0.252  16.190   9.737  1.00  0.00     0.101 A 
HETATM   22  N2  UNL     1       0.850  15.809  10.403  1.00  0.00    -0.342 N 
HETATM   23  C24 UNL     1       1.905  16.603  10.645  1.00  0.00     0.178 A 
ATOM     24  H2  UNL     1       0.888  14.850  10.748  1.00  0.00     0.167 HD
HETATM   25 CL1  UNL     1       3.327  16.031  11.533  1.00  0.00    -0.045 Cl
HETATM   26  N3  UNL     1       1.845  17.862  10.188  1.00  0.00    -0.342 N 
HETATM   27  C25 UNL     1       0.766  18.293   9.517  1.00  0.00     0.101 A 
ATOM     28  H3  UNL     1       2.626  18.496  10.351  1.00  0.00     0.167 HD
ENDBRANCH  14  20
BRANCH  19  29
HETATM   29  O3  UNL     1      -3.237  17.752   5.648  1.00  0.00    -0.388 OA
ATOM     30  H3  UNL     1      -2.965  16.887   5.933  1.00  0.00     0.210 HD
ENDBRANCH  19  29
BRANCH   1  31
HETATM   31  C2  UNL     1      -0.478  24.465   4.253  1.00  0.00    -0.014 C 
HETATM   32  C1  UNL     1       0.347  25.217   3.216  1.00  0.00     0.010 C 
BRANCH  31  33
HETATM   33  C3  UNL     1      -0.596  25.308   5.528  1.00  0.00     0.006 C 
BRANCH  33  34
HETATM   34  C4  UNL     1      -1.903  26.078   5.561  1.00  0.00     0.030 C 
BRANCH  34  35
HETATM   35  C5  UNL     1      -1.890  26.812   6.900  1.00  0.00     0.271 C 
BRANCH  35  36
HETATM   36  N1  UNL     1      -2.150  28.215   6.778  1.00  0.00     0.080 N 
HETATM   37  C6  UNL     1      -3.062  28.551   5.717  1.00  0.00     0.309 C 
HETATM   38  C7  UNL     1      -2.651  28.780   8.008  1.00  0.00     0.309 C 
ENDBRANCH  35  36
ENDBRANCH  34  35
ENDBRANCH  33  34
ENDBRANCH  31  33
ENDBRANCH   1  31
TORSDOF 7
ENDMDL
MODEL 3
REMARK VINA RESULT: -7.344414453      4.040      5.400
REMARK  7 active torsions:
REMARK  status: ('A' for Active; 'I' for Inactive)
REMARK    1  A    between atoms: C2_2  and  C3_3 
REMARK    2  A    between atoms: C2_2  and  C8_9 
REMARK    3  A    between atoms: C3_3  and  C4_4 
REMARK    4  A    between atoms: C4_4  and  C5_5 
REMARK    5  A    between atoms: C5_5  and  N1_6 
REMARK    6  A    between atoms: C21_22  and  C22_23 
REMARK    7  A    between atoms: C28_36  and  O3_37 
ROOT
HETATM    1  C8  UNL     1      -1.075  21.649   5.535  1.00  0.00    -0.006 C 
HETATM    2  C9  UNL     1      -0.158  20.753   6.335  1.00  0.00     0.006 C 
HETATM    3  C10 UNL     1       1.155  20.723   5.637  1.00  0.00     0.006 C 
HETATM    4  C11 UNL     1       1.005  21.723   4.479  1.00  0.00    -0.005 C 
HETATM    5  C12 UNL     1      -0.480  21.695   4.147  1.00  0.00    -0.006 C 
HETATM    6  C13 UNL     1      -0.836  20.509   3.322  1.00  0.00     0.006 C 
HETATM    7  C14 UNL     1      -0.096  20.504   2.008  1.00  0.00     0.013 C 
HETATM    8  C15 UNL     1       1.133  21.337   1.979  1.00  0.00    -0.008 C 
HETATM    9  C16 UNL     1       0.768  22.739   1.598  1.00  0.00     0.019 C 
HETATM   10  C17 UNL     1       1.782  21.218   3.345  1.00  0.00     0.002 C 
HETATM   11  C18 UNL     1       3.152  21.814   3.163  1.00  0.00     0.021 C 
HETATM   12  C19 UNL     1       3.561  21.191   1.841  1.00  0.00     0.020 C 
HETATM   13  C20 UNL     1       4.330  22.247   1.073  1.00  0.00     0.021 C 
HETATM   14  C21 UNL     1       4.362  19.932   2.029  1.00  0.00     0.178 C 
HETATM   15  O1  UNL     1       4.614  19.422   0.709  1.00  0.00    -0.310 OA
HETATM   16  C26 UNL     1       3.433  19.007   0.059  1.00  0.00     0.262 C 
HETATM   17  O2  UNL     1       3.440  18.381  -1.024  1.00  0.00    -0.265 OA
HETATM   18  C27 UNL     1       2.172  19.380   0.779  1.00  0.00     0.150 C 
HETATM   19  C28 UNL     1       2.263  20.822   1.124  1.00  0.00     0.084 C 
ENDROOT
BRANCH  14  20
HETATM   20  C22 UNL     1       5.591  20.087   2.817  1.00  0.00     0.003 A 
HETATM   21  C23 UNL     1       6.699  20.755   2.358  1.00  0.00     0.101 A 
HETATM   22  N2  UNL     1       7.775  20.832   3.157  1.00  0.00    -0.342 N 
HETATM   23  C24 UNL     1       7.850  20.298   4.386  1.00  0.00     0.178 A 
ATOM     24  H2  UNL     1       8.593  21.330   2.806  1.00  0.00     0.167 HD
HETATM   25 CL1  UNL     1       9.307  20.437   5.385  1.00  0.00    -0.045 Cl
HETATM   26  N3  UNL     1       6.771  19.644   4.839  1.00  0.00    -0.342 N 
HETATM   27  C25 UNL     1       5.669  19.538   4.080  1.00  0.00     0.101 A 
ATOM     28  H3  UNL     1       6.787  19.223   5.768  1.00  0.00     0.167 HD
ENDBRANCH  14  20
BRANCH  19  29
HETATM   29  O3  UNL     1       2.240  21.537  -0.074  1.00  0.00    -0.388 OA
ATOM     30  H3  UNL     1       3.049  21.346  -0.534  1.00  0.00     0.210 HD
ENDBRANCH  19  29
BRANCH   1  31
HETATM   31  C2  UNL     1      -2.476  21.154   5.604  1.00  0.00    -0.014 C 
HETATM   32  C1  UNL     1      -3.463  22.311   5.693  1.00  0.00     0.010 C 
BRANCH  31  33
HETATM   33  C3  UNL     1      -2.561  20.305   6.878  1.00  0.00     0.006 C 
BRANCH  33  34
HETATM   34  C4  UNL     1      -3.713  19.319   6.808  1.00  0.00     0.030 C 
BRANCH  34  35
HETATM   35  C5  UNL     1      -4.233  19.224   8.241  1.00  0.00     0.271 C 
BRANCH  35  36
HETATM   36  N1  UNL     1      -4.367  17.876   8.705  1.00  0.00     0.080 N 
HETATM   37  C6  UNL     1      -3.592  16.921   7.959  1.00  0.00     0.309 C 
HETATM   38  C7  UNL     1      -4.026  17.750  10.102  1.00  0.00     0.309 C 
ENDBRANCH  35  36
ENDBRANCH  34  35
ENDBRANCH  33  34
ENDBRANCH  31  33
ENDBRANCH   1  31
TORSDOF 7
ENDMDL
MODEL 4
REMARK VINA RESULT: -7.339364163      4.975      9.393
REMARK  7 active torsions:
REMARK  status: ('A' for Active; 'I' for Inactive)
REMARK    1  A    between atoms: C2_2  and  C3_3 
REMARK    2  A    between atoms: C2_2  and  C8_9 
REMARK    3  A    between atoms: C3_3  and  C4_4 
REMARK    4  A    between atoms: C4_4  and  C5_5 
REMARK    5  A    between atoms: C5_5  and  N1_6 
REMARK    6  A    between atoms: C21_22  and  C22_23 
REMARK    7  A    between atoms: C28_36  and  O3_37 
ROOT
HETATM    1  C8  UNL     1       3.624  18.870   4.475  1.00  0.00    -0.006 C 
HETATM    2  C9  UNL     1       3.643  18.989   5.982  1.00  0.00     0.006 C 
HETATM    3  C10 UNL     1       2.235  18.899   6.454  1.00  0.00     0.006 C 
HETATM    4  C11 UNL     1       1.416  18.604   5.187  1.00  0.00    -0.005 C 
HETATM    5  C12 UNL     1       2.219  19.243   4.062  1.00  0.00    -0.006 C 
HETATM    6  C13 UNL     1       2.002  20.714   3.999  1.00  0.00     0.006 C 
HETATM    7  C14 UNL     1       0.554  21.052   3.747  1.00  0.00     0.013 C 
HETATM    8  C15 UNL     1      -0.407  19.971   4.082  1.00  0.00    -0.008 C 
HETATM    9  C16 UNL     1      -0.566  19.070   2.896  1.00  0.00     0.019 C 
HETATM   10  C17 UNL     1       0.121  19.274   5.321  1.00  0.00     0.002 C 
HETATM   11  C18 UNL     1      -1.023  18.415   5.787  1.00  0.00     0.021 C 
HETATM   12  C19 UNL     1      -2.184  19.383   5.643  1.00  0.00     0.020 C 
HETATM   13  C20 UNL     1      -3.372  18.579   5.154  1.00  0.00     0.021 C 
HETATM   14  C21 UNL     1      -2.480  20.109   6.926  1.00  0.00     0.178 C 
HETATM   15  O1  UNL     1      -3.541  21.031   6.623  1.00  0.00    -0.310 OA
HETATM   16  C26 UNL     1      -3.137  22.038   5.721  1.00  0.00     0.262 C 
HETATM   17  O2  UNL     1      -3.847  23.032   5.454  1.00  0.00    -0.265 OA
HETATM   18  C27 UNL     1      -1.785  21.812   5.114  1.00  0.00     0.150 C 
HETATM   19  C28 UNL     1      -1.750  20.417   4.604  1.00  0.00     0.084 C 
ENDROOT
BRANCH  14  20
HETATM   20  C22 UNL     1      -2.794  19.248   8.073  1.00  0.00     0.003 A 
HETATM   21  C23 UNL     1      -1.838  18.565   8.783  1.00  0.00     0.101 A 
HETATM   22  N2  UNL     1      -2.234  17.798   9.811  1.00  0.00    -0.342 N 
HETATM   23  C24 UNL     1      -3.509  17.647  10.203  1.00  0.00     0.178 A 
ATOM     24  H2  UNL     1      -1.516  17.294  10.332  1.00  0.00     0.167 HD
HETATM   25 CL1  UNL     1      -3.958  16.614  11.570  1.00  0.00    -0.045 Cl
HETATM   26  N3  UNL     1      -4.446  18.312   9.512  1.00  0.00    -0.342 N 
HETATM   27  C25 UNL     1      -4.104  19.092   8.475  1.00  0.00     0.101 A 
ATOM     28  H3  UNL     1      -5.427  18.224   9.777  1.00  0.00     0.167 HD
ENDBRANCH  14  20
BRANCH  19  29
HETATM   29  O3  UNL     1      -2.657  20.339   3.547  1.00  0.00    -0.388 OA
ATOM     30  H3  UNL     1      -3.436  20.819   3.805  1.00  0.00     0.210 HD
ENDBRANCH  19  29
BRANCH   1  31
HETATM   31  C2  UNL     1       4.699  19.703   3.874  1.00  0.00    -0.014 C 
HETATM   32  C1  UNL     1       5.018  19.247   2.456  1.00  0.00     0.010 C 
BRANCH  31  33
HETATM   33  C3  UNL     1       5.931  19.510   4.767  1.00  0.00     0.006 C 
BRANCH  33  34
HETATM   34  C4  UNL     1       7.055  20.449   4.366  1.00  0.00     0.030 C 
BRANCH  34  35
HETATM   35  C5  UNL     1       8.271  19.544   4.180  1.00  0.00     0.271 C 
BRANCH  35  36
HETATM   36  N1  UNL     1       9.155  19.991   3.147  1.00  0.00     0.080 N 
HETATM   37  C6  UNL     1       8.542  20.073   1.847  1.00  0.00     0.309 C 
HETATM   38  C7  UNL     1       9.744  21.272   3.456  1.00  0.00     0.309 C 
ENDBRANCH  35  36
ENDBRANCH  34  35
ENDBRANCH  33  34
ENDBRANCH  31  33
ENDBRANCH   1  31
TORSDOF 7
ENDMDL
MODEL 5
REMARK VINA RESULT: -7.226474500      5.027      8.832
REMARK  7 active torsions:
REMARK  status: ('A' for Active; 'I' for Inactive)
REMARK    1  A    between atoms: C2_2  and  C3_3 
REMARK    2  A    between atoms: C2_2  and  C8_9 
REMARK    3  A    between atoms: C3_3  and  C4_4 
REMARK    4  A    between atoms: C4_4  and  C5_5 
REMARK    5  A    between atoms: C5_5  and  N1_6 
REMARK    6  A    between atoms: C21_22  and  C22_23 
REMARK    7  A    between atoms: C28_36  and  O3_37 
ROOT
HETATM    1  C8  UNL     1       3.694  18.802   4.535  1.00  0.00    -0.006 C 
HETATM    2  C9  UNL     1       3.695  18.915   6.043  1.00  0.00     0.006 C 
HETATM    3  C10 UNL     1       2.280  18.845   6.496  1.00  0.00     0.006 C 
HETATM    4  C11 UNL     1       1.474  18.566   5.217  1.00  0.00    -0.005 C 
HETATM    5  C12 UNL     1       2.300  19.197   4.105  1.00  0.00    -0.006 C 
HETATM    6  C13 UNL     1       2.106  20.671   4.045  1.00  0.00     0.006 C 
HETATM    7  C14 UNL     1       0.667  21.031   3.775  1.00  0.00     0.013 C 
HETATM    8  C15 UNL     1      -0.315  19.963   4.094  1.00  0.00    -0.008 C 
HETATM    9  C16 UNL     1      -0.471  19.069   2.903  1.00  0.00     0.019 C 
HETATM   10  C17 UNL     1       0.187  19.254   5.337  1.00  0.00     0.002 C 
HETATM   11  C18 UNL     1      -0.976  18.411   5.784  1.00  0.00     0.021 C 
HETATM   12  C19 UNL     1      -2.120  19.396   5.629  1.00  0.00     0.020 C 
HETATM   13  C20 UNL     1      -3.313  18.612   5.122  1.00  0.00     0.021 C 
HETATM   14  C21 UNL     1      -2.423  20.122   6.911  1.00  0.00     0.178 C 
HETATM   15  O1  UNL     1      -3.466  21.060   6.597  1.00  0.00    -0.310 OA
HETATM   16  C26 UNL     1      -3.035  22.064   5.704  1.00  0.00     0.262 C 
HETATM   17  O2  UNL     1      -3.727  23.070   5.432  1.00  0.00    -0.265 OA
HETATM   18  C27 UNL     1      -1.679  21.821   5.115  1.00  0.00     0.150 C 
HETATM   19  C28 UNL     1      -1.657  20.427   4.600  1.00  0.00     0.084 C 
ENDROOT
BRANCH  14  20
HETATM   20  C22 UNL     1      -2.764  19.261   8.050  1.00  0.00     0.003 A 
HETATM   21  C23 UNL     1      -1.829  18.556   8.766  1.00  0.00     0.101 A 
HETATM   22  N2  UNL     1      -2.249  17.792   9.787  1.00  0.00    -0.342 N 
HETATM   23  C24 UNL     1      -3.530  17.665  10.165  1.00  0.00     0.178 A 
ATOM     24  H2  UNL     1      -1.545  17.271  10.311  1.00  0.00     0.167 HD
HETATM   25 CL1  UNL     1      -4.012  16.634  11.523  1.00  0.00    -0.045 Cl
HETATM   26  N3  UNL     1      -4.447  18.352   9.469  1.00  0.00    -0.342 N 
HETATM   27  C25 UNL     1      -4.081  19.130   8.440  1.00  0.00     0.101 A 
ATOM     28  H3  UNL     1      -5.432  18.282   9.725  1.00  0.00     0.167 HD
ENDBRANCH  14  20
BRANCH  19  29
HETATM   29  O3  UNL     1      -2.551  20.366   3.531  1.00  0.00    -0.388 OA
ATOM     30  H3  UNL     1      -3.425  20.490   3.883  1.00  0.00     0.210 HD
ENDBRANCH  19  29
BRANCH   1  31
HETATM   31  C2  UNL     1       4.790  19.621   3.952  1.00  0.00    -0.014 C 
HETATM   32  C1  UNL     1       5.265  19.037   2.628  1.00  0.00     0.010 C 
BRANCH  31  33
HETATM   33  C3  UNL     1       5.934  19.584   4.972  1.00  0.00     0.006 C 
BRANCH  33  34
HETATM   34  C4  UNL     1       7.228  19.115   4.332  1.00  0.00     0.030 C 
BRANCH  34  35
HETATM   35  C5  UNL     1       7.761  18.039   5.275  1.00  0.00     0.271 C 
BRANCH  35  36
HETATM   36  N1  UNL     1       6.757  17.108   5.696  1.00  0.00     0.080 N 
HETATM   37  C6  UNL     1       6.617  15.967   4.830  1.00  0.00     0.309 C 
HETATM   38  C7  UNL     1       6.987  16.636   7.041  1.00  0.00     0.309 C 
ENDBRANCH  35  36
ENDBRANCH  34  35
ENDBRANCH  33  34
ENDBRANCH  31  33
ENDBRANCH   1  31
TORSDOF 7
ENDMDL
