MODEL 1
REMARK VINA RESULT: -8.579933636      0.000      0.000
REMARK  6 active torsions:
REMARK  status: ('A' for Active; 'I' for Inactive)
REMARK    1  A    between atoms: C2_2  and  C3_3 
REMARK    2  A    between atoms: C5_9  and  C6_10 
REMARK       I    between atoms: C6_10  and  N2_12 
REMARK    3  A    between atoms: N2_12  and  C7_14 
REMARK    4  A    between atoms: C8_16  and  C9_17 
REMARK    5  A    between atoms: C15_23  and  C17_25 
REMARK       I    between atoms: C17_25  and  N3_27 
REMARK    6  A    between atoms: C22_32  and  C23_33 
ROOT
HETATM    1  C7  UNL     1      -0.234  24.918   4.904  1.00  0.00     0.084 A 
HETATM    2  S1  UNL     1       0.863  25.197   3.639  1.00  0.00    -0.075 SA
HETATM    3  C8  UNL     1       0.907  23.632   2.977  1.00  0.00    -0.005 A 
HETATM    4  C12 UNL     1       0.049  22.931   3.779  1.00  0.00    -0.035 A 
HETATM    5  C13 UNL     1      -0.555  23.586   4.788  1.00  0.00    -0.016 A 
HETATM    6  C14 UNL     1      -1.522  22.910   5.739  1.00  0.00     0.061 C 
HETATM    7  C15 UNL     1      -1.796  21.477   5.447  1.00  0.00     0.042 C 
HETATM    8  C16 UNL     1      -3.223  21.179   5.864  1.00  0.00     0.026 C 
HETATM    9  C24 UNL     1      -1.747  21.341   3.934  1.00  0.00     0.024 C 
HETATM   10  C25 UNL     1      -0.271  21.455   3.600  1.00  0.00     0.041 C 
ENDROOT
BRANCH   1  11
HETATM   11  N2  UNL     1      -0.690  25.911   5.856  1.00  0.00    -0.316 N 
HETATM   12  C6  UNL     1      -1.834  26.677   5.594  1.00  0.00     0.263 C 
HETATM   13  O2  UNL     1      -2.405  26.414   4.463  1.00  0.00    -0.267 OA
ATOM     14  H2  UNL     1      -0.174  26.053   6.725  1.00  0.00     0.169 HD
BRANCH  12  15
HETATM   15  C5  UNL     1      -2.468  27.699   6.374  1.00  0.00     0.121 A 
HETATM   16  C3  UNL     1      -3.275  28.732   5.961  1.00  0.00     0.053 A 
HETATM   17  N1  UNL     1      -3.612  29.385   7.128  1.00  0.00    -0.261 N 
HETATM   18  O1  UNL     1      -3.070  28.807   8.133  1.00  0.00    -0.206 OA
ATOM     19  H1  UNL     1      -4.210  30.210   7.182  1.00  0.00     0.194 HD
HETATM   20  C4  UNL     1      -2.358  27.780   7.782  1.00  0.00     0.267 A 
HETATM   21  F1  UNL     1      -1.659  26.963   8.617  1.00  0.00    -0.175 F 
BRANCH  16  22
HETATM   22  C2  UNL     1      -3.735  29.165   4.622  1.00  0.00     0.056 C 
HETATM   23  C1  UNL     1      -3.007  30.443   4.208  1.00  0.00     0.011 C 
ENDBRANCH  16  22
ENDBRANCH  12  15
ENDBRANCH   1  11
BRANCH   3  24
HETATM   24  C9  UNL     1       1.699  23.125   1.790  1.00  0.00     0.018 C 
HETATM   25  C10 UNL     1       2.234  24.365   1.105  1.00  0.00     0.015 C 
HETATM   26  C11 UNL     1       2.884  22.308   2.235  1.00  0.00     0.015 C 
ENDBRANCH   3  24
BRANCH   7  27
HETATM   27  C17 UNL     1      -0.826  20.568   6.111  1.00  0.00     0.229 C 
HETATM   28  O3  UNL     1       0.012  21.182   6.871  1.00  0.00    -0.272 OA
HETATM   29  N3  UNL     1      -0.748  19.173   5.986  1.00  0.00    -0.337 N 
HETATM   30  C18 UNL     1      -1.581  18.312   5.196  1.00  0.00     0.127 C 
HETATM   31  C22 UNL     1       0.305  18.471   6.734  1.00  0.00     0.188 C 
HETATM   32  C19 UNL     1      -2.093  17.195   6.104  1.00  0.00     0.020 C 
HETATM   33  C20 UNL     1      -0.947  16.321   6.472  1.00  0.00     0.004 C 
HETATM   34  C21 UNL     1       0.379  17.021   6.252  1.00  0.00     0.036 C 
BRANCH  31  35
HETATM   35  C23 UNL     1       0.168  18.540   8.176  1.00  0.00     0.196 C 
HETATM   36  O4  UNL     1       1.138  18.371   8.944  1.00  0.00    -0.646 OA
HETATM   37  O5  UNL     1      -1.070  18.800   8.736  1.00  0.00    -0.646 OA
ENDBRANCH  31  35
ENDBRANCH   7  27
TORSDOF 6
ENDMDL
MODEL 2
REMARK VINA RESULT: -8.482295384      1.278      1.697
REMARK  6 active torsions:
REMARK  status: ('A' for Active; 'I' for Inactive)
REMARK    1  A    between atoms: C2_2  and  C3_3 
REMARK    2  A    between atoms: C5_9  and  C6_10 
REMARK       I    between atoms: C6_10  and  N2_12 
REMARK    3  A    between atoms: N2_12  and  C7_14 
REMARK    4  A    between atoms: C8_16  and  C9_17 
REMARK    5  A    between atoms: C15_23  and  C17_25 
REMARK       I    between atoms: C17_25  and  N3_27 
REMARK    6  A    between atoms: C22_32  and  C23_33 
ROOT
HETATM    1  C7  UNL     1      -0.645  24.954   4.792  1.00  0.00     0.084 A 
HETATM    2  S1  UNL     1       0.568  25.253   3.643  1.00  0.00    -0.075 SA
HETATM    3  C8  UNL     1       0.854  23.655   3.139  1.00  0.00    -0.005 A 
HETATM    4  C12 UNL     1      -0.022  22.927   3.897  1.00  0.00    -0.035 A 
HETATM    5  C13 UNL     1      -0.811  23.589   4.764  1.00  0.00    -0.016 A 
HETATM    6  C14 UNL     1      -1.816  22.886   5.655  1.00  0.00     0.061 C 
HETATM    7  C15 UNL     1      -1.903  21.413   5.467  1.00  0.00     0.042 C 
HETATM    8  C16 UNL     1      -3.333  20.990   5.741  1.00  0.00     0.026 C 
HETATM    9  C24 UNL     1      -1.650  21.163   3.989  1.00  0.00     0.024 C 
HETATM   10  C25 UNL     1      -0.164  21.415   3.820  1.00  0.00     0.041 C 
ENDROOT
BRANCH   1  11
HETATM   11  N2  UNL     1      -1.316  25.961   5.589  1.00  0.00    -0.316 N 
HETATM   12  C6  UNL     1      -2.193  26.875   4.991  1.00  0.00     0.263 C 
HETATM   13  O2  UNL     1      -2.326  26.728   3.711  1.00  0.00    -0.267 OA
ATOM     14  H2  UNL     1      -1.149  26.005   6.595  1.00  0.00     0.169 HD
BRANCH  12  15
HETATM   15  C5  UNL     1      -2.962  27.941   5.565  1.00  0.00     0.121 A 
HETATM   16  C3  UNL     1      -2.842  28.530   6.801  1.00  0.00     0.053 A 
HETATM   17  N1  UNL     1      -3.819  29.503   6.807  1.00  0.00    -0.261 N 
HETATM   18  O1  UNL     1      -4.456  29.501   5.697  1.00  0.00    -0.206 OA
ATOM     19  H1  UNL     1      -4.006  30.135   7.586  1.00  0.00     0.194 HD
HETATM   20  C4  UNL     1      -4.013  28.593   4.880  1.00  0.00     0.267 A 
HETATM   21  F1  UNL     1      -4.482  28.342   3.628  1.00  0.00    -0.175 F 
BRANCH  16  22
HETATM   22  C2  UNL     1      -1.942  28.270   7.948  1.00  0.00     0.056 C 
HETATM   23  C1  UNL     1      -1.609  29.582   8.657  1.00  0.00     0.011 C 
ENDBRANCH  16  22
ENDBRANCH  12  15
ENDBRANCH   1  11
BRANCH   3  24
HETATM   24  C9  UNL     1       1.837  23.147   2.104  1.00  0.00     0.018 C 
HETATM   25  C10 UNL     1       2.396  24.388   1.439  1.00  0.00     0.015 C 
HETATM   26  C11 UNL     1       2.988  22.426   2.754  1.00  0.00     0.015 C 
ENDBRANCH   3  24
BRANCH   7  27
HETATM   27  C17 UNL     1      -0.936  20.675   6.321  1.00  0.00     0.229 C 
HETATM   28  O3  UNL     1      -0.323  21.426   7.166  1.00  0.00    -0.272 OA
HETATM   29  N3  UNL     1      -0.648  19.302   6.285  1.00  0.00    -0.337 N 
HETATM   30  C18 UNL     1      -1.217  18.305   5.424  1.00  0.00     0.127 C 
HETATM   31  C22 UNL     1       0.358  18.783   7.222  1.00  0.00     0.188 C 
HETATM   32  C19 UNL     1      -1.710  17.155   6.301  1.00  0.00     0.020 C 
HETATM   33  C20 UNL     1      -0.528  16.468   6.887  1.00  0.00     0.004 C 
HETATM   34  C21 UNL     1       0.707  17.344   6.837  1.00  0.00     0.036 C 
BRANCH  31  35
HETATM   35  C23 UNL     1      -0.017  18.877   8.621  1.00  0.00     0.196 C 
HETATM   36  O4  UNL     1       0.835  18.952   9.532  1.00  0.00    -0.646 OA
HETATM   37  O5  UNL     1      -1.354  18.885   8.973  1.00  0.00    -0.646 OA
ENDBRANCH  31  35
ENDBRANCH   7  27
TORSDOF 6
ENDMDL
MODEL 3
REMARK VINA RESULT: -7.916243569      7.852     11.924
REMARK  6 active torsions:
REMARK  status: ('A' for Active; 'I' for Inactive)
REMARK    1  A    between atoms: C2_2  and  C3_3 
REMARK    2  A    between atoms: C5_9  and  C6_10 
REMARK       I    between atoms: C6_10  and  N2_12 
REMARK    3  A    between atoms: N2_12  and  C7_14 
REMARK    4  A    between atoms: C8_16  and  C9_17 
REMARK    5  A    between atoms: C15_23  and  C17_25 
REMARK       I    between atoms: C17_25  and  N3_27 
REMARK    6  A    between atoms: C22_32  and  C23_33 
ROOT
HETATM    1  C7  UNL     1       8.234  20.597   0.970  1.00  0.00     0.084 A 
HETATM    2  S1  UNL     1       9.179  20.442   2.371  1.00  0.00    -0.075 SA
HETATM    3  C8  UNL     1       7.934  20.197   3.503  1.00  0.00    -0.005 A 
HETATM    4  C12 UNL     1       6.802  20.245   2.737  1.00  0.00    -0.035 A 
HETATM    5  C13 UNL     1       6.940  20.452   1.413  1.00  0.00    -0.016 A 
HETATM    6  C14 UNL     1       5.757  20.526   0.470  1.00  0.00     0.061 C 
HETATM    7  C15 UNL     1       4.430  20.302   1.104  1.00  0.00     0.042 C 
HETATM    8  C16 UNL     1       3.531  19.633   0.083  1.00  0.00     0.026 C 
HETATM    9  C24 UNL     1       4.660  19.290   2.213  1.00  0.00     0.024 C 
HETATM   10  C25 UNL     1       5.394  20.074   3.285  1.00  0.00     0.041 C 
ENDROOT
BRANCH   1  11
HETATM   11  N2  UNL     1       8.743  20.827  -0.367  1.00  0.00    -0.316 N 
HETATM   12  C6  UNL     1       9.357  19.791  -1.084  1.00  0.00     0.263 C 
HETATM   13  O2  UNL     1       9.417  18.665  -0.448  1.00  0.00    -0.267 OA
ATOM     14  H2  UNL     1       8.655  21.751  -0.790  1.00  0.00     0.169 HD
BRANCH  12  15
HETATM   15  C5  UNL     1       9.925  19.779  -2.400  1.00  0.00     0.121 A 
HETATM   16  C3  UNL     1       9.743  18.873  -3.417  1.00  0.00     0.053 A 
HETATM   17  N1  UNL     1      10.511  19.366  -4.451  1.00  0.00    -0.261 N 
HETATM   18  O1  UNL     1      11.092  20.450  -4.096  1.00  0.00    -0.206 OA
ATOM     19  H1  UNL     1      10.603  18.928  -5.368  1.00  0.00     0.194 HD
HETATM   20  C4  UNL     1      10.802  20.782  -2.874  1.00  0.00     0.267 A 
HETATM   21  F1  UNL     1      11.261  21.878  -2.210  1.00  0.00    -0.175 F 
BRANCH  16  22
HETATM   22  C2  UNL     1       8.956  17.621  -3.510  1.00  0.00     0.056 C 
HETATM   23  C1  UNL     1       8.636  17.315  -4.972  1.00  0.00     0.011 C 
ENDBRANCH  16  22
ENDBRANCH  12  15
ENDBRANCH   1  11
BRANCH   3  24
HETATM   24  C9  UNL     1       8.039  19.979   4.998  1.00  0.00     0.018 C 
HETATM   25  C10 UNL     1       7.985  18.477   5.189  1.00  0.00     0.015 C 
HETATM   26  C11 UNL     1       9.368  20.453   5.525  1.00  0.00     0.015 C 
ENDBRANCH   3  24
BRANCH   7  27
HETATM   27  C17 UNL     1       3.832  21.560   1.625  1.00  0.00     0.229 C 
HETATM   28  O3  UNL     1       4.511  22.611   1.326  1.00  0.00    -0.272 OA
HETATM   29  N3  UNL     1       2.654  21.692   2.376  1.00  0.00    -0.337 N 
HETATM   30  C18 UNL     1       1.764  20.652   2.808  1.00  0.00     0.127 C 
HETATM   31  C22 UNL     1       2.252  23.041   2.796  1.00  0.00     0.188 C 
HETATM   32  C19 UNL     1       0.348  21.044   2.389  1.00  0.00     0.020 C 
HETATM   33  C20 UNL     1      -0.076  22.218   3.199  1.00  0.00     0.004 C 
HETATM   34  C21 UNL     1       1.113  22.930   3.812  1.00  0.00     0.036 C 
BRANCH  31  35
HETATM   35  C23 UNL     1       1.901  23.932   1.707  1.00  0.00     0.196 C 
HETATM   36  O4  UNL     1       1.895  25.174   1.841  1.00  0.00    -0.646 OA
HETATM   37  O5  UNL     1       1.558  23.407   0.474  1.00  0.00    -0.646 OA
ENDBRANCH  31  35
ENDBRANCH   7  27
TORSDOF 6
ENDMDL
MODEL 4
REMARK VINA RESULT: -7.466676779      1.587      2.121
REMARK  6 active torsions:
REMARK  status: ('A' for Active; 'I' for Inactive)
REMARK    1  A    between atoms: C2_2  and  C3_3 
REMARK    2  A    between atoms: C5_9  and  C6_10 
REMARK       I    between atoms: C6_10  and  N2_12 
REMARK    3  A    between atoms: N2_12  and  C7_14 
REMARK    4  A    between atoms: C8_16  and  C9_17 
REMARK    5  A    between atoms: C15_23  and  C17_25 
REMARK       I    between atoms: C17_25  and  N3_27 
REMARK    6  A    between atoms: C22_32  and  C23_33 
ROOT
HETATM    1  C7  UNL     1      -0.329  23.989   4.445  1.00  0.00     0.084 A 
HETATM    2  S1  UNL     1       1.032  24.442   3.536  1.00  0.00    -0.075 SA
HETATM    3  C8  UNL     1       1.286  22.985   2.698  1.00  0.00    -0.005 A 
HETATM    4  C12 UNL     1       0.283  22.179   3.163  1.00  0.00    -0.035 A 
HETATM    5  C13 UNL     1      -0.568  22.687   4.074  1.00  0.00    -0.016 A 
HETATM    6  C14 UNL     1      -1.713  21.885   4.659  1.00  0.00     0.061 C 
HETATM    7  C15 UNL     1      -1.860  20.507   4.117  1.00  0.00     0.042 C 
HETATM    8  C16 UNL     1      -3.335  20.155   4.129  1.00  0.00     0.026 C 
HETATM    9  C24 UNL     1      -1.442  20.585   2.658  1.00  0.00     0.024 C 
HETATM   10  C25 UNL     1       0.066  20.743   2.712  1.00  0.00     0.041 C 
ENDROOT
BRANCH   1  11
HETATM   11  N2  UNL     1      -1.034  24.839   5.384  1.00  0.00    -0.316 N 
HETATM   12  C6  UNL     1      -1.547  26.078   4.977  1.00  0.00     0.263 C 
HETATM   13  O2  UNL     1      -1.327  26.364   3.734  1.00  0.00    -0.267 OA
ATOM     14  H2  UNL     1      -1.159  24.532   6.349  1.00  0.00     0.169 HD
BRANCH  12  15
HETATM   15  C5  UNL     1      -2.271  27.072   5.713  1.00  0.00     0.121 A 
HETATM   16  C3  UNL     1      -3.243  27.940   5.277  1.00  0.00     0.053 A 
HETATM   17  N1  UNL     1      -3.596  28.648   6.406  1.00  0.00    -0.261 N 
HETATM   18  O1  UNL     1      -2.912  28.250   7.412  1.00  0.00    -0.206 OA
ATOM     19  H1  UNL     1      -4.302  29.384   6.435  1.00  0.00     0.194 HD
HETATM   20  C4  UNL     1      -2.083  27.302   7.096  1.00  0.00     0.267 A 
HETATM   21  F1  UNL     1      -1.221  26.674   7.941  1.00  0.00    -0.175 F 
BRANCH  16  22
HETATM   22  C2  UNL     1      -3.847  28.175   3.945  1.00  0.00     0.056 C 
HETATM   23  C1  UNL     1      -5.291  28.647   4.103  1.00  0.00     0.011 C 
ENDBRANCH  16  22
ENDBRANCH  12  15
ENDBRANCH   1  11
BRANCH   3  24
HETATM   24  C9  UNL     1       2.358  22.648   1.683  1.00  0.00     0.018 C 
HETATM   25  C10 UNL     1       2.803  23.980   1.114  1.00  0.00     0.015 C 
HETATM   26  C11 UNL     1       3.555  22.017   2.343  1.00  0.00     0.015 C 
ENDBRANCH   3  24
BRANCH   7  27
HETATM   27  C17 UNL     1      -1.049  19.513   4.867  1.00  0.00     0.229 C 
HETATM   28  O3  UNL     1      -0.763  18.464   4.181  1.00  0.00    -0.272 OA
HETATM   29  N3  UNL     1      -0.593  19.616   6.191  1.00  0.00    -0.337 N 
HETATM   30  C18 UNL     1      -0.804  20.694   7.114  1.00  0.00     0.127 C 
HETATM   31  C22 UNL     1       0.192  18.501   6.738  1.00  0.00     0.188 C 
HETATM   32  C19 UNL     1       0.557  21.102   7.676  1.00  0.00     0.020 C 
HETATM   33  C20 UNL     1       1.059  20.002   8.542  1.00  0.00     0.004 C 
HETATM   34  C21 UNL     1       0.352  18.695   8.247  1.00  0.00     0.036 C 
BRANCH  31  35
HETATM   35  C23 UNL     1       1.476  18.296   6.095  1.00  0.00     0.196 C 
HETATM   36  O4  UNL     1       2.074  17.200   6.142  1.00  0.00    -0.646 OA
HETATM   37  O5  UNL     1       2.071  19.336   5.404  1.00  0.00    -0.646 OA
ENDBRANCH  31  35
ENDBRANCH   7  27
TORSDOF 6
ENDMDL
MODEL 5
REMARK VINA RESULT: -7.225489532      3.508      5.722
REMARK  6 active torsions:
REMARK  status: ('A' for Active; 'I' for Inactive)
REMARK    1  A    between atoms: C2_2  and  C3_3 
REMARK    2  A    between atoms: C5_9  and  C6_10 
REMARK       I    between atoms: C6_10  and  N2_12 
REMARK    3  A    between atoms: N2_12  and  C7_14 
REMARK    4  A    between atoms: C8_16  and  C9_17 
REMARK    5  A    between atoms: C15_23  and  C17_25 
REMARK       I    between atoms: C17_25  and  N3_27 
REMARK    6  A    between atoms: C22_32  and  C23_33 
ROOT
HETATM    1  C7  UNL     1       0.526  23.364   5.543  1.00  0.00     0.084 A 
HETATM    2  S1  UNL     1       0.315  22.308   6.855  1.00  0.00    -0.075 SA
HETATM    3  C8  UNL     1       0.935  20.889   6.154  1.00  0.00    -0.005 A 
HETATM    4  C12 UNL     1       1.293  21.293   4.897  1.00  0.00    -0.035 A 
HETATM    5  C13 UNL     1       1.087  22.580   4.562  1.00  0.00    -0.016 A 
HETATM    6  C14 UNL     1       1.442  23.137   3.198  1.00  0.00     0.061 C 
HETATM    7  C15 UNL     1       2.083  22.168   2.269  1.00  0.00     0.042 C 
HETATM    8  C16 UNL     1       3.044  22.936   1.382  1.00  0.00     0.026 C 
HETATM    9  C24 UNL     1       2.929  21.251   3.137  1.00  0.00     0.024 C 
HETATM   10  C25 UNL     1       1.914  20.379   3.852  1.00  0.00     0.041 C 
ENDROOT
BRANCH   1  11
HETATM   11  N2  UNL     1       0.173  24.770   5.529  1.00  0.00    -0.316 N 
HETATM   12  C6  UNL     1      -1.168  25.167   5.454  1.00  0.00     0.263 C 
HETATM   13  O2  UNL     1      -2.012  24.188   5.398  1.00  0.00    -0.267 OA
ATOM     14  H2  UNL     1       0.909  25.476   5.575  1.00  0.00     0.169 HD
BRANCH  12  15
HETATM   15  C5  UNL     1      -1.751  26.477   5.429  1.00  0.00     0.121 A 
HETATM   16  C3  UNL     1      -2.081  27.301   6.479  1.00  0.00     0.053 A 
HETATM   17  N1  UNL     1      -2.583  28.434   5.873  1.00  0.00    -0.261 N 
HETATM   18  O1  UNL     1      -2.557  28.307   4.600  1.00  0.00    -0.206 OA
ATOM     19  H1  UNL     1      -2.925  29.256   6.370  1.00  0.00     0.194 HD
HETATM   20  C4  UNL     1      -2.072  27.159   4.233  1.00  0.00     0.267 A 
HETATM   21  F1  UNL     1      -1.916  26.726   2.952  1.00  0.00    -0.175 F 
BRANCH  16  22
HETATM   22  C2  UNL     1      -1.990  27.133   7.947  1.00  0.00     0.056 C 
HETATM   23  C1  UNL     1      -2.220  28.474   8.641  1.00  0.00     0.011 C 
ENDBRANCH  16  22
ENDBRANCH  12  15
ENDBRANCH   1  11
BRANCH   3  24
HETATM   24  C9  UNL     1       1.065  19.508   6.761  1.00  0.00     0.018 C 
HETATM   25  C10 UNL     1       0.967  19.717   8.258  1.00  0.00     0.015 C 
HETATM   26  C11 UNL     1      -0.084  18.623   6.354  1.00  0.00     0.015 C 
ENDBRANCH   3  24
BRANCH   7  27
HETATM   27  C17 UNL     1       1.088  21.404   1.472  1.00  0.00     0.229 C 
HETATM   28  O3  UNL     1      -0.079  21.945   1.458  1.00  0.00    -0.272 OA
HETATM   29  N3  UNL     1       1.301  20.208   0.771  1.00  0.00    -0.337 N 
HETATM   30  C18 UNL     1       2.517  19.454   0.663  1.00  0.00     0.127 C 
HETATM   31  C22 UNL     1       0.163  19.618   0.052  1.00  0.00     0.188 C 
HETATM   32  C19 UNL     1       2.778  19.195  -0.820  1.00  0.00     0.020 C 
HETATM   33  C20 UNL     1       1.744  18.251  -1.323  1.00  0.00     0.004 C 
HETATM   34  C21 UNL     1       0.537  18.207  -0.407  1.00  0.00     0.036 C 
BRANCH  31  35
HETATM   35  C23 UNL     1      -0.332  20.417  -1.053  1.00  0.00     0.196 C 
HETATM   36  O4  UNL     1      -1.493  20.292  -1.495  1.00  0.00    -0.646 OA
HETATM   37  O5  UNL     1       0.496  21.351  -1.648  1.00  0.00    -0.646 OA
ENDBRANCH  31  35
ENDBRANCH   7  27
TORSDOF 6
ENDMDL
