MODEL 1
REMARK VINA RESULT: -6.456597393      0.000      0.000
REMARK  10 active torsions:
REMARK  status: ('A' for Active; 'I' for Inactive)
REMARK    1  A    between atoms: S1_2  and  C2_3 
REMARK    2  A    between atoms: C2_3  and  N2_7 
REMARK    3  A    between atoms: N2_7  and  C3_9 
REMARK    4  A    between atoms: C3_9  and  C4_10 
REMARK    5  A    between atoms: C4_10  and  C5_11 
REMARK    6  A    between atoms: C9_16  and  C10_17 
REMARK    7  A    between atoms: C10_17  and  N4_18 
REMARK    8  A    between atoms: C18_27  and  C19_28 
REMARK    9  A    between atoms: C19_28  and  C20_30 
REMARK   10  A    between atoms: C20_30  and  C21_32 
ROOT
HETATM    1  C5  UNL     1       2.119  22.038   2.775  1.00  0.00    -0.017 A 
HETATM    2  C6  UNL     1       1.208  22.788   3.465  1.00  0.00     0.035 A 
HETATM    3  C7  UNL     1       0.880  22.088   4.596  1.00  0.00     0.061 A 
HETATM    4  N3  UNL     1       1.568  20.913   4.632  1.00  0.00    -0.351 N 
HETATM    5  C8  UNL     1       1.445  19.982   5.744  1.00  0.00     0.156 C 
HETATM    6  C9  UNL     1       2.319  20.876   3.533  1.00  0.00     0.047 A 
HETATM    7  C16 UNL     1      -0.022  23.185   4.955  1.00  0.00     0.029 A 
HETATM    8  C17 UNL     1      -0.942  23.981   5.613  1.00  0.00     0.057 A 
HETATM    9  C18 UNL     1      -1.132  25.109   4.864  1.00  0.00     0.117 A 
HETATM   10  O2  UNL     1      -0.361  25.025   3.779  1.00  0.00    -0.306 OA
HETATM   11  C22 UNL     1       0.310  23.885   3.813  1.00  0.00     0.102 A 
ENDROOT
BRANCH   1  12
HETATM   12  C4  UNL     1       2.767  22.395   1.482  1.00  0.00     0.061 C 
BRANCH  12  13
HETATM   13  C3  UNL     1       1.743  22.852   0.465  1.00  0.00     0.126 C 
BRANCH  13  14
HETATM   14  N2  UNL     1       1.722  21.933  -0.644  1.00  0.00    -0.371 N 
ATOM     15  H2  UNL     1       2.483  21.260  -0.732  1.00  0.00     0.161 HD
BRANCH  14  16
HETATM   16  C2  UNL     1       0.696  21.921  -1.617  1.00  0.00     0.133 C 
HETATM   17  N1  UNL     1       0.917  22.529  -2.734  1.00  0.00    -0.380 N 
ATOM     18  H12 UNL     1       0.177  22.521  -3.436  1.00  0.00     0.158 HD
ATOM     19  H11 UNL     1       1.804  23.002  -2.906  1.00  0.00     0.158 HD
BRANCH  16  20
HETATM   20  S1  UNL     1      -0.858  21.093  -1.316  1.00  0.00    -0.099 SA
HETATM   21  C1  UNL     1      -2.140  21.640  -2.445  1.00  0.00     0.099 C 
ENDBRANCH  16  20
ENDBRANCH  14  16
ENDBRANCH  13  14
ENDBRANCH  12  13
ENDBRANCH   1  12
BRANCH   6  22
HETATM   22  C10 UNL     1       3.275  19.873   3.090  1.00  0.00     0.330 C 
BRANCH  22  23
HETATM   23  N4  UNL     1       4.513  19.749   3.776  1.00  0.00     0.096 N 
HETATM   24  C11 UNL     1       5.494  20.428   2.875  1.00  0.00     0.275 C 
HETATM   25  C12 UNL     1       6.588  21.077   3.699  1.00  0.00     0.056 C 
HETATM   26  C13 UNL     1       7.523  20.105   4.320  1.00  0.00     0.169 C 
HETATM   27  O1  UNL     1       7.263  18.777   4.031  1.00  0.00    -0.389 OA
HETATM   28  C14 UNL     1       6.162  18.275   4.700  1.00  0.00     0.198 C 
HETATM   29  C15 UNL     1       4.982  18.346   3.766  1.00  0.00     0.299 C 
ENDBRANCH  22  23
ENDBRANCH   6  22
BRANCH   9  30
HETATM   30  C19 UNL     1      -2.005  26.253   5.130  1.00  0.00     0.172 C 
HETATM   31  F1  UNL     1      -2.058  27.218   4.157  1.00  0.00    -0.202 F 
BRANCH  30  32
HETATM   32  C20 UNL     1      -2.703  26.359   6.237  1.00  0.00     0.107 C 
HETATM   33 CL1  UNL     1      -1.882  26.973   7.684  1.00  0.00    -0.081 Cl
BRANCH  32  34
HETATM   34  C21 UNL     1      -4.127  26.015   6.419  1.00  0.00     0.229 C 
HETATM   35 CL2  UNL     1      -4.733  26.704   7.969  1.00  0.00    -0.077 Cl
HETATM   36 CL3  UNL     1      -5.113  26.771   5.129  1.00  0.00    -0.077 Cl
HETATM   37 CL4  UNL     1      -4.401  24.279   6.374  1.00  0.00    -0.077 Cl
ENDBRANCH  32  34
ENDBRANCH  30  32
ENDBRANCH   9  30
TORSDOF 10
ENDMDL
MODEL 2
REMARK VINA RESULT: -6.452457769      0.598      1.396
REMARK  10 active torsions:
REMARK  status: ('A' for Active; 'I' for Inactive)
REMARK    1  A    between atoms: S1_2  and  C2_3 
REMARK    2  A    between atoms: C2_3  and  N2_7 
REMARK    3  A    between atoms: N2_7  and  C3_9 
REMARK    4  A    between atoms: C3_9  and  C4_10 
REMARK    5  A    between atoms: C4_10  and  C5_11 
REMARK    6  A    between atoms: C9_16  and  C10_17 
REMARK    7  A    between atoms: C10_17  and  N4_18 
REMARK    8  A    between atoms: C18_27  and  C19_28 
REMARK    9  A    between atoms: C19_28  and  C20_30 
REMARK   10  A    between atoms: C20_30  and  C21_32 
ROOT
HETATM    1  C5  UNL     1       1.940  22.368   2.762  1.00  0.00    -0.017 A 
HETATM    2  C6  UNL     1       1.008  23.043   3.502  1.00  0.00     0.035 A 
HETATM    3  C7  UNL     1       0.701  22.257   4.581  1.00  0.00     0.061 A 
HETATM    4  N3  UNL     1       1.423  21.102   4.535  1.00  0.00    -0.351 N 
HETATM    5  C8  UNL     1       1.327  20.092   5.580  1.00  0.00     0.156 C 
HETATM    6  C9  UNL     1       2.172  21.163   3.438  1.00  0.00     0.047 A 
HETATM    7  C16 UNL     1      -0.230  23.300   5.015  1.00  0.00     0.029 A 
HETATM    8  C17 UNL     1      -1.171  24.023   5.727  1.00  0.00     0.057 A 
HETATM    9  C18 UNL     1      -1.393  25.195   5.058  1.00  0.00     0.117 A 
HETATM   10  O2  UNL     1      -0.621  25.208   3.970  1.00  0.00    -0.306 OA
HETATM   11  C22 UNL     1       0.081  24.087   3.925  1.00  0.00     0.102 A 
ENDROOT
BRANCH   1  12
HETATM   12  C4  UNL     1       2.576  22.832   1.498  1.00  0.00     0.061 C 
BRANCH  12  13
HETATM   13  C3  UNL     1       1.536  23.124   0.437  1.00  0.00     0.126 C 
BRANCH  13  14
HETATM   14  N2  UNL     1       1.735  22.246  -0.687  1.00  0.00    -0.371 N 
ATOM     15  H2  UNL     1       2.636  21.777  -0.784  1.00  0.00     0.161 HD
BRANCH  14  16
HETATM   16  C2  UNL     1       0.741  22.003  -1.663  1.00  0.00     0.133 C 
HETATM   17  N1  UNL     1       0.931  22.477  -2.848  1.00  0.00    -0.380 N 
ATOM     18  H12 UNL     1       0.214  22.302  -3.552  1.00  0.00     0.158 HD
ATOM     19  H11 UNL     1       1.772  23.009  -3.071  1.00  0.00     0.158 HD
BRANCH  16  20
HETATM   20  S1  UNL     1      -0.734  21.072  -1.273  1.00  0.00    -0.099 SA
HETATM   21  C1  UNL     1      -2.087  21.463  -2.384  1.00  0.00     0.099 C 
ENDBRANCH  16  20
ENDBRANCH  14  16
ENDBRANCH  13  14
ENDBRANCH  12  13
ENDBRANCH   1  12
BRANCH   6  22
HETATM   22  C10 UNL     1       3.155  20.220   2.927  1.00  0.00     0.330 C 
BRANCH  22  23
HETATM   23  N4  UNL     1       4.359  20.016   3.653  1.00  0.00     0.096 N 
HETATM   24  C11 UNL     1       5.416  20.601   2.771  1.00  0.00     0.275 C 
HETATM   25  C12 UNL     1       6.531  21.182   3.618  1.00  0.00     0.056 C 
HETATM   26  C13 UNL     1       7.370  20.154   4.284  1.00  0.00     0.169 C 
HETATM   27  O1  UNL     1       7.018  18.844   4.012  1.00  0.00    -0.389 OA
HETATM   28  C14 UNL     1       5.862  18.440   4.655  1.00  0.00     0.198 C 
HETATM   29  C15 UNL     1       4.720  18.582   3.683  1.00  0.00     0.299 C 
ENDBRANCH  22  23
ENDBRANCH   6  22
BRANCH   9  30
HETATM   30  C19 UNL     1      -2.298  26.293   5.402  1.00  0.00     0.172 C 
HETATM   31  F1  UNL     1      -2.205  27.423   4.631  1.00  0.00    -0.202 F 
BRANCH  30  32
HETATM   32  C20 UNL     1      -3.154  26.209   6.393  1.00  0.00     0.107 C 
HETATM   33 CL1  UNL     1      -4.650  25.293   6.128  1.00  0.00    -0.081 Cl
BRANCH  32  34
HETATM   34  C21 UNL     1      -3.011  26.806   7.736  1.00  0.00     0.229 C 
HETATM   35 CL2  UNL     1      -4.631  27.255   8.385  1.00  0.00    -0.077 Cl
HETATM   36 CL3  UNL     1      -2.345  25.599   8.879  1.00  0.00    -0.077 Cl
HETATM   37 CL4  UNL     1      -1.947  28.205   7.729  1.00  0.00    -0.077 Cl
ENDBRANCH  32  34
ENDBRANCH  30  32
ENDBRANCH   9  30
TORSDOF 10
ENDMDL
MODEL 3
REMARK VINA RESULT: -6.195402453      7.730     10.551
REMARK  10 active torsions:
REMARK  status: ('A' for Active; 'I' for Inactive)
REMARK    1  A    between atoms: S1_2  and  C2_3 
REMARK    2  A    between atoms: C2_3  and  N2_7 
REMARK    3  A    between atoms: N2_7  and  C3_9 
REMARK    4  A    between atoms: C3_9  and  C4_10 
REMARK    5  A    between atoms: C4_10  and  C5_11 
REMARK    6  A    between atoms: C9_16  and  C10_17 
REMARK    7  A    between atoms: C10_17  and  N4_18 
REMARK    8  A    between atoms: C18_27  and  C19_28 
REMARK    9  A    between atoms: C19_28  and  C20_30 
REMARK   10  A    between atoms: C20_30  and  C21_32 
ROOT
HETATM    1  C5  UNL     1       5.602  19.785   3.260  1.00  0.00    -0.017 A 
HETATM    2  C6  UNL     1       6.581  19.645   2.316  1.00  0.00     0.035 A 
HETATM    3  C7  UNL     1       7.582  18.897   2.878  1.00  0.00     0.061 A 
HETATM    4  N3  UNL     1       7.251  18.563   4.157  1.00  0.00    -0.351 N 
HETATM    5  C8  UNL     1       8.115  17.735   4.985  1.00  0.00     0.156 C 
HETATM    6  C9  UNL     1       6.056  19.098   4.394  1.00  0.00     0.047 A 
HETATM    7  C16 UNL     1       8.313  19.013   1.614  1.00  0.00     0.029 A 
HETATM    8  C17 UNL     1       9.274  18.900   0.625  1.00  0.00     0.057 A 
HETATM    9  C18 UNL     1       8.823  19.577  -0.475  1.00  0.00     0.117 A 
HETATM   10  O2  UNL     1       7.627  20.092  -0.188  1.00  0.00    -0.306 OA
HETATM   11  C22 UNL     1       7.303  19.768   1.053  1.00  0.00     0.102 A 
ENDROOT
BRANCH   1  12
HETATM   12  C4  UNL     1       4.316  20.518   3.103  1.00  0.00     0.061 C 
BRANCH  12  13
HETATM   13  C3  UNL     1       3.789  20.404   1.687  1.00  0.00     0.126 C 
BRANCH  13  14
HETATM   14  N2  UNL     1       3.746  21.710   1.082  1.00  0.00    -0.371 N 
ATOM     15  H2  UNL     1       4.628  22.162   0.839  1.00  0.00     0.161 HD
BRANCH  14  16
HETATM   16  C2  UNL     1       2.539  22.394   0.810  1.00  0.00     0.133 C 
HETATM   17  N1  UNL     1       2.065  22.327  -0.389  1.00  0.00    -0.380 N 
ATOM     18  H12 UNL     1       1.195  22.821  -0.586  1.00  0.00     0.158 HD
ATOM     19  H11 UNL     1       2.549  21.797  -1.114  1.00  0.00     0.158 HD
BRANCH  16  20
HETATM   20  S1  UNL     1       1.693  23.323   2.080  1.00  0.00    -0.099 SA
HETATM   21  C1  UNL     1       1.850  25.093   1.833  1.00  0.00     0.099 C 
ENDBRANCH  16  20
ENDBRANCH  14  16
ENDBRANCH  13  14
ENDBRANCH  12  13
ENDBRANCH   1  12
BRANCH   6  22
HETATM   22  C10 UNL     1       5.218  19.019   5.581  1.00  0.00     0.330 C 
BRANCH  22  23
HETATM   23  N4  UNL     1       4.265  17.971   5.685  1.00  0.00     0.096 N 
HETATM   24  C11 UNL     1       3.035  18.650   6.197  1.00  0.00     0.275 C 
HETATM   25  C12 UNL     1       1.800  17.965   5.648  1.00  0.00     0.056 C 
HETATM   26  C13 UNL     1       1.551  16.625   6.237  1.00  0.00     0.169 C 
HETATM   27  O1  UNL     1       2.463  16.230   7.199  1.00  0.00    -0.389 OA
HETATM   28  C14 UNL     1       3.690  15.866   6.677  1.00  0.00     0.198 C 
HETATM   29  C15 UNL     1       4.611  17.052   6.791  1.00  0.00     0.299 C 
ENDBRANCH  22  23
ENDBRANCH   6  22
BRANCH   9  30
HETATM   30  C19 UNL     1       9.473  19.755  -1.775  1.00  0.00     0.172 C 
HETATM   31  F1  UNL     1      10.096  20.957  -1.984  1.00  0.00    -0.202 F 
BRANCH  30  32
HETATM   32  C20 UNL     1       9.463  18.819  -2.696  1.00  0.00     0.107 C 
HETATM   33 CL1  UNL     1       7.905  18.083  -3.120  1.00  0.00    -0.081 Cl
BRANCH  32  34
HETATM   34  C21 UNL     1      10.628  18.297  -3.436  1.00  0.00     0.229 C 
HETATM   35 CL2  UNL     1      12.047  18.164  -2.335  1.00  0.00    -0.077 Cl
HETATM   36 CL3  UNL     1      10.297  16.634  -4.011  1.00  0.00    -0.077 Cl
HETATM   37 CL4  UNL     1      11.028  19.292  -4.829  1.00  0.00    -0.077 Cl
ENDBRANCH  32  34
ENDBRANCH  30  32
ENDBRANCH   9  30
TORSDOF 10
ENDMDL
MODEL 4
REMARK VINA RESULT: -6.178338844      7.923     11.065
REMARK  10 active torsions:
REMARK  status: ('A' for Active; 'I' for Inactive)
REMARK    1  A    between atoms: S1_2  and  C2_3 
REMARK    2  A    between atoms: C2_3  and  N2_7 
REMARK    3  A    between atoms: N2_7  and  C3_9 
REMARK    4  A    between atoms: C3_9  and  C4_10 
REMARK    5  A    between atoms: C4_10  and  C5_11 
REMARK    6  A    between atoms: C9_16  and  C10_17 
REMARK    7  A    between atoms: C10_17  and  N4_18 
REMARK    8  A    between atoms: C18_27  and  C19_28 
REMARK    9  A    between atoms: C19_28  and  C20_30 
REMARK   10  A    between atoms: C20_30  and  C21_32 
ROOT
HETATM    1  C5  UNL     1       7.659  18.965   4.172  1.00  0.00    -0.017 A 
HETATM    2  C6  UNL     1       8.060  18.881   2.868  1.00  0.00     0.035 A 
HETATM    3  C7  UNL     1       8.630  17.647   2.698  1.00  0.00     0.061 A 
HETATM    4  N3  UNL     1       8.594  16.953   3.870  1.00  0.00    -0.351 N 
HETATM    5  C8  UNL     1       9.098  15.591   3.974  1.00  0.00     0.156 C 
HETATM    6  C9  UNL     1       8.010  17.745   4.765  1.00  0.00     0.047 A 
HETATM    7  C16 UNL     1       8.871  18.004   1.298  1.00  0.00     0.029 A 
HETATM    8  C17 UNL     1       9.258  17.970  -0.029  1.00  0.00     0.057 A 
HETATM    9  C18 UNL     1       8.914  19.166  -0.597  1.00  0.00     0.117 A 
HETATM   10  O2  UNL     1       8.334  19.920   0.336  1.00  0.00    -0.306 OA
HETATM   11  C22 UNL     1       8.297  19.247   1.475  1.00  0.00     0.102 A 
ENDROOT
BRANCH   1  12
HETATM   12  C4  UNL     1       6.983  20.123   4.821  1.00  0.00     0.061 C 
BRANCH  12  13
HETATM   13  C3  UNL     1       6.545  21.146   3.794  1.00  0.00     0.126 C 
BRANCH  13  14
HETATM   14  N2  UNL     1       5.197  20.861   3.375  1.00  0.00    -0.371 N 
ATOM     15  H2  UNL     1       4.587  20.352   4.014  1.00  0.00     0.161 HD
BRANCH  14  16
HETATM   16  C2  UNL     1       4.680  21.253   2.118  1.00  0.00     0.133 C 
HETATM   17  N1  UNL     1       5.487  21.260   1.110  1.00  0.00    -0.380 N 
ATOM     18  H12 UNL     1       5.115  21.543   0.204  1.00  0.00     0.158 HD
ATOM     19  H11 UNL     1       6.465  20.992   1.221  1.00  0.00     0.158 HD
BRANCH  16  20
HETATM   20  S1  UNL     1       2.967  21.723   1.925  1.00  0.00    -0.099 SA
HETATM   21  C1  UNL     1       2.798  23.339   1.167  1.00  0.00     0.099 C 
ENDBRANCH  16  20
ENDBRANCH  14  16
ENDBRANCH  13  14
ENDBRANCH  12  13
ENDBRANCH   1  12
BRANCH   6  22
HETATM   22  C10 UNL     1       7.681  17.492   6.160  1.00  0.00     0.330 C 
BRANCH  22  23
HETATM   23  N4  UNL     1       6.688  16.525   6.470  1.00  0.00     0.096 N 
HETATM   24  C11 UNL     1       5.447  17.333   6.677  1.00  0.00     0.275 C 
HETATM   25  C12 UNL     1       4.234  16.538   6.240  1.00  0.00     0.056 C 
HETATM   26  C13 UNL     1       3.897  15.415   7.151  1.00  0.00     0.169 C 
HETATM   27  O1  UNL     1       4.722  15.289   8.254  1.00  0.00    -0.389 OA
HETATM   28  C14 UNL     1       5.972  14.780   7.951  1.00  0.00     0.198 C 
HETATM   29  C15 UNL     1       6.921  15.942   7.810  1.00  0.00     0.299 C 
ENDBRANCH  22  23
ENDBRANCH   6  22
BRANCH   9  30
HETATM   30  C19 UNL     1       9.112  19.620  -1.975  1.00  0.00     0.172 C 
HETATM   31  F1  UNL     1       9.164  20.976  -2.167  1.00  0.00    -0.202 F 
BRANCH  30  32
HETATM   32  C20 UNL     1       9.233  18.781  -2.978  1.00  0.00     0.107 C 
HETATM   33 CL1  UNL     1       7.773  17.959  -3.558  1.00  0.00    -0.081 Cl
BRANCH  32  34
HETATM   34  C21 UNL     1      10.477  18.435  -3.694  1.00  0.00     0.229 C 
HETATM   35 CL2  UNL     1      10.215  16.971  -4.709  1.00  0.00    -0.077 Cl
HETATM   36 CL3  UNL     1      10.918  19.747  -4.831  1.00  0.00    -0.077 Cl
HETATM   37 CL4  UNL     1      11.826  18.183  -2.595  1.00  0.00    -0.077 Cl
ENDBRANCH  32  34
ENDBRANCH  30  32
ENDBRANCH   9  30
TORSDOF 10
ENDMDL
MODEL 5
REMARK VINA RESULT: -6.164568408      6.789      9.708
REMARK  10 active torsions:
REMARK  status: ('A' for Active; 'I' for Inactive)
REMARK    1  A    between atoms: S1_2  and  C2_3 
REMARK    2  A    between atoms: C2_3  and  N2_7 
REMARK    3  A    between atoms: N2_7  and  C3_9 
REMARK    4  A    between atoms: C3_9  and  C4_10 
REMARK    5  A    between atoms: C4_10  and  C5_11 
REMARK    6  A    between atoms: C9_16  and  C10_17 
REMARK    7  A    between atoms: C10_17  and  N4_18 
REMARK    8  A    between atoms: C18_27  and  C19_28 
REMARK    9  A    between atoms: C19_28  and  C20_30 
REMARK   10  A    between atoms: C20_30  and  C21_32 
ROOT
HETATM    1  C5  UNL     1       3.384  21.157   1.750  1.00  0.00    -0.017 A 
HETATM    2  C6  UNL     1       4.622  20.579   1.696  1.00  0.00     0.035 A 
HETATM    3  C7  UNL     1       4.739  19.767   2.794  1.00  0.00     0.061 A 
HETATM    4  N3  UNL     1       3.598  19.823   3.536  1.00  0.00    -0.351 N 
HETATM    5  C8  UNL     1       3.426  19.028   4.744  1.00  0.00     0.156 C 
HETATM    6  C9  UNL     1       2.775  20.661   2.911  1.00  0.00     0.047 A 
HETATM    7  C16 UNL     1       6.084  19.417   2.332  1.00  0.00     0.029 A 
HETATM    8  C17 UNL     1       7.346  18.860   2.231  1.00  0.00     0.057 A 
HETATM    9  C18 UNL     1       7.932  19.352   1.098  1.00  0.00     0.117 A 
HETATM   10  O2  UNL     1       7.071  20.184   0.509  1.00  0.00    -0.306 OA
HETATM   11  C22 UNL     1       5.961  20.238   1.228  1.00  0.00     0.102 A 
ENDROOT
BRANCH   1  12
HETATM   12  C4  UNL     1       2.806  22.114   0.766  1.00  0.00     0.061 C 
BRANCH  12  13
HETATM   13  C3  UNL     1       1.771  21.440  -0.111  1.00  0.00     0.126 C 
BRANCH  13  14
HETATM   14  N2  UNL     1       1.306  22.368  -1.109  1.00  0.00    -0.371 N 
ATOM     15  H2  UNL     1       1.577  23.348  -1.024  1.00  0.00     0.161 HD
BRANCH  14  16
HETATM   16  C2  UNL     1       0.493  21.985  -2.199  1.00  0.00     0.133 C 
HETATM   17  N1  UNL     1       0.833  22.389  -3.377  1.00  0.00    -0.380 N 
ATOM     18  H12 UNL     1       0.246  22.114  -4.164  1.00  0.00     0.158 HD
ATOM     19  H11 UNL     1       1.663  22.967  -3.513  1.00  0.00     0.158 HD
BRANCH  16  20
HETATM   20  S1  UNL     1      -0.961  20.973  -1.962  1.00  0.00    -0.099 SA
HETATM   21  C1  UNL     1      -2.450  21.797  -2.529  1.00  0.00     0.099 C 
ENDBRANCH  16  20
ENDBRANCH  14  16
ENDBRANCH  13  14
ENDBRANCH  12  13
ENDBRANCH   1  12
BRANCH   6  22
HETATM   22  C10 UNL     1       1.414  21.054   3.244  1.00  0.00     0.330 C 
BRANCH  22  23
HETATM   23  N4  UNL     1       1.189  22.321   3.846  1.00  0.00     0.096 N 
HETATM   24  C11 UNL     1       0.044  22.081   4.777  1.00  0.00     0.275 C 
HETATM   25  C12 UNL     1       0.171  22.977   5.993  1.00  0.00     0.056 C 
HETATM   26  C13 UNL     1      -0.098  24.409   5.707  1.00  0.00     0.169 C 
HETATM   27  O1  UNL     1      -0.439  24.691   4.397  1.00  0.00    -0.389 OA
HETATM   28  C14 UNL     1       0.632  24.631   3.524  1.00  0.00     0.198 C 
HETATM   29  C15 UNL     1       0.618  23.274   2.869  1.00  0.00     0.299 C 
ENDBRANCH  22  23
ENDBRANCH   6  22
BRANCH   9  30
HETATM   30  C19 UNL     1       9.261  19.071   0.554  1.00  0.00     0.172 C 
HETATM   31  F1  UNL     1      10.054  18.227   1.288  1.00  0.00    -0.202 F 
BRANCH  30  32
HETATM   32  C20 UNL     1       9.681  19.595  -0.575  1.00  0.00     0.107 C 
HETATM   33 CL1  UNL     1      10.116  21.315  -0.584  1.00  0.00    -0.081 Cl
BRANCH  32  34
HETATM   34  C21 UNL     1       9.835  18.900  -1.868  1.00  0.00     0.229 C 
HETATM   35 CL2  UNL     1      10.396  20.060  -3.127  1.00  0.00    -0.077 Cl
HETATM   36 CL3  UNL     1      11.114  17.652  -1.747  1.00  0.00    -0.077 Cl
HETATM   37 CL4  UNL     1       8.347  18.117  -2.380  1.00  0.00    -0.077 Cl
ENDBRANCH  32  34
ENDBRANCH  30  32
ENDBRANCH   9  30
TORSDOF 10
ENDMDL
