MODEL 1
REMARK VINA RESULT: -7.881552667      0.000      0.000
REMARK  7 active torsions:
REMARK  status: ('A' for Active; 'I' for Inactive)
REMARK    1  A    between atoms: C3_7  and  C4_8 
REMARK       I    between atoms: C4_8  and  N3_10 
REMARK    2  A    between atoms: N3_10  and  C5_12 
REMARK    3  A    between atoms: C8_15  and  C9_16 
REMARK    4  A    between atoms: C9_16  and  C10_17 
REMARK    5  A    between atoms: C19_30  and  N6_31 
REMARK    6  A    between atoms: N6_31  and  C20_32 
REMARK    7  A    between atoms: C23_35  and  C24_36 
ROOT
HETATM    1  C4  UNL     1       2.465  22.310   0.613  1.00  0.00     0.273 C 
HETATM    2  O1  UNL     1       2.587  23.435   1.098  1.00  0.00    -0.266 OA
HETATM    3  N3  UNL     1       3.437  21.341   0.974  1.00  0.00    -0.351 N 
ATOM      4  H3  UNL     1       3.308  20.420   0.554  1.00  0.00     0.163 HD
ENDROOT
BRANCH   1   5
HETATM    5  C3  UNL     1       1.361  22.004  -0.297  1.00  0.00     0.157 A 
HETATM    6  N2  UNL     1       1.459  22.426  -1.580  1.00  0.00    -0.293 N 
HETATM    7  N1  UNL     1       0.499  22.172  -2.418  1.00  0.00    -0.304 N 
ATOM      8  H2  UNL     1       2.284  22.942  -1.888  1.00  0.00     0.187 HD
HETATM    9  C2  UNL     1      -0.592  21.498  -2.038  1.00  0.00     0.031 A 
ATOM     10  H1  UNL     1       0.579  22.493  -3.383  1.00  0.00     0.186 HD
HETATM   11  C1  UNL     1      -1.672  21.234  -3.053  1.00  0.00     0.070 C 
HETATM   12  C27 UNL     1      -0.725  21.048  -0.729  1.00  0.00     0.004 A 
HETATM   13  C19 UNL     1       0.286  21.298   0.215  1.00  0.00     0.142 A 
HETATM   14  C28 UNL     1      -1.966  20.320  -0.431  1.00  0.00     0.054 C 
BRANCH  13  15
HETATM   15  N6  UNL     1       0.177  20.912   1.348  1.00  0.00    -0.440 NA
BRANCH  15  16
HETATM   16  C20 UNL     1       0.016  20.701   2.653  1.00  0.00     0.163 C 
HETATM   17  C21 UNL     1       0.913  19.668   3.332  1.00  0.00     0.040 C 
HETATM   18  C22 UNL     1       0.690  19.651   4.830  1.00  0.00     0.016 C 
HETATM   19  C23 UNL     1       1.155  20.934   5.449  1.00  0.00     0.093 C 
HETATM   20  C25 UNL     1       1.044  22.085   4.511  1.00  0.00     0.016 C 
HETATM   21  C26 UNL     1      -0.018  21.993   3.478  1.00  0.00     0.040 C 
BRANCH  19  22
HETATM   22  C24 UNL     1       0.487  21.150   6.786  1.00  0.00     0.391 C 
HETATM   23  F2  UNL     1       1.170  20.410   7.723  1.00  0.00    -0.171 F 
HETATM   24  F3  UNL     1       0.607  22.489   7.181  1.00  0.00    -0.171 F 
HETATM   25  F4  UNL     1      -0.839  20.829   6.791  1.00  0.00    -0.171 F 
ENDBRANCH  19  22
ENDBRANCH  15  16
ENDBRANCH  13  15
ENDBRANCH   1   5
BRANCH   3  26
HETATM   26  C5  UNL     1       4.552  21.459   1.827  1.00  0.00     0.084 C 
HETATM   27  C6  UNL     1       4.230  21.155   3.285  1.00  0.00     0.025 C 
HETATM   28  C7  UNL     1       4.557  19.680   3.588  1.00  0.00     0.006 C 
HETATM   29  C8  UNL     1       6.035  19.472   3.647  1.00  0.00    -0.014 C 
HETATM   30  C17 UNL     1       6.621  20.517   2.663  1.00  0.00     0.006 C 
HETATM   31  C18 UNL     1       5.708  20.560   1.464  1.00  0.00     0.025 C 
BRANCH  29  32
HETATM   32  C9  UNL     1       6.534  18.167   3.208  1.00  0.00     0.011 C 
BRANCH  32  33
HETATM   33  C10 UNL     1       7.085  17.188   4.154  1.00  0.00     0.007 C 
HETATM   34  C11 UNL     1       6.985  17.585   5.584  1.00  0.00     0.051 C 
HETATM   35  C12 UNL     1       7.153  16.372   6.500  1.00  0.00     0.238 C 
HETATM   36  F1  UNL     1       7.456  16.873   7.752  1.00  0.00    -0.241 F 
HETATM   37  C13 UNL     1       8.231  15.531   5.935  1.00  0.00     0.117 A 
HETATM   38  N4  UNL     1       8.751  14.413   6.525  1.00  0.00    -0.352 N 
HETATM   39  N5  UNL     1       8.849  15.732   4.776  1.00  0.00    -0.343 N 
HETATM   40  C14 UNL     1       9.695  13.896   5.757  1.00  0.00     0.106 A 
ATOM     41  H4  UNL     1       8.454  14.033   7.424  1.00  0.00     0.166 HD
HETATM   42  C15 UNL     1       9.759  14.737   4.640  1.00  0.00     0.109 A 
HETATM   43  C16 UNL     1       8.542  16.842   3.888  1.00  0.00     0.134 C 
ENDBRANCH  32  33
ENDBRANCH  29  32
ENDBRANCH   3  26
TORSDOF 7
ENDMDL
MODEL 2
REMARK VINA RESULT: -7.781303940      6.171      9.885
REMARK  7 active torsions:
REMARK  status: ('A' for Active; 'I' for Inactive)
REMARK    1  A    between atoms: C3_7  and  C4_8 
REMARK       I    between atoms: C4_8  and  N3_10 
REMARK    2  A    between atoms: N3_10  and  C5_12 
REMARK    3  A    between atoms: C8_15  and  C9_16 
REMARK    4  A    between atoms: C9_16  and  C10_17 
REMARK    5  A    between atoms: C19_30  and  N6_31 
REMARK    6  A    between atoms: N6_31  and  C20_32 
REMARK    7  A    between atoms: C23_35  and  C24_36 
ROOT
HETATM    1  C4  UNL     1       9.060  14.390   5.521  1.00  0.00     0.273 C 
HETATM    2  O1  UNL     1      10.291  14.372   5.498  1.00  0.00    -0.266 OA
HETATM    3  N3  UNL     1       8.389  14.381   4.270  1.00  0.00    -0.351 N 
ATOM      4  H3  UNL     1       7.371  14.398   4.324  1.00  0.00     0.163 HD
ENDROOT
BRANCH   1   5
HETATM    5  C3  UNL     1       8.336  14.421   6.793  1.00  0.00     0.157 A 
HETATM    6  N2  UNL     1       8.689  13.527   7.747  1.00  0.00    -0.293 N 
HETATM    7  N1  UNL     1       8.069  13.525   8.889  1.00  0.00    -0.304 N 
ATOM      8  H2  UNL     1       9.438  12.858   7.570  1.00  0.00     0.187 HD
HETATM    9  C2  UNL     1       7.083  14.392   9.144  1.00  0.00     0.031 A 
ATOM     10  H1  UNL     1       8.339  12.849   9.604  1.00  0.00     0.186 HD
HETATM   11  C1  UNL     1       6.402  14.341  10.486  1.00  0.00     0.070 C 
HETATM   12  C27 UNL     1       6.697  15.325   8.188  1.00  0.00     0.004 A 
HETATM   13  C19 UNL     1       7.336  15.367   6.937  1.00  0.00     0.142 A 
HETATM   14  C28 UNL     1       5.604  16.224   8.583  1.00  0.00     0.054 C 
BRANCH  13  15
HETATM   15  N6  UNL     1       7.006  16.170   6.106  1.00  0.00    -0.440 NA
BRANCH  15  16
HETATM   16  C20 UNL     1       6.824  17.176   5.251  1.00  0.00     0.163 C 
HETATM   17  C21 UNL     1       5.790  18.242   5.603  1.00  0.00     0.040 C 
HETATM   18  C22 UNL     1       5.807  19.373   4.595  1.00  0.00     0.016 C 
HETATM   19  C23 UNL     1       7.094  20.136   4.677  1.00  0.00     0.093 C 
HETATM   20  C25 UNL     1       8.227  19.282   5.127  1.00  0.00     0.016 C 
HETATM   21  C26 UNL     1       8.133  17.837   4.803  1.00  0.00     0.040 C 
BRANCH  19  22
HETATM   22  C24 UNL     1       7.347  20.886   3.391  1.00  0.00     0.391 C 
HETATM   23  F2  UNL     1       6.539  21.999   3.385  1.00  0.00    -0.171 F 
HETATM   24  F3  UNL     1       8.666  21.360   3.354  1.00  0.00    -0.171 F 
HETATM   25  F4  UNL     1       7.142  20.134   2.271  1.00  0.00    -0.171 F 
ENDBRANCH  19  22
ENDBRANCH  15  16
ENDBRANCH  13  15
ENDBRANCH   1   5
BRANCH   3  26
HETATM   26  C5  UNL     1       8.919  14.352   2.966  1.00  0.00     0.084 C 
HETATM   27  C6  UNL     1       7.849  14.340   1.881  1.00  0.00     0.025 C 
HETATM   28  C7  UNL     1       7.588  15.781   1.400  1.00  0.00     0.006 C 
HETATM   29  C8  UNL     1       8.729  16.271   0.569  1.00  0.00    -0.014 C 
HETATM   30  C17 UNL     1       9.974  15.542   1.138  1.00  0.00     0.006 C 
HETATM   31  C18 UNL     1       9.825  15.512   2.639  1.00  0.00     0.025 C 
BRANCH  29  32
HETATM   32  C9  UNL     1       9.024  17.703   0.636  1.00  0.00     0.011 C 
BRANCH  32  33
HETATM   33  C10 UNL     1       9.450  18.464  -0.545  1.00  0.00     0.007 C 
HETATM   34  C11 UNL     1       8.903  19.846  -0.622  1.00  0.00     0.051 C 
HETATM   35  C12 UNL     1       9.716  20.702  -1.595  1.00  0.00     0.238 C 
HETATM   36  F1  UNL     1       8.922  21.787  -1.910  1.00  0.00    -0.241 F 
HETATM   37  C13 UNL     1      10.041  19.860  -2.767  1.00  0.00     0.117 A 
HETATM   38  N4  UNL     1      10.664  20.296  -3.903  1.00  0.00    -0.352 N 
HETATM   39  N5  UNL     1       9.780  18.563  -2.890  1.00  0.00    -0.343 N 
HETATM   40  C14 UNL     1      10.806  19.293  -4.752  1.00  0.00     0.106 A 
ATOM     41  H4  UNL     1      10.975  21.253  -4.071  1.00  0.00     0.166 HD
HETATM   42  C15 UNL     1      10.242  18.185  -4.107  1.00  0.00     0.109 A 
HETATM   43  C16 UNL     1       9.117  17.779  -1.861  1.00  0.00     0.134 C 
ENDBRANCH  32  33
ENDBRANCH  29  32
ENDBRANCH   3  26
TORSDOF 7
ENDMDL
MODEL 3
REMARK VINA RESULT: -7.605091591      5.474      7.627
REMARK  7 active torsions:
REMARK  status: ('A' for Active; 'I' for Inactive)
REMARK    1  A    between atoms: C3_7  and  C4_8 
REMARK       I    between atoms: C4_8  and  N3_10 
REMARK    2  A    between atoms: N3_10  and  C5_12 
REMARK    3  A    between atoms: C8_15  and  C9_16 
REMARK    4  A    between atoms: C9_16  and  C10_17 
REMARK    5  A    between atoms: C19_30  and  N6_31 
REMARK    6  A    between atoms: N6_31  and  C20_32 
REMARK    7  A    between atoms: C23_35  and  C24_36 
ROOT
HETATM    1  C4  UNL     1       7.356  16.886  -1.391  1.00  0.00     0.273 C 
HETATM    2  O1  UNL     1       6.144  16.941  -1.598  1.00  0.00    -0.266 OA
HETATM    3  N3  UNL     1       7.789  16.110  -0.284  1.00  0.00    -0.351 N 
ATOM      4  H3  UNL     1       8.798  16.087  -0.138  1.00  0.00     0.163 HD
ENDROOT
BRANCH   1   5
HETATM    5  C3  UNL     1       8.296  17.597  -2.258  1.00  0.00     0.157 A 
HETATM    6  N2  UNL     1       8.618  17.031  -3.446  1.00  0.00    -0.293 N 
HETATM    7  N1  UNL     1       9.449  17.634  -4.242  1.00  0.00    -0.304 N 
ATOM      8  H2  UNL     1       8.210  16.136  -3.713  1.00  0.00     0.187 HD
HETATM    9  C2  UNL     1       9.997  18.809  -3.913  1.00  0.00     0.031 A 
ATOM     10  H1  UNL     1       9.687  17.202  -5.136  1.00  0.00     0.186 HD
HETATM   11  C1  UNL     1      10.953  19.459  -4.877  1.00  0.00     0.070 C 
HETATM   12  C27 UNL     1       9.687  19.419  -2.702  1.00  0.00     0.004 A 
HETATM   13  C19 UNL     1       8.794  18.806  -1.806  1.00  0.00     0.142 A 
HETATM   14  C28 UNL     1      10.350  20.706  -2.452  1.00  0.00     0.054 C 
BRANCH  13  15
HETATM   15  N6  UNL     1       8.523  19.328  -0.758  1.00  0.00    -0.440 NA
BRANCH  15  16
HETATM   16  C20 UNL     1       8.396  19.788   0.486  1.00  0.00     0.163 C 
HETATM   17  C21 UNL     1       7.026  19.690   1.154  1.00  0.00     0.040 C 
HETATM   18  C22 UNL     1       7.091  20.133   2.601  1.00  0.00     0.016 C 
HETATM   19  C23 UNL     1       7.911  19.175   3.410  1.00  0.00     0.093 C 
HETATM   20  C25 UNL     1       8.968  18.511   2.599  1.00  0.00     0.016 C 
HETATM   21  C26 UNL     1       9.484  19.277   1.437  1.00  0.00     0.040 C 
BRANCH  19  22
HETATM   22  C24 UNL     1       8.414  19.840   4.669  1.00  0.00     0.391 C 
HETATM   23  F2  UNL     1       7.356  20.498   5.251  1.00  0.00    -0.171 F 
HETATM   24  F3  UNL     1       8.835  18.877   5.596  1.00  0.00    -0.171 F 
HETATM   25  F4  UNL     1       9.455  20.697   4.454  1.00  0.00    -0.171 F 
ENDBRANCH  19  22
ENDBRANCH  15  16
ENDBRANCH  13  15
ENDBRANCH   1   5
BRANCH   3  26
HETATM   26  C5  UNL     1       7.034  15.368   0.645  1.00  0.00     0.084 C 
HETATM   27  C6  UNL     1       7.804  14.203   1.253  1.00  0.00     0.025 C 
HETATM   28  C7  UNL     1       8.427  14.640   2.593  1.00  0.00     0.006 C 
HETATM   29  C8  UNL     1       7.374  14.772   3.644  1.00  0.00    -0.014 C 
HETATM   30  C17 UNL     1       6.095  15.190   2.872  1.00  0.00     0.006 C 
HETATM   31  C18 UNL     1       6.519  16.175   1.811  1.00  0.00     0.025 C 
BRANCH  29  32
HETATM   32  C9  UNL     1       7.590  15.796   4.668  1.00  0.00     0.011 C 
BRANCH  32  33
HETATM   33  C10 UNL     1       6.637  16.012   5.764  1.00  0.00     0.007 C 
HETATM   34  C11 UNL     1       5.835  17.260   5.650  1.00  0.00     0.051 C 
HETATM   35  C12 UNL     1       4.595  17.196   6.543  1.00  0.00     0.238 C 
HETATM   36  F1  UNL     1       4.159  18.498   6.692  1.00  0.00    -0.241 F 
HETATM   37  C13 UNL     1       4.997  16.569   7.821  1.00  0.00     0.117 A 
HETATM   38  N4  UNL     1       4.195  16.432   8.920  1.00  0.00    -0.352 N 
HETATM   39  N5  UNL     1       6.189  16.044   8.091  1.00  0.00    -0.343 N 
HETATM   40  C14 UNL     1       4.859  15.827   9.890  1.00  0.00     0.106 A 
ATOM     41  H4  UNL     1       3.228  16.750   8.982  1.00  0.00     0.166 HD
HETATM   42  C15 UNL     1       6.132  15.578   9.362  1.00  0.00     0.109 A 
HETATM   43  C16 UNL     1       7.287  16.023   7.139  1.00  0.00     0.134 C 
ENDBRANCH  32  33
ENDBRANCH  29  32
ENDBRANCH   3  26
TORSDOF 7
ENDMDL
MODEL 4
REMARK VINA RESULT: -7.532295325      4.768      7.252
REMARK  7 active torsions:
REMARK  status: ('A' for Active; 'I' for Inactive)
REMARK    1  A    between atoms: C3_7  and  C4_8 
REMARK       I    between atoms: C4_8  and  N3_10 
REMARK    2  A    between atoms: N3_10  and  C5_12 
REMARK    3  A    between atoms: C8_15  and  C9_16 
REMARK    4  A    between atoms: C9_16  and  C10_17 
REMARK    5  A    between atoms: C19_30  and  N6_31 
REMARK    6  A    between atoms: N6_31  and  C20_32 
REMARK    7  A    between atoms: C23_35  and  C24_36 
ROOT
HETATM    1  C4  UNL     1       3.779  17.415   0.535  1.00  0.00     0.273 C 
HETATM    2  O1  UNL     1       3.222  16.536   1.194  1.00  0.00    -0.266 OA
HETATM    3  N3  UNL     1       5.049  17.103  -0.018  1.00  0.00    -0.351 N 
ATOM      4  H3  UNL     1       5.484  17.853  -0.555  1.00  0.00     0.163 HD
ENDROOT
BRANCH   1   5
HETATM    5  C3  UNL     1       3.146  18.720   0.343  1.00  0.00     0.157 A 
HETATM    6  N2  UNL     1       2.036  18.780  -0.431  1.00  0.00    -0.293 N 
HETATM    7  N1  UNL     1       1.446  19.921  -0.624  1.00  0.00    -0.304 N 
ATOM      8  H2  UNL     1       1.665  17.932  -0.861  1.00  0.00     0.187 HD
HETATM    9  C2  UNL     1       1.913  21.046  -0.071  1.00  0.00     0.031 A 
ATOM     10  H1  UNL     1       0.610  19.960  -1.208  1.00  0.00     0.186 HD
HETATM   11  C1  UNL     1       1.186  22.338  -0.331  1.00  0.00     0.070 C 
HETATM   12  C27 UNL     1       3.049  21.020   0.730  1.00  0.00     0.004 A 
HETATM   13  C19 UNL     1       3.723  19.811   0.969  1.00  0.00     0.142 A 
HETATM   14  C28 UNL     1       3.466  22.317   1.282  1.00  0.00     0.054 C 
BRANCH  13  15
HETATM   15  N6  UNL     1       4.706  19.782   1.660  1.00  0.00    -0.440 NA
BRANCH  15  16
HETATM   16  C20 UNL     1       5.903  19.829   2.244  1.00  0.00     0.163 C 
HETATM   17  C21 UNL     1       6.319  21.128   2.931  1.00  0.00     0.040 C 
HETATM   18  C22 UNL     1       7.641  20.965   3.652  1.00  0.00     0.016 C 
HETATM   19  C23 UNL     1       7.501  20.022   4.808  1.00  0.00     0.093 C 
HETATM   20  C25 UNL     1       6.442  19.002   4.578  1.00  0.00     0.016 C 
HETATM   21  C26 UNL     1       6.177  18.634   3.164  1.00  0.00     0.040 C 
BRANCH  19  22
HETATM   22  C24 UNL     1       8.845  19.453   5.194  1.00  0.00     0.391 C 
HETATM   23  F2  UNL     1       9.627  19.412   4.063  1.00  0.00    -0.171 F 
HETATM   24  F3  UNL     1       9.499  20.309   6.091  1.00  0.00    -0.171 F 
HETATM   25  F4  UNL     1       8.769  18.220   5.773  1.00  0.00    -0.171 F 
ENDBRANCH  19  22
ENDBRANCH  15  16
ENDBRANCH  13  15
ENDBRANCH   1   5
BRANCH   3  26
HETATM   26  C5  UNL     1       5.798  15.914   0.065  1.00  0.00     0.084 C 
HETATM   27  C6  UNL     1       5.910  15.179  -1.265  1.00  0.00     0.025 C 
HETATM   28  C7  UNL     1       7.223  15.580  -1.966  1.00  0.00     0.006 C 
HETATM   29  C8  UNL     1       8.396  14.959  -1.279  1.00  0.00    -0.014 C 
HETATM   30  C17 UNL     1       7.968  14.845   0.207  1.00  0.00     0.006 C 
HETATM   31  C18 UNL     1       7.213  16.105   0.551  1.00  0.00     0.025 C 
BRANCH  29  32
HETATM   32  C9  UNL     1       9.645  15.723  -1.291  1.00  0.00     0.011 C 
BRANCH  32  33
HETATM   33  C10 UNL     1       9.713  17.093  -1.815  1.00  0.00     0.007 C 
HETATM   34  C11 UNL     1      10.642  17.271  -2.964  1.00  0.00     0.051 C 
HETATM   35  C12 UNL     1      10.333  18.564  -3.721  1.00  0.00     0.238 C 
HETATM   36  F1  UNL     1      11.456  18.847  -4.473  1.00  0.00    -0.241 F 
HETATM   37  C13 UNL     1      10.027  19.607  -2.718  1.00  0.00     0.117 A 
HETATM   38  N4  UNL     1       9.807  20.927  -2.994  1.00  0.00    -0.352 N 
HETATM   39  N5  UNL     1       9.918  19.418  -1.406  1.00  0.00    -0.343 N 
HETATM   40  C14 UNL     1       9.558  21.586  -1.876  1.00  0.00     0.106 A 
ATOM     41  H4  UNL     1       9.830  21.343  -3.926  1.00  0.00     0.166 HD
HETATM   42  C15 UNL     1       9.629  20.624  -0.860  1.00  0.00     0.109 A 
HETATM   43  C16 UNL     1      10.097  18.125  -0.767  1.00  0.00     0.134 C 
ENDBRANCH  32  33
ENDBRANCH  29  32
ENDBRANCH   3  26
TORSDOF 7
ENDMDL
MODEL 5
REMARK VINA RESULT: -7.490414315      1.115      1.684
REMARK  7 active torsions:
REMARK  status: ('A' for Active; 'I' for Inactive)
REMARK    1  A    between atoms: C3_7  and  C4_8 
REMARK       I    between atoms: C4_8  and  N3_10 
REMARK    2  A    between atoms: N3_10  and  C5_12 
REMARK    3  A    between atoms: C8_15  and  C9_16 
REMARK    4  A    between atoms: C9_16  and  C10_17 
REMARK    5  A    between atoms: C19_30  and  N6_31 
REMARK    6  A    between atoms: N6_31  and  C20_32 
REMARK    7  A    between atoms: C23_35  and  C24_36 
ROOT
HETATM    1  C4  UNL     1       2.492  22.330   0.455  1.00  0.00     0.273 C 
HETATM    2  O1  UNL     1       2.607  23.456   0.938  1.00  0.00    -0.266 OA
HETATM    3  N3  UNL     1       3.506  21.386   0.764  1.00  0.00    -0.351 N 
ATOM      4  H3  UNL     1       3.383  20.464   0.347  1.00  0.00     0.163 HD
ENDROOT
BRANCH   1   5
HETATM    5  C3  UNL     1       1.354  21.996  -0.402  1.00  0.00     0.157 A 
HETATM    6  N2  UNL     1       1.390  22.401  -1.694  1.00  0.00    -0.293 N 
HETATM    7  N1  UNL     1       0.398  22.123  -2.485  1.00  0.00    -0.304 N 
ATOM      8  H2  UNL     1       2.194  22.923  -2.044  1.00  0.00     0.187 HD
HETATM    9  C2  UNL     1      -0.666  21.440  -2.048  1.00  0.00     0.031 A 
ATOM     10  H1  UNL     1       0.431  22.431  -3.457  1.00  0.00     0.186 HD
HETATM   11  C1  UNL     1      -1.785  21.147  -3.012  1.00  0.00     0.070 C 
HETATM   12  C27 UNL     1      -0.735  21.006  -0.729  1.00  0.00     0.004 A 
HETATM   13  C19 UNL     1       0.312  21.283   0.166  1.00  0.00     0.142 A 
HETATM   14  C28 UNL     1      -1.952  20.266  -0.367  1.00  0.00     0.054 C 
BRANCH  13  15
HETATM   15  N6  UNL     1       0.258  20.912   1.307  1.00  0.00    -0.440 NA
BRANCH  15  16
HETATM   16  C20 UNL     1       0.097  20.698   2.613  1.00  0.00     0.163 C 
HETATM   17  C21 UNL     1       1.017  19.690   3.297  1.00  0.00     0.040 C 
HETATM   18  C22 UNL     1       0.787  19.669   4.794  1.00  0.00     0.016 C 
HETATM   19  C23 UNL     1       1.216  20.964   5.413  1.00  0.00     0.093 C 
HETATM   20  C25 UNL     1       1.080  22.111   4.473  1.00  0.00     0.016 C 
HETATM   21  C26 UNL     1       0.025  21.990   3.435  1.00  0.00     0.040 C 
BRANCH  19  22
HETATM   22  C24 UNL     1       0.537  21.164   6.747  1.00  0.00     0.391 C 
HETATM   23  F2  UNL     1       1.294  20.532   7.705  1.00  0.00    -0.171 F 
HETATM   24  F3  UNL     1       0.526  22.523   7.090  1.00  0.00    -0.171 F 
HETATM   25  F4  UNL     1      -0.751  20.715   6.776  1.00  0.00    -0.171 F 
ENDBRANCH  19  22
ENDBRANCH  15  16
ENDBRANCH  13  15
ENDBRANCH   1   5
BRANCH   3  26
HETATM   26  C5  UNL     1       4.658  21.533   1.562  1.00  0.00     0.084 C 
HETATM   27  C6  UNL     1       4.350  21.621   3.052  1.00  0.00     0.025 C 
HETATM   28  C7  UNL     1       4.477  20.223   3.688  1.00  0.00     0.006 C 
HETATM   29  C8  UNL     1       5.912  19.821   3.789  1.00  0.00    -0.014 C 
HETATM   30  C17 UNL     1       6.603  20.515   2.587  1.00  0.00     0.006 C 
HETATM   31  C18 UNL     1       5.661  20.416   1.414  1.00  0.00     0.025 C 
BRANCH  29  32
HETATM   32  C9  UNL     1       6.205  18.392   3.663  1.00  0.00     0.011 C 
BRANCH  32  33
HETATM   33  C10 UNL     1       6.578  17.570   4.822  1.00  0.00     0.007 C 
HETATM   34  C11 UNL     1       7.377  16.360   4.491  1.00  0.00     0.051 C 
HETATM   35  C12 UNL     1       8.091  15.820   5.732  1.00  0.00     0.238 C 
HETATM   36  F1  UNL     1       8.448  14.519   5.436  1.00  0.00    -0.241 F 
HETATM   37  C13 UNL     1       7.150  15.921   6.868  1.00  0.00     0.117 A 
HETATM   38  N4  UNL     1       7.378  15.440   8.127  1.00  0.00    -0.352 N 
HETATM   39  N5  UNL     1       5.950  16.492   6.837  1.00  0.00    -0.343 N 
HETATM   40  C14 UNL     1       6.339  15.696   8.903  1.00  0.00     0.106 A 
ATOM     41  H4  UNL     1       8.225  14.955   8.424  1.00  0.00     0.166 HD
HETATM   42  C15 UNL     1       5.426  16.369   8.081  1.00  0.00     0.109 A 
HETATM   43  C16 UNL     1       5.387  17.107   5.646  1.00  0.00     0.134 C 
ENDBRANCH  32  33
ENDBRANCH  29  32
ENDBRANCH   3  26
TORSDOF 7
ENDMDL
