MODEL 1
REMARK VINA RESULT: -7.967021813      0.000      0.000
REMARK  7 active torsions:
REMARK  status: ('A' for Active; 'I' for Inactive)
REMARK    1  A    between atoms: C2_2  and  C3_3 
REMARK    2  A    between atoms: C7_11  and  N3_12 
REMARK    3  A    between atoms: N3_12  and  C8_14 
REMARK    4  A    between atoms: C10_16  and  N4_17 
REMARK    5  A    between atoms: N5_20  and  C13_21 
REMARK    6  A    between atoms: C25_34  and  O1_35 
REMARK    7  A    between atoms: O1_35  and  C26_36 
ROOT
HETATM    1  C8  UNL     1       6.517  20.444   2.652  1.00  0.00     0.085 A 
HETATM    2  C9  UNL     1       5.555  20.719   1.720  1.00  0.00     0.062 A 
HETATM    3  C10 UNL     1       4.194  20.489   1.957  1.00  0.00     0.040 A 
HETATM    4  C22 UNL     1       3.834  19.964   3.190  1.00  0.00    -0.033 A 
HETATM    5  C23 UNL     1       2.398  19.692   3.501  1.00  0.00     0.050 C 
HETATM    6  C24 UNL     1       4.781  19.679   4.149  1.00  0.00     0.048 A 
HETATM    7  C25 UNL     1       6.102  19.917   3.877  1.00  0.00     0.106 A 
ENDROOT
BRANCH   1   8
HETATM    8  N3  UNL     1       7.889  20.694   2.384  1.00  0.00    -0.189 N 
ATOM      9  H3  UNL     1       8.381  21.441   2.873  1.00  0.00     0.184 HD
BRANCH   8  10
HETATM   10  C7  UNL     1       8.514  19.960   1.508  1.00  0.00     0.682 A 
HETATM   11  N2  UNL     1       8.887  18.719   1.819  1.00  0.00    -0.199 N 
HETATM   12  C6  UNL     1       9.532  17.906   0.964  1.00  0.00     0.137 A 
ATOM     13  H2  UNL     1       8.673  18.369   2.752  1.00  0.00     0.183 HD
HETATM   14  C5  UNL     1       9.823  18.395  -0.318  1.00  0.00     0.067 A 
HETATM   15  N1  UNL     1      10.504  17.576  -1.254  1.00  0.00    -0.387 N 
HETATM   16  C27 UNL     1       9.434  19.671  -0.627  1.00  0.00     0.054 A 
HETATM   17  C4  UNL     1      10.427  17.932  -2.655  1.00  0.00     0.124 C 
ATOM     18  H1  UNL     1      11.032  16.759  -0.949  1.00  0.00     0.159 HD
HETATM   19  C3  UNL     1      10.720  19.425  -2.714  1.00  0.00     0.009 C 
HETATM   20  C28 UNL     1       9.716  20.230  -1.966  1.00  0.00     0.066 C 
HETATM   21  N6  UNL     1       8.779  20.451   0.289  1.00  0.00    -0.193 N 
ATOM     22  H6  UNL     1       8.496  21.401   0.045  1.00  0.00     0.184 HD
BRANCH  19  23
HETATM   23  C2  UNL     1      10.759  19.851  -4.155  1.00  0.00     0.002 C 
HETATM   24  C1  UNL     1      10.759  18.656  -5.070  1.00  0.00     0.005 C 
ENDBRANCH  19  23
ENDBRANCH   8  10
ENDBRANCH   1   8
BRANCH   7  25
HETATM   25  O1  UNL     1       7.086  19.653   4.791  1.00  0.00    -0.253 OA
BRANCH  25  26
HETATM   26  C26 UNL     1       7.488  18.403   5.260  1.00  0.00     0.530 C 
HETATM   27  F2  UNL     1       8.833  18.463   5.631  1.00  0.00    -0.144 F 
HETATM   28  F3  UNL     1       7.427  17.517   4.174  1.00  0.00    -0.144 F 
HETATM   29  F4  UNL     1       6.708  17.876   6.244  1.00  0.00    -0.144 F 
ENDBRANCH  25  26
ENDBRANCH   7  25
BRANCH   3  30
HETATM   30  N4  UNL     1       3.270  20.814   0.939  1.00  0.00    -0.347 N 
HETATM   31  C11 UNL     1       2.753  22.149   0.808  1.00  0.00     0.145 C 
HETATM   32  C12 UNL     1       1.760  22.100  -0.365  1.00  0.00     0.137 C 
HETATM   33  N5  UNL     1       0.811  21.089  -0.028  1.00  0.00    -0.402 N 
HETATM   34  C20 UNL     1       1.318  19.759   0.027  1.00  0.00     0.176 C 
HETATM   35  C21 UNL     1       2.831  19.796   0.013  1.00  0.00     0.289 C 
HETATM   36  F1  UNL     1       3.368  18.557   0.319  1.00  0.00    -0.225 F 
BRANCH  33  37
HETATM   37  C13 UNL     1      -0.467  21.237  -0.633  1.00  0.00     0.079 C 
HETATM   38  C14 UNL     1      -0.482  21.919  -1.967  1.00  0.00     0.025 C 
HETATM   39  C15 UNL     1      -1.311  21.193  -2.991  1.00  0.00     0.006 C 
HETATM   40  C16 UNL     1      -2.616  20.680  -2.485  1.00  0.00    -0.019 C 
HETATM   41  C17 UNL     1      -3.076  19.565  -3.433  1.00  0.00     0.010 C 
HETATM   42  C18 UNL     1      -2.584  20.155  -1.079  1.00  0.00     0.006 C 
HETATM   43  C19 UNL     1      -1.119  19.870  -0.736  1.00  0.00     0.025 C 
ENDBRANCH  33  37
ENDBRANCH   3  30
TORSDOF 7
ENDMDL
MODEL 2
REMARK VINA RESULT: -7.910662923      1.245      1.794
REMARK  7 active torsions:
REMARK  status: ('A' for Active; 'I' for Inactive)
REMARK    1  A    between atoms: C2_2  and  C3_3 
REMARK    2  A    between atoms: C7_11  and  N3_12 
REMARK    3  A    between atoms: N3_12  and  C8_14 
REMARK    4  A    between atoms: C10_16  and  N4_17 
REMARK    5  A    between atoms: N5_20  and  C13_21 
REMARK    6  A    between atoms: C25_34  and  O1_35 
REMARK    7  A    between atoms: O1_35  and  C26_36 
ROOT
HETATM    1  C8  UNL     1       6.715  20.356   2.831  1.00  0.00     0.085 A 
HETATM    2  C9  UNL     1       5.531  20.213   2.161  1.00  0.00     0.062 A 
HETATM    3  C10 UNL     1       4.358  19.786   2.795  1.00  0.00     0.040 A 
HETATM    4  C22 UNL     1       4.424  19.506   4.153  1.00  0.00    -0.033 A 
HETATM    5  C23 UNL     1       3.206  19.042   4.885  1.00  0.00     0.050 C 
HETATM    6  C24 UNL     1       5.602  19.642   4.854  1.00  0.00     0.048 A 
HETATM    7  C25 UNL     1       6.728  20.061   4.196  1.00  0.00     0.106 A 
ENDROOT
BRANCH   1   8
HETATM    8  N3  UNL     1       7.886  20.796   2.161  1.00  0.00    -0.189 N 
ATOM      9  H3  UNL     1       8.286  21.710   2.370  1.00  0.00     0.184 HD
BRANCH   8  10
HETATM   10  C7  UNL     1       8.446  20.022   1.275  1.00  0.00     0.682 A 
HETATM   11  N2  UNL     1       8.673  18.739   1.556  1.00  0.00    -0.199 N 
HETATM   12  C6  UNL     1       9.243  17.883   0.690  1.00  0.00     0.137 A 
ATOM     13  H2  UNL     1       8.399  18.389   2.473  1.00  0.00     0.183 HD
HETATM   14  C5  UNL     1       9.617  18.373  -0.570  1.00  0.00     0.067 A 
HETATM   15  N1  UNL     1      10.225  17.510  -1.517  1.00  0.00    -0.387 N 
HETATM   16  C27 UNL     1       9.379  19.693  -0.848  1.00  0.00     0.054 A 
HETATM   17  C4  UNL     1      10.220  17.912  -2.908  1.00  0.00     0.124 C 
ATOM     18  H1  UNL     1      10.652  16.631  -1.227  1.00  0.00     0.159 HD
HETATM   19  C3  UNL     1      10.679  19.364  -2.915  1.00  0.00     0.009 C 
HETATM   20  C28 UNL     1       9.753  20.254  -2.163  1.00  0.00     0.066 C 
HETATM   21  N6  UNL     1       8.794  20.515   0.078  1.00  0.00    -0.193 N 
ATOM     22  H6  UNL     1       8.623  21.496  -0.142  1.00  0.00     0.184 HD
BRANCH  19  23
HETATM   23  C2  UNL     1      10.799  19.823  -4.341  1.00  0.00     0.002 C 
HETATM   24  C1  UNL     1      10.753  18.654  -5.289  1.00  0.00     0.005 C 
ENDBRANCH  19  23
ENDBRANCH   8  10
ENDBRANCH   1   8
BRANCH   7  25
HETATM   25  O1  UNL     1       7.925  20.214   4.840  1.00  0.00    -0.253 OA
BRANCH  25  26
HETATM   26  C26 UNL     1       8.895  19.237   5.061  1.00  0.00     0.530 C 
HETATM   27  F2  UNL     1       9.362  19.342   6.373  1.00  0.00    -0.144 F 
HETATM   28  F3  UNL     1       9.987  19.547   4.237  1.00  0.00    -0.144 F 
HETATM   29  F4  UNL     1       8.517  17.965   4.752  1.00  0.00    -0.144 F 
ENDBRANCH  25  26
ENDBRANCH   7  25
BRANCH   3  30
HETATM   30  N4  UNL     1       3.178  19.678   2.026  1.00  0.00    -0.347 N 
HETATM   31  C11 UNL     1       2.944  18.536   1.185  1.00  0.00     0.145 C 
HETATM   32  C12 UNL     1       1.600  18.798   0.486  1.00  0.00     0.137 C 
HETATM   33  N5  UNL     1       1.747  20.050  -0.181  1.00  0.00    -0.402 N 
HETATM   34  C20 UNL     1       1.903  21.187   0.664  1.00  0.00     0.176 C 
HETATM   35  C21 UNL     1       2.186  20.726   2.078  1.00  0.00     0.289 C 
HETATM   36  F1  UNL     1       2.594  21.781   2.878  1.00  0.00    -0.225 F 
BRANCH  33  37
HETATM   37  C13 UNL     1       0.902  20.234  -1.309  1.00  0.00     0.079 C 
HETATM   38  C14 UNL     1      -0.279  19.316  -1.396  1.00  0.00     0.025 C 
HETATM   39  C15 UNL     1      -1.562  20.035  -1.713  1.00  0.00     0.006 C 
HETATM   40  C16 UNL     1      -1.446  21.080  -2.768  1.00  0.00    -0.019 C 
HETATM   41  C17 UNL     1      -2.634  22.038  -2.607  1.00  0.00     0.010 C 
HETATM   42  C18 UNL     1      -0.167  21.867  -2.738  1.00  0.00     0.006 C 
HETATM   43  C19 UNL     1       0.445  21.681  -1.347  1.00  0.00     0.025 C 
ENDBRANCH  33  37
ENDBRANCH   3  30
TORSDOF 7
ENDMDL
MODEL 3
REMARK VINA RESULT: -7.781539599      1.633      2.103
REMARK  7 active torsions:
REMARK  status: ('A' for Active; 'I' for Inactive)
REMARK    1  A    between atoms: C2_2  and  C3_3 
REMARK    2  A    between atoms: C7_11  and  N3_12 
REMARK    3  A    between atoms: N3_12  and  C8_14 
REMARK    4  A    between atoms: C10_16  and  N4_17 
REMARK    5  A    between atoms: N5_20  and  C13_21 
REMARK    6  A    between atoms: C25_34  and  O1_35 
REMARK    7  A    between atoms: O1_35  and  C26_36 
ROOT
HETATM    1  C8  UNL     1       6.942  19.806   2.563  1.00  0.00     0.085 A 
HETATM    2  C9  UNL     1       5.663  19.839   2.081  1.00  0.00     0.062 A 
HETATM    3  C10 UNL     1       4.588  19.261   2.767  1.00  0.00     0.040 A 
HETATM    4  C22 UNL     1       4.857  18.639   3.978  1.00  0.00    -0.033 A 
HETATM    5  C23 UNL     1       3.751  17.999   4.755  1.00  0.00     0.050 C 
HETATM    6  C24 UNL     1       6.135  18.591   4.489  1.00  0.00     0.048 A 
HETATM    7  C25 UNL     1       7.159  19.168   3.786  1.00  0.00     0.106 A 
ENDROOT
BRANCH   1   8
HETATM    8  N3  UNL     1       8.011  20.406   1.846  1.00  0.00    -0.189 N 
ATOM      9  H3  UNL     1       8.246  21.387   1.999  1.00  0.00     0.184 HD
BRANCH   8  10
HETATM   10  C7  UNL     1       8.688  19.695   0.990  1.00  0.00     0.682 A 
HETATM   11  N2  UNL     1       9.141  18.490   1.333  1.00  0.00    -0.199 N 
HETATM   12  C6  UNL     1       9.844  17.701   0.501  1.00  0.00     0.137 A 
ATOM     13  H2  UNL     1       8.946  18.149   2.274  1.00  0.00     0.183 HD
HETATM   14  C5  UNL     1      10.109  18.177  -0.791  1.00  0.00     0.067 A 
HETATM   15  N1  UNL     1      10.847  17.383  -1.704  1.00  0.00    -0.387 N 
HETATM   16  C27 UNL     1       9.636  19.416  -1.133  1.00  0.00     0.054 A 
HETATM   17  C4  UNL     1      10.754  17.698  -3.114  1.00  0.00     0.124 C 
ATOM     18  H1  UNL     1      11.427  16.610  -1.377  1.00  0.00     0.159 HD
HETATM   19  C3  UNL     1      10.947  19.206  -3.208  1.00  0.00     0.009 C 
HETATM   20  C28 UNL     1       9.888  19.960  -2.485  1.00  0.00     0.066 C 
HETATM   21  N6  UNL     1       8.926  20.173  -0.239  1.00  0.00    -0.193 N 
ATOM     22  H6  UNL     1       8.581  21.095  -0.507  1.00  0.00     0.184 HD
BRANCH  19  23
HETATM   23  C2  UNL     1      10.966  19.598  -4.660  1.00  0.00     0.002 C 
HETATM   24  C1  UNL     1      10.564  18.442  -5.536  1.00  0.00     0.005 C 
ENDBRANCH  19  23
ENDBRANCH   8  10
ENDBRANCH   1   8
BRANCH   7  25
HETATM   25  O1  UNL     1       8.448  19.150   4.244  1.00  0.00    -0.253 OA
BRANCH  25  26
HETATM   26  C26 UNL     1       9.069  20.102   5.051  1.00  0.00     0.530 C 
HETATM   27  F2  UNL     1       9.580  19.475   6.190  1.00  0.00    -0.144 F 
HETATM   28  F3  UNL     1       8.069  20.973   5.506  1.00  0.00    -0.144 F 
HETATM   29  F4  UNL     1      10.005  20.869   4.425  1.00  0.00    -0.144 F 
ENDBRANCH  25  26
ENDBRANCH   7  25
BRANCH   3  30
HETATM   30  N4  UNL     1       3.298  19.354   2.198  1.00  0.00    -0.347 N 
HETATM   31  C11 UNL     1       2.773  18.297   1.379  1.00  0.00     0.145 C 
HETATM   32  C12 UNL     1       1.386  18.776   0.916  1.00  0.00     0.137 C 
HETATM   33  N5  UNL     1       1.605  20.026   0.266  1.00  0.00    -0.402 N 
HETATM   34  C20 UNL     1       2.054  21.089   1.102  1.00  0.00     0.176 C 
HETATM   35  C21 UNL     1       2.488  20.526   2.439  1.00  0.00     0.289 C 
HETATM   36  F1  UNL     1       3.166  21.474   3.187  1.00  0.00    -0.225 F 
BRANCH  33  37
HETATM   37  C13 UNL     1       0.627  20.379  -0.705  1.00  0.00     0.079 C 
HETATM   38  C14 UNL     1       0.522  21.839  -1.025  1.00  0.00     0.025 C 
HETATM   39  C15 UNL     1       0.480  22.116  -2.503  1.00  0.00     0.006 C 
HETATM   40  C16 UNL     1      -0.391  21.194  -3.285  1.00  0.00    -0.019 C 
HETATM   41  C17 UNL     1       0.065  21.255  -4.749  1.00  0.00     0.010 C 
HETATM   42  C18 UNL     1      -0.375  19.766  -2.820  1.00  0.00     0.006 C 
HETATM   43  C19 UNL     1       0.886  19.582  -1.971  1.00  0.00     0.025 C 
ENDBRANCH  33  37
ENDBRANCH   3  30
TORSDOF 7
ENDMDL
MODEL 4
REMARK VINA RESULT: -7.389196232      1.763      2.650
REMARK  7 active torsions:
REMARK  status: ('A' for Active; 'I' for Inactive)
REMARK    1  A    between atoms: C2_2  and  C3_3 
REMARK    2  A    between atoms: C7_11  and  N3_12 
REMARK    3  A    between atoms: N3_12  and  C8_14 
REMARK    4  A    between atoms: C10_16  and  N4_17 
REMARK    5  A    between atoms: N5_20  and  C13_21 
REMARK    6  A    between atoms: C25_34  and  O1_35 
REMARK    7  A    between atoms: O1_35  and  C26_36 
ROOT
HETATM    1  C8  UNL     1       7.093  19.611   2.104  1.00  0.00     0.085 A 
HETATM    2  C9  UNL     1       5.857  19.598   1.520  1.00  0.00     0.062 A 
HETATM    3  C10 UNL     1       4.756  18.962   2.108  1.00  0.00     0.040 A 
HETATM    4  C22 UNL     1       4.953  18.330   3.328  1.00  0.00    -0.033 A 
HETATM    5  C23 UNL     1       3.818  17.631   4.003  1.00  0.00     0.050 C 
HETATM    6  C24 UNL     1       6.187  18.328   3.941  1.00  0.00     0.048 A 
HETATM    7  C25 UNL     1       7.238  18.961   3.331  1.00  0.00     0.106 A 
ENDROOT
BRANCH   1   8
HETATM    8  N3  UNL     1       8.188  20.269   1.485  1.00  0.00    -0.189 N 
ATOM      9  H3  UNL     1       8.691  21.007   1.979  1.00  0.00     0.184 HD
BRANCH   8  10
HETATM   10  C7  UNL     1       8.546  19.924   0.281  1.00  0.00     0.682 A 
HETATM   11  N2  UNL     1       8.549  20.824  -0.700  1.00  0.00    -0.199 N 
HETATM   12  C6  UNL     1       8.909  20.538  -1.964  1.00  0.00     0.137 A 
ATOM     13  H2  UNL     1       8.265  21.779  -0.482  1.00  0.00     0.183 HD
HETATM   14  C5  UNL     1       9.298  19.223  -2.256  1.00  0.00     0.067 A 
HETATM   15  N1  UNL     1       9.683  18.871  -3.575  1.00  0.00    -0.387 N 
HETATM   16  C27 UNL     1       9.291  18.305  -1.239  1.00  0.00     0.054 A 
HETATM   17  C4  UNL     1      10.454  17.660  -3.761  1.00  0.00     0.124 C 
ATOM     18  H1  UNL     1       9.426  19.456  -4.370  1.00  0.00     0.159 HD
HETATM   19  C3  UNL     1       9.734  16.590  -2.952  1.00  0.00     0.009 C 
HETATM   20  C28 UNL     1       9.696  16.907  -1.498  1.00  0.00     0.066 C 
HETATM   21  N6  UNL     1       8.914  18.659   0.029  1.00  0.00    -0.193 N 
ATOM     22  H6  UNL     1       8.913  17.965   0.776  1.00  0.00     0.184 HD
BRANCH  19  23
HETATM   23  C2  UNL     1      10.421  15.272  -3.179  1.00  0.00     0.002 C 
HETATM   24  C1  UNL     1      11.094  14.790  -1.922  1.00  0.00     0.005 C 
ENDBRANCH  19  23
ENDBRANCH   8  10
ENDBRANCH   1   8
BRANCH   7  25
HETATM   25  O1  UNL     1       8.486  18.990   3.892  1.00  0.00    -0.253 OA
BRANCH  25  26
HETATM   26  C26 UNL     1       8.946  19.860   4.880  1.00  0.00     0.530 C 
HETATM   27  F2  UNL     1       9.250  19.128   6.030  1.00  0.00    -0.144 F 
HETATM   28  F3  UNL     1       7.874  20.695   5.226  1.00  0.00    -0.144 F 
HETATM   29  F4  UNL     1       9.973  20.672   4.503  1.00  0.00    -0.144 F 
ENDBRANCH  25  26
ENDBRANCH   7  25
BRANCH   3  30
HETATM   30  N4  UNL     1       3.513  19.011   1.438  1.00  0.00    -0.347 N 
HETATM   31  C11 UNL     1       3.137  17.986   0.503  1.00  0.00     0.145 C 
HETATM   32  C12 UNL     1       1.761  18.403  -0.043  1.00  0.00     0.137 C 
HETATM   33  N5  UNL     1       1.938  19.711  -0.583  1.00  0.00    -0.402 N 
HETATM   34  C20 UNL     1       2.238  20.735   0.362  1.00  0.00     0.176 C 
HETATM   35  C21 UNL     1       2.602  20.103   1.689  1.00  0.00     0.289 C 
HETATM   36  F1  UNL     1       3.144  21.034   2.558  1.00  0.00    -0.225 F 
BRANCH  33  37
HETATM   37  C13 UNL     1       1.019  20.070  -1.607  1.00  0.00     0.079 C 
HETATM   38  C14 UNL     1      -0.103  19.106  -1.843  1.00  0.00     0.025 C 
HETATM   39  C15 UNL     1      -1.446  19.777  -1.939  1.00  0.00     0.006 C 
HETATM   40  C16 UNL     1      -1.459  21.031  -2.744  1.00  0.00    -0.019 C 
HETATM   41  C17 UNL     1      -2.695  21.838  -2.326  1.00  0.00     0.010 C 
HETATM   42  C18 UNL     1      -0.234  21.887  -2.596  1.00  0.00     0.006 C 
HETATM   43  C19 UNL     1       0.468  21.452  -1.307  1.00  0.00     0.025 C 
ENDBRANCH  33  37
ENDBRANCH   3  30
TORSDOF 7
ENDMDL
MODEL 5
REMARK VINA RESULT: -7.339287250      1.799      2.647
REMARK  7 active torsions:
REMARK  status: ('A' for Active; 'I' for Inactive)
REMARK    1  A    between atoms: C2_2  and  C3_3 
REMARK    2  A    between atoms: C7_11  and  N3_12 
REMARK    3  A    between atoms: N3_12  and  C8_14 
REMARK    4  A    between atoms: C10_16  and  N4_17 
REMARK    5  A    between atoms: N5_20  and  C13_21 
REMARK    6  A    between atoms: C25_34  and  O1_35 
REMARK    7  A    between atoms: O1_35  and  C26_36 
ROOT
HETATM    1  C8  UNL     1       6.614  19.594   2.123  1.00  0.00     0.085 A 
HETATM    2  C9  UNL     1       5.397  19.584   1.499  1.00  0.00     0.062 A 
HETATM    3  C10 UNL     1       4.328  18.801   1.952  1.00  0.00     0.040 A 
HETATM    4  C22 UNL     1       4.536  18.016   3.077  1.00  0.00    -0.033 A 
HETATM    5  C23 UNL     1       3.435  17.154   3.606  1.00  0.00     0.050 C 
HETATM    6  C24 UNL     1       5.751  18.006   3.728  1.00  0.00     0.048 A 
HETATM    7  C25 UNL     1       6.771  18.786   3.251  1.00  0.00     0.106 A 
ENDROOT
BRANCH   1   8
HETATM    8  N3  UNL     1       7.676  20.404   1.642  1.00  0.00    -0.189 N 
ATOM      9  H3  UNL     1       7.842  21.326   2.044  1.00  0.00     0.184 HD
BRANCH   8  10
HETATM   10  C7  UNL     1       8.437  19.959   0.683  1.00  0.00     0.682 A 
HETATM   11  N2  UNL     1       8.502  20.611  -0.477  1.00  0.00    -0.199 N 
HETATM   12  C6  UNL     1       9.267  20.211  -1.507  1.00  0.00     0.137 A 
ATOM     13  H2  UNL     1       7.943  21.457  -0.589  1.00  0.00     0.183 HD
HETATM   14  C5  UNL     1      10.032  19.047  -1.347  1.00  0.00     0.067 A 
HETATM   15  N1  UNL     1      10.853  18.583  -2.405  1.00  0.00    -0.387 N 
HETATM   16  C27 UNL     1       9.958  18.385  -0.150  1.00  0.00     0.054 A 
HETATM   17  C4  UNL     1      11.916  17.652  -2.088  1.00  0.00     0.124 C 
ATOM     18  H1  UNL     1      10.700  18.896  -3.364  1.00  0.00     0.159 HD
HETATM   19  C3  UNL     1      11.278  16.590  -1.203  1.00  0.00     0.009 C 
HETATM   20  C28 UNL     1      10.748  17.154   0.068  1.00  0.00     0.066 C 
HETATM   21  N6  UNL     1       9.159  18.843   0.863  1.00  0.00    -0.193 N 
ATOM     22  H6  UNL     1       9.113  18.340   1.749  1.00  0.00     0.184 HD
BRANCH  19  23
HETATM   23  C2  UNL     1      12.301  15.527  -0.915  1.00  0.00     0.002 C 
HETATM   24  C1  UNL     1      13.574  16.132  -0.388  1.00  0.00     0.005 C 
ENDBRANCH  19  23
ENDBRANCH   8  10
ENDBRANCH   1   8
BRANCH   7  25
HETATM   25  O1  UNL     1       7.998  18.817   3.855  1.00  0.00    -0.253 OA
BRANCH  25  26
HETATM   26  C26 UNL     1       8.397  19.630   4.915  1.00  0.00     0.530 C 
HETATM   27  F2  UNL     1       7.321  20.428   5.311  1.00  0.00    -0.144 F 
HETATM   28  F3  UNL     1       9.367  20.511   4.416  1.00  0.00    -0.144 F 
HETATM   29  F4  UNL     1       8.963  18.974   5.967  1.00  0.00    -0.144 F 
ENDBRANCH  25  26
ENDBRANCH   7  25
BRANCH   3  30
HETATM   30  N4  UNL     1       3.103  18.863   1.250  1.00  0.00    -0.347 N 
HETATM   31  C11 UNL     1       2.788  17.906   0.226  1.00  0.00     0.145 C 
HETATM   32  C12 UNL     1       1.413  18.321  -0.326  1.00  0.00     0.137 C 
HETATM   33  N5  UNL     1       1.559  19.675  -0.753  1.00  0.00    -0.402 N 
HETATM   34  C20 UNL     1       1.798  20.627   0.280  1.00  0.00     0.176 C 
HETATM   35  C21 UNL     1       2.148  19.901   1.561  1.00  0.00     0.289 C 
HETATM   36  F1  UNL     1       2.633  20.776   2.519  1.00  0.00    -0.225 F 
BRANCH  33  37
HETATM   37  C13 UNL     1       0.657  20.085  -1.772  1.00  0.00     0.079 C 
HETATM   38  C14 UNL     1      -0.567  19.237  -1.940  1.00  0.00     0.025 C 
HETATM   39  C15 UNL     1      -1.833  20.044  -2.037  1.00  0.00     0.006 C 
HETATM   40  C16 UNL     1      -1.735  21.256  -2.897  1.00  0.00    -0.019 C 
HETATM   41  C17 UNL     1      -2.867  22.208  -2.489  1.00  0.00     0.010 C 
HETATM   42  C18 UNL     1      -0.423  21.982  -2.815  1.00  0.00     0.006 C 
HETATM   43  C19 UNL     1       0.263  21.530  -1.523  1.00  0.00     0.025 C 
ENDBRANCH  33  37
ENDBRANCH   3  30
TORSDOF 7
ENDMDL
