MODEL 1
REMARK VINA RESULT: -8.105891172      0.000      0.000
REMARK  7 active torsions:
REMARK  status: ('A' for Active; 'I' for Inactive)
REMARK    1  A    between atoms: N2_8  and  C5_9 
REMARK    2  A    between atoms: C8_12  and  N3_13 
REMARK    3  A    between atoms: C9_14  and  N4_15 
REMARK    4  A    between atoms: N4_15  and  C10_17 
REMARK    5  A    between atoms: C13_20  and  C14_21 
REMARK    6  A    between atoms: C14_21  and  N5_22 
REMARK    7  A    between atoms: C21_31  and  C22_32 
ROOT
HETATM    1  N3  UNL     1       2.459  20.903   1.114  1.00  0.00    -0.176 N 
HETATM    2  C9  UNL     1       1.860  22.073   1.265  1.00  0.00     0.686 A 
HETATM    3  N6  UNL     1       0.937  22.220   0.285  1.00  0.00    -0.188 N 
ATOM      4  H6  UNL     1       0.326  23.026   0.157  1.00  0.00     0.184 HD
HETATM    5  C23 UNL     1       0.961  21.127  -0.486  1.00  0.00     0.092 A 
HETATM    6  C24 UNL     1       0.222  20.793  -1.600  1.00  0.00     0.119 A 
HETATM    7  N7  UNL     1       0.430  19.608  -2.223  1.00  0.00    -0.373 N 
ATOM      8  H7  UNL     1      -0.109  19.349  -3.048  1.00  0.00     0.164 HD
HETATM    9  C25 UNL     1       1.361  18.789  -1.726  1.00  0.00     0.090 A 
HETATM   10  C26 UNL     1       2.125  19.085  -0.610  1.00  0.00     0.049 A 
HETATM   11  C27 UNL     1       1.915  20.293   0.026  1.00  0.00     0.082 A 
ENDROOT
BRANCH   2  12
HETATM   12  N4  UNL     1       2.099  22.944   2.183  1.00  0.00    -0.191 N 
ATOM     13  H4  UNL     1       3.054  23.283   2.298  1.00  0.00     0.184 HD
BRANCH  12  14
HETATM   14  C10 UNL     1       1.088  23.453   3.045  1.00  0.00     0.060 A 
HETATM   15  C11 UNL     1       0.395  22.607   3.886  1.00  0.00     0.031 A 
HETATM   16  C12 UNL     1      -0.589  23.066   4.734  1.00  0.00     0.011 A 
HETATM   17  C13 UNL     1      -0.932  24.419   4.779  1.00  0.00    -0.029 A 
HETATM   18  C20 UNL     1      -0.232  25.257   3.935  1.00  0.00     0.023 A 
HETATM   19  C21 UNL     1       0.756  24.790   3.084  1.00  0.00     0.033 A 
BRANCH  17  20
HETATM   20  C14 UNL     1      -1.997  24.911   5.689  1.00  0.00     0.311 C 
BRANCH  20  21
HETATM   21  N5  UNL     1      -1.897  26.359   5.717  1.00  0.00     0.093 N 
HETATM   22  C15 UNL     1      -3.103  26.981   5.196  1.00  0.00     0.278 C 
HETATM   23  C16 UNL     1      -2.893  28.479   5.281  1.00  0.00     0.109 C 
HETATM   24  C17 UNL     1      -3.086  28.827   6.756  1.00  0.00     0.246 C 
HETATM   25  F1  UNL     1      -4.391  29.160   6.969  1.00  0.00    -0.206 F 
HETATM   26  F2  UNL     1      -2.279  29.883   7.080  1.00  0.00    -0.206 F 
HETATM   27  C18 UNL     1      -2.739  27.641   7.633  1.00  0.00     0.109 C 
HETATM   28  C19 UNL     1      -1.590  26.843   7.050  1.00  0.00     0.278 C 
ENDBRANCH  20  21
ENDBRANCH  17  20
BRANCH  19  29
HETATM   29  C22 UNL     1       1.477  25.734   2.196  1.00  0.00     0.389 C 
HETATM   30  F3  UNL     1       2.575  26.228   2.891  1.00  0.00    -0.209 F 
HETATM   31  F4  UNL     1       0.683  26.816   1.862  1.00  0.00    -0.209 F 
ENDBRANCH  19  29
ENDBRANCH  12  14
ENDBRANCH   2  12
BRANCH   1  32
HETATM   32  C8  UNL     1       3.492  20.332   1.912  1.00  0.00     0.108 C 
HETATM   33  C7  UNL     1       4.817  21.039   1.750  1.00  0.00     0.028 C 
HETATM   34  C6  UNL     1       5.920  20.253   2.413  1.00  0.00     0.027 C 
HETATM   35  C5  UNL     1       5.602  19.882   3.841  1.00  0.00     0.086 C 
HETATM   36  C29 UNL     1       4.199  19.439   4.055  1.00  0.00     0.027 C 
HETATM   37  C28 UNL     1       3.173  20.359   3.407  1.00  0.00     0.028 C 
BRANCH  35  38
HETATM   38  N2  UNL     1       6.500  18.814   4.213  1.00  0.00    -0.360 N 
HETATM   39  C1  UNL     1       7.814  18.888   4.749  1.00  0.00     0.097 A 
HETATM   40  N1  UNL     1       8.409  20.011   4.987  1.00  0.00    -0.386 N 
HETATM   41  C2  UNL     1       8.340  17.547   4.968  1.00  0.00     0.045 A 
ATOM     42  H12 UNL     1       9.352  20.064   5.372  1.00  0.00     0.157 HD
ATOM     43  H11 UNL     1       8.040  20.950   4.833  1.00  0.00     0.157 HD
HETATM   44  C3  UNL     1       7.400  16.707   4.588  1.00  0.00    -0.003 A 
HETATM   45  C4  UNL     1       6.200  17.406   4.096  1.00  0.00     0.152 A 
ENDBRANCH  35  38
ENDBRANCH   1  32
TORSDOF 7
ENDMDL
MODEL 2
REMARK VINA RESULT: -7.748624950      4.430      8.349
REMARK  7 active torsions:
REMARK  status: ('A' for Active; 'I' for Inactive)
REMARK    1  A    between atoms: N2_8  and  C5_9 
REMARK    2  A    between atoms: C8_12  and  N3_13 
REMARK    3  A    between atoms: C9_14  and  N4_15 
REMARK    4  A    between atoms: N4_15  and  C10_17 
REMARK    5  A    between atoms: C13_20  and  C14_21 
REMARK    6  A    between atoms: C14_21  and  N5_22 
REMARK    7  A    between atoms: C21_31  and  C22_32 
ROOT
HETATM    1  N3  UNL     1       5.501  19.527   2.845  1.00  0.00    -0.176 N 
HETATM    2  C9  UNL     1       4.478  20.366   2.888  1.00  0.00     0.686 A 
HETATM    3  N6  UNL     1       3.735  20.093   3.986  1.00  0.00    -0.188 N 
ATOM      4  H6  UNL     1       2.888  20.584   4.270  1.00  0.00     0.184 HD
HETATM    5  C23 UNL     1       4.302  19.071   4.636  1.00  0.00     0.092 A 
HETATM    6  C24 UNL     1       3.934  18.425   5.797  1.00  0.00     0.119 A 
HETATM    7  N7  UNL     1       4.680  17.397   6.268  1.00  0.00    -0.373 N 
ATOM      8  H7  UNL     1       4.419  16.911   7.125  1.00  0.00     0.164 HD
HETATM    9  C25 UNL     1       5.766  17.038   5.579  1.00  0.00     0.090 A 
HETATM   10  C26 UNL     1       6.172  17.659   4.410  1.00  0.00     0.049 A 
HETATM   11  C27 UNL     1       5.412  18.707   3.928  1.00  0.00     0.082 A 
ENDROOT
BRANCH   2  12
HETATM   12  N4  UNL     1       4.214  21.296   2.037  1.00  0.00    -0.191 N 
ATOM     13  H4  UNL     1       4.824  22.113   2.002  1.00  0.00     0.184 HD
BRANCH  12  14
HETATM   14  C10 UNL     1       3.108  21.233   1.143  1.00  0.00     0.060 A 
HETATM   15  C11 UNL     1       2.823  20.066   0.466  1.00  0.00     0.031 A 
HETATM   16  C12 UNL     1       1.760  19.969  -0.406  1.00  0.00     0.011 A 
HETATM   17  C13 UNL     1       0.919  21.058  -0.644  1.00  0.00    -0.029 A 
HETATM   18  C20 UNL     1       1.213  22.220   0.038  1.00  0.00     0.023 A 
HETATM   19  C21 UNL     1       2.283  22.312   0.914  1.00  0.00     0.033 A 
BRANCH  17  20
HETATM   20  C14 UNL     1      -0.222  20.955  -1.589  1.00  0.00     0.311 C 
BRANCH  20  21
HETATM   21  N5  UNL     1       0.056  19.836  -2.472  1.00  0.00     0.093 N 
HETATM   22  C15 UNL     1      -1.123  19.007  -2.657  1.00  0.00     0.278 C 
HETATM   23  C16 UNL     1      -0.723  17.886  -3.595  1.00  0.00     0.109 C 
HETATM   24  C17 UNL     1      -0.682  18.521  -4.983  1.00  0.00     0.246 C 
HETATM   25  F1  UNL     1      -1.898  18.371  -5.581  1.00  0.00    -0.206 F 
HETATM   26  F2  UNL     1       0.283  17.905  -5.733  1.00  0.00    -0.206 F 
HETATM   27  C18 UNL     1      -0.371  20.001  -4.883  1.00  0.00     0.109 C 
HETATM   28  C19 UNL     1       0.588  20.286  -3.744  1.00  0.00     0.278 C 
ENDBRANCH  20  21
ENDBRANCH  17  20
BRANCH  19  29
HETATM   29  C22 UNL     1       2.555  23.587   1.621  1.00  0.00     0.389 C 
HETATM   30  F3  UNL     1       1.351  24.267   1.762  1.00  0.00    -0.209 F 
HETATM   31  F4  UNL     1       3.401  24.399   0.888  1.00  0.00    -0.209 F 
ENDBRANCH  19  29
ENDBRANCH  12  14
ENDBRANCH   2  12
BRANCH   1  32
HETATM   32  C8  UNL     1       6.537  19.447   1.869  1.00  0.00     0.108 C 
HETATM   33  C7  UNL     1       7.886  19.854   2.412  1.00  0.00     0.028 C 
HETATM   34  C6  UNL     1       8.886  19.992   1.292  1.00  0.00     0.027 C 
HETATM   35  C5  UNL     1       8.935  18.780   0.394  1.00  0.00     0.086 C 
HETATM   36  C29 UNL     1       7.600  18.206   0.076  1.00  0.00     0.027 C 
HETATM   37  C28 UNL     1       6.711  18.039   1.300  1.00  0.00     0.028 C 
BRANCH  35  38
HETATM   38  N2  UNL     1       9.582  19.185  -0.832  1.00  0.00    -0.360 N 
HETATM   39  C1  UNL     1      10.455  18.446  -1.675  1.00  0.00     0.097 A 
HETATM   40  N1  UNL     1      10.800  17.225  -1.425  1.00  0.00    -0.386 N 
HETATM   41  C2  UNL     1      10.868  19.265  -2.808  1.00  0.00     0.045 A 
ATOM     42  H12 UNL     1      11.426  16.694  -2.031  1.00  0.00     0.157 HD
ATOM     43  H11 UNL     1      10.511  16.651  -0.633  1.00  0.00     0.157 HD
HETATM   44  C3  UNL     1      10.280  20.434  -2.661  1.00  0.00    -0.003 A 
HETATM   45  C4  UNL     1       9.447  20.485  -1.446  1.00  0.00     0.152 A 
ENDBRANCH  35  38
ENDBRANCH   1  32
TORSDOF 7
ENDMDL
MODEL 3
REMARK VINA RESULT: -7.725328642      3.821      8.269
REMARK  7 active torsions:
REMARK  status: ('A' for Active; 'I' for Inactive)
REMARK    1  A    between atoms: N2_8  and  C5_9 
REMARK    2  A    between atoms: C8_12  and  N3_13 
REMARK    3  A    between atoms: C9_14  and  N4_15 
REMARK    4  A    between atoms: N4_15  and  C10_17 
REMARK    5  A    between atoms: C13_20  and  C14_21 
REMARK    6  A    between atoms: C14_21  and  N5_22 
REMARK    7  A    between atoms: C21_31  and  C22_32 
ROOT
HETATM    1  N3  UNL     1       0.073  20.926  -0.917  1.00  0.00    -0.176 N 
HETATM    2  C9  UNL     1       0.892  21.961  -1.008  1.00  0.00     0.686 A 
HETATM    3  N6  UNL     1       1.090  22.248  -2.316  1.00  0.00    -0.188 N 
ATOM      4  H6  UNL     1       1.676  22.998  -2.681  1.00  0.00     0.184 HD
HETATM    5  C23 UNL     1       0.385  21.379  -3.050  1.00  0.00     0.092 A 
HETATM    6  C24 UNL     1       0.253  21.251  -4.416  1.00  0.00     0.119 A 
HETATM    7  N7  UNL     1      -0.532  20.276  -4.934  1.00  0.00    -0.373 N 
ATOM      8  H7  UNL     1      -0.638  20.170  -5.943  1.00  0.00     0.164 HD
HETATM    9  C25 UNL     1      -1.162  19.456  -4.088  1.00  0.00     0.090 A 
HETATM   10  C26 UNL     1      -1.058  19.550  -2.711  1.00  0.00     0.049 A 
HETATM   11  C27 UNL     1      -0.258  20.543  -2.180  1.00  0.00     0.082 A 
ENDROOT
BRANCH   2  12
HETATM   12  N4  UNL     1       1.425  22.606  -0.028  1.00  0.00    -0.191 N 
ATOM     13  H4  UNL     1       1.283  23.614   0.027  1.00  0.00     0.184 HD
BRANCH  12  14
HETATM   14  C10 UNL     1       2.204  21.972   0.980  1.00  0.00     0.060 A 
HETATM   15  C11 UNL     1       3.316  21.230   0.640  1.00  0.00     0.031 A 
HETATM   16  C12 UNL     1       4.094  20.603   1.589  1.00  0.00     0.011 A 
HETATM   17  C13 UNL     1       3.786  20.692   2.949  1.00  0.00    -0.029 A 
HETATM   18  C20 UNL     1       2.672  21.437   3.278  1.00  0.00     0.023 A 
HETATM   19  C21 UNL     1       1.894  22.065   2.319  1.00  0.00     0.033 A 
BRANCH  17  20
HETATM   20  C14 UNL     1       4.621  20.011   3.971  1.00  0.00     0.311 C 
BRANCH  20  21
HETATM   21  N5  UNL     1       5.970  19.939   3.440  1.00  0.00     0.093 N 
HETATM   22  C15 UNL     1       6.761  21.084   3.855  1.00  0.00     0.278 C 
HETATM   23  C16 UNL     1       8.141  20.900   3.257  1.00  0.00     0.109 C 
HETATM   24  C17 UNL     1       8.816  19.841   4.126  1.00  0.00     0.246 C 
HETATM   25  F1  UNL     1       9.508  20.456   5.125  1.00  0.00    -0.206 F 
HETATM   26  F2  UNL     1       9.673  19.104   3.354  1.00  0.00    -0.206 F 
HETATM   27  C18 UNL     1       7.782  18.922   4.745  1.00  0.00     0.109 C 
HETATM   28  C19 UNL     1       6.616  18.692   3.805  1.00  0.00     0.278 C 
ENDBRANCH  20  21
ENDBRANCH  17  20
BRANCH  19  29
HETATM   29  C22 UNL     1       0.705  22.852   2.727  1.00  0.00     0.389 C 
HETATM   30  F3  UNL     1       1.043  23.587   3.858  1.00  0.00    -0.209 F 
HETATM   31  F4  UNL     1      -0.349  22.028   3.075  1.00  0.00    -0.209 F 
ENDBRANCH  19  29
ENDBRANCH  12  14
ENDBRANCH   2  12
BRANCH   1  32
HETATM   32  C8  UNL     1      -0.409  20.284   0.261  1.00  0.00     0.108 C 
HETATM   33  C7  UNL     1      -1.895  20.019   0.218  1.00  0.00     0.028 C 
HETATM   34  C6  UNL     1      -2.391  19.573   1.569  1.00  0.00     0.027 C 
HETATM   35  C5  UNL     1      -1.589  18.431   2.144  1.00  0.00     0.086 C 
HETATM   36  C29 UNL     1      -0.122  18.559   1.943  1.00  0.00     0.027 C 
HETATM   37  C28 UNL     1       0.259  18.932   0.517  1.00  0.00     0.028 C 
BRANCH  35  38
HETATM   38  N2  UNL     1      -1.873  18.382   3.560  1.00  0.00    -0.360 N 
HETATM   39  C1  UNL     1      -2.849  17.619   4.256  1.00  0.00     0.097 A 
HETATM   40  N1  UNL     1      -3.664  16.814   3.657  1.00  0.00    -0.386 N 
HETATM   41  C2  UNL     1      -2.771  17.894   5.685  1.00  0.00     0.045 A 
ATOM     42  H12 UNL     1      -4.364  16.266   4.157  1.00  0.00     0.157 HD
ATOM     43  H11 UNL     1      -3.719  16.622   2.657  1.00  0.00     0.157 HD
HETATM   44  C3  UNL     1      -1.803  18.772   5.847  1.00  0.00    -0.003 A 
HETATM   45  C4  UNL     1      -1.174  19.144   4.568  1.00  0.00     0.152 A 
ENDBRANCH  35  38
ENDBRANCH   1  32
TORSDOF 7
ENDMDL
MODEL 4
REMARK VINA RESULT: -7.575355991      5.009      9.083
REMARK  7 active torsions:
REMARK  status: ('A' for Active; 'I' for Inactive)
REMARK    1  A    between atoms: N2_8  and  C5_9 
REMARK    2  A    between atoms: C8_12  and  N3_13 
REMARK    3  A    between atoms: C9_14  and  N4_15 
REMARK    4  A    between atoms: N4_15  and  C10_17 
REMARK    5  A    between atoms: C13_20  and  C14_21 
REMARK    6  A    between atoms: C14_21  and  N5_22 
REMARK    7  A    between atoms: C21_31  and  C22_32 
ROOT
HETATM    1  N3  UNL     1       8.699  15.971   3.885  1.00  0.00    -0.176 N 
HETATM    2  C9  UNL     1       8.459  16.443   5.098  1.00  0.00     0.686 A 
HETATM    3  N6  UNL     1       8.281  15.402   5.944  1.00  0.00    -0.188 N 
ATOM      4  H6  UNL     1       8.082  15.471   6.942  1.00  0.00     0.184 HD
HETATM    5  C23 UNL     1       8.411  14.266   5.250  1.00  0.00     0.092 A 
HETATM    6  C24 UNL     1       8.320  12.949   5.648  1.00  0.00     0.119 A 
HETATM    7  N7  UNL     1       8.493  11.953   4.747  1.00  0.00    -0.373 N 
ATOM      8  H7  UNL     1       8.429  10.975   5.029  1.00  0.00     0.164 HD
HETATM    9  C25 UNL     1       8.751  12.287   3.479  1.00  0.00     0.090 A 
HETATM   10  C26 UNL     1       8.850  13.594   3.037  1.00  0.00     0.049 A 
HETATM   11  C27 UNL     1       8.674  14.612   3.954  1.00  0.00     0.082 A 
ENDROOT
BRANCH   2  12
HETATM   12  N4  UNL     1       8.401  17.684   5.439  1.00  0.00    -0.191 N 
ATOM     13  H4  UNL     1       8.987  18.006   6.210  1.00  0.00     0.184 HD
BRANCH  12  14
HETATM   14  C10 UNL     1       7.553  18.624   4.790  1.00  0.00     0.060 A 
HETATM   15  C11 UNL     1       6.214  18.348   4.606  1.00  0.00     0.031 A 
HETATM   16  C12 UNL     1       5.365  19.235   3.982  1.00  0.00     0.011 A 
HETATM   17  C13 UNL     1       5.827  20.463   3.503  1.00  0.00    -0.029 A 
HETATM   18  C20 UNL     1       7.167  20.729   3.692  1.00  0.00     0.023 A 
HETATM   19  C21 UNL     1       8.017  19.833   4.320  1.00  0.00     0.033 A 
BRANCH  17  20
HETATM   20  C14 UNL     1       4.912  21.416   2.825  1.00  0.00     0.311 C 
BRANCH  20  21
HETATM   21  N5  UNL     1       3.682  20.698   2.543  1.00  0.00     0.093 N 
HETATM   22  C15 UNL     1       2.529  21.395   3.089  1.00  0.00     0.278 C 
HETATM   23  C16 UNL     1       1.311  20.570   2.731  1.00  0.00     0.109 C 
HETATM   24  C17 UNL     1       1.057  20.850   1.251  1.00  0.00     0.246 C 
HETATM   25  F1  UNL     1       0.185  21.891   1.136  1.00  0.00    -0.206 F 
HETATM   26  F2  UNL     1       0.526  19.734   0.664  1.00  0.00    -0.206 F 
HETATM   27  C18 UNL     1       2.349  21.220   0.550  1.00  0.00     0.109 C 
HETATM   28  C19 UNL     1       3.524  20.454   1.122  1.00  0.00     0.278 C 
ENDBRANCH  20  21
ENDBRANCH  17  20
BRANCH  19  29
HETATM   29  C22 UNL     1       9.451  20.170   4.495  1.00  0.00     0.389 C 
HETATM   30  F3  UNL     1       9.660  20.479   5.835  1.00  0.00    -0.209 F 
HETATM   31  F4  UNL     1       9.800  21.285   3.757  1.00  0.00    -0.209 F 
ENDBRANCH  19  29
ENDBRANCH  12  14
ENDBRANCH   2  12
BRANCH   1  32
HETATM   32  C8  UNL     1       8.945  16.702   2.686  1.00  0.00     0.108 C 
HETATM   33  C7  UNL     1      10.169  16.218   1.945  1.00  0.00     0.028 C 
HETATM   34  C6  UNL     1      10.524  17.172   0.833  1.00  0.00     0.027 C 
HETATM   35  C5  UNL     1       9.355  17.488  -0.068  1.00  0.00     0.086 C 
HETATM   36  C29 UNL     1       8.073  17.698   0.653  1.00  0.00     0.027 C 
HETATM   37  C28 UNL     1       7.785  16.625   1.693  1.00  0.00     0.028 C 
BRANCH  35  38
HETATM   38  N2  UNL     1       9.693  18.688  -0.798  1.00  0.00    -0.360 N 
HETATM   39  C1  UNL     1      10.374  18.825  -2.037  1.00  0.00     0.097 A 
HETATM   40  N1  UNL     1      10.808  17.812  -2.712  1.00  0.00    -0.386 N 
HETATM   41  C2  UNL     1      10.491  20.235  -2.389  1.00  0.00     0.045 A 
ATOM     42  H12 UNL     1      11.297  17.910  -3.602  1.00  0.00     0.157 HD
ATOM     43  H11 UNL     1      10.726  16.825  -2.466  1.00  0.00     0.157 HD
HETATM   44  C3  UNL     1       9.913  20.914  -1.420  1.00  0.00    -0.003 A 
HETATM   45  C4  UNL     1       9.378  20.030  -0.369  1.00  0.00     0.152 A 
ENDBRANCH  35  38
ENDBRANCH   1  32
TORSDOF 7
ENDMDL
MODEL 5
REMARK VINA RESULT: -7.566829147      4.336      8.539
REMARK  7 active torsions:
REMARK  status: ('A' for Active; 'I' for Inactive)
REMARK    1  A    between atoms: N2_8  and  C5_9 
REMARK    2  A    between atoms: C8_12  and  N3_13 
REMARK    3  A    between atoms: C9_14  and  N4_15 
REMARK    4  A    between atoms: N4_15  and  C10_17 
REMARK    5  A    between atoms: C13_20  and  C14_21 
REMARK    6  A    between atoms: C14_21  and  N5_22 
REMARK    7  A    between atoms: C21_31  and  C22_32 
ROOT
HETATM    1  N3  UNL     1      -0.892  23.876   5.578  1.00  0.00    -0.176 N 
HETATM    2  C9  UNL     1      -0.149  24.202   4.533  1.00  0.00     0.686 A 
HETATM    3  N6  UNL     1      -0.590  25.380   4.034  1.00  0.00    -0.188 N 
ATOM      4  H6  UNL     1      -0.202  25.870   3.229  1.00  0.00     0.184 HD
HETATM    5  C23 UNL     1      -1.622  25.794   4.778  1.00  0.00     0.092 A 
HETATM    6  C24 UNL     1      -2.409  26.921   4.682  1.00  0.00     0.119 A 
HETATM    7  N7  UNL     1      -3.413  27.126   5.568  1.00  0.00    -0.373 N 
ATOM      8  H7  UNL     1      -4.003  27.956   5.508  1.00  0.00     0.164 HD
HETATM    9  C25 UNL     1      -3.611  26.212   6.521  1.00  0.00     0.090 A 
HETATM   10  C26 UNL     1      -2.845  25.066   6.654  1.00  0.00     0.049 A 
HETATM   11  C27 UNL     1      -1.820  24.855   5.751  1.00  0.00     0.082 A 
ENDROOT
BRANCH   2  12
HETATM   12  N4  UNL     1       0.837  23.526   4.052  1.00  0.00    -0.191 N 
ATOM     13  H4  UNL     1       1.693  23.452   4.602  1.00  0.00     0.184 HD
BRANCH  12  14
HETATM   14  C10 UNL     1       0.783  22.878   2.786  1.00  0.00     0.060 A 
HETATM   15  C11 UNL     1       0.023  21.739   2.615  1.00  0.00     0.031 A 
HETATM   16  C12 UNL     1      -0.053  21.087   1.405  1.00  0.00     0.011 A 
HETATM   17  C13 UNL     1       0.643  21.553   0.288  1.00  0.00    -0.029 A 
HETATM   18  C20 UNL     1       1.400  22.692   0.468  1.00  0.00     0.023 A 
HETATM   19  C21 UNL     1       1.473  23.344   1.688  1.00  0.00     0.033 A 
BRANCH  17  20
HETATM   20  C14 UNL     1       0.566  20.845  -1.016  1.00  0.00     0.311 C 
BRANCH  20  21
HETATM   21  N5  UNL     1      -0.774  20.297  -1.124  1.00  0.00     0.093 N 
HETATM   22  C15 UNL     1      -1.616  21.128  -1.966  1.00  0.00     0.278 C 
HETATM   23  C16 UNL     1      -2.976  20.462  -2.016  1.00  0.00     0.109 C 
HETATM   24  C17 UNL     1      -2.809  19.281  -2.971  1.00  0.00     0.246 C 
HETATM   25  F1  UNL     1      -3.136  19.677  -4.233  1.00  0.00    -0.206 F 
HETATM   26  F2  UNL     1      -3.632  18.262  -2.576  1.00  0.00    -0.206 F 
HETATM   27  C18 UNL     1      -1.373  18.796  -2.971  1.00  0.00     0.109 C 
HETATM   28  C19 UNL     1      -0.748  18.925  -1.596  1.00  0.00     0.278 C 
ENDBRANCH  20  21
ENDBRANCH  17  20
BRANCH  19  29
HETATM   29  C22 UNL     1       2.303  24.565   1.828  1.00  0.00     0.389 C 
HETATM   30  F3  UNL     1       1.525  25.659   1.468  1.00  0.00    -0.209 F 
HETATM   31  F4  UNL     1       3.390  24.535   0.974  1.00  0.00    -0.209 F 
ENDBRANCH  19  29
ENDBRANCH  12  14
ENDBRANCH   2  12
BRANCH   1  32
HETATM   32  C8  UNL     1      -0.787  22.722   6.409  1.00  0.00     0.108 C 
HETATM   33  C7  UNL     1      -1.578  21.547   5.884  1.00  0.00     0.028 C 
HETATM   34  C6  UNL     1      -1.637  20.448   6.913  1.00  0.00     0.027 C 
HETATM   35  C5  UNL     1      -0.278  20.071   7.452  1.00  0.00     0.086 C 
HETATM   36  C29 UNL     1       0.613  21.232   7.716  1.00  0.00     0.027 C 
HETATM   37  C28 UNL     1       0.652  22.232   6.569  1.00  0.00     0.028 C 
BRANCH  35  38
HETATM   38  N2  UNL     1      -0.494  19.348   8.683  1.00  0.00    -0.360 N 
HETATM   39  C1  UNL     1       0.352  18.413   9.338  1.00  0.00     0.097 A 
HETATM   40  N1  UNL     1       1.508  18.071   8.871  1.00  0.00    -0.386 N 
HETATM   41  C2  UNL     1      -0.283  17.934  10.559  1.00  0.00     0.045 A 
ATOM     42  H12 UNL     1       2.116  17.400   9.341  1.00  0.00     0.157 HD
ATOM     43  H11 UNL     1       1.953  18.406   8.016  1.00  0.00     0.157 HD
HETATM   44  C3  UNL     1      -1.447  18.544  10.642  1.00  0.00    -0.003 A 
HETATM   45  C4  UNL     1      -1.675  19.456   9.507  1.00  0.00     0.152 A 
ENDBRANCH  35  38
ENDBRANCH   1  32
TORSDOF 7
ENDMDL
