MODEL 1
REMARK VINA RESULT: -6.998894759      0.000      0.000
REMARK  7 active torsions:
REMARK  status: ('A' for Active; 'I' for Inactive)
REMARK    1  A    between atoms: C3_3  and  N1_4 
REMARK       I    between atoms: N1_4  and  C4_6 
REMARK       I    between atoms: C4_6  and  N2_8 
REMARK    2  A    between atoms: N2_8  and  C5_9 
REMARK    3  A    between atoms: N2_8  and  C7_13 
REMARK    4  A    between atoms: C5_9  and  C6_10 
REMARK    5  A    between atoms: N3_18  and  O2_19 
REMARK    6  A    between atoms: C18_28  and  N4_29 
REMARK    7  A    between atoms: C21_32  and  C22_33 
ROOT
HETATM    1  N1  UNL     1       5.667  19.237   3.147  1.00  0.00    -0.308 N 
ATOM      2  H1  UNL     1       6.189  19.574   3.957  1.00  0.00     0.170 HD
HETATM    3  C4  UNL     1       6.439  18.912   2.047  1.00  0.00     0.323 C 
HETATM    4  O1  UNL     1       5.873  18.487   0.999  1.00  0.00    -0.247 OA
HETATM    5  N2  UNL     1       7.900  19.021   1.997  1.00  0.00    -0.322 N 
ENDROOT
BRANCH   1   6
HETATM    6  C3  UNL     1       4.271  19.174   3.321  1.00  0.00     0.044 A 
HETATM    7  C2  UNL     1       3.521  20.360   3.081  1.00  0.00    -0.007 A 
HETATM    8  C1  UNL     1       4.214  21.603   2.665  1.00  0.00     0.053 C 
HETATM    9  C18 UNL     1       2.161  20.420   3.216  1.00  0.00     0.060 A 
HETATM   10  C17 UNL     1       1.523  19.272   3.602  1.00  0.00     0.061 A 
HETATM   11  C16 UNL     1       2.213  18.104   3.844  1.00  0.00     0.028 A 
HETATM   12 CL1  UNL     1      -0.207  19.195   3.801  1.00  0.00    -0.082 Cl
HETATM   13  C15 UNL     1       3.587  18.060   3.703  1.00  0.00     0.032 A 
BRANCH   9  14
HETATM   14  N4  UNL     1       1.404  21.601   2.965  1.00  0.00    -0.379 N 
HETATM   15  C19 UNL     1       0.963  22.477   4.021  1.00  0.00     0.123 C 
HETATM   16  C20 UNL     1       1.159  23.937   3.767  1.00  0.00     0.033 C 
HETATM   17  C21 UNL     1       0.996  24.351   2.346  1.00  0.00     0.096 C 
HETATM   18  C23 UNL     1       1.384  23.336   1.336  1.00  0.00     0.033 C 
HETATM   19  C24 UNL     1       1.028  21.929   1.613  1.00  0.00     0.123 C 
BRANCH  17  20
HETATM   20  C22 UNL     1       1.776  25.617   2.075  1.00  0.00     0.391 C 
HETATM   21  F3  UNL     1       0.998  26.585   1.476  1.00  0.00    -0.171 F 
HETATM   22  F4  UNL     1       2.855  25.266   1.282  1.00  0.00    -0.171 F 
HETATM   23  F5  UNL     1       2.273  26.084   3.271  1.00  0.00    -0.171 F 
ENDBRANCH  17  20
ENDBRANCH   9  14
ENDBRANCH   1   6
BRANCH   5  24
HETATM   24  C5  UNL     1       8.521  19.476   3.196  1.00  0.00     0.199 C 
BRANCH  24  25
HETATM   25  C6  UNL     1       8.888  20.933   3.233  1.00  0.00     0.370 C 
HETATM   26  F1  UNL     1       7.723  21.709   3.358  1.00  0.00    -0.213 F 
HETATM   27  F2  UNL     1       9.784  21.303   4.175  1.00  0.00    -0.213 F 
ENDBRANCH  24  25
ENDBRANCH   5  24
BRANCH   5  28
HETATM   28  C7  UNL     1       8.516  18.641   0.790  1.00  0.00     0.115 C 
HETATM   29  C8  UNL     1       9.329  19.603   0.019  1.00  0.00     0.054 C 
HETATM   30  C9  UNL     1       9.706  18.694  -1.181  1.00  0.00     0.034 C 
HETATM   31  C10 UNL     1       8.680  18.971  -2.240  1.00  0.00     0.034 C 
HETATM   32  C11 UNL     1      11.055  19.046  -1.720  1.00  0.00     0.034 C 
HETATM   33  N3  UNL     1       9.639  17.344  -0.663  1.00  0.00    -0.180 NA
HETATM   34  C12 UNL     1       9.396  17.429   0.772  1.00  0.00     0.052 C 
HETATM   35  C13 UNL     1       8.579  16.227   1.200  1.00  0.00     0.036 C 
HETATM   36  C14 UNL     1      10.711  17.518   1.432  1.00  0.00     0.036 C 
BRANCH  33  37
HETATM   37  O2  UNL     1       8.690  16.601  -1.281  1.00  0.00    -0.311 OA
ATOM     38  H2  UNL     1       8.851  16.510  -2.212  1.00  0.00     0.237 HD
ENDBRANCH  33  37
ENDBRANCH   5  28
TORSDOF 7
ENDMDL
MODEL 2
REMARK VINA RESULT: -6.717828171      3.888      6.374
REMARK  7 active torsions:
REMARK  status: ('A' for Active; 'I' for Inactive)
REMARK    1  A    between atoms: C3_3  and  N1_4 
REMARK       I    between atoms: N1_4  and  C4_6 
REMARK       I    between atoms: C4_6  and  N2_8 
REMARK    2  A    between atoms: N2_8  and  C5_9 
REMARK    3  A    between atoms: N2_8  and  C7_13 
REMARK    4  A    between atoms: C5_9  and  C6_10 
REMARK    5  A    between atoms: N3_18  and  O2_19 
REMARK    6  A    between atoms: C18_28  and  N4_29 
REMARK    7  A    between atoms: C21_32  and  C22_33 
ROOT
HETATM    1  N1  UNL     1       7.647  20.369   0.660  1.00  0.00    -0.308 N 
ATOM      2  H1  UNL     1       8.321  21.096   0.899  1.00  0.00     0.170 HD
HETATM    3  C4  UNL     1       7.999  19.574  -0.415  1.00  0.00     0.323 C 
HETATM    4  O1  UNL     1       7.219  18.648  -0.781  1.00  0.00    -0.247 OA
HETATM    5  N2  UNL     1       9.237  19.723  -1.186  1.00  0.00    -0.322 N 
ENDROOT
BRANCH   1   6
HETATM    6  C3  UNL     1       6.500  20.326   1.476  1.00  0.00     0.044 A 
HETATM    7  C2  UNL     1       6.456  19.342   2.503  1.00  0.00    -0.007 A 
HETATM    8  C1  UNL     1       7.593  18.407   2.683  1.00  0.00     0.053 C 
HETATM    9  C18 UNL     1       5.395  19.205   3.358  1.00  0.00     0.060 A 
HETATM   10  C17 UNL     1       4.346  20.068   3.189  1.00  0.00     0.061 A 
HETATM   11  C16 UNL     1       4.350  21.034   2.207  1.00  0.00     0.028 A 
HETATM   12 CL1  UNL     1       2.935  20.021   4.212  1.00  0.00    -0.082 Cl
HETATM   13  C15 UNL     1       5.429  21.159   1.352  1.00  0.00     0.032 A 
BRANCH   9  14
HETATM   14  N4  UNL     1       5.352  18.230   4.396  1.00  0.00    -0.379 N 
HETATM   15  C19 UNL     1       4.863  16.891   4.180  1.00  0.00     0.123 C 
HETATM   16  C20 UNL     1       5.699  15.801   4.770  1.00  0.00     0.033 C 
HETATM   17  C21 UNL     1       6.359  16.149   6.059  1.00  0.00     0.096 C 
HETATM   18  C23 UNL     1       6.732  17.575   6.221  1.00  0.00     0.033 C 
HETATM   19  C24 UNL     1       5.777  18.589   5.725  1.00  0.00     0.123 C 
BRANCH  17  20
HETATM   20  C22 UNL     1       7.599  15.307   6.257  1.00  0.00     0.391 C 
HETATM   21  F3  UNL     1       7.468  14.054   5.695  1.00  0.00    -0.171 F 
HETATM   22  F4  UNL     1       7.825  15.233   7.620  1.00  0.00    -0.171 F 
HETATM   23  F5  UNL     1       8.667  15.968   5.692  1.00  0.00    -0.171 F 
ENDBRANCH  17  20
ENDBRANCH   9  14
ENDBRANCH   1   6
BRANCH   5  24
HETATM   24  C5  UNL     1      10.114  20.754  -0.743  1.00  0.00     0.199 C 
BRANCH  24  25
HETATM   25  C6  UNL     1      10.269  21.928  -1.668  1.00  0.00     0.370 C 
HETATM   26  F1  UNL     1       9.001  22.378  -2.076  1.00  0.00    -0.213 F 
HETATM   27  F2  UNL     1      10.992  22.970  -1.202  1.00  0.00    -0.213 F 
ENDBRANCH  24  25
ENDBRANCH   5  24
BRANCH   5  28
HETATM   28  C7  UNL     1       9.427  18.819  -2.248  1.00  0.00     0.115 C 
HETATM   29  C8  UNL     1       9.476  19.292  -3.646  1.00  0.00     0.054 C 
HETATM   30  C9  UNL     1       9.653  17.926  -4.359  1.00  0.00     0.034 C 
HETATM   31  C10 UNL     1       8.270  17.481  -4.736  1.00  0.00     0.034 C 
HETATM   32  C11 UNL     1      10.464  18.069  -5.605  1.00  0.00     0.034 C 
HETATM   33  N3  UNL     1      10.278  17.069  -3.373  1.00  0.00    -0.180 NA
HETATM   34  C12 UNL     1      10.599  17.888  -2.211  1.00  0.00     0.052 C 
HETATM   35  C13 UNL     1      10.498  17.027  -0.967  1.00  0.00     0.036 C 
HETATM   36  C14 UNL     1      11.941  18.453  -2.433  1.00  0.00     0.036 C 
BRANCH  33  37
HETATM   37  O2  UNL     1       9.495  16.016  -3.035  1.00  0.00    -0.311 OA
ATOM     38  H2  UNL     1       9.325  15.977  -2.101  1.00  0.00     0.237 HD
ENDBRANCH  33  37
ENDBRANCH   5  28
TORSDOF 7
ENDMDL
MODEL 3
REMARK VINA RESULT: -6.664696305      1.872      2.231
REMARK  7 active torsions:
REMARK  status: ('A' for Active; 'I' for Inactive)
REMARK    1  A    between atoms: C3_3  and  N1_4 
REMARK       I    between atoms: N1_4  and  C4_6 
REMARK       I    between atoms: C4_6  and  N2_8 
REMARK    2  A    between atoms: N2_8  and  C5_9 
REMARK    3  A    between atoms: N2_8  and  C7_13 
REMARK    4  A    between atoms: C5_9  and  C6_10 
REMARK    5  A    between atoms: N3_18  and  O2_19 
REMARK    6  A    between atoms: C18_28  and  N4_29 
REMARK    7  A    between atoms: C21_32  and  C22_33 
ROOT
HETATM    1  N1  UNL     1       6.186  18.619   0.944  1.00  0.00    -0.308 N 
ATOM      2  H1  UNL     1       6.683  18.986   1.756  1.00  0.00     0.170 HD
HETATM    3  C4  UNL     1       6.983  18.329  -0.148  1.00  0.00     0.323 C 
HETATM    4  O1  UNL     1       6.448  17.872  -1.199  1.00  0.00    -0.247 OA
HETATM    5  N2  UNL     1       8.436  18.512  -0.186  1.00  0.00    -0.322 N 
ENDROOT
BRANCH   1   6
HETATM    6  C3  UNL     1       4.793  18.487   1.106  1.00  0.00     0.044 A 
HETATM    7  C2  UNL     1       4.027  19.678   1.239  1.00  0.00    -0.007 A 
HETATM    8  C1  UNL     1       4.700  20.999   1.204  1.00  0.00     0.053 C 
HETATM    9  C18 UNL     1       2.668  19.675   1.401  1.00  0.00     0.060 A 
HETATM   10  C17 UNL     1       2.049  18.455   1.433  1.00  0.00     0.061 A 
HETATM   11  C16 UNL     1       2.755  17.278   1.309  1.00  0.00     0.028 A 
HETATM   12 CL1  UNL     1       0.323  18.296   1.620  1.00  0.00    -0.082 Cl
HETATM   13  C15 UNL     1       4.127  17.299   1.146  1.00  0.00     0.032 A 
BRANCH   9  14
HETATM   14  N4  UNL     1       1.895  20.866   1.521  1.00  0.00    -0.379 N 
HETATM   15  C19 UNL     1       1.541  21.433   2.798  1.00  0.00     0.123 C 
HETATM   16  C20 UNL     1       1.717  22.913   2.914  1.00  0.00     0.033 C 
HETATM   17  C21 UNL     1       1.440  23.674   1.663  1.00  0.00     0.096 C 
HETATM   18  C23 UNL     1       1.746  22.960   0.400  1.00  0.00     0.033 C 
HETATM   19  C24 UNL     1       1.412  21.522   0.332  1.00  0.00     0.123 C 
BRANCH  17  20
HETATM   20  C22 UNL     1       2.198  24.982   1.668  1.00  0.00     0.391 C 
HETATM   21  F3  UNL     1       3.458  24.852   1.123  1.00  0.00    -0.171 F 
HETATM   22  F4  UNL     1       2.252  25.414   2.981  1.00  0.00    -0.171 F 
HETATM   23  F5  UNL     1       1.469  25.907   0.955  1.00  0.00    -0.171 F 
ENDBRANCH  17  20
ENDBRANCH   9  14
ENDBRANCH   1   6
BRANCH   5  24
HETATM   24  C5  UNL     1       9.024  19.003   1.015  1.00  0.00     0.199 C 
BRANCH  24  25
HETATM   25  C6  UNL     1       9.020  20.496   1.186  1.00  0.00     0.370 C 
HETATM   26  F1  UNL     1       9.375  20.819   2.507  1.00  0.00    -0.213 F 
HETATM   27  F2  UNL     1       9.785  21.201   0.324  1.00  0.00    -0.213 F 
ENDBRANCH  24  25
ENDBRANCH   5  24
BRANCH   5  28
HETATM   28  C7  UNL     1       9.082  18.158  -1.387  1.00  0.00     0.115 C 
HETATM   29  C8  UNL     1       9.573  19.194  -2.317  1.00  0.00     0.054 C 
HETATM   30  C9  UNL     1      10.130  18.274  -3.433  1.00  0.00     0.034 C 
HETATM   31  C10 UNL     1       9.024  18.136  -4.439  1.00  0.00     0.034 C 
HETATM   32  C11 UNL     1      11.311  18.896  -4.106  1.00  0.00     0.034 C 
HETATM   33  N3  UNL     1      10.451  17.029  -2.767  1.00  0.00    -0.180 NA
HETATM   34  C12 UNL     1      10.254  17.227  -1.336  1.00  0.00     0.052 C 
HETATM   35  C13 UNL     1       9.809  15.916  -0.720  1.00  0.00     0.036 C 
HETATM   36  C14 UNL     1      11.522  17.739  -0.788  1.00  0.00     0.036 C 
BRANCH  33  37
HETATM   37  O2  UNL     1       9.712  15.992  -3.228  1.00  0.00    -0.311 OA
ATOM     38  H2  UNL     1       8.840  16.259  -3.495  1.00  0.00     0.237 HD
ENDBRANCH  33  37
ENDBRANCH   5  28
TORSDOF 7
ENDMDL
MODEL 4
REMARK VINA RESULT: -6.626914954      1.202      1.380
REMARK  7 active torsions:
REMARK  status: ('A' for Active; 'I' for Inactive)
REMARK    1  A    between atoms: C3_3  and  N1_4 
REMARK       I    between atoms: N1_4  and  C4_6 
REMARK       I    between atoms: C4_6  and  N2_8 
REMARK    2  A    between atoms: N2_8  and  C5_9 
REMARK    3  A    between atoms: N2_8  and  C7_13 
REMARK    4  A    between atoms: C5_9  and  C6_10 
REMARK    5  A    between atoms: N3_18  and  O2_19 
REMARK    6  A    between atoms: C18_28  and  N4_29 
REMARK    7  A    between atoms: C21_32  and  C22_33 
ROOT
HETATM    1  N1  UNL     1       5.632  18.864   1.767  1.00  0.00    -0.308 N 
ATOM      2  H1  UNL     1       6.017  19.164   2.663  1.00  0.00     0.170 HD
HETATM    3  C4  UNL     1       6.570  18.564   0.797  1.00  0.00     0.323 C 
HETATM    4  O1  UNL     1       6.178  18.185  -0.344  1.00  0.00    -0.247 OA
HETATM    5  N2  UNL     1       8.020  18.653   0.990  1.00  0.00    -0.322 N 
ENDROOT
BRANCH   1   6
HETATM    6  C3  UNL     1       4.225  18.817   1.709  1.00  0.00     0.044 A 
HETATM    7  C2  UNL     1       3.519  20.049   1.787  1.00  0.00    -0.007 A 
HETATM    8  C1  UNL     1       4.266  21.323   1.925  1.00  0.00     0.053 C 
HETATM    9  C18 UNL     1       2.154  20.130   1.740  1.00  0.00     0.060 A 
HETATM   10  C17 UNL     1       1.467  18.953   1.613  1.00  0.00     0.061 A 
HETATM   11  C16 UNL     1       2.113  17.738   1.535  1.00  0.00     0.028 A 
HETATM   12 CL1  UNL     1      -0.274  18.901   1.526  1.00  0.00    -0.082 Cl
HETATM   13  C15 UNL     1       3.493  17.675   1.584  1.00  0.00     0.032 A 
BRANCH   9  14
HETATM   14  N4  UNL     1       1.443  21.362   1.804  1.00  0.00    -0.379 N 
HETATM   15  C19 UNL     1       0.976  21.923   3.048  1.00  0.00     0.123 C 
HETATM   16  C20 UNL     1       1.225  23.386   3.225  1.00  0.00     0.033 C 
HETATM   17  C21 UNL     1       1.140  24.189   1.973  1.00  0.00     0.096 C 
HETATM   18  C23 UNL     1       1.547  23.485   0.734  1.00  0.00     0.033 C 
HETATM   19  C24 UNL     1       1.140  22.072   0.587  1.00  0.00     0.123 C 
BRANCH  17  20
HETATM   20  C22 UNL     1       1.966  25.449   2.101  1.00  0.00     0.391 C 
HETATM   21  F3  UNL     1       3.238  25.285   1.594  1.00  0.00    -0.171 F 
HETATM   22  F4  UNL     1       1.992  25.781   3.444  1.00  0.00    -0.171 F 
HETATM   23  F5  UNL     1       1.318  26.463   1.433  1.00  0.00    -0.171 F 
ENDBRANCH  17  20
ENDBRANCH   9  14
ENDBRANCH   1   6
BRANCH   5  24
HETATM   24  C5  UNL     1       8.442  19.056   2.289  1.00  0.00     0.199 C 
BRANCH  24  25
HETATM   25  C6  UNL     1       8.746  20.518   2.457  1.00  0.00     0.370 C 
HETATM   26  F1  UNL     1       7.544  21.239   2.574  1.00  0.00    -0.213 F 
HETATM   27  F2  UNL     1       9.574  20.848   3.472  1.00  0.00    -0.213 F 
ENDBRANCH  24  25
ENDBRANCH   5  24
BRANCH   5  28
HETATM   28  C7  UNL     1       8.822  18.304  -0.114  1.00  0.00     0.115 C 
HETATM   29  C8  UNL     1       9.738  19.288  -0.725  1.00  0.00     0.054 C 
HETATM   30  C9  UNL     1      10.307  18.411  -1.871  1.00  0.00     0.034 C 
HETATM   31  C10 UNL     1       9.458  18.709  -3.072  1.00  0.00     0.034 C 
HETATM   32  C11 UNL     1      11.720  18.780  -2.183  1.00  0.00     0.034 C 
HETATM   33  N3  UNL     1      10.169  17.048  -1.402  1.00  0.00    -0.180 NA
HETATM   34  C12 UNL     1       9.703  17.097  -0.022  1.00  0.00     0.052 C 
HETATM   35  C13 UNL     1       8.838  15.881   0.243  1.00  0.00     0.036 C 
HETATM   36  C14 UNL     1      10.896  17.174   0.839  1.00  0.00     0.036 C 
BRANCH  33  37
HETATM   37  O2  UNL     1       9.334  16.317  -2.179  1.00  0.00    -0.311 OA
ATOM     38  H2  UNL     1       9.745  15.526  -2.507  1.00  0.00     0.237 HD
ENDBRANCH  33  37
ENDBRANCH   5  28
TORSDOF 7
ENDMDL
MODEL 5
REMARK VINA RESULT: -6.604481820      2.536      3.533
REMARK  7 active torsions:
REMARK  status: ('A' for Active; 'I' for Inactive)
REMARK    1  A    between atoms: C3_3  and  N1_4 
REMARK       I    between atoms: N1_4  and  C4_6 
REMARK       I    between atoms: C4_6  and  N2_8 
REMARK    2  A    between atoms: N2_8  and  C5_9 
REMARK    3  A    between atoms: N2_8  and  C7_13 
REMARK    4  A    between atoms: C5_9  and  C6_10 
REMARK    5  A    between atoms: N3_18  and  O2_19 
REMARK    6  A    between atoms: C18_28  and  N4_29 
REMARK    7  A    between atoms: C21_32  and  C22_33 
ROOT
HETATM    1  N1  UNL     1       8.185  20.047   1.507  1.00  0.00    -0.308 N 
ATOM      2  H1  UNL     1       8.721  20.909   1.609  1.00  0.00     0.170 HD
HETATM    3  C4  UNL     1       8.452  19.323   0.360  1.00  0.00     0.323 C 
HETATM    4  O1  UNL     1       7.831  18.242   0.153  1.00  0.00    -0.247 OA
HETATM    5  N2  UNL     1       9.425  19.719  -0.662  1.00  0.00    -0.322 N 
ENDROOT
BRANCH   1   6
HETATM    6  C3  UNL     1       7.286  19.775   2.557  1.00  0.00     0.044 A 
HETATM    7  C2  UNL     1       5.933  20.181   2.389  1.00  0.00    -0.007 A 
HETATM    8  C1  UNL     1       5.513  20.864   1.141  1.00  0.00     0.053 C 
HETATM    9  C18 UNL     1       4.969  19.971   3.338  1.00  0.00     0.060 A 
HETATM   10  C17 UNL     1       5.359  19.341   4.490  1.00  0.00     0.061 A 
HETATM   11  C16 UNL     1       6.660  18.933   4.691  1.00  0.00     0.028 A 
HETATM   12 CL1  UNL     1       4.239  18.994   5.780  1.00  0.00    -0.082 Cl
HETATM   13  C15 UNL     1       7.620  19.153   3.722  1.00  0.00     0.032 A 
BRANCH   9  14
HETATM   14  N4  UNL     1       3.610  20.363   3.170  1.00  0.00    -0.379 N 
HETATM   15  C19 UNL     1       3.103  21.623   3.652  1.00  0.00     0.123 C 
HETATM   16  C20 UNL     1       2.232  22.372   2.695  1.00  0.00     0.033 C 
HETATM   17  C21 UNL     1       1.379  21.515   1.826  1.00  0.00     0.096 C 
HETATM   18  C23 UNL     1       1.952  20.194   1.470  1.00  0.00     0.033 C 
HETATM   19  C24 UNL     1       2.686  19.464   2.525  1.00  0.00     0.123 C 
BRANCH  17  20
HETATM   20  C22 UNL     1       1.032  22.245   0.548  1.00  0.00     0.391 C 
HETATM   21  F3  UNL     1      -0.265  21.999   0.148  1.00  0.00    -0.171 F 
HETATM   22  F4  UNL     1       1.946  21.841  -0.409  1.00  0.00    -0.171 F 
HETATM   23  F5  UNL     1       1.214  23.593   0.756  1.00  0.00    -0.171 F 
ENDBRANCH  17  20
ENDBRANCH   9  14
ENDBRANCH   1   6
BRANCH   5  24
HETATM   24  C5  UNL     1      10.134  20.926  -0.399  1.00  0.00     0.199 C 
BRANCH  24  25
HETATM   25  C6  UNL     1      10.250  21.885  -1.551  1.00  0.00     0.370 C 
HETATM   26  F1  UNL     1       8.975  22.374  -1.887  1.00  0.00    -0.213 F 
HETATM   27  F2  UNL     1      11.104  22.919  -1.388  1.00  0.00    -0.213 F 
ENDBRANCH  24  25
ENDBRANCH   5  24
BRANCH   5  28
HETATM   28  C7  UNL     1       9.564  18.853  -1.764  1.00  0.00     0.115 C 
HETATM   29  C8  UNL     1       9.420  19.355  -3.145  1.00  0.00     0.054 C 
HETATM   30  C9  UNL     1       9.622  18.021  -3.910  1.00  0.00     0.034 C 
HETATM   31  C10 UNL     1       8.245  17.472  -4.145  1.00  0.00     0.034 C 
HETATM   32  C11 UNL     1      10.275  18.252  -5.234  1.00  0.00     0.034 C 
HETATM   33  N3  UNL     1      10.418  17.199  -3.024  1.00  0.00    -0.180 NA
HETATM   34  C12 UNL     1      10.803  18.019  -1.881  1.00  0.00     0.052 C 
HETATM   35  C13 UNL     1      10.909  17.130  -0.658  1.00  0.00     0.036 C 
HETATM   36  C14 UNL     1      12.063  18.694  -2.235  1.00  0.00     0.036 C 
BRANCH  33  37
HETATM   37  O2  UNL     1       9.763  16.080  -2.630  1.00  0.00    -0.311 OA
ATOM     38  H2  UNL     1      10.337  15.326  -2.569  1.00  0.00     0.237 HD
ENDBRANCH  33  37
ENDBRANCH   5  28
TORSDOF 7
ENDMDL
