MODEL 1
REMARK VINA RESULT: -7.370690946      0.000      0.000
REMARK  7 active torsions:
REMARK  status: ('A' for Active; 'I' for Inactive)
REMARK    1  A    between atoms: C2_2  and  C3_3 
REMARK    2  A    between atoms: C10_12  and  N1_13 
REMARK    3  A    between atoms: C10_12  and  C11_17 
REMARK    4  A    between atoms: C14_22  and  C15_23 
REMARK    5  A    between atoms: N3_26  and  C18_27 
REMARK    6  A    between atoms: C19_32  and  C20_33 
REMARK       I    between atoms: C20_33  and  N6_35 
REMARK    7  A    between atoms: N6_35  and  C21_37 
ROOT
HETATM    1  C11 UNL     1       6.766  18.053   4.891  1.00  0.00    -0.015 A 
HETATM    2  C12 UNL     1       7.977  18.645   5.273  1.00  0.00     0.027 A 
HETATM    3  C13 UNL     1       8.239  19.915   4.873  1.00  0.00     0.088 A 
HETATM    4  N2  UNL     1       7.355  20.592   4.124  1.00  0.00    -0.369 N 
ATOM      5  H2  UNL     1       7.591  21.544   3.843  1.00  0.00     0.165 HD
HETATM    6  C14 UNL     1       6.181  20.086   3.725  1.00  0.00     0.013 A 
HETATM    7  C27 UNL     1       5.895  18.774   4.131  1.00  0.00     0.035 A 
ENDROOT
BRANCH   6   8
HETATM    8  C15 UNL     1       5.220  20.869   2.890  1.00  0.00     0.038 C 
HETATM    9  C16 UNL     1       5.230  20.257   1.519  1.00  0.00     0.030 C 
HETATM   10  C17 UNL     1       3.842  19.767   1.117  1.00  0.00     0.127 C 
HETATM   11  N3  UNL     1       2.951  20.896   1.273  1.00  0.00    -0.346 N 
HETATM   12  C25 UNL     1       2.889  21.552   2.556  1.00  0.00     0.127 C 
HETATM   13  C26 UNL     1       3.826  20.805   3.482  1.00  0.00     0.030 C 
BRANCH  11  14
HETATM   14  C18 UNL     1       2.168  21.328   0.183  1.00  0.00     0.243 A 
HETATM   15  N4  UNL     1       2.094  22.544  -0.370  1.00  0.00    -0.263 N 
HETATM   16  N5  UNL     1       1.250  22.551  -1.369  1.00  0.00    -0.272 N 
ATOM     17  H4  UNL     1       2.624  23.357  -0.055  1.00  0.00     0.190 HD
HETATM   18  C19 UNL     1       0.769  21.293  -1.455  1.00  0.00     0.234 A 
ATOM     19  H5  UNL     1       1.006  23.345  -1.962  1.00  0.00     0.189 HD
HETATM   20  O2  UNL     1       1.329  20.587  -0.525  1.00  0.00    -0.254 OA
BRANCH  18  21
HETATM   21  C20 UNL     1      -0.207  20.840  -2.434  1.00  0.00     0.295 C 
HETATM   22  O1  UNL     1      -0.749  21.675  -3.181  1.00  0.00    -0.264 OA
HETATM   23  N6  UNL     1      -0.543  19.455  -2.543  1.00  0.00    -0.346 N 
ATOM     24  H6  UNL     1      -0.099  18.770  -1.931  1.00  0.00     0.163 HD
BRANCH  23  25
HETATM   25  C21 UNL     1      -1.516  19.030  -3.525  1.00  0.00     0.022 C 
HETATM   26  C22 UNL     1      -1.800  17.555  -3.322  1.00  0.00     0.037 C 
HETATM   27  C23 UNL     1      -0.990  19.248  -4.936  1.00  0.00     0.037 C 
HETATM   28  C24 UNL     1      -2.796  19.788  -3.365  1.00  0.00     0.037 C 
ENDBRANCH  23  25
ENDBRANCH  18  21
ENDBRANCH  11  14
ENDBRANCH   6   8
BRANCH   1  29
HETATM   29  C10 UNL     1       6.420  16.689   5.352  1.00  0.00     0.174 C 
HETATM   30  C5  UNL     1       7.589  15.842   5.624  1.00  0.00    -0.032 C 
HETATM   31  C3  UNL     1       8.567  15.588   4.769  1.00  0.00    -0.079 C 
HETATM   32  C6  UNL     1       7.744  15.183   6.946  1.00  0.00     0.116 C 
HETATM   33  C4  UNL     1       8.626  16.131   3.402  1.00  0.00     0.043 C 
HETATM   34  C7  UNL     1       6.754  15.439   7.999  1.00  0.00     0.247 C 
HETATM   35  F1  UNL     1       5.741  14.502   8.036  1.00  0.00    -0.206 F 
HETATM   36  F2  UNL     1       7.378  15.378   9.250  1.00  0.00    -0.206 F 
HETATM   37  C8  UNL     1       6.143  16.822   7.854  1.00  0.00     0.082 C 
HETATM   38  C9  UNL     1       5.472  16.853   6.523  1.00  0.00     0.054 C 
BRANCH  31  39
HETATM   39  C2  UNL     1       9.700  14.703   5.162  1.00  0.00     0.029 C 
HETATM   40  C1  UNL     1      10.769  14.659   4.090  1.00  0.00     0.010 C 
ENDBRANCH  31  39
BRANCH  29  41
HETATM   41  N1  UNL     1       5.646  16.006   4.339  1.00  0.00    -0.062 N 
ATOM     42  H13 UNL     1       5.334  16.621   3.588  1.00  0.00     0.276 HD
ATOM     43  H12 UNL     1       6.203  15.375   3.763  1.00  0.00     0.276 HD
ATOM     44  H11 UNL     1       4.881  15.540   4.826  1.00  0.00     0.276 HD
ENDBRANCH  29  41
ENDBRANCH   1  29
TORSDOF 7
ENDMDL
MODEL 2
REMARK VINA RESULT: -7.369106158      5.345      7.440
REMARK  7 active torsions:
REMARK  status: ('A' for Active; 'I' for Inactive)
REMARK    1  A    between atoms: C2_2  and  C3_3 
REMARK    2  A    between atoms: C10_12  and  N1_13 
REMARK    3  A    between atoms: C10_12  and  C11_17 
REMARK    4  A    between atoms: C14_22  and  C15_23 
REMARK    5  A    between atoms: N3_26  and  C18_27 
REMARK    6  A    between atoms: C19_32  and  C20_33 
REMARK       I    between atoms: C20_33  and  N6_35 
REMARK    7  A    between atoms: N6_35  and  C21_37 
ROOT
HETATM    1  C11 UNL     1       7.294  19.253   0.685  1.00  0.00    -0.015 A 
HETATM    2  C12 UNL     1       6.693  18.047   0.304  1.00  0.00     0.027 A 
HETATM    3  C13 UNL     1       5.388  17.840   0.616  1.00  0.00     0.088 A 
HETATM    4  N2  UNL     1       4.686  18.773   1.277  1.00  0.00    -0.369 N 
ATOM      5  H2  UNL     1       3.708  18.578   1.493  1.00  0.00     0.165 HD
HETATM    6  C14 UNL     1       5.199  19.946   1.669  1.00  0.00     0.013 A 
HETATM    7  C27 UNL     1       6.547  20.176   1.354  1.00  0.00     0.035 A 
ENDROOT
BRANCH   6   8
HETATM    8  C15 UNL     1       4.389  20.964   2.405  1.00  0.00     0.038 C 
HETATM    9  C16 UNL     1       4.238  22.148   1.494  1.00  0.00     0.030 C 
HETATM   10  C17 UNL     1       2.771  22.449   1.209  1.00  0.00     0.127 C 
HETATM   11  N3  UNL     1       2.125  22.586   2.496  1.00  0.00    -0.346 N 
HETATM   12  C25 UNL     1       2.231  21.500   3.438  1.00  0.00     0.127 C 
HETATM   13  C26 UNL     1       3.027  20.402   2.763  1.00  0.00     0.030 C 
BRANCH  11  14
HETATM   14  C18 UNL     1       1.413  23.764   2.802  1.00  0.00     0.243 A 
HETATM   15  N4  UNL     1       1.548  24.989   2.281  1.00  0.00    -0.263 N 
HETATM   16  N5  UNL     1       0.702  25.823   2.826  1.00  0.00    -0.272 N 
ATOM     17  H4  UNL     1       2.219  25.238   1.554  1.00  0.00     0.190 HD
HETATM   18  C19 UNL     1       0.003  25.103   3.729  1.00  0.00     0.234 A 
ATOM     19  H5  UNL     1       0.592  26.815   2.613  1.00  0.00     0.189 HD
HETATM   20  O2  UNL     1       0.443  23.885   3.696  1.00  0.00    -0.254 OA
BRANCH  18  21
HETATM   21  C20 UNL     1      -1.055  25.632   4.577  1.00  0.00     0.295 C 
HETATM   22  O1  UNL     1      -1.873  26.435   4.094  1.00  0.00    -0.264 OA
HETATM   23  N6  UNL     1      -1.159  25.238   5.946  1.00  0.00    -0.346 N 
ATOM     24  H6  UNL     1      -0.489  24.579   6.343  1.00  0.00     0.163 HD
BRANCH  23  25
HETATM   25  C21 UNL     1      -2.220  25.777   6.767  1.00  0.00     0.022 C 
HETATM   26  C22 UNL     1      -2.321  24.953   8.035  1.00  0.00     0.037 C 
HETATM   27  C23 UNL     1      -3.551  25.726   6.032  1.00  0.00     0.037 C 
HETATM   28  C24 UNL     1      -1.930  27.196   7.142  1.00  0.00     0.037 C 
ENDBRANCH  23  25
ENDBRANCH  18  21
ENDBRANCH  11  14
ENDBRANCH   6   8
BRANCH   1  29
HETATM   29  C10 UNL     1       8.700  19.539   0.318  1.00  0.00     0.174 C 
HETATM   30  C5  UNL     1       9.610  18.408   0.538  1.00  0.00    -0.032 C 
HETATM   31  C3  UNL     1       9.767  17.761   1.683  1.00  0.00    -0.079 C 
HETATM   32  C6  UNL     1      10.457  17.901  -0.573  1.00  0.00     0.116 C 
HETATM   33  C4  UNL     1       9.034  18.085   2.916  1.00  0.00     0.043 C 
HETATM   34  C7  UNL     1      10.328  18.499  -1.908  1.00  0.00     0.247 C 
HETATM   35  F1  UNL     1      11.231  19.517  -2.141  1.00  0.00    -0.206 F 
HETATM   36  F2  UNL     1      10.587  17.526  -2.880  1.00  0.00    -0.206 F 
HETATM   37  C8  UNL     1       8.921  19.023  -2.140  1.00  0.00     0.082 C 
HETATM   38  C9  UNL     1       8.680  20.067  -1.103  1.00  0.00     0.054 C 
BRANCH  31  39
HETATM   39  C2  UNL     1      10.731  16.629   1.782  1.00  0.00     0.029 C 
HETATM   40  C1  UNL     1      10.090  15.405   2.402  1.00  0.00     0.010 C 
ENDBRANCH  31  39
BRANCH  29  41
HETATM   41  N1  UNL     1       9.206  20.634   1.114  1.00  0.00    -0.062 N 
ATOM     42  H13 UNL     1       8.471  21.204   1.530  1.00  0.00     0.276 HD
ATOM     43  H12 UNL     1       9.641  20.331   1.986  1.00  0.00     0.276 HD
ATOM     44  H11 UNL     1       9.836  21.162   0.511  1.00  0.00     0.276 HD
ENDBRANCH  29  41
ENDBRANCH   1  29
TORSDOF 7
ENDMDL
MODEL 3
REMARK VINA RESULT: -7.307778526      5.289      8.819
REMARK  7 active torsions:
REMARK  status: ('A' for Active; 'I' for Inactive)
REMARK    1  A    between atoms: C2_2  and  C3_3 
REMARK    2  A    between atoms: C10_12  and  N1_13 
REMARK    3  A    between atoms: C10_12  and  C11_17 
REMARK    4  A    between atoms: C14_22  and  C15_23 
REMARK    5  A    between atoms: N3_26  and  C18_27 
REMARK    6  A    between atoms: C19_32  and  C20_33 
REMARK       I    between atoms: C20_33  and  N6_35 
REMARK    7  A    between atoms: N6_35  and  C21_37 
ROOT
HETATM    1  C11 UNL     1       1.020  19.734   4.734  1.00  0.00    -0.015 A 
HETATM    2  C12 UNL     1       0.947  19.423   6.097  1.00  0.00     0.027 A 
HETATM    3  C13 UNL     1       2.069  19.000   6.732  1.00  0.00     0.088 A 
HETATM    4  N2  UNL     1       3.229  18.882   6.067  1.00  0.00    -0.369 N 
ATOM      5  H2  UNL     1       4.049  18.561   6.581  1.00  0.00     0.165 HD
HETATM    6  C14 UNL     1       3.367  19.164   4.765  1.00  0.00     0.013 A 
HETATM    7  C27 UNL     1       2.215  19.603   4.094  1.00  0.00     0.035 A 
ENDROOT
BRANCH   6   8
HETATM    8  C15 UNL     1       4.674  19.021   4.054  1.00  0.00     0.038 C 
HETATM    9  C16 UNL     1       4.440  19.412   2.623  1.00  0.00     0.030 C 
HETATM   10  C17 UNL     1       5.329  20.581   2.213  1.00  0.00     0.127 C 
HETATM   11  N3  UNL     1       6.687  20.190   2.523  1.00  0.00    -0.346 N 
HETATM   12  C25 UNL     1       6.996  19.786   3.872  1.00  0.00     0.127 C 
HETATM   13  C26 UNL     1       5.721  19.921   4.679  1.00  0.00     0.030 C 
BRANCH  11  14
HETATM   14  C18 UNL     1       7.671  20.209   1.513  1.00  0.00     0.243 A 
HETATM   15  N4  UNL     1       8.898  20.742   1.544  1.00  0.00    -0.263 N 
HETATM   16  N5  UNL     1       9.516  20.556   0.406  1.00  0.00    -0.272 N 
ATOM     17  H4  UNL     1       9.298  21.228   2.347  1.00  0.00     0.190 HD
HETATM   18  C19 UNL     1       8.649  19.881  -0.378  1.00  0.00     0.234 A 
ATOM     19  H5  UNL     1      10.458  20.860   0.162  1.00  0.00     0.189 HD
HETATM   20  O2  UNL     1       7.563  19.686   0.301  1.00  0.00    -0.254 OA
BRANCH  18  21
HETATM   21  C20 UNL     1       8.919  19.457  -1.744  1.00  0.00     0.295 C 
HETATM   22  O1  UNL     1       8.728  20.260  -2.676  1.00  0.00    -0.264 OA
HETATM   23  N6  UNL     1       9.396  18.139  -2.019  1.00  0.00    -0.346 N 
ATOM     24  H6  UNL     1       9.553  17.480  -1.255  1.00  0.00     0.163 HD
BRANCH  23  25
HETATM   25  C21 UNL     1       9.657  17.743  -3.385  1.00  0.00     0.022 C 
HETATM   26  C22 UNL     1      10.277  16.360  -3.380  1.00  0.00     0.037 C 
HETATM   27  C23 UNL     1      10.614  18.717  -4.056  1.00  0.00     0.037 C 
HETATM   28  C24 UNL     1       8.387  17.694  -4.173  1.00  0.00     0.037 C 
ENDBRANCH  23  25
ENDBRANCH  18  21
ENDBRANCH  11  14
ENDBRANCH   6   8
BRANCH   1  29
HETATM   29  C10 UNL     1      -0.171  20.248   4.018  1.00  0.00     0.174 C 
HETATM   30  C5  UNL     1       0.032  21.567   3.405  1.00  0.00    -0.032 C 
HETATM   31  C3  UNL     1       0.441  22.653   4.041  1.00  0.00    -0.079 C 
HETATM   32  C6  UNL     1      -0.232  21.768   1.957  1.00  0.00     0.116 C 
HETATM   33  C4  UNL     1       0.764  22.693   5.476  1.00  0.00     0.043 C 
HETATM   34  C7  UNL     1      -0.633  20.622   1.131  1.00  0.00     0.247 C 
HETATM   35  F1  UNL     1      -2.002  20.487   1.011  1.00  0.00    -0.206 F 
HETATM   36  F2  UNL     1      -0.149  20.792  -0.170  1.00  0.00    -0.206 F 
HETATM   37  C8  UNL     1      -0.055  19.326   1.674  1.00  0.00     0.082 C 
HETATM   38  C9  UNL     1      -0.600  19.161   3.052  1.00  0.00     0.054 C 
BRANCH  31  39
HETATM   39  C2  UNL     1       0.602  23.940   3.307  1.00  0.00     0.029 C 
HETATM   40  C1  UNL     1      -0.001  25.098   4.076  1.00  0.00     0.010 C 
ENDBRANCH  31  39
BRANCH  29  41
HETATM   41  N1  UNL     1      -1.278  20.388   4.936  1.00  0.00    -0.062 N 
ATOM     42  H13 UNL     1      -1.055  20.093   5.886  1.00  0.00     0.276 HD
ATOM     43  H12 UNL     1      -1.501  21.359   5.155  1.00  0.00     0.276 HD
ATOM     44  H11 UNL     1      -2.060  19.877   4.527  1.00  0.00     0.276 HD
ENDBRANCH  29  41
ENDBRANCH   1  29
TORSDOF 7
ENDMDL
MODEL 4
REMARK VINA RESULT: -7.193508413      6.060      9.407
REMARK  7 active torsions:
REMARK  status: ('A' for Active; 'I' for Inactive)
REMARK    1  A    between atoms: C2_2  and  C3_3 
REMARK    2  A    between atoms: C10_12  and  N1_13 
REMARK    3  A    between atoms: C10_12  and  C11_17 
REMARK    4  A    between atoms: C14_22  and  C15_23 
REMARK    5  A    between atoms: N3_26  and  C18_27 
REMARK    6  A    between atoms: C19_32  and  C20_33 
REMARK       I    between atoms: C20_33  and  N6_35 
REMARK    7  A    between atoms: N6_35  and  C21_37 
ROOT
HETATM    1  C11 UNL     1       9.577  19.233  -2.086  1.00  0.00    -0.015 A 
HETATM    2  C12 UNL     1      10.104  20.461  -2.503  1.00  0.00     0.027 A 
HETATM    3  C13 UNL     1      10.134  21.493  -1.621  1.00  0.00     0.088 A 
HETATM    4  N2  UNL     1       9.666  21.339  -0.372  1.00  0.00    -0.369 N 
ATOM      5  H2  UNL     1       9.706  22.139   0.259  1.00  0.00     0.165 HD
HETATM    6  C14 UNL     1       9.151  20.192   0.089  1.00  0.00     0.013 A 
HETATM    7  C27 UNL     1       9.113  19.116  -0.810  1.00  0.00     0.035 A 
ENDROOT
BRANCH   6   8
HETATM    8  C15 UNL     1       8.638  20.056   1.486  1.00  0.00     0.038 C 
HETATM    9  C16 UNL     1       7.151  19.870   1.393  1.00  0.00     0.030 C 
HETATM   10  C17 UNL     1       6.713  18.552   2.024  1.00  0.00     0.127 C 
HETATM   11  N3  UNL     1       7.243  18.550   3.370  1.00  0.00    -0.346 N 
HETATM   12  C25 UNL     1       8.661  18.736   3.552  1.00  0.00     0.127 C 
HETATM   13  C26 UNL     1       9.273  18.863   2.172  1.00  0.00     0.030 C 
BRANCH  11  14
HETATM   14  C18 UNL     1       6.374  18.367   4.466  1.00  0.00     0.243 A 
HETATM   15  N4  UNL     1       5.518  19.236   5.016  1.00  0.00    -0.263 N 
HETATM   16  N5  UNL     1       4.885  18.693   6.022  1.00  0.00    -0.272 N 
ATOM     17  H4  UNL     1       5.379  20.194   4.693  1.00  0.00     0.190 HD
HETATM   18  C19 UNL     1       5.355  17.432   6.117  1.00  0.00     0.234 A 
ATOM     19  H5  UNL     1       4.180  19.133   6.614  1.00  0.00     0.189 HD
HETATM   20  O2  UNL     1       6.237  17.262   5.183  1.00  0.00    -0.254 OA
BRANCH  18  21
HETATM   21  C20 UNL     1       4.926  16.455   7.107  1.00  0.00     0.295 C 
HETATM   22  O1  UNL     1       4.642  15.302   6.736  1.00  0.00    -0.264 OA
HETATM   23  N6  UNL     1       4.829  16.809   8.488  1.00  0.00    -0.346 N 
ATOM     24  H6  UNL     1       5.061  17.755   8.793  1.00  0.00     0.163 HD
BRANCH  23  25
HETATM   25  C21 UNL     1       4.400  15.820   9.452  1.00  0.00     0.022 C 
HETATM   26  C22 UNL     1       4.374  16.460  10.826  1.00  0.00     0.037 C 
HETATM   27  C23 UNL     1       5.354  14.636   9.471  1.00  0.00     0.037 C 
HETATM   28  C24 UNL     1       3.025  15.328   9.129  1.00  0.00     0.037 C 
ENDBRANCH  23  25
ENDBRANCH  18  21
ENDBRANCH  11  14
ENDBRANCH   6   8
BRANCH   1  29
HETATM   29  C10 UNL     1       9.575  18.068  -3.002  1.00  0.00     0.174 C 
HETATM   30  C5  UNL     1      10.048  16.826  -2.380  1.00  0.00    -0.032 C 
HETATM   31  C3  UNL     1      11.209  16.670  -1.763  1.00  0.00    -0.079 C 
HETATM   32  C6  UNL     1       9.203  15.603  -2.413  1.00  0.00     0.116 C 
HETATM   33  C4  UNL     1      12.206  17.740  -1.607  1.00  0.00     0.043 C 
HETATM   34  C7  UNL     1       7.866  15.668  -3.016  1.00  0.00     0.247 C 
HETATM   35  F1  UNL     1       7.848  15.301  -4.346  1.00  0.00    -0.206 F 
HETATM   36  F2  UNL     1       7.016  14.772  -2.359  1.00  0.00    -0.206 F 
HETATM   37  C8  UNL     1       7.269  17.058  -2.878  1.00  0.00     0.082 C 
HETATM   38  C9  UNL     1       8.185  17.988  -3.600  1.00  0.00     0.054 C 
BRANCH  31  39
HETATM   39  C2  UNL     1      11.580  15.351  -1.176  1.00  0.00     0.029 C 
HETATM   40  C1  UNL     1      12.912  15.416  -0.459  1.00  0.00     0.010 C 
ENDBRANCH  31  39
BRANCH  29  41
HETATM   41  N1  UNL     1      10.449  18.322  -4.126  1.00  0.00    -0.062 N 
ATOM     42  H13 UNL     1      11.437  18.334  -3.874  1.00  0.00     0.276 HD
ATOM     43  H12 UNL     1      10.495  17.545  -4.784  1.00  0.00     0.276 HD
ATOM     44  H11 UNL     1      10.129  19.193  -4.549  1.00  0.00     0.276 HD
ENDBRANCH  29  41
ENDBRANCH   1  29
TORSDOF 7
ENDMDL
MODEL 5
REMARK VINA RESULT: -7.137867914      5.721      7.782
REMARK  7 active torsions:
REMARK  status: ('A' for Active; 'I' for Inactive)
REMARK    1  A    between atoms: C2_2  and  C3_3 
REMARK    2  A    between atoms: C10_12  and  N1_13 
REMARK    3  A    between atoms: C10_12  and  C11_17 
REMARK    4  A    between atoms: C14_22  and  C15_23 
REMARK    5  A    between atoms: N3_26  and  C18_27 
REMARK    6  A    between atoms: C19_32  and  C20_33 
REMARK       I    between atoms: C20_33  and  N6_35 
REMARK    7  A    between atoms: N6_35  and  C21_37 
ROOT
HETATM    1  C11 UNL     1       3.150  19.401   1.576  1.00  0.00    -0.015 A 
HETATM    2  C12 UNL     1       2.921  18.940   0.274  1.00  0.00     0.027 A 
HETATM    3  C13 UNL     1       2.060  19.625  -0.520  1.00  0.00     0.088 A 
HETATM    4  N2  UNL     1       1.438  20.724  -0.067  1.00  0.00    -0.369 N 
ATOM      5  H2  UNL     1       0.797  21.210  -0.695  1.00  0.00     0.165 HD
HETATM    6  C14 UNL     1       1.612  21.218   1.166  1.00  0.00     0.013 A 
HETATM    7  C27 UNL     1       2.500  20.521   2.000  1.00  0.00     0.035 A 
ENDROOT
BRANCH   6   8
HETATM    8  C15 UNL     1       0.902  22.445   1.640  1.00  0.00     0.038 C 
HETATM    9  C16 UNL     1       0.068  22.041   2.821  1.00  0.00     0.030 C 
HETATM   10  C17 UNL     1       0.451  22.830   4.069  1.00  0.00     0.127 C 
HETATM   11  N3  UNL     1       0.362  24.229   3.711  1.00  0.00    -0.346 N 
HETATM   12  C25 UNL     1       1.121  24.699   2.579  1.00  0.00     0.127 C 
HETATM   13  C26 UNL     1       1.898  23.514   2.042  1.00  0.00     0.030 C 
BRANCH  11  14
HETATM   14  C18 UNL     1      -0.455  25.096   4.465  1.00  0.00     0.243 A 
HETATM   15  N4  UNL     1      -0.364  25.425   5.759  1.00  0.00    -0.263 N 
HETATM   16  N5  UNL     1      -1.310  26.263   6.095  1.00  0.00    -0.272 N 
ATOM     17  H4  UNL     1       0.349  25.071   6.398  1.00  0.00     0.190 HD
HETATM   18  C19 UNL     1      -2.030  26.474   4.973  1.00  0.00     0.234 A 
ATOM     19  H5  UNL     1      -1.470  26.672   7.015  1.00  0.00     0.189 HD
HETATM   20  O2  UNL     1      -1.504  25.772   4.021  1.00  0.00    -0.254 OA
BRANCH  18  21
HETATM   21  C20 UNL     1      -3.191  27.346   4.882  1.00  0.00     0.295 C 
HETATM   22  O1  UNL     1      -4.309  26.846   4.659  1.00  0.00    -0.264 OA
HETATM   23  N6  UNL     1      -3.058  28.760   5.045  1.00  0.00    -0.346 N 
ATOM     24  H6  UNL     1      -2.142  29.171   5.228  1.00  0.00     0.163 HD
BRANCH  23  25
HETATM   25  C21 UNL     1      -4.227  29.605   4.950  1.00  0.00     0.022 C 
HETATM   26  C22 UNL     1      -3.776  31.046   4.816  1.00  0.00     0.037 C 
HETATM   27  C23 UNL     1      -5.095  29.467   6.192  1.00  0.00     0.037 C 
HETATM   28  C24 UNL     1      -5.043  29.246   3.749  1.00  0.00     0.037 C 
ENDBRANCH  23  25
ENDBRANCH  18  21
ENDBRANCH  11  14
ENDBRANCH   6   8
BRANCH   1  29
HETATM   29  C10 UNL     1       4.122  18.712   2.456  1.00  0.00     0.174 C 
HETATM   30  C5  UNL     1       4.988  19.625   3.211  1.00  0.00    -0.032 C 
HETATM   31  C3  UNL     1       5.743  20.577   2.685  1.00  0.00    -0.079 C 
HETATM   32  C6  UNL     1       5.074  19.523   4.691  1.00  0.00     0.116 C 
HETATM   33  C4  UNL     1       5.819  20.863   1.244  1.00  0.00     0.043 C 
HETATM   34  C7  UNL     1       4.236  18.545   5.396  1.00  0.00     0.247 C 
HETATM   35  F1  UNL     1       4.872  17.341   5.619  1.00  0.00    -0.206 F 
HETATM   36  F2  UNL     1       3.901  19.043   6.660  1.00  0.00    -0.206 F 
HETATM   37  C8  UNL     1       2.942  18.289   4.642  1.00  0.00     0.082 C 
HETATM   38  C9  UNL     1       3.326  17.744   3.309  1.00  0.00     0.054 C 
BRANCH  31  39
HETATM   39  C2  UNL     1       6.588  21.439   3.560  1.00  0.00     0.029 C 
HETATM   40  C1  UNL     1       8.060  21.121   3.399  1.00  0.00     0.010 C 
ENDBRANCH  31  39
BRANCH  29  41
HETATM   41  N1  UNL     1       4.998  17.877   1.665  1.00  0.00    -0.062 N 
ATOM     42  H13 UNL     1       4.545  17.482   0.841  1.00  0.00     0.276 HD
ATOM     43  H12 UNL     1       5.721  18.402   1.173  1.00  0.00     0.276 HD
ATOM     44  H11 UNL     1       5.373  17.170   2.298  1.00  0.00     0.276 HD
ENDBRANCH  29  41
ENDBRANCH   1  29
TORSDOF 7
ENDMDL
