MODEL 1
REMARK VINA RESULT: -7.270654577      0.000      0.000
REMARK  7 active torsions:
REMARK  status: ('A' for Active; 'I' for Inactive)
REMARK    1  A    between atoms: O1_2  and  C2_3 
REMARK    2  A    between atoms: C5_6  and  C6_7 
REMARK    3  A    between atoms: C9_12  and  N2_13 
REMARK    4  A    between atoms: C13_18  and  C14_19 
REMARK    5  A    between atoms: C15_24  and  N4_25 
REMARK    6  A    between atoms: C16_29  and  C17_30 
REMARK    7  A    between atoms: N6_33  and  C20_34 
ROOT
HETATM    1  C6  UNL     1       0.999  20.676   2.904  1.00  0.00     0.073 A 
HETATM    2  N1  UNL     1       0.053  20.781   1.926  1.00  0.00    -0.339 N 
ATOM      3  H1  UNL     1      -0.878  21.179   2.053  1.00  0.00     0.167 HD
HETATM    4  C7  UNL     1       0.518  20.293   0.791  1.00  0.00     0.133 A 
HETATM    5  C8  UNL     1      -0.088  20.197  -0.461  1.00  0.00     0.098 A 
HETATM    6  C9  UNL     1       0.663  19.640  -1.470  1.00  0.00     0.123 A 
HETATM    7  N3  UNL     1       1.909  19.224  -1.211  1.00  0.00    -0.176 N 
ATOM      8  H3  UNL     1       2.455  18.811  -1.968  1.00  0.00     0.186 HD
HETATM    9  C15 UNL     1       2.475  19.329   0.022  1.00  0.00     0.686 A 
HETATM   10  N5  UNL     1       1.764  19.873   1.034  1.00  0.00    -0.130 N 
HETATM   11  C16 UNL     1       2.110  20.083   2.316  1.00  0.00     0.098 A 
ENDROOT
BRANCH  11  12
HETATM   12  C17 UNL     1       3.373  19.738   2.949  1.00  0.00     0.011 A 
HETATM   13  C18 UNL     1       3.609  18.546   3.617  1.00  0.00     0.032 A 
HETATM   14  C19 UNL     1       4.882  18.530   4.087  1.00  0.00     0.092 A 
HETATM   15  N6  UNL     1       5.479  19.705   3.730  1.00  0.00    -0.361 N 
HETATM   16  C26 UNL     1       4.563  20.429   3.044  1.00  0.00     0.104 A 
BRANCH  15  17
HETATM   17  C20 UNL     1       6.839  19.990   4.066  1.00  0.00     0.088 C 
HETATM   18  C21 UNL     1       7.450  18.843   4.873  1.00  0.00     0.026 C 
HETATM   19  C22 UNL     1       8.791  19.262   5.380  1.00  0.00     0.002 C 
HETATM   20  C23 UNL     1       9.189  20.640   4.945  1.00  0.00     0.000 C 
HETATM   21  C24 UNL     1       9.021  20.888   3.481  1.00  0.00     0.002 C 
HETATM   22  C25 UNL     1       7.739  20.282   2.912  1.00  0.00     0.026 C 
ENDBRANCH  15  17
ENDBRANCH  11  12
BRANCH   1  23
HETATM   23  C5  UNL     1       0.829  21.133   4.264  1.00  0.00    -0.007 A 
HETATM   24  C4  UNL     1       0.668  22.491   4.566  1.00  0.00     0.016 A 
HETATM   25  C3  UNL     1       0.510  22.942   5.852  1.00  0.00     0.037 A 
HETATM   26  C2  UNL     1       0.501  22.081   6.917  1.00  0.00     0.068 A 
HETATM   27  C28 UNL     1       0.660  20.723   6.639  1.00  0.00     0.037 A 
HETATM   28  C27 UNL     1       0.820  20.280   5.330  1.00  0.00     0.016 A 
BRANCH  26  29
HETATM   29  O1  UNL     1       0.346  22.479   8.240  1.00  0.00    -0.356 OA
HETATM   30  C1  UNL     1      -0.345  21.795   9.232  1.00  0.00     0.210 C 
ENDBRANCH  26  29
ENDBRANCH   1  23
BRANCH   9  31
HETATM   31  N4  UNL     1       3.661  18.928   0.267  1.00  0.00    -0.234 N 
ATOM     32  H42 UNL     1       4.037  18.165  -0.296  1.00  0.00     0.174 HD
ATOM     33  H41 UNL     1       4.239  19.344   0.998  1.00  0.00     0.174 HD
ENDBRANCH   9  31
BRANCH   6  34
HETATM   34  N2  UNL     1       0.138  19.510  -2.773  1.00  0.00    -0.353 N 
HETATM   35  C10 UNL     1      -0.080  18.188  -3.337  1.00  0.00     0.151 C 
HETATM   36  C11 UNL     1      -1.108  18.169  -4.412  1.00  0.00     0.187 C 
HETATM   37  O2  UNL     1      -1.052  19.197  -5.320  1.00  0.00    -0.387 OA
HETATM   38  C12 UNL     1      -0.144  20.195  -5.040  1.00  0.00     0.198 C 
HETATM   39  C13 UNL     1      -0.226  20.647  -3.598  1.00  0.00     0.174 C 
BRANCH  39  40
HETATM   40  C14 UNL     1       0.743  21.794  -3.425  1.00  0.00     0.377 C 
HETATM   41  F1  UNL     1       0.049  22.895  -2.963  1.00  0.00    -0.212 F 
HETATM   42  F2  UNL     1       1.258  22.082  -4.667  1.00  0.00    -0.212 F 
ENDBRANCH  39  40
ENDBRANCH   6  34
TORSDOF 7
ENDMDL
MODEL 2
REMARK VINA RESULT: -7.153767956      0.812      1.425
REMARK  7 active torsions:
REMARK  status: ('A' for Active; 'I' for Inactive)
REMARK    1  A    between atoms: O1_2  and  C2_3 
REMARK    2  A    between atoms: C5_6  and  C6_7 
REMARK    3  A    between atoms: C9_12  and  N2_13 
REMARK    4  A    between atoms: C13_18  and  C14_19 
REMARK    5  A    between atoms: C15_24  and  N4_25 
REMARK    6  A    between atoms: C16_29  and  C17_30 
REMARK    7  A    between atoms: N6_33  and  C20_34 
ROOT
HETATM    1  C6  UNL     1       0.705  20.886   2.916  1.00  0.00     0.073 A 
HETATM    2  N1  UNL     1      -0.331  20.808   2.030  1.00  0.00    -0.339 N 
ATOM      3  H1  UNL     1      -1.303  21.029   2.246  1.00  0.00     0.167 HD
HETATM    4  C7  UNL     1       0.110  20.405   0.853  1.00  0.00     0.133 A 
HETATM    5  C8  UNL     1      -0.581  20.189  -0.340  1.00  0.00     0.098 A 
HETATM    6  C9  UNL     1       0.163  19.772  -1.418  1.00  0.00     0.123 A 
HETATM    7  N3  UNL     1       1.483  19.594  -1.279  1.00  0.00    -0.176 N 
ATOM      8  H3  UNL     1       2.023  19.283  -2.087  1.00  0.00     0.186 HD
HETATM    9  C15 UNL     1       2.131  19.811  -0.103  1.00  0.00     0.686 A 
HETATM   10  N5  UNL     1       1.428  20.223   0.975  1.00  0.00    -0.130 N 
HETATM   11  C16 UNL     1       1.847  20.503   2.222  1.00  0.00     0.098 A 
ENDROOT
BRANCH  11  12
HETATM   12  C17 UNL     1       3.205  20.401   2.733  1.00  0.00     0.011 A 
HETATM   13  C18 UNL     1       4.154  21.406   2.626  1.00  0.00     0.032 A 
HETATM   14  C19 UNL     1       5.313  21.003   3.205  1.00  0.00     0.092 A 
HETATM   15  N6  UNL     1       5.127  19.740   3.690  1.00  0.00    -0.361 N 
HETATM   16  C26 UNL     1       3.853  19.383   3.401  1.00  0.00     0.104 A 
BRANCH  15  17
HETATM   17  C20 UNL     1       6.166  19.037   4.375  1.00  0.00     0.088 C 
HETATM   18  C21 UNL     1       7.327  19.975   4.708  1.00  0.00     0.026 C 
HETATM   19  C22 UNL     1       8.471  19.169   5.231  1.00  0.00     0.002 C 
HETATM   20  C23 UNL     1       8.175  17.704   5.326  1.00  0.00     0.000 C 
HETATM   21  C24 UNL     1       6.884  17.387   6.009  1.00  0.00     0.002 C 
HETATM   22  C25 UNL     1       5.752  18.340   5.628  1.00  0.00     0.026 C 
ENDBRANCH  15  17
ENDBRANCH  11  12
BRANCH   1  23
HETATM   23  C5  UNL     1       0.580  21.315   4.290  1.00  0.00    -0.007 A 
HETATM   24  C4  UNL     1       0.440  22.667   4.626  1.00  0.00     0.016 A 
HETATM   25  C3  UNL     1       0.325  23.091   5.926  1.00  0.00     0.037 A 
HETATM   26  C2  UNL     1       0.341  22.207   6.971  1.00  0.00     0.068 A 
HETATM   27  C28 UNL     1       0.479  20.854   6.660  1.00  0.00     0.037 A 
HETATM   28  C27 UNL     1       0.595  20.439   5.337  1.00  0.00     0.016 A 
BRANCH  26  29
HETATM   29  O1  UNL     1       0.230  22.577   8.307  1.00  0.00    -0.356 OA
HETATM   30  C1  UNL     1      -0.456  21.888   9.300  1.00  0.00     0.210 C 
ENDBRANCH  26  29
ENDBRANCH   1  23
BRANCH   9  31
HETATM   31  N4  UNL     1       3.387  19.637   0.029  1.00  0.00    -0.234 N 
ATOM     32  H42 UNL     1       3.712  18.757   0.432  1.00  0.00     0.174 HD
ATOM     33  H41 UNL     1       4.071  20.339  -0.256  1.00  0.00     0.174 HD
ENDBRANCH   9  31
BRANCH   6  34
HETATM   34  N2  UNL     1      -0.447  19.538  -2.669  1.00  0.00    -0.353 N 
HETATM   35  C10 UNL     1      -0.870  18.194  -3.027  1.00  0.00     0.151 C 
HETATM   36  C11 UNL     1      -1.950  18.171  -4.049  1.00  0.00     0.187 C 
HETATM   37  O2  UNL     1      -1.810  19.046  -5.097  1.00  0.00    -0.387 OA
HETATM   38  C12 UNL     1      -0.763  19.935  -4.999  1.00  0.00     0.198 C 
HETATM   39  C13 UNL     1      -0.702  20.590  -3.636  1.00  0.00     0.174 C 
BRANCH  39  40
HETATM   40  C14 UNL     1       0.419  21.603  -3.666  1.00  0.00     0.377 C 
HETATM   41  F1  UNL     1      -0.042  22.790  -3.132  1.00  0.00    -0.212 F 
HETATM   42  F2  UNL     1       0.747  21.806  -4.985  1.00  0.00    -0.212 F 
ENDBRANCH  39  40
ENDBRANCH   6  34
TORSDOF 7
ENDMDL
MODEL 3
REMARK VINA RESULT: -7.130340237      1.808      5.313
REMARK  7 active torsions:
REMARK  status: ('A' for Active; 'I' for Inactive)
REMARK    1  A    between atoms: O1_2  and  C2_3 
REMARK    2  A    between atoms: C5_6  and  C6_7 
REMARK    3  A    between atoms: C9_12  and  N2_13 
REMARK    4  A    between atoms: C13_18  and  C14_19 
REMARK    5  A    between atoms: C15_24  and  N4_25 
REMARK    6  A    between atoms: C16_29  and  C17_30 
REMARK    7  A    between atoms: N6_33  and  C20_34 
ROOT
HETATM    1  C6  UNL     1       3.288  20.216   1.865  1.00  0.00     0.073 A 
HETATM    2  N1  UNL     1       3.254  19.806   0.563  1.00  0.00    -0.339 N 
ATOM      3  H1  UNL     1       4.066  19.509   0.022  1.00  0.00     0.167 HD
HETATM    4  C7  UNL     1       2.015  19.850   0.107  1.00  0.00     0.133 A 
HETATM    5  C8  UNL     1       1.509  19.522  -1.150  1.00  0.00     0.098 A 
HETATM    6  C9  UNL     1       0.153  19.665  -1.327  1.00  0.00     0.123 A 
HETATM    7  N3  UNL     1      -0.601  20.104  -0.311  1.00  0.00    -0.176 N 
ATOM      8  H3  UNL     1      -1.606  20.207  -0.455  1.00  0.00     0.186 HD
HETATM    9  C15 UNL     1      -0.080  20.419   0.906  1.00  0.00     0.686 A 
HETATM   10  N5  UNL     1       1.249  20.287   1.112  1.00  0.00    -0.130 N 
HETATM   11  C16 UNL     1       1.979  20.529   2.215  1.00  0.00     0.098 A 
ENDROOT
BRANCH  11  12
HETATM   12  C17 UNL     1       1.496  21.031   3.491  1.00  0.00     0.011 A 
HETATM   13  C18 UNL     1       1.305  22.375   3.776  1.00  0.00     0.032 A 
HETATM   14  C19 UNL     1       0.843  22.511   5.045  1.00  0.00     0.092 A 
HETATM   15  N6  UNL     1       0.731  21.264   5.591  1.00  0.00    -0.361 N 
HETATM   16  C26 UNL     1       1.128  20.377   4.648  1.00  0.00     0.104 A 
BRANCH  15  17
HETATM   17  C20 UNL     1       0.253  21.067   6.923  1.00  0.00     0.088 C 
HETATM   18  C21 UNL     1       1.125  20.055   7.667  1.00  0.00     0.026 C 
HETATM   19  C22 UNL     1       0.479  19.719   8.972  1.00  0.00     0.002 C 
HETATM   20  C23 UNL     1      -0.795  20.469   9.217  1.00  0.00     0.000 C 
HETATM   21  C24 UNL     1      -0.688  21.942   8.986  1.00  0.00     0.002 C 
HETATM   22  C25 UNL     1       0.147  22.299   7.757  1.00  0.00     0.026 C 
ENDBRANCH  15  17
ENDBRANCH  11  12
BRANCH   1  23
HETATM   23  C5  UNL     1       4.481  20.270   2.678  1.00  0.00    -0.007 A 
HETATM   24  C4  UNL     1       5.345  21.372   2.638  1.00  0.00     0.016 A 
HETATM   25  C3  UNL     1       6.484  21.437   3.400  1.00  0.00     0.037 A 
HETATM   26  C2  UNL     1       6.839  20.421   4.245  1.00  0.00     0.068 A 
HETATM   27  C28 UNL     1       5.993  19.313   4.302  1.00  0.00     0.037 A 
HETATM   28  C27 UNL     1       4.841  19.260   3.524  1.00  0.00     0.016 A 
BRANCH  26  29
HETATM   29  O1  UNL     1       7.981  20.430   5.040  1.00  0.00    -0.356 OA
HETATM   30  C1  UNL     1       9.297  20.407   4.596  1.00  0.00     0.210 C 
ENDBRANCH  26  29
ENDBRANCH   1  23
BRANCH   9  31
HETATM   31  N4  UNL     1      -0.799  20.840   1.870  1.00  0.00    -0.234 N 
ATOM     32  H42 UNL     1      -1.735  20.450   1.979  1.00  0.00     0.174 HD
ATOM     33  H41 UNL     1      -0.471  21.546   2.531  1.00  0.00     0.174 HD
ENDBRANCH   9  31
BRANCH   6  34
HETATM   34  N2  UNL     1      -0.452  19.347  -2.561  1.00  0.00    -0.353 N 
HETATM   35  C10 UNL     1      -0.746  17.962  -2.887  1.00  0.00     0.151 C 
HETATM   36  C11 UNL     1      -1.835  17.812  -3.889  1.00  0.00     0.187 C 
HETATM   37  O2  UNL     1      -1.800  18.675  -4.955  1.00  0.00    -0.387 OA
HETATM   38  C12 UNL     1      -0.845  19.666  -4.892  1.00  0.00     0.198 C 
HETATM   39  C13 UNL     1      -0.826  20.350  -3.542  1.00  0.00     0.174 C 
BRANCH  39  40
HETATM   40  C14 UNL     1       0.189  21.468  -3.611  1.00  0.00     0.377 C 
HETATM   41  F1  UNL     1      -0.356  22.597  -3.033  1.00  0.00    -0.212 F 
HETATM   42  F2  UNL     1       0.426  21.719  -4.942  1.00  0.00    -0.212 F 
ENDBRANCH  39  40
ENDBRANCH   6  34
TORSDOF 7
ENDMDL
MODEL 4
REMARK VINA RESULT: -7.120242974      1.377      1.929
REMARK  7 active torsions:
REMARK  status: ('A' for Active; 'I' for Inactive)
REMARK    1  A    between atoms: O1_2  and  C2_3 
REMARK    2  A    between atoms: C5_6  and  C6_7 
REMARK    3  A    between atoms: C9_12  and  N2_13 
REMARK    4  A    between atoms: C13_18  and  C14_19 
REMARK    5  A    between atoms: C15_24  and  N4_25 
REMARK    6  A    between atoms: C16_29  and  C17_30 
REMARK    7  A    between atoms: N6_33  and  C20_34 
ROOT
HETATM    1  C6  UNL     1       0.954  21.041   3.148  1.00  0.00     0.073 A 
HETATM    2  N1  UNL     1       0.050  21.222   2.141  1.00  0.00    -0.339 N 
ATOM      3  H1  UNL     1      -0.872  21.643   2.251  1.00  0.00     0.167 HD
HETATM    4  C7  UNL     1       0.545  20.772   1.002  1.00  0.00     0.133 A 
HETATM    5  C8  UNL     1      -0.014  20.755  -0.275  1.00  0.00     0.098 A 
HETATM    6  C9  UNL     1       0.758  20.222  -1.281  1.00  0.00     0.123 A 
HETATM    7  N3  UNL     1       1.980  19.753  -0.995  1.00  0.00    -0.176 N 
ATOM      8  H3  UNL     1       2.543  19.359  -1.749  1.00  0.00     0.186 HD
HETATM    9  C15 UNL     1       2.500  19.782   0.262  1.00  0.00     0.686 A 
HETATM   10  N5  UNL     1       1.767  20.302   1.271  1.00  0.00    -0.130 N 
HETATM   11  C16 UNL     1       2.068  20.440   2.575  1.00  0.00     0.098 A 
ENDROOT
BRANCH  11  12
HETATM   12  C17 UNL     1       3.294  20.025   3.238  1.00  0.00     0.011 A 
HETATM   13  C18 UNL     1       3.410  18.884   4.017  1.00  0.00     0.032 A 
HETATM   14  C19 UNL     1       4.679  18.777   4.486  1.00  0.00     0.092 A 
HETATM   15  N6  UNL     1       5.393  19.843   4.018  1.00  0.00    -0.361 N 
HETATM   16  C26 UNL     1       4.552  20.591   3.266  1.00  0.00     0.104 A 
BRANCH  15  17
HETATM   17  C20 UNL     1       6.779  20.012   4.324  1.00  0.00     0.088 C 
HETATM   18  C21 UNL     1       7.342  18.760   4.998  1.00  0.00     0.026 C 
HETATM   19  C22 UNL     1       8.724  19.048   5.488  1.00  0.00     0.002 C 
HETATM   20  C23 UNL     1       9.193  20.434   5.167  1.00  0.00     0.000 C 
HETATM   21  C24 UNL     1       8.992  20.829   3.739  1.00  0.00     0.002 C 
HETATM   22  C25 UNL     1       7.656  20.358   3.168  1.00  0.00     0.026 C 
ENDBRANCH  15  17
ENDBRANCH  11  12
BRANCH   1  23
HETATM   23  C5  UNL     1       0.744  21.438   4.521  1.00  0.00    -0.007 A 
HETATM   24  C4  UNL     1       0.664  20.495   5.553  1.00  0.00     0.016 A 
HETATM   25  C3  UNL     1       0.461  20.856   6.861  1.00  0.00     0.037 A 
HETATM   26  C2  UNL     1       0.324  22.167   7.229  1.00  0.00     0.068 A 
HETATM   27  C28 UNL     1       0.400  23.125   6.217  1.00  0.00     0.037 A 
HETATM   28  C27 UNL     1       0.607  22.744   4.895  1.00  0.00     0.016 A 
BRANCH  26  29
HETATM   29  O1  UNL     1       0.115  22.593   8.537  1.00  0.00    -0.356 OA
HETATM   30  C1  UNL     1      -0.544  21.891   9.538  1.00  0.00     0.210 C 
ENDBRANCH  26  29
ENDBRANCH   1  23
BRANCH   9  31
HETATM   31  N4  UNL     1       3.662  19.332   0.533  1.00  0.00    -0.234 N 
ATOM     32  H42 UNL     1       3.754  18.341   0.757  1.00  0.00     0.174 HD
ATOM     33  H41 UNL     1       4.493  19.924   0.529  1.00  0.00     0.174 HD
ENDBRANCH   9  31
BRANCH   6  34
HETATM   34  N2  UNL     1       0.282  20.170  -2.607  1.00  0.00    -0.353 N 
HETATM   35  C10 UNL     1       0.253  21.379  -3.413  1.00  0.00     0.151 C 
HETATM   36  C11 UNL     1       0.278  21.112  -4.876  1.00  0.00     0.187 C 
HETATM   37  O2  UNL     1      -0.522  20.088  -5.318  1.00  0.00    -0.387 OA
HETATM   38  C12 UNL     1      -1.138  19.344  -4.336  1.00  0.00     0.198 C 
HETATM   39  C13 UNL     1      -0.175  18.945  -3.239  1.00  0.00     0.174 C 
BRANCH  39  40
HETATM   40  C14 UNL     1      -0.928  18.065  -2.268  1.00  0.00     0.377 C 
HETATM   41  F1  UNL     1      -1.173  16.848  -2.872  1.00  0.00    -0.212 F 
HETATM   42  F2  UNL     1      -2.128  18.683  -2.007  1.00  0.00    -0.212 F 
ENDBRANCH  39  40
ENDBRANCH   6  34
TORSDOF 7
ENDMDL
MODEL 5
REMARK VINA RESULT: -6.816290585      2.209      5.726
REMARK  7 active torsions:
REMARK  status: ('A' for Active; 'I' for Inactive)
REMARK    1  A    between atoms: O1_2  and  C2_3 
REMARK    2  A    between atoms: C5_6  and  C6_7 
REMARK    3  A    between atoms: C9_12  and  N2_13 
REMARK    4  A    between atoms: C13_18  and  C14_19 
REMARK    5  A    between atoms: C15_24  and  N4_25 
REMARK    6  A    between atoms: C16_29  and  C17_30 
REMARK    7  A    between atoms: N6_33  and  C20_34 
ROOT
HETATM    1  C6  UNL     1       3.303  19.971   1.145  1.00  0.00     0.073 A 
HETATM    2  N1  UNL     1       3.288  19.014   0.171  1.00  0.00    -0.339 N 
ATOM      3  H1  UNL     1       4.028  18.329   0.012  1.00  0.00     0.167 HD
HETATM    4  C7  UNL     1       2.177  19.104  -0.536  1.00  0.00     0.133 A 
HETATM    5  C8  UNL     1       1.734  18.339  -1.614  1.00  0.00     0.098 A 
HETATM    6  C9  UNL     1       0.509  18.671  -2.146  1.00  0.00     0.123 A 
HETATM    7  N3  UNL     1      -0.183  19.689  -1.619  1.00  0.00    -0.176 N 
ATOM      8  H3  UNL     1      -1.090  19.926  -2.023  1.00  0.00     0.186 HD
HETATM    9  C15 UNL     1       0.274  20.419  -0.566  1.00  0.00     0.686 A 
HETATM   10  N5  UNL     1       1.473  20.117  -0.020  1.00  0.00    -0.130 N 
HETATM   11  C16 UNL     1       2.119  20.686   1.013  1.00  0.00     0.098 A 
ENDROOT
BRANCH  11  12
HETATM   12  C17 UNL     1       1.674  21.822   1.804  1.00  0.00     0.011 A 
HETATM   13  C18 UNL     1       2.136  23.118   1.632  1.00  0.00     0.032 A 
HETATM   14  C19 UNL     1       1.523  23.943   2.519  1.00  0.00     0.092 A 
HETATM   15  N6  UNL     1       0.662  23.193   3.268  1.00  0.00    -0.361 N 
HETATM   16  C26 UNL     1       0.759  21.915   2.832  1.00  0.00     0.104 A 
BRANCH  15  17
HETATM   17  C20 UNL     1      -0.151  23.776   4.289  1.00  0.00     0.088 C 
HETATM   18  C21 UNL     1       0.068  23.069   5.627  1.00  0.00     0.026 C 
HETATM   19  C22 UNL     1      -0.941  23.563   6.612  1.00  0.00     0.002 C 
HETATM   20  C23 UNL     1      -1.850  24.617   6.057  1.00  0.00     0.000 C 
HETATM   21  C24 UNL     1      -1.136  25.726   5.353  1.00  0.00     0.002 C 
HETATM   22  C25 UNL     1       0.032  25.242   4.497  1.00  0.00     0.026 C 
ENDBRANCH  15  17
ENDBRANCH  11  12
BRANCH   1  23
HETATM   23  C5  UNL     1       4.363  20.143   2.111  1.00  0.00    -0.007 A 
HETATM   24  C4  UNL     1       4.414  19.383   3.286  1.00  0.00     0.016 A 
HETATM   25  C3  UNL     1       5.411  19.538   4.216  1.00  0.00     0.037 A 
HETATM   26  C2  UNL     1       6.416  20.450   4.043  1.00  0.00     0.068 A 
HETATM   27  C28 UNL     1       6.386  21.219   2.878  1.00  0.00     0.037 A 
HETATM   28  C27 UNL     1       5.369  21.052   1.945  1.00  0.00     0.016 A 
BRANCH  26  29
HETATM   29  O1  UNL     1       7.451  20.652   4.950  1.00  0.00    -0.356 OA
HETATM   30  C1  UNL     1       8.780  20.284   4.782  1.00  0.00     0.210 C 
ENDBRANCH  26  29
ENDBRANCH   1  23
BRANCH   9  31
HETATM   31  N4  UNL     1      -0.385  21.390  -0.069  1.00  0.00    -0.234 N 
ATOM     32  H42 UNL     1       0.037  22.319  -0.087  1.00  0.00     0.174 HD
ATOM     33  H41 UNL     1      -1.313  21.270   0.340  1.00  0.00     0.174 HD
ENDBRANCH   9  31
BRANCH   6  34
HETATM   34  N2  UNL     1      -0.026  17.948  -3.232  1.00  0.00    -0.353 N 
HETATM   35  C10 UNL     1      -0.138  16.500  -3.153  1.00  0.00     0.151 C 
HETATM   36  C11 UNL     1      -1.180  15.941  -4.055  1.00  0.00     0.187 C 
HETATM   37  O2  UNL     1      -1.232  16.470  -5.320  1.00  0.00    -0.387 OA
HETATM   38  C12 UNL     1      -0.410  17.550  -5.552  1.00  0.00     0.198 C 
HETATM   39  C13 UNL     1      -0.504  18.581  -4.448  1.00  0.00     0.174 C 
BRANCH  39  40
HETATM   40  C14 UNL     1       0.364  19.754  -4.843  1.00  0.00     0.377 C 
HETATM   41  F1  UNL     1      -0.387  20.909  -4.759  1.00  0.00    -0.212 F 
HETATM   42  F2  UNL     1       0.737  19.559  -6.152  1.00  0.00    -0.212 F 
ENDBRANCH  39  40
ENDBRANCH   6  34
TORSDOF 7
ENDMDL
