MODEL 1
REMARK VINA RESULT: -6.875697545      0.000      0.000
REMARK  6 active torsions:
REMARK  status: ('A' for Active; 'I' for Inactive)
REMARK    1  A    between atoms: O1_2  and  C2_3 
REMARK    2  A    between atoms: C4_5  and  C5_6 
REMARK    3  A    between atoms: C5_6  and  C6_7 
REMARK    4  A    between atoms: C10_14  and  N2_15 
REMARK    5  A    between atoms: N4_21  and  C12_22 
REMARK    6  A    between atoms: C20_30  and  N5_31 
ROOT
HETATM    1  C5  UNL     1       0.841  21.124   2.119  1.00  0.00     0.049 C 
HETATM    2  C18 UNL     1      -0.541  20.661   2.036  1.00  0.00     0.024 C 
HETATM    3  C19 UNL     1      -1.020  20.779   0.591  1.00  0.00     0.027 C 
HETATM    4  C20 UNL     1       0.161  20.120  -0.037  1.00  0.00     0.085 C 
HETATM    5  C25 UNL     1       1.307  20.768   0.684  1.00  0.00     0.047 C 
ENDROOT
BRANCH   1   6
HETATM    6  C4  UNL     1       1.050  22.593   2.220  1.00  0.00     0.026 A 
HETATM    7  C3  UNL     1       0.552  23.428   3.180  1.00  0.00     0.066 A 
HETATM    8  C2  UNL     1       0.807  24.807   3.156  1.00  0.00     0.110 A 
HETATM    9  C27 UNL     1       1.574  25.347   2.150  1.00  0.00     0.165 A 
HETATM   10  C26 UNL     1       2.067  24.486   1.193  1.00  0.00     0.133 A 
HETATM   11  F1  UNL     1       1.841  26.694   2.099  1.00  0.00    -0.202 F 
HETATM   12  N6  UNL     1       1.799  23.197   1.260  1.00  0.00    -0.365 N 
ATOM     13  H6  UNL     1       2.186  22.602   0.528  1.00  0.00     0.165 HD
BRANCH   8  14
HETATM   14  O1  UNL     1       0.281  25.615   4.149  1.00  0.00    -0.353 OA
HETATM   15  C1  UNL     1      -0.773  25.161   4.948  1.00  0.00     0.210 C 
ENDBRANCH   8  14
ENDBRANCH   1   6
BRANCH   1  16
HETATM   16  C6  UNL     1       1.802  20.464   3.012  1.00  0.00     0.051 A 
HETATM   17  C7  UNL     1       3.094  20.165   2.569  1.00  0.00     0.073 A 
HETATM   18 CL1  UNL     1       3.791  20.483   0.996  1.00  0.00    -0.081 Cl
HETATM   19  C8  UNL     1       3.727  19.572   3.638  1.00  0.00     0.048 A 
HETATM   20  C9  UNL     1       5.011  19.079   3.741  1.00  0.00     0.123 A 
HETATM   21  C11 UNL     1       2.820  19.543   4.644  1.00  0.00     0.137 A 
HETATM   22  N1  UNL     1       5.389  18.539   4.903  1.00  0.00    -0.201 N 
HETATM   23  C10 UNL     1       4.488  18.501   5.928  1.00  0.00     0.677 A 
ATOM     24  H1  UNL     1       6.329  18.164   5.022  1.00  0.00     0.183 HD
HETATM   25  N3  UNL     1       3.251  18.986   5.800  1.00  0.00    -0.176 N 
ATOM     26  H3  UNL     1       2.613  18.935   6.594  1.00  0.00     0.186 HD
HETATM   27  N4  UNL     1       1.611  20.095   4.281  1.00  0.00    -0.328 N 
BRANCH  23  28
HETATM   28  N2  UNL     1       4.807  17.983   7.084  1.00  0.00    -0.234 N 
ATOM     29  H22 UNL     1       5.128  18.624   7.809  1.00  0.00     0.174 HD
ATOM     30  H21 UNL     1       4.734  16.978   7.245  1.00  0.00     0.174 HD
ENDBRANCH  23  28
BRANCH  27  31
HETATM   31  C12 UNL     1       0.548  20.194   5.168  1.00  0.00     0.091 C 
HETATM   32  C13 UNL     1       0.879  21.333   6.187  1.00  0.00     0.026 C 
HETATM   33  C14 UNL     1      -0.380  21.869   6.796  1.00  0.00     0.002 C 
HETATM   34  C15 UNL     1      -1.509  20.924   6.677  1.00  0.00     0.000 C 
HETATM   35  C16 UNL     1      -0.957  19.581   6.988  1.00  0.00     0.002 C 
HETATM   36  C17 UNL     1       0.179  19.119   6.099  1.00  0.00     0.026 C 
ENDBRANCH  27  31
ENDBRANCH   1  16
BRANCH   4  37
HETATM   37  N5  UNL     1       0.261  20.121  -1.427  1.00  0.00    -0.385 N 
HETATM   38  C21 UNL     1       0.258  21.424  -2.023  1.00  0.00     0.148 C 
HETATM   39  C22 UNL     1      -0.139  21.397  -3.484  1.00  0.00     0.187 C 
HETATM   40  O2  UNL     1      -0.310  20.054  -3.856  1.00  0.00    -0.385 OA
HETATM   41  C23 UNL     1       0.919  19.410  -3.599  1.00  0.00     0.212 C 
HETATM   42  C24 UNL     1       0.997  19.132  -2.101  1.00  0.00     0.084 C 
ENDBRANCH   4  37
TORSDOF 6
ENDMDL
MODEL 2
REMARK VINA RESULT: -6.844590913      6.587      9.469
REMARK  6 active torsions:
REMARK  status: ('A' for Active; 'I' for Inactive)
REMARK    1  A    between atoms: O1_2  and  C2_3 
REMARK    2  A    between atoms: C4_5  and  C5_6 
REMARK    3  A    between atoms: C5_6  and  C6_7 
REMARK    4  A    between atoms: C10_14  and  N2_15 
REMARK    5  A    between atoms: N4_21  and  C12_22 
REMARK    6  A    between atoms: C20_30  and  N5_31 
ROOT
HETATM    1  C5  UNL     1       8.035  17.489   1.215  1.00  0.00     0.049 C 
HETATM    2  C18 UNL     1       7.190  16.848   0.212  1.00  0.00     0.024 C 
HETATM    3  C19 UNL     1       7.392  17.548  -1.130  1.00  0.00     0.027 C 
HETATM    4  C20 UNL     1       8.883  17.538  -1.109  1.00  0.00     0.085 C 
HETATM    5  C25 UNL     1       9.183  17.978   0.294  1.00  0.00     0.047 C 
ENDROOT
BRANCH   1   6
HETATM    6  C4  UNL     1       7.509  18.732   1.839  1.00  0.00     0.026 A 
HETATM    7  C3  UNL     1       6.237  19.222   1.745  1.00  0.00     0.066 A 
HETATM    8  C2  UNL     1       5.867  20.423   2.369  1.00  0.00     0.110 A 
HETATM    9  C27 UNL     1       6.792  21.135   3.094  1.00  0.00     0.165 A 
HETATM   10  C26 UNL     1       8.069  20.622   3.176  1.00  0.00     0.133 A 
HETATM   11  F1  UNL     1       6.460  22.315   3.715  1.00  0.00    -0.202 F 
HETATM   12  N6  UNL     1       8.368  19.489   2.572  1.00  0.00    -0.365 N 
ATOM     13  H6  UNL     1       9.326  19.152   2.663  1.00  0.00     0.165 HD
BRANCH   8  14
HETATM   14  O1  UNL     1       4.567  20.882   2.245  1.00  0.00    -0.353 OA
HETATM   15  C1  UNL     1       4.230  21.797   1.243  1.00  0.00     0.210 C 
ENDBRANCH   8  14
ENDBRANCH   1   6
BRANCH   1  16
HETATM   16  C6  UNL     1       8.692  16.696   2.262  1.00  0.00     0.051 A 
HETATM   17  C7  UNL     1       7.977  16.272   3.386  1.00  0.00     0.073 A 
HETATM   18 CL1  UNL     1       6.293  16.562   3.761  1.00  0.00    -0.081 Cl
HETATM   19  C8  UNL     1       8.872  15.555   4.148  1.00  0.00     0.048 A 
HETATM   20  C9  UNL     1       8.690  14.920   5.360  1.00  0.00     0.123 A 
HETATM   21  C11 UNL     1      10.046  15.576   3.471  1.00  0.00     0.137 A 
HETATM   22  N1  UNL     1       9.733  14.287   5.903  1.00  0.00    -0.201 N 
HETATM   23  C10 UNL     1      10.924  14.299   5.236  1.00  0.00     0.677 A 
ATOM     24  H1  UNL     1       9.642  13.806   6.798  1.00  0.00     0.183 HD
HETATM   25  N3  UNL     1      11.071  14.921   4.064  1.00  0.00    -0.176 N 
ATOM     26  H3  UNL     1      11.981  14.902   3.603  1.00  0.00     0.186 HD
HETATM   27  N4  UNL     1       9.961  16.280   2.290  1.00  0.00    -0.328 N 
BRANCH  23  28
HETATM   28  N2  UNL     1      11.974  13.696   5.726  1.00  0.00    -0.234 N 
ATOM     29  H22 UNL     1      12.052  12.692   5.563  1.00  0.00     0.174 HD
ATOM     30  H21 UNL     1      12.681  14.215   6.246  1.00  0.00     0.174 HD
ENDBRANCH  23  28
BRANCH  27  31
HETATM   31  C12 UNL     1      11.039  16.406   1.426  1.00  0.00     0.091 C 
HETATM   32  C13 UNL     1      11.133  15.091   0.584  1.00  0.00     0.026 C 
HETATM   33  C14 UNL     1      11.869  15.345  -0.697  1.00  0.00     0.002 C 
HETATM   34  C15 UNL     1      12.707  16.560  -0.632  1.00  0.00     0.000 C 
HETATM   35  C16 UNL     1      13.365  16.536   0.699  1.00  0.00     0.002 C 
HETATM   36  C17 UNL     1      12.430  16.510   1.890  1.00  0.00     0.026 C 
ENDBRANCH  27  31
ENDBRANCH   1  16
BRANCH   4  37
HETATM   37  N5  UNL     1       9.566  18.232  -2.105  1.00  0.00    -0.385 N 
HETATM   38  C21 UNL     1      10.200  19.438  -1.662  1.00  0.00     0.148 C 
HETATM   39  C22 UNL     1      10.481  20.401  -2.797  1.00  0.00     0.187 C 
HETATM   40  O2  UNL     1      10.103  19.773  -3.994  1.00  0.00    -0.385 OA
HETATM   41  C23 UNL     1      10.854  18.582  -4.074  1.00  0.00     0.212 C 
HETATM   42  C24 UNL     1      10.196  17.552  -3.161  1.00  0.00     0.084 C 
ENDBRANCH   4  37
TORSDOF 6
ENDMDL
MODEL 3
REMARK VINA RESULT: -6.750221377      3.040      7.233
REMARK  6 active torsions:
REMARK  status: ('A' for Active; 'I' for Inactive)
REMARK    1  A    between atoms: O1_2  and  C2_3 
REMARK    2  A    between atoms: C4_5  and  C5_6 
REMARK    3  A    between atoms: C5_6  and  C6_7 
REMARK    4  A    between atoms: C10_14  and  N2_15 
REMARK    5  A    between atoms: N4_21  and  C12_22 
REMARK    6  A    between atoms: C20_30  and  N5_31 
ROOT
HETATM    1  C5  UNL     1       3.240  19.061   2.530  1.00  0.00     0.049 C 
HETATM    2  C18 UNL     1       3.061  17.727   3.095  1.00  0.00     0.024 C 
HETATM    3  C19 UNL     1       2.924  17.844   4.612  1.00  0.00     0.027 C 
HETATM    4  C20 UNL     1       1.907  18.935   4.610  1.00  0.00     0.085 C 
HETATM    5  C25 UNL     1       2.463  19.884   3.589  1.00  0.00     0.047 C 
ENDROOT
BRANCH   1   6
HETATM    6  C4  UNL     1       4.615  19.624   2.563  1.00  0.00     0.026 A 
HETATM    7  C3  UNL     1       5.721  19.127   1.932  1.00  0.00     0.066 A 
HETATM    8  C2  UNL     1       6.975  19.742   2.056  1.00  0.00     0.110 A 
HETATM    9  C27 UNL     1       7.113  20.873   2.827  1.00  0.00     0.165 A 
HETATM   10  C26 UNL     1       5.985  21.357   3.453  1.00  0.00     0.133 A 
HETATM   11  F1  UNL     1       8.328  21.497   2.969  1.00  0.00    -0.202 F 
HETATM   12  N6  UNL     1       4.828  20.743   3.305  1.00  0.00    -0.365 N 
ATOM     13  H6  UNL     1       4.024  21.141   3.790  1.00  0.00     0.165 HD
BRANCH   8  14
HETATM   14  O1  UNL     1       8.067  19.202   1.400  1.00  0.00    -0.353 OA
HETATM   15  C1  UNL     1       8.456  19.692   0.149  1.00  0.00     0.210 C 
ENDBRANCH   8  14
ENDBRANCH   1   6
BRANCH   1  16
HETATM   16  C6  UNL     1       2.632  19.418   1.242  1.00  0.00     0.051 A 
HETATM   17  C7  UNL     1       2.606  18.500   0.188  1.00  0.00     0.073 A 
HETATM   18 CL1  UNL     1       3.233  16.866   0.172  1.00  0.00    -0.081 Cl
HETATM   19  C8  UNL     1       1.966  19.139  -0.849  1.00  0.00     0.048 A 
HETATM   20  C9  UNL     1       1.678  18.689  -2.121  1.00  0.00     0.123 A 
HETATM   21  C11 UNL     1       1.643  20.373  -0.389  1.00  0.00     0.137 A 
HETATM   22  N1  UNL     1       1.043  19.517  -2.955  1.00  0.00    -0.201 N 
HETATM   23  C10 UNL     1       0.710  20.764  -2.509  1.00  0.00     0.677 A 
ATOM     24  H1  UNL     1       0.811  19.224  -3.904  1.00  0.00     0.183 HD
HETATM   25  N3  UNL     1       1.001  21.173  -1.272  1.00  0.00    -0.176 N 
ATOM     26  H3  UNL     1       0.732  22.114  -0.985  1.00  0.00     0.186 HD
HETATM   27  N4  UNL     1       2.045  20.573   0.913  1.00  0.00    -0.328 N 
BRANCH  23  28
HETATM   28  N2  UNL     1       0.090  21.611  -3.286  1.00  0.00    -0.234 N 
ATOM     29  H22 UNL     1      -0.433  22.361  -2.833  1.00  0.00     0.174 HD
ATOM     30  H21 UNL     1       0.132  21.519  -4.301  1.00  0.00     0.174 HD
ENDBRANCH  23  28
BRANCH  27  31
HETATM   31  C12 UNL     1       1.792  21.756   1.591  1.00  0.00     0.091 C 
HETATM   32  C13 UNL     1       0.244  21.880   1.775  1.00  0.00     0.026 C 
HETATM   33  C14 UNL     1      -0.073  22.784   2.927  1.00  0.00     0.002 C 
HETATM   34  C15 UNL     1       1.054  23.676   3.269  1.00  0.00     0.000 C 
HETATM   35  C16 UNL     1       1.604  24.159   1.977  1.00  0.00     0.002 C 
HETATM   36  C17 UNL     1       2.088  23.081   1.028  1.00  0.00     0.026 C 
ENDBRANCH  27  31
ENDBRANCH   1  16
BRANCH   4  37
HETATM   37  N5  UNL     1       1.555  19.515   5.827  1.00  0.00    -0.385 N 
HETATM   38  C21 UNL     1       0.657  20.627   5.718  1.00  0.00     0.148 C 
HETATM   39  C22 UNL     1       0.693  21.527   6.935  1.00  0.00     0.187 C 
HETATM   40  O2  UNL     1       1.557  20.943   7.874  1.00  0.00    -0.385 OA
HETATM   41  C23 UNL     1       1.042  19.658   8.145  1.00  0.00     0.212 C 
HETATM   42  C24 UNL     1       1.444  18.741   6.994  1.00  0.00     0.084 C 
ENDBRANCH   4  37
TORSDOF 6
ENDMDL
MODEL 4
REMARK VINA RESULT: -6.647474820      3.482      7.042
REMARK  6 active torsions:
REMARK  status: ('A' for Active; 'I' for Inactive)
REMARK    1  A    between atoms: O1_2  and  C2_3 
REMARK    2  A    between atoms: C4_5  and  C5_6 
REMARK    3  A    between atoms: C5_6  and  C6_7 
REMARK    4  A    between atoms: C10_14  and  N2_15 
REMARK    5  A    between atoms: N4_21  and  C12_22 
REMARK    6  A    between atoms: C20_30  and  N5_31 
ROOT
HETATM    1  C5  UNL     1       4.057  20.499   2.362  1.00  0.00     0.049 C 
HETATM    2  C18 UNL     1       4.899  21.645   2.694  1.00  0.00     0.024 C 
HETATM    3  C19 UNL     1       6.306  21.151   3.020  1.00  0.00     0.027 C 
HETATM    4  C20 UNL     1       6.462  20.271   1.826  1.00  0.00     0.085 C 
HETATM    5  C25 UNL     1       5.144  19.554   1.787  1.00  0.00     0.047 C 
ENDROOT
BRANCH   1   6
HETATM    6  C4  UNL     1       3.476  19.742   3.501  1.00  0.00     0.026 A 
HETATM    7  C3  UNL     1       2.449  20.138   4.311  1.00  0.00     0.066 A 
HETATM    8  C2  UNL     1       2.001  19.337   5.372  1.00  0.00     0.110 A 
HETATM    9  C27 UNL     1       2.597  18.122   5.615  1.00  0.00     0.165 A 
HETATM   10  C26 UNL     1       3.630  17.742   4.786  1.00  0.00     0.133 A 
HETATM   11  F1  UNL     1       2.180  17.316   6.647  1.00  0.00    -0.202 F 
HETATM   12  N6  UNL     1       4.014  18.531   3.802  1.00  0.00    -0.365 N 
ATOM     13  H6  UNL     1       4.783  18.204   3.217  1.00  0.00     0.165 HD
BRANCH   8  14
HETATM   14  O1  UNL     1       0.958  19.780   6.167  1.00  0.00    -0.353 OA
HETATM   15  C1  UNL     1       1.216  20.491   7.343  1.00  0.00     0.210 C 
ENDBRANCH   8  14
ENDBRANCH   1   6
BRANCH   1  16
HETATM   16  C6  UNL     1       3.036  20.597   1.311  1.00  0.00     0.051 A 
HETATM   17  C7  UNL     1       2.841  19.546   0.410  1.00  0.00     0.073 A 
HETATM   18 CL1  UNL     1       3.690  18.018   0.341  1.00  0.00    -0.081 Cl
HETATM   19  C8  UNL     1       1.819  19.951  -0.419  1.00  0.00     0.048 A 
HETATM   20  C9  UNL     1       1.236  19.298  -1.485  1.00  0.00     0.123 A 
HETATM   21  C11 UNL     1       1.455  21.185   0.006  1.00  0.00     0.137 A 
HETATM   22  N1  UNL     1       0.250  19.916  -2.141  1.00  0.00    -0.201 N 
HETATM   23  C10 UNL     1      -0.130  21.161  -1.727  1.00  0.00     0.677 A 
ATOM     24  H1  UNL     1      -0.209  19.469  -2.935  1.00  0.00     0.183 HD
HETATM   25  N3  UNL     1       0.454  21.769  -0.693  1.00  0.00    -0.176 N 
ATOM     26  H3  UNL     1       0.136  22.699  -0.420  1.00  0.00     0.186 HD
HETATM   27  N4  UNL     1       2.197  21.611   1.085  1.00  0.00    -0.328 N 
BRANCH  23  28
HETATM   28  N2  UNL     1      -1.086  21.808  -2.337  1.00  0.00    -0.234 N 
ATOM     29  H22 UNL     1      -1.606  21.302  -3.055  1.00  0.00     0.174 HD
ATOM     30  H21 UNL     1      -1.299  22.776  -2.098  1.00  0.00     0.174 HD
ENDBRANCH  23  28
BRANCH  27  31
HETATM   31  C12 UNL     1       1.973  22.836   1.699  1.00  0.00     0.091 C 
HETATM   32  C13 UNL     1       0.485  22.865   2.179  1.00  0.00     0.026 C 
HETATM   33  C14 UNL     1       0.316  23.855   3.291  1.00  0.00     0.002 C 
HETATM   34  C15 UNL     1       1.402  24.855   3.323  1.00  0.00     0.000 C 
HETATM   35  C16 UNL     1       1.646  25.245   1.911  1.00  0.00     0.002 C 
HETATM   36  C17 UNL     1       2.033  24.115   0.978  1.00  0.00     0.026 C 
ENDBRANCH  27  31
ENDBRANCH   1  16
BRANCH   4  37
HETATM   37  N5  UNL     1       7.584  19.450   1.749  1.00  0.00    -0.385 N 
HETATM   38  C21 UNL     1       7.469  18.214   2.467  1.00  0.00     0.148 C 
HETATM   39  C22 UNL     1       8.814  17.599   2.790  1.00  0.00     0.187 C 
HETATM   40  O2  UNL     1       9.804  18.400   2.200  1.00  0.00    -0.385 OA
HETATM   41  C23 UNL     1       9.521  18.429   0.818  1.00  0.00     0.212 C 
HETATM   42  C24 UNL     1       8.385  19.422   0.595  1.00  0.00     0.084 C 
ENDBRANCH   4  37
TORSDOF 6
ENDMDL
MODEL 5
REMARK VINA RESULT: -6.565877518      2.110      5.234
REMARK  6 active torsions:
REMARK  status: ('A' for Active; 'I' for Inactive)
REMARK    1  A    between atoms: O1_2  and  C2_3 
REMARK    2  A    between atoms: C4_5  and  C5_6 
REMARK    3  A    between atoms: C5_6  and  C6_7 
REMARK    4  A    between atoms: C10_14  and  N2_15 
REMARK    5  A    between atoms: N4_21  and  C12_22 
REMARK    6  A    between atoms: C20_30  and  N5_31 
ROOT
HETATM    1  C5  UNL     1       1.445  22.329   2.543  1.00  0.00     0.049 C 
HETATM    2  C18 UNL     1       1.901  23.704   2.361  1.00  0.00     0.024 C 
HETATM    3  C19 UNL     1       0.768  24.657   2.734  1.00  0.00     0.027 C 
HETATM    4  C20 UNL     1       0.425  24.017   4.036  1.00  0.00     0.085 C 
HETATM    5  C25 UNL     1       0.417  22.559   3.680  1.00  0.00     0.047 C 
ENDROOT
BRANCH   1   6
HETATM    6  C4  UNL     1       0.647  21.736   1.439  1.00  0.00     0.026 A 
HETATM    7  C3  UNL     1       0.917  21.806   0.101  1.00  0.00     0.066 A 
HETATM    8  C2  UNL     1       0.071  21.217  -0.850  1.00  0.00     0.110 A 
HETATM    9  C27 UNL     1      -1.061  20.549  -0.443  1.00  0.00     0.165 A 
HETATM   10  C26 UNL     1      -1.313  20.489   0.910  1.00  0.00     0.133 A 
HETATM   11  F1  UNL     1      -1.909  19.963  -1.351  1.00  0.00    -0.202 F 
HETATM   12  N6  UNL     1      -0.487  21.060   1.764  1.00  0.00    -0.365 N 
ATOM     13  H6  UNL     1      -0.718  20.988   2.755  1.00  0.00     0.165 HD
BRANCH   8  14
HETATM   14  O1  UNL     1       0.384  21.315  -2.194  1.00  0.00    -0.353 OA
HETATM   15  C1  UNL     1      -0.267  22.249  -3.007  1.00  0.00     0.210 C 
ENDBRANCH   8  14
ENDBRANCH   1   6
BRANCH   1  16
HETATM   16  C6  UNL     1       2.358  21.297   3.052  1.00  0.00     0.051 A 
HETATM   17  C7  UNL     1       3.641  21.155   2.515  1.00  0.00     0.073 A 
HETATM   18 CL1  UNL     1       4.381  22.093   1.237  1.00  0.00    -0.081 Cl
HETATM   19  C8  UNL     1       4.225  20.123   3.214  1.00  0.00     0.048 A 
HETATM   20  C9  UNL     1       5.482  19.569   3.084  1.00  0.00     0.123 A 
HETATM   21  C11 UNL     1       3.300  19.703   4.111  1.00  0.00     0.137 A 
HETATM   22  N1  UNL     1       5.812  18.557   3.890  1.00  0.00    -0.201 N 
HETATM   23  C10 UNL     1       4.893  18.120   4.801  1.00  0.00     0.677 A 
ATOM     24  H1  UNL     1       6.731  18.119   3.828  1.00  0.00     0.183 HD
HETATM   25  N3  UNL     1       3.683  18.675   4.904  1.00  0.00    -0.176 N 
ATOM     26  H3  UNL     1       3.029  18.315   5.599  1.00  0.00     0.186 HD
HETATM   27  N4  UNL     1       2.127  20.420   4.033  1.00  0.00    -0.328 N 
BRANCH  23  28
HETATM   28  N2  UNL     1       5.166  17.133   5.611  1.00  0.00    -0.234 N 
ATOM     29  H22 UNL     1       4.788  16.216   5.371  1.00  0.00     0.174 HD
ATOM     30  H21 UNL     1       5.734  17.281   6.445  1.00  0.00     0.174 HD
ENDBRANCH  23  28
BRANCH  27  31
HETATM   31  C12 UNL     1       1.054  20.176   4.878  1.00  0.00     0.091 C 
HETATM   32  C13 UNL     1       1.573  20.276   6.350  1.00  0.00     0.026 C 
HETATM   33  C14 UNL     1       0.439  20.575   7.283  1.00  0.00     0.002 C 
HETATM   34  C15 UNL     1      -0.874  20.228   6.701  1.00  0.00     0.000 C 
HETATM   35  C16 UNL     1      -0.693  18.917   6.028  1.00  0.00     0.002 C 
HETATM   36  C17 UNL     1       0.361  18.881   4.941  1.00  0.00     0.026 C 
ENDBRANCH  27  31
ENDBRANCH   1  16
BRANCH   4  37
HETATM   37  N5  UNL     1      -0.704  24.465   4.719  1.00  0.00    -0.385 N 
HETATM   38  C21 UNL     1      -0.976  23.769   5.942  1.00  0.00     0.148 C 
HETATM   39  C22 UNL     1      -2.418  23.905   6.383  1.00  0.00     0.187 C 
HETATM   40  O2  UNL     1      -3.061  24.770   5.483  1.00  0.00    -0.385 OA
HETATM   41  C23 UNL     1      -2.348  25.986   5.521  1.00  0.00     0.212 C 
HETATM   42  C24 UNL     1      -1.088  25.816   4.677  1.00  0.00     0.084 C 
ENDBRANCH   4  37
TORSDOF 6
ENDMDL
