MODEL 1
REMARK VINA RESULT: -7.923903904      0.000      0.000
REMARK  14 active torsions:
REMARK  status: ('A' for Active; 'I' for Inactive)
REMARK    1  A    between atoms: C2_2  and  O2_4 
REMARK    2  A    between atoms: O2_4  and  C3_5 
REMARK    3  A    between atoms: C3_5  and  C4_6 
REMARK    4  A    between atoms: N2_13  and  C8_14 
REMARK    5  A    between atoms: C8_14  and  N3_15 
REMARK    6  A    between atoms: N3_15  and  C9_17 
REMARK    7  A    between atoms: C12_20  and  C13_21 
REMARK    8  A    between atoms: C15_28  and  O5_29 
REMARK    9  A    between atoms: C16_33  and  O6_34 
REMARK   10  A    between atoms: C17_39  and  C18_40 
REMARK   11  A    between atoms: C17_39  and  C19_43 
REMARK   12  A    between atoms: C18_40  and  O7_41 
REMARK   13  A    between atoms: C19_43  and  O8_44 
REMARK   14  A    between atoms: C20_46  and  O9_47 
ROOT
HETATM    1  C13 UNL     1      28.322   4.047 -50.113  1.00  0.00     0.254 C 
HETATM    2  N4  UNL     1      29.722   3.650 -50.358  1.00  0.00    -0.327 N 
ATOM      3  H4  UNL     1      29.992   3.695 -51.341  1.00  0.00     0.165 HD
HETATM    4  C14 UNL     1      30.674   3.258 -49.580  1.00  0.00     0.189 C 
HETATM    5  N5  UNL     1      31.905   2.973 -50.290  1.00  0.00    -0.064 NA
HETATM    6  N6  UNL     1      30.786   3.042 -48.172  1.00  0.00    -0.322 N 
ATOM      7  H6  UNL     1      31.740   3.145 -47.828  1.00  0.00     0.166 HD
HETATM    8  C15 UNL     1      29.857   2.714 -47.146  1.00  0.00     0.328 C 
HETATM    9  N7  UNL     1      28.535   2.490 -47.486  1.00  0.00    -0.325 N 
ATOM     10  H7  UNL     1      28.104   1.637 -47.129  1.00  0.00     0.162 HD
HETATM   11  C16 UNL     1      27.749   3.311 -48.259  1.00  0.00     0.323 C 
HETATM   12  N8  UNL     1      28.245   4.546 -48.727  1.00  0.00     0.009 N 
ATOM     13  H81 UNL     1      27.719   5.398 -48.534  1.00  0.00     0.286 HD
ATOM     14  H82 UNL     1      29.079   4.943 -48.295  1.00  0.00     0.286 HD
HETATM   15  C17 UNL     1      27.482   2.905 -49.686  1.00  0.00     0.137 C 
ENDROOT
BRANCH   1  16
HETATM   16  C12 UNL     1      27.813   5.042 -51.046  1.00  0.00     0.033 A 
HETATM   17  C11 UNL     1      27.413   6.281 -50.609  1.00  0.00     0.017 A 
HETATM   18  C10 UNL     1      26.932   7.262 -51.447  1.00  0.00     0.030 A 
HETATM   19  C9  UNL     1      26.848   6.989 -52.790  1.00  0.00     0.031 A 
HETATM   20  C21 UNL     1      27.233   5.776 -53.259  1.00  0.00     0.066 A 
HETATM   21  C20 UNL     1      27.722   4.784 -52.400  1.00  0.00     0.078 A 
BRANCH  19  22
HETATM   22  N3  UNL     1      26.342   8.028 -53.656  1.00  0.00    -0.372 N 
ATOM     23  H3  UNL     1      26.476   9.010 -53.415  1.00  0.00     0.161 HD
BRANCH  22  24
HETATM   24  C8  UNL     1      25.632   7.658 -54.887  1.00  0.00     0.264 C 
BRANCH  24  25
HETATM   25  N2  UNL     1      24.335   8.232 -54.845  1.00  0.00    -0.269 N 
HETATM   26  C3  UNL     1      23.414   7.857 -55.842  1.00  0.00     0.247 C 
HETATM   27  C5  UNL     1      22.071   8.263 -55.327  1.00  0.00     0.097 C 
HETATM   28  C6  UNL     1      22.346   8.642 -53.901  1.00  0.00     0.100 C 
HETATM   29  C7  UNL     1      22.057  10.119 -53.660  1.00  0.00     0.030 C 
HETATM   30  N1  UNL     1      23.727   8.427 -53.683  1.00  0.00    -0.134 NA
BRANCH  26  31
HETATM   31  O2  UNL     1      23.457   6.490 -56.214  1.00  0.00    -0.277 OA
BRANCH  31  32
HETATM   32  C2  UNL     1      23.042   5.971 -57.402  1.00  0.00     0.257 C 
HETATM   33  C1  UNL     1      24.026   5.382 -58.352  1.00  0.00     0.126 C 
HETATM   34  O1  UNL     1      21.847   5.968 -57.735  1.00  0.00    -0.266 OA
ENDBRANCH  31  32
ENDBRANCH  26  31
BRANCH  26  35
HETATM   35  C4  UNL     1      23.650   8.639 -57.107  1.00  0.00     0.233 C 
HETATM   36  O3  UNL     1      24.799   8.685 -57.568  1.00  0.00    -0.644 OA
HETATM   37  O4  UNL     1      22.603   9.271 -57.708  1.00  0.00    -0.644 OA
ENDBRANCH  26  35
ENDBRANCH  24  25
ENDBRANCH  22  24
ENDBRANCH  19  22
BRANCH  21  38
HETATM   38  O9  UNL     1      28.100   3.565 -52.947  1.00  0.00    -0.360 OA
ATOM     39  H9  UNL     1      28.444   3.493 -53.829  1.00  0.00     0.217 HD
ENDBRANCH  21  38
ENDBRANCH   1  16
BRANCH  15  40
HETATM   40  C18 UNL     1      27.919   1.509 -50.045  1.00  0.00     0.187 C 
BRANCH  40  41
HETATM   41  O7  UNL     1      27.604   1.338 -51.404  1.00  0.00    -0.400 OA
ATOM     42  H7  UNL     1      27.905   0.467 -51.638  1.00  0.00     0.209 HD
ENDBRANCH  40  41
ENDBRANCH  15  40
BRANCH  15  43
HETATM   43  C19 UNL     1      26.036   3.055 -50.101  1.00  0.00     0.187 C 
BRANCH  43  44
HETATM   44  O8  UNL     1      25.276   1.925 -49.967  1.00  0.00    -0.400 OA
ATOM     45  H8  UNL     1      24.337   2.068 -49.992  1.00  0.00     0.209 HD
ENDBRANCH  43  44
ENDBRANCH  15  43
BRANCH  11  46
HETATM   46  O6  UNL     1      26.528   3.538 -47.601  1.00  0.00    -0.348 OA
ATOM     47  H6  UNL     1      25.979   4.092 -48.142  1.00  0.00     0.214 HD
ENDBRANCH  11  46
BRANCH   8  48
HETATM   48  O5  UNL     1      29.899   3.781 -46.210  1.00  0.00    -0.360 OA
ATOM     49  H5  UNL     1      30.094   3.392 -45.366  1.00  0.00     0.214 HD
ENDBRANCH   8  48
TORSDOF 14
ENDMDL
MODEL 2
REMARK VINA RESULT: -7.346655638      1.107      1.559
REMARK  14 active torsions:
REMARK  status: ('A' for Active; 'I' for Inactive)
REMARK    1  A    between atoms: C2_2  and  O2_4 
REMARK    2  A    between atoms: O2_4  and  C3_5 
REMARK    3  A    between atoms: C3_5  and  C4_6 
REMARK    4  A    between atoms: N2_13  and  C8_14 
REMARK    5  A    between atoms: C8_14  and  N3_15 
REMARK    6  A    between atoms: N3_15  and  C9_17 
REMARK    7  A    between atoms: C12_20  and  C13_21 
REMARK    8  A    between atoms: C15_28  and  O5_29 
REMARK    9  A    between atoms: C16_33  and  O6_34 
REMARK   10  A    between atoms: C17_39  and  C18_40 
REMARK   11  A    between atoms: C17_39  and  C19_43 
REMARK   12  A    between atoms: C18_40  and  O7_41 
REMARK   13  A    between atoms: C19_43  and  O8_44 
REMARK   14  A    between atoms: C20_46  and  O9_47 
ROOT
HETATM    1  C13 UNL     1      28.406   3.573 -50.865  1.00  0.00     0.254 C 
HETATM    2  N4  UNL     1      29.871   3.601 -50.685  1.00  0.00    -0.327 N 
ATOM      3  H4  UNL     1      30.364   4.090 -51.431  1.00  0.00     0.165 HD
HETATM    4  C14 UNL     1      30.653   3.131 -49.772  1.00  0.00     0.189 C 
HETATM    5  N5  UNL     1      32.053   3.411 -50.026  1.00  0.00    -0.064 NA
HETATM    6  N6  UNL     1      30.449   2.396 -48.564  1.00  0.00    -0.322 N 
ATOM      7  H6  UNL     1      31.188   2.544 -47.878  1.00  0.00     0.166 HD
HETATM    8  C15 UNL     1      29.439   1.503 -48.110  1.00  0.00     0.328 C 
HETATM    9  N7  UNL     1      28.404   1.171 -48.966  1.00  0.00    -0.325 N 
ATOM     10  H7  UNL     1      28.197   0.179 -49.078  1.00  0.00     0.162 HD
HETATM   11  C16 UNL     1      27.631   2.055 -49.681  1.00  0.00     0.323 C 
HETATM   12  N8  UNL     1      27.803   3.447 -49.525  1.00  0.00     0.009 N 
ATOM     13  H81 UNL     1      26.996   4.023 -49.287  1.00  0.00     0.286 HD
ATOM     14  H82 UNL     1      28.314   3.797 -48.715  1.00  0.00     0.286 HD
HETATM   15  C17 UNL     1      27.903   2.211 -51.155  1.00  0.00     0.137 C 
ENDROOT
BRANCH   1  16
HETATM   16  C12 UNL     1      27.871   4.733 -51.563  1.00  0.00     0.033 A 
HETATM   17  C11 UNL     1      27.773   4.750 -52.933  1.00  0.00     0.017 A 
HETATM   18  C10 UNL     1      27.269   5.814 -53.645  1.00  0.00     0.030 A 
HETATM   19  C9  UNL     1      26.839   6.918 -52.950  1.00  0.00     0.031 A 
HETATM   20  C21 UNL     1      26.920   6.939 -51.596  1.00  0.00     0.066 A 
HETATM   21  C20 UNL     1      27.435   5.852 -50.880  1.00  0.00     0.078 A 
BRANCH  19  22
HETATM   22  N3  UNL     1      26.312   8.027 -53.711  1.00  0.00    -0.372 N 
ATOM     23  H3  UNL     1      26.425   8.983 -53.374  1.00  0.00     0.161 HD
BRANCH  22  24
HETATM   24  C8  UNL     1      25.613   7.765 -54.975  1.00  0.00     0.264 C 
BRANCH  24  25
HETATM   25  N2  UNL     1      24.294   8.278 -54.871  1.00  0.00    -0.269 N 
HETATM   26  C3  UNL     1      23.351   7.876 -55.837  1.00  0.00     0.247 C 
HETATM   27  C5  UNL     1      22.013   8.213 -55.261  1.00  0.00     0.097 C 
HETATM   28  C6  UNL     1      22.329   8.583 -53.842  1.00  0.00     0.100 C 
HETATM   29  C7  UNL     1      21.984  10.041 -53.564  1.00  0.00     0.030 C 
HETATM   30  N1  UNL     1      23.726   8.427 -53.683  1.00  0.00    -0.134 NA
BRANCH  26  31
HETATM   31  O2  UNL     1      23.440   6.519 -56.233  1.00  0.00    -0.277 OA
BRANCH  31  32
HETATM   32  C2  UNL     1      23.010   6.001 -57.417  1.00  0.00     0.257 C 
HETATM   33  C1  UNL     1      23.980   5.400 -58.374  1.00  0.00     0.126 C 
HETATM   34  O1  UNL     1      21.812   6.009 -57.739  1.00  0.00    -0.266 OA
ENDBRANCH  31  32
ENDBRANCH  26  31
BRANCH  26  35
HETATM   35  C4  UNL     1      23.499   8.687 -57.097  1.00  0.00     0.233 C 
HETATM   36  O3  UNL     1      24.611   8.732 -57.644  1.00  0.00    -0.644 OA
HETATM   37  O4  UNL     1      22.418   9.346 -57.600  1.00  0.00    -0.644 OA
ENDBRANCH  26  35
ENDBRANCH  24  25
ENDBRANCH  22  24
ENDBRANCH  19  22
BRANCH  21  38
HETATM   38  O9  UNL     1      27.487   5.939 -49.496  1.00  0.00    -0.360 OA
ATOM     39  H9  UNL     1      27.254   6.734 -49.031  1.00  0.00     0.217 HD
ENDBRANCH  21  38
ENDBRANCH   1  16
BRANCH  15  40
HETATM   40  C18 UNL     1      28.851   1.197 -51.740  1.00  0.00     0.187 C 
BRANCH  40  41
HETATM   41  O7  UNL     1      29.344   1.762 -52.929  1.00  0.00    -0.400 OA
ATOM     42  H7  UNL     1      29.998   2.400 -52.668  1.00  0.00     0.209 HD
ENDBRANCH  40  41
ENDBRANCH  15  40
BRANCH  15  43
HETATM   43  C19 UNL     1      26.654   2.219 -52.008  1.00  0.00     0.187 C 
BRANCH  43  44
HETATM   44  O8  UNL     1      26.350   1.022 -52.597  1.00  0.00    -0.400 OA
ATOM     45  H8  UNL     1      25.741   1.077 -53.324  1.00  0.00     0.209 HD
ENDBRANCH  43  44
ENDBRANCH  15  43
BRANCH  11  46
HETATM   46  O6  UNL     1      26.274   1.746 -49.486  1.00  0.00    -0.348 OA
ATOM     47  H6  UNL     1      26.176   0.805 -49.399  1.00  0.00     0.214 HD
ENDBRANCH  11  46
BRANCH   8  48
HETATM   48  O5  UNL     1      28.878   2.089 -46.945  1.00  0.00    -0.360 OA
ATOM     49  H5  UNL     1      27.937   2.102 -47.076  1.00  0.00     0.214 HD
ENDBRANCH   8  48
TORSDOF 14
ENDMDL
MODEL 3
REMARK VINA RESULT: -6.334935828      2.239      9.827
REMARK  14 active torsions:
REMARK  status: ('A' for Active; 'I' for Inactive)
REMARK    1  A    between atoms: C2_2  and  O2_4 
REMARK    2  A    between atoms: O2_4  and  C3_5 
REMARK    3  A    between atoms: C3_5  and  C4_6 
REMARK    4  A    between atoms: N2_13  and  C8_14 
REMARK    5  A    between atoms: C8_14  and  N3_15 
REMARK    6  A    between atoms: N3_15  and  C9_17 
REMARK    7  A    between atoms: C12_20  and  C13_21 
REMARK    8  A    between atoms: C15_28  and  O5_29 
REMARK    9  A    between atoms: C16_33  and  O6_34 
REMARK   10  A    between atoms: C17_39  and  C18_40 
REMARK   11  A    between atoms: C17_39  and  C19_43 
REMARK   12  A    between atoms: C18_40  and  O7_41 
REMARK   13  A    between atoms: C19_43  and  O8_44 
REMARK   14  A    between atoms: C20_46  and  O9_47 
ROOT
HETATM    1  C13 UNL     1      23.583   8.064 -56.103  1.00  0.00     0.254 C 
HETATM    2  N4  UNL     1      22.420   8.784 -55.548  1.00  0.00    -0.327 N 
ATOM      3  H4  UNL     1      22.232   8.562 -54.570  1.00  0.00     0.165 HD
HETATM    4  C14 UNL     1      21.592   9.637 -56.050  1.00  0.00     0.189 C 
HETATM    5  N5  UNL     1      20.589  10.079 -55.102  1.00  0.00    -0.064 NA
HETATM    6  N6  UNL     1      21.443  10.245 -57.335  1.00  0.00    -0.322 N 
ATOM      7  H6  UNL     1      20.984  11.154 -57.294  1.00  0.00     0.166 HD
HETATM    8  C15 UNL     1      21.795   9.858 -58.657  1.00  0.00     0.328 C 
HETATM    9  N7  UNL     1      22.375   8.619 -58.861  1.00  0.00    -0.325 N 
ATOM     10  H7  UNL     1      21.966   8.031 -59.588  1.00  0.00     0.162 HD
HETATM   11  C16 UNL     1      23.449   8.106 -58.174  1.00  0.00     0.323 C 
HETATM   12  N8  UNL     1      24.119   8.884 -57.205  1.00  0.00     0.009 N 
ATOM     13  H81 UNL     1      25.127   9.013 -57.283  1.00  0.00     0.286 HD
ATOM     14  H82 UNL     1      23.973   9.893 -57.191  1.00  0.00     0.286 HD
HETATM   15  C17 UNL     1      23.188   7.062 -57.119  1.00  0.00     0.137 C 
ENDROOT
BRANCH   1  16
HETATM   16  C12 UNL     1      24.622   7.771 -55.127  1.00  0.00     0.033 A 
HETATM   17  C11 UNL     1      25.641   6.897 -55.421  1.00  0.00     0.017 A 
HETATM   18  C10 UNL     1      26.653   6.589 -54.541  1.00  0.00     0.030 A 
HETATM   19  C9  UNL     1      26.647   7.187 -53.304  1.00  0.00     0.031 A 
HETATM   20  C21 UNL     1      25.657   8.055 -52.977  1.00  0.00     0.066 A 
HETATM   21  C20 UNL     1      24.631   8.363 -53.879  1.00  0.00     0.078 A 
BRANCH  19  22
HETATM   22  N3  UNL     1      27.717   6.853 -52.392  1.00  0.00    -0.372 N 
ATOM     23  H3  UNL     1      28.675   7.137 -52.596  1.00  0.00     0.161 HD
BRANCH  22  24
HETATM   24  C8  UNL     1      27.411   6.102 -51.168  1.00  0.00     0.264 C 
BRANCH  24  25
HETATM   25  N2  UNL     1      27.928   4.789 -51.308  1.00  0.00    -0.269 N 
HETATM   26  C3  UNL     1      27.621   3.847 -50.307  1.00  0.00     0.247 C 
HETATM   27  C5  UNL     1      27.923   2.509 -50.903  1.00  0.00     0.097 C 
HETATM   28  C6  UNL     1      28.167   2.821 -52.350  1.00  0.00     0.100 C 
HETATM   29  C7  UNL     1      29.600   2.491 -52.749  1.00  0.00     0.030 C 
HETATM   30  N1  UNL     1      27.983   4.215 -52.502  1.00  0.00    -0.134 NA
BRANCH  26  31
HETATM   31  O2  UNL     1      26.301   3.924 -49.798  1.00  0.00    -0.277 OA
BRANCH  31  32
HETATM   32  C2  UNL     1      25.666   2.962 -49.072  1.00  0.00     0.257 C 
HETATM   33  C1  UNL     1      25.543   1.575 -49.603  1.00  0.00     0.126 C 
HETATM   34  O1  UNL     1      25.174   3.198 -47.958  1.00  0.00    -0.266 OA
ENDBRANCH  31  32
ENDBRANCH  26  31
BRANCH  26  35
HETATM   35  C4  UNL     1      28.534   4.012 -49.121  1.00  0.00     0.233 C 
HETATM   36  O3  UNL     1      28.156   4.723 -48.179  1.00  0.00    -0.644 OA
HETATM   37  O4  UNL     1      29.742   3.381 -49.113  1.00  0.00    -0.644 OA
ENDBRANCH  26  35
ENDBRANCH  24  25
ENDBRANCH  22  24
ENDBRANCH  19  22
BRANCH  21  38
HETATM   38  O9  UNL     1      23.650   9.260 -53.480  1.00  0.00    -0.360 OA
ATOM     39  H9  UNL     1      23.847  10.168 -53.283  1.00  0.00     0.217 HD
ENDBRANCH  21  38
ENDBRANCH   1  16
BRANCH  15  40
HETATM   40  C18 UNL     1      21.785   6.517 -57.093  1.00  0.00     0.187 C 
BRANCH  40  41
HETATM   41  O7  UNL     1      21.546   5.990 -58.375  1.00  0.00    -0.400 OA
ATOM     42  H7  UNL     1      21.246   5.098 -58.243  1.00  0.00     0.209 HD
ENDBRANCH  40  41
ENDBRANCH  15  40
BRANCH  15  43
HETATM   43  C19 UNL     1      24.138   5.885 -57.178  1.00  0.00     0.187 C 
BRANCH  43  44
HETATM   44  O8  UNL     1      23.880   4.985 -58.176  1.00  0.00    -0.400 OA
ATOM     45  H8  UNL     1      23.167   4.383 -57.998  1.00  0.00     0.209 HD
ENDBRANCH  43  44
ENDBRANCH  15  43
BRANCH  11  46
HETATM   46  O6  UNL     1      24.396   7.618 -59.091  1.00  0.00    -0.348 OA
ATOM     47  H6  UNL     1      25.268   7.850 -58.795  1.00  0.00     0.214 HD
ENDBRANCH  11  46
BRANCH   8  48
HETATM   48  O5  UNL     1      22.689  10.849 -59.141  1.00  0.00    -0.360 OA
ATOM     49  H5  UNL     1      22.285  11.689 -58.959  1.00  0.00     0.214 HD
ENDBRANCH   8  48
TORSDOF 14
ENDMDL
MODEL 4
REMARK VINA RESULT: -6.264354132      1.436      2.654
REMARK  14 active torsions:
REMARK  status: ('A' for Active; 'I' for Inactive)
REMARK    1  A    between atoms: C2_2  and  O2_4 
REMARK    2  A    between atoms: O2_4  and  C3_5 
REMARK    3  A    between atoms: C3_5  and  C4_6 
REMARK    4  A    between atoms: N2_13  and  C8_14 
REMARK    5  A    between atoms: C8_14  and  N3_15 
REMARK    6  A    between atoms: N3_15  and  C9_17 
REMARK    7  A    between atoms: C12_20  and  C13_21 
REMARK    8  A    between atoms: C15_28  and  O5_29 
REMARK    9  A    between atoms: C16_33  and  O6_34 
REMARK   10  A    between atoms: C17_39  and  C18_40 
REMARK   11  A    between atoms: C17_39  and  C19_43 
REMARK   12  A    between atoms: C18_40  and  O7_41 
REMARK   13  A    between atoms: C19_43  and  O8_44 
REMARK   14  A    between atoms: C20_46  and  O9_47 
ROOT
HETATM    1  C13 UNL     1      28.290   4.041 -50.196  1.00  0.00     0.254 C 
HETATM    2  N4  UNL     1      29.675   3.636 -50.504  1.00  0.00    -0.327 N 
ATOM      3  H4  UNL     1      29.896   3.660 -51.499  1.00  0.00     0.165 HD
HETATM    4  C14 UNL     1      30.664   3.256 -49.766  1.00  0.00     0.189 C 
HETATM    5  N5  UNL     1      31.858   2.954 -50.531  1.00  0.00    -0.064 NA
HETATM    6  N6  UNL     1      30.847   3.068 -48.362  1.00  0.00    -0.322 N 
ATOM      7  H6  UNL     1      31.817   3.176 -48.068  1.00  0.00     0.166 HD
HETATM    8  C15 UNL     1      29.970   2.763 -47.284  1.00  0.00     0.328 C 
HETATM    9  N7  UNL     1      28.632   2.536 -47.553  1.00  0.00    -0.325 N 
ATOM     10  H7  UNL     1      28.219   1.691 -47.159  1.00  0.00     0.162 HD
HETATM   11  C16 UNL     1      27.810   3.343 -48.302  1.00  0.00     0.323 C 
HETATM   12  N8  UNL     1      28.283   4.567 -48.819  1.00  0.00     0.009 N 
ATOM     13  H81 UNL     1      27.769   5.424 -48.617  1.00  0.00     0.286 HD
ATOM     14  H82 UNL     1      29.138   4.970 -48.437  1.00  0.00     0.286 HD
HETATM   15  C17 UNL     1      27.471   2.910 -49.705  1.00  0.00     0.137 C 
ENDROOT
BRANCH   1  16
HETATM   16  C12 UNL     1      27.737   5.018 -51.123  1.00  0.00     0.033 A 
HETATM   17  C11 UNL     1      27.340   6.259 -50.688  1.00  0.00     0.017 A 
HETATM   18  C10 UNL     1      26.819   7.224 -51.519  1.00  0.00     0.030 A 
HETATM   19  C9  UNL     1      26.687   6.932 -52.855  1.00  0.00     0.031 A 
HETATM   20  C21 UNL     1      27.067   5.717 -53.322  1.00  0.00     0.066 A 
HETATM   21  C20 UNL     1      27.597   4.741 -52.469  1.00  0.00     0.078 A 
BRANCH  19  22
HETATM   22  N3  UNL     1      26.138   7.955 -53.714  1.00  0.00    -0.372 N 
ATOM     23  H3  UNL     1      26.718   8.391 -54.432  1.00  0.00     0.161 HD
BRANCH  22  24
HETATM   24  C8  UNL     1      24.738   8.363 -53.545  1.00  0.00     0.264 C 
BRANCH  24  25
HETATM   25  N2  UNL     1      24.009   7.941 -54.687  1.00  0.00    -0.269 N 
HETATM   26  C3  UNL     1      22.792   8.591 -54.970  1.00  0.00     0.247 C 
HETATM   27  C5  UNL     1      22.473   8.252 -56.392  1.00  0.00     0.097 C 
HETATM   28  C6  UNL     1      23.730   7.594 -56.881  1.00  0.00     0.100 C 
HETATM   29  C7  UNL     1      23.477   6.141 -57.261  1.00  0.00     0.030 C 
HETATM   30  N1  UNL     1      24.644   7.610 -55.802  1.00  0.00    -0.134 NA
BRANCH  26  31
HETATM   31  O2  UNL     1      22.790   9.988 -54.737  1.00  0.00    -0.277 OA
BRANCH  31  32
HETATM   32  C2  UNL     1      21.755  10.714 -54.231  1.00  0.00     0.257 C 
HETATM   33  C1  UNL     1      20.599  11.083 -55.096  1.00  0.00     0.126 C 
HETATM   34  O1  UNL     1      21.732  11.088 -53.049  1.00  0.00    -0.266 OA
ENDBRANCH  31  32
ENDBRANCH  26  31
BRANCH  26  35
HETATM   35  C4  UNL     1      21.677   8.028 -54.129  1.00  0.00     0.233 C 
HETATM   36  O3  UNL     1      21.861   7.908 -52.909  1.00  0.00    -0.644 OA
HETATM   37  O4  UNL     1      20.506   7.666 -54.723  1.00  0.00    -0.644 OA
ENDBRANCH  26  35
ENDBRANCH  24  25
ENDBRANCH  22  24
ENDBRANCH  19  22
BRANCH  21  38
HETATM   38  O9  UNL     1      27.967   3.519 -53.014  1.00  0.00    -0.360 OA
ATOM     39  H9  UNL     1      27.339   2.941 -53.429  1.00  0.00     0.217 HD
ENDBRANCH  21  38
ENDBRANCH   1  16
BRANCH  15  40
HETATM   40  C18 UNL     1      27.888   1.506 -50.058  1.00  0.00     0.187 C 
BRANCH  40  41
HETATM   41  O7  UNL     1      27.549   1.325 -51.411  1.00  0.00    -0.400 OA
ATOM     42  H7  UNL     1      28.290   0.886 -51.812  1.00  0.00     0.209 HD
ENDBRANCH  40  41
ENDBRANCH  15  40
BRANCH  15  43
HETATM   43  C19 UNL     1      26.006   3.055 -50.051  1.00  0.00     0.187 C 
BRANCH  43  44
HETATM   44  O8  UNL     1      25.285   1.893 -50.010  1.00  0.00    -0.400 OA
ATOM     45  H8  UNL     1      24.391   1.964 -50.325  1.00  0.00     0.209 HD
ENDBRANCH  43  44
ENDBRANCH  15  43
BRANCH  11  46
HETATM   46  O6  UNL     1      26.624   3.586 -47.588  1.00  0.00    -0.348 OA
ATOM     47  H6  UNL     1      26.111   4.240 -48.046  1.00  0.00     0.214 HD
ENDBRANCH  11  46
BRANCH   8  48
HETATM   48  O5  UNL     1      30.060   3.848 -46.373  1.00  0.00    -0.360 OA
ATOM     49  H5  UNL     1      29.191   3.966 -46.008  1.00  0.00     0.214 HD
ENDBRANCH   8  48
TORSDOF 14
ENDMDL
MODEL 5
REMARK VINA RESULT: -6.127969338      1.146      2.394
REMARK  14 active torsions:
REMARK  status: ('A' for Active; 'I' for Inactive)
REMARK    1  A    between atoms: C2_2  and  O2_4 
REMARK    2  A    between atoms: O2_4  and  C3_5 
REMARK    3  A    between atoms: C3_5  and  C4_6 
REMARK    4  A    between atoms: N2_13  and  C8_14 
REMARK    5  A    between atoms: C8_14  and  N3_15 
REMARK    6  A    between atoms: N3_15  and  C9_17 
REMARK    7  A    between atoms: C12_20  and  C13_21 
REMARK    8  A    between atoms: C15_28  and  O5_29 
REMARK    9  A    between atoms: C16_33  and  O6_34 
REMARK   10  A    between atoms: C17_39  and  C18_40 
REMARK   11  A    between atoms: C17_39  and  C19_43 
REMARK   12  A    between atoms: C18_40  and  O7_41 
REMARK   13  A    between atoms: C19_43  and  O8_44 
REMARK   14  A    between atoms: C20_46  and  O9_47 
ROOT
HETATM    1  C13 UNL     1      28.210   4.054 -50.345  1.00  0.00     0.254 C 
HETATM    2  N4  UNL     1      29.638   3.683 -50.388  1.00  0.00    -0.327 N 
ATOM      3  H4  UNL     1      30.010   3.601 -51.334  1.00  0.00     0.165 HD
HETATM    4  C14 UNL     1      30.512   3.442 -49.469  1.00  0.00     0.189 C 
HETATM    5  N5  UNL     1      31.818   3.111 -50.002  1.00  0.00    -0.064 NA
HETATM    6  N6  UNL     1      30.480   3.430 -48.041  1.00  0.00    -0.322 N 
ATOM      7  H6  UNL     1      31.389   3.619 -47.620  1.00  0.00     0.166 HD
HETATM    8  C15 UNL     1      29.456   3.213 -47.078  1.00  0.00     0.328 C 
HETATM    9  N7  UNL     1      28.184   2.890 -47.514  1.00  0.00    -0.325 N 
ATOM     10  H7  UNL     1      27.740   2.078 -47.084  1.00  0.00     0.162 HD
HETATM   11  C16 UNL     1      27.463   3.562 -48.472  1.00  0.00     0.323 C 
HETATM   12  N8  UNL     1      27.974   4.738 -49.061  1.00  0.00     0.009 N 
ATOM     13  H81 UNL     1      27.409   5.586 -49.046  1.00  0.00     0.286 HD
ATOM     14  H82 UNL     1      28.747   5.225 -48.608  1.00  0.00     0.286 HD
HETATM   15  C17 UNL     1      27.360   2.950 -49.846  1.00  0.00     0.137 C 
ENDROOT
BRANCH   1  16
HETATM   16  C12 UNL     1      27.778   4.886 -51.458  1.00  0.00     0.033 A 
HETATM   17  C11 UNL     1      27.309   6.160 -51.248  1.00  0.00     0.017 A 
HETATM   18  C10 UNL     1      26.896   6.994 -52.262  1.00  0.00     0.030 A 
HETATM   19  C9  UNL     1      26.954   6.529 -53.553  1.00  0.00     0.031 A 
HETATM   20  C21 UNL     1      27.410   5.276 -53.801  1.00  0.00     0.066 A 
HETATM   21  C20 UNL     1      27.829   4.434 -52.763  1.00  0.00     0.078 A 
BRANCH  19  22
HETATM   22  N3  UNL     1      26.516   7.416 -54.606  1.00  0.00    -0.372 N 
ATOM     23  H3  UNL     1      27.163   7.702 -55.341  1.00  0.00     0.161 HD
BRANCH  22  24
HETATM   24  C8  UNL     1      25.131   7.902 -54.609  1.00  0.00     0.264 C 
BRANCH  24  25
HETATM   25  N2  UNL     1      24.422   7.227 -55.636  1.00  0.00    -0.269 N 
HETATM   26  C3  UNL     1      23.366   7.911 -56.269  1.00  0.00     0.247 C 
HETATM   27  C5  UNL     1      23.095   7.158 -57.532  1.00  0.00     0.097 C 
HETATM   28  C6  UNL     1      24.245   6.197 -57.616  1.00  0.00     0.100 C 
HETATM   29  C7  UNL     1      23.761   4.754 -57.533  1.00  0.00     0.030 C 
HETATM   30  N1  UNL     1      25.066   6.447 -56.492  1.00  0.00    -0.134 NA
BRANCH  26  31
HETATM   31  O2  UNL     1      23.600   9.288 -56.503  1.00  0.00    -0.277 OA
BRANCH  31  32
HETATM   32  C2  UNL     1      23.254   9.979 -57.625  1.00  0.00     0.257 C 
HETATM   33  C1  UNL     1      21.926  10.647 -57.719  1.00  0.00     0.126 C 
HETATM   34  O1  UNL     1      24.019  10.077 -58.597  1.00  0.00    -0.266 OA
ENDBRANCH  31  32
ENDBRANCH  26  31
BRANCH  26  35
HETATM   35  C4  UNL     1      22.110   7.837 -55.441  1.00  0.00     0.233 C 
HETATM   36  O3  UNL     1      21.042   7.570 -56.010  1.00  0.00    -0.644 OA
HETATM   37  O4  UNL     1      22.178   8.066 -54.100  1.00  0.00    -0.644 OA
ENDBRANCH  26  35
ENDBRANCH  24  25
ENDBRANCH  22  24
ENDBRANCH  19  22
BRANCH  21  38
HETATM   38  O9  UNL     1      28.286   3.164 -53.087  1.00  0.00    -0.360 OA
ATOM     39  H9  UNL     1      27.693   2.446 -53.271  1.00  0.00     0.217 HD
ENDBRANCH  21  38
ENDBRANCH   1  16
BRANCH  15  40
HETATM   40  C18 UNL     1      27.868   1.536 -49.955  1.00  0.00     0.187 C 
BRANCH  40  41
HETATM   41  O7  UNL     1      27.743   1.178 -51.309  1.00  0.00    -0.400 OA
ATOM     42  H7  UNL     1      27.263   0.358 -51.322  1.00  0.00     0.209 HD
ENDBRANCH  40  41
ENDBRANCH  15  40
BRANCH  15  43
HETATM   43  C19 UNL     1      25.962   2.981 -50.423  1.00  0.00     0.187 C 
BRANCH  43  44
HETATM   44  O8  UNL     1      25.223   1.849 -50.210  1.00  0.00    -0.400 OA
ATOM     45  H8  UNL     1      24.290   1.994 -50.103  1.00  0.00     0.209 HD
ENDBRANCH  43  44
ENDBRANCH  15  43
BRANCH  11  46
HETATM   46  O6  UNL     1      26.174   3.829 -47.981  1.00  0.00    -0.348 OA
ATOM     47  H6  UNL     1      25.686   4.320 -48.631  1.00  0.00     0.214 HD
ENDBRANCH  11  46
BRANCH   8  48
HETATM   48  O5  UNL     1      29.371   4.401 -46.306  1.00  0.00    -0.360 OA
ATOM     49  H5  UNL     1      28.446   4.567 -46.168  1.00  0.00     0.214 HD
ENDBRANCH   8  48
TORSDOF 14
ENDMDL
