MODEL 1
REMARK VINA RESULT: -8.474793787      0.000      0.000
REMARK  14 active torsions:
REMARK  status: ('A' for Active; 'I' for Inactive)
REMARK    1  A    between atoms: S1_2  and  C2_3 
REMARK    2  A    between atoms: C3_5  and  O2_6 
REMARK    3  A    between atoms: O2_6  and  C4_7 
REMARK    4  A    between atoms: C4_7  and  C5_8 
REMARK    5  A    between atoms: C4_7  and  C6_11 
REMARK    6  A    between atoms: C6_11  and  O5_12 
REMARK    7  A    between atoms: C6_11  and  C7_14 
REMARK    8  A    between atoms: C7_14  and  O6_15 
REMARK    9  A    between atoms: C8_17  and  O7_18 
REMARK   10  A    between atoms: O7_18  and  C9_19 
REMARK   11  A    between atoms: C9_19  and  N1_20 
REMARK   12  A    between atoms: C10_28  and  N6_29 
REMARK   13  A    between atoms: C13_38  and  N10_39 
REMARK   14  A    between atoms: C15_45  and  O8_46 
ROOT
HETATM    1  C2  UNL     1      29.793   1.039 -51.478  1.00  0.00     0.216 C 
HETATM    2  O1  UNL     1      28.965   1.425 -52.497  1.00  0.00    -0.340 OA
HETATM    3  C3  UNL     1      27.687   1.766 -52.136  1.00  0.00     0.293 C 
HETATM    4  C8  UNL     1      27.651   2.806 -50.990  1.00  0.00     0.210 C 
HETATM    5  C10 UNL     1      28.414   2.145 -49.863  1.00  0.00     0.177 C 
HETATM    6  C15 UNL     1      29.843   2.051 -50.320  1.00  0.00     0.184 C 
ENDROOT
BRANCH   5   7
HETATM    7  N6  UNL     1      28.197   2.733 -48.593  1.00  0.00    -0.249 N 
HETATM    8  N7  UNL     1      26.973   3.025 -48.127  1.00  0.00    -0.238 N 
HETATM    9  N8  UNL     1      27.075   3.549 -46.935  1.00  0.00    -0.281 N 
ATOM     10  H7  UNL     1      26.098   2.864 -48.626  1.00  0.00     0.208 HD
HETATM   11  C11 UNL     1      28.366   3.625 -46.562  1.00  0.00     0.111 A 
ATOM     12  H8  UNL     1      26.287   3.857 -46.366  1.00  0.00     0.188 HD
HETATM   13  C12 UNL     1      29.036   4.075 -45.444  1.00  0.00     0.141 A 
HETATM   14  C14 UNL     1      29.059   3.087 -47.661  1.00  0.00     0.169 A 
HETATM   15  N9  UNL     1      30.377   3.987 -45.426  1.00  0.00    -0.200 N 
HETATM   16  C13 UNL     1      31.081   3.477 -46.463  1.00  0.00     0.677 A 
ATOM     17  H9  UNL     1      30.882   4.317 -44.604  1.00  0.00     0.183 HD
HETATM   18  N11 UNL     1      30.378   3.054 -47.527  1.00  0.00    -0.173 N 
ATOM     19  H11 UNL     1      30.911   2.671 -48.307  1.00  0.00     0.186 HD
BRANCH  16  20
HETATM   20  N10 UNL     1      32.385   3.396 -46.438  1.00  0.00    -0.234 N 
ATOM     21 2H10 UNL     1      32.945   4.048 -45.889  1.00  0.00     0.174 HD
ATOM     22 1H10 UNL     1      32.890   2.681 -46.963  1.00  0.00     0.174 HD
ENDBRANCH  16  20
ENDBRANCH   5   7
BRANCH   4  23
HETATM   23  O7  UNL     1      28.210   3.972 -51.421  1.00  0.00    -0.314 OA
BRANCH  23  24
HETATM   24  C9  UNL     1      27.406   5.067 -51.522  1.00  0.00     0.412 C 
HETATM   25  N2  UNL     1      26.919   5.144 -52.905  1.00  0.00    -0.044 NA
HETATM   26  N3  UNL     1      26.762   6.492 -53.200  1.00  0.00    -0.015 NA
HETATM   27  N4  UNL     1      27.242   7.197 -52.105  1.00  0.00    -0.015 NA
HETATM   28  N5  UNL     1      28.104   6.329 -51.423  1.00  0.00    -0.044 NA
BRANCH  24  29
HETATM   29  N1  UNL     1      26.274   5.050 -50.618  1.00  0.00    -0.012 N 
ATOM     30  H13 UNL     1      25.552   4.416 -50.960  1.00  0.00     0.281 HD
ATOM     31  H12 UNL     1      26.518   4.580 -49.746  1.00  0.00     0.281 HD
ATOM     32  H11 UNL     1      25.881   5.973 -50.430  1.00  0.00     0.281 HD
ENDBRANCH  24  29
ENDBRANCH  23  24
ENDBRANCH   4  23
BRANCH   6  33
HETATM   33  O8  UNL     1      30.362   3.223 -50.831  1.00  0.00    -0.390 OA
ATOM     34  H8  UNL     1      30.319   3.872 -50.138  1.00  0.00     0.210 HD
ENDBRANCH   6  33
BRANCH   3  35
HETATM   35  O2  UNL     1      26.931   0.700 -51.678  1.00  0.00    -0.340 OA
BRANCH  35  36
HETATM   36  C4  UNL     1      25.612   0.981 -51.456  1.00  0.00     0.256 C 
BRANCH  36  37
HETATM   37  C5  UNL     1      25.162   0.644 -50.082  1.00  0.00     0.206 C 
HETATM   38  O3  UNL     1      24.874   1.560 -49.271  1.00  0.00    -0.646 OA
HETATM   39  O4  UNL     1      25.055  -0.659 -49.678  1.00  0.00    -0.646 OA
ENDBRANCH  36  37
BRANCH  36  40
HETATM   40  C6  UNL     1      24.805   0.140 -52.455  1.00  0.00     0.181 C 
BRANCH  40  41
HETATM   41  O5  UNL     1      23.487   0.013 -52.075  1.00  0.00    -0.390 OA
ATOM     42  H5  UNL     1      23.375   0.129 -51.139  1.00  0.00     0.210 HD
ENDBRANCH  40  41
BRANCH  40  43
HETATM   43  C7  UNL     1      25.446  -1.230 -52.618  1.00  0.00     0.199 C 
BRANCH  43  44
HETATM   44  O6  UNL     1      24.751  -2.208 -51.930  1.00  0.00    -0.398 OA
ATOM     45  H6  UNL     1      24.962  -3.079 -52.246  1.00  0.00     0.209 HD
ENDBRANCH  43  44
ENDBRANCH  40  43
ENDBRANCH  36  40
ENDBRANCH  35  36
ENDBRANCH   3  35
BRANCH   1  46
HETATM   46  S1  UNL     1      31.430   0.647 -52.077  1.00  0.00    -0.139 SA
HETATM   47  C1  UNL     1      32.541   0.093 -50.765  1.00  0.00     0.092 C 
ENDBRANCH   1  46
TORSDOF 14
ENDMDL
MODEL 2
REMARK VINA RESULT: -8.424032225      2.866      4.930
REMARK  14 active torsions:
REMARK  status: ('A' for Active; 'I' for Inactive)
REMARK    1  A    between atoms: S1_2  and  C2_3 
REMARK    2  A    between atoms: C3_5  and  O2_6 
REMARK    3  A    between atoms: O2_6  and  C4_7 
REMARK    4  A    between atoms: C4_7  and  C5_8 
REMARK    5  A    between atoms: C4_7  and  C6_11 
REMARK    6  A    between atoms: C6_11  and  O5_12 
REMARK    7  A    between atoms: C6_11  and  C7_14 
REMARK    8  A    between atoms: C7_14  and  O6_15 
REMARK    9  A    between atoms: C8_17  and  O7_18 
REMARK   10  A    between atoms: O7_18  and  C9_19 
REMARK   11  A    between atoms: C9_19  and  N1_20 
REMARK   12  A    between atoms: C10_28  and  N6_29 
REMARK   13  A    between atoms: C13_38  and  N10_39 
REMARK   14  A    between atoms: C15_45  and  O8_46 
ROOT
HETATM    1  C2  UNL     1      27.526   3.210 -51.683  1.00  0.00     0.216 C 
HETATM    2  O1  UNL     1      26.932   3.053 -50.461  1.00  0.00    -0.340 OA
HETATM    3  C3  UNL     1      27.226   1.890 -49.796  1.00  0.00     0.293 C 
HETATM    4  C8  UNL     1      28.749   1.635 -49.692  1.00  0.00     0.210 C 
HETATM    5  C10 UNL     1      29.223   1.616 -51.128  1.00  0.00     0.177 C 
HETATM    6  C15 UNL     1      29.052   3.016 -51.647  1.00  0.00     0.184 C 
ENDROOT
BRANCH   5   7
HETATM    7  N6  UNL     1      30.500   1.029 -51.310  1.00  0.00    -0.249 N 
HETATM    8  N7  UNL     1      31.136   1.025 -52.493  1.00  0.00    -0.238 N 
HETATM    9  N8  UNL     1      32.289   0.427 -52.364  1.00  0.00    -0.281 N 
ATOM     10  H7  UNL     1      30.774   1.427 -53.357  1.00  0.00     0.208 HD
HETATM   11  C11 UNL     1      32.465   0.011 -51.096  1.00  0.00     0.111 A 
ATOM     12  H8  UNL     1      32.962   0.293 -53.118  1.00  0.00     0.188 HD
HETATM   13  C12 UNL     1      33.464  -0.653 -50.414  1.00  0.00     0.141 A 
HETATM   14  C14 UNL     1      31.287   0.420 -50.447  1.00  0.00     0.169 A 
HETATM   15  N9  UNL     1      33.285  -0.903 -49.106  1.00  0.00    -0.200 N 
HETATM   16  C13 UNL     1      32.166  -0.527 -48.446  1.00  0.00     0.677 A 
ATOM     17  H9  UNL     1      34.018  -1.393 -48.593  1.00  0.00     0.183 HD
HETATM   18  N11 UNL     1      31.226   0.116 -49.157  1.00  0.00    -0.173 N 
ATOM     19  H11 UNL     1      30.383   0.399 -48.657  1.00  0.00     0.186 HD
BRANCH  16  20
HETATM   20  N10 UNL     1      31.999  -0.774 -47.173  1.00  0.00    -0.234 N 
ATOM     21 2H10 UNL     1      32.481  -0.224 -46.461  1.00  0.00     0.174 HD
ATOM     22 1H10 UNL     1      31.386  -1.520 -46.845  1.00  0.00     0.174 HD
ENDBRANCH  16  20
ENDBRANCH   5   7
BRANCH   4  23
HETATM   23  O7  UNL     1      29.321   2.616 -48.937  1.00  0.00    -0.314 OA
BRANCH  23  24
HETATM   24  C9  UNL     1      29.439   2.404 -47.598  1.00  0.00     0.412 C 
HETATM   25  N2  UNL     1      30.827   2.696 -47.215  1.00  0.00    -0.044 NA
HETATM   26  N3  UNL     1      31.138   1.850 -46.158  1.00  0.00    -0.015 NA
HETATM   27  N4  UNL     1      30.047   1.008 -45.990  1.00  0.00    -0.015 NA
HETATM   28  N5  UNL     1      29.350   1.016 -47.204  1.00  0.00    -0.044 NA
BRANCH  24  29
HETATM   29  N1  UNL     1      28.543   3.209 -46.794  1.00  0.00    -0.012 N 
ATOM     30  H13 UNL     1      29.023   3.561 -45.965  1.00  0.00     0.281 HD
ATOM     31  H12 UNL     1      28.337   4.093 -47.261  1.00  0.00     0.281 HD
ATOM     32  H11 UNL     1      27.680   2.733 -46.532  1.00  0.00     0.281 HD
ENDBRANCH  24  29
ENDBRANCH  23  24
ENDBRANCH   4  23
BRANCH   6  33
HETATM   33  O8  UNL     1      29.564   4.001 -50.826  1.00  0.00    -0.390 OA
ATOM     34  H8  UNL     1      30.504   3.867 -50.785  1.00  0.00     0.210 HD
ENDBRANCH   6  33
BRANCH   3  35
HETATM   35  O2  UNL     1      26.711   0.755 -50.399  1.00  0.00    -0.340 OA
BRANCH  35  36
HETATM   36  C4  UNL     1      25.347   0.708 -50.474  1.00  0.00     0.256 C 
BRANCH  36  37
HETATM   37  C5  UNL     1      24.781  -0.607 -50.084  1.00  0.00     0.206 C 
HETATM   38  O3  UNL     1      23.945  -0.681 -49.146  1.00  0.00    -0.646 OA
HETATM   39  O4  UNL     1      25.155  -1.752 -50.731  1.00  0.00    -0.646 OA
ENDBRANCH  36  37
BRANCH  36  40
HETATM   40  C6  UNL     1      24.973   0.988 -51.936  1.00  0.00     0.181 C 
BRANCH  40  41
HETATM   41  O5  UNL     1      23.689   0.580 -52.226  1.00  0.00    -0.390 OA
ATOM     42  H5  UNL     1      23.601   0.303 -53.131  1.00  0.00     0.210 HD
ENDBRANCH  40  41
BRANCH  40  43
HETATM   43  C7  UNL     1      25.968   0.311 -52.865  1.00  0.00     0.199 C 
BRANCH  43  44
HETATM   44  O6  UNL     1      25.523  -0.931 -53.280  1.00  0.00    -0.398 OA
ATOM     45  H6  UNL     1      26.242  -1.492 -53.548  1.00  0.00     0.209 HD
ENDBRANCH  43  44
ENDBRANCH  40  43
ENDBRANCH  36  40
ENDBRANCH  35  36
ENDBRANCH   3  35
BRANCH   1  46
HETATM   46  S1  UNL     1      27.083   4.772 -52.430  1.00  0.00    -0.139 SA
HETATM   47  C1  UNL     1      27.219   6.160 -51.281  1.00  0.00     0.092 C 
ENDBRANCH   1  46
TORSDOF 14
ENDMDL
MODEL 3
REMARK VINA RESULT: -8.190334127      2.768      6.021
REMARK  14 active torsions:
REMARK  status: ('A' for Active; 'I' for Inactive)
REMARK    1  A    between atoms: S1_2  and  C2_3 
REMARK    2  A    between atoms: C3_5  and  O2_6 
REMARK    3  A    between atoms: O2_6  and  C4_7 
REMARK    4  A    between atoms: C4_7  and  C5_8 
REMARK    5  A    between atoms: C4_7  and  C6_11 
REMARK    6  A    between atoms: C6_11  and  O5_12 
REMARK    7  A    between atoms: C6_11  and  C7_14 
REMARK    8  A    between atoms: C7_14  and  O6_15 
REMARK    9  A    between atoms: C8_17  and  O7_18 
REMARK   10  A    between atoms: O7_18  and  C9_19 
REMARK   11  A    between atoms: C9_19  and  N1_20 
REMARK   12  A    between atoms: C10_28  and  N6_29 
REMARK   13  A    between atoms: C13_38  and  N10_39 
REMARK   14  A    between atoms: C15_45  and  O8_46 
ROOT
HETATM    1  C2  UNL     1      31.058   1.149 -49.921  1.00  0.00     0.216 C 
HETATM    2  O1  UNL     1      30.251   0.833 -48.861  1.00  0.00    -0.340 OA
HETATM    3  C3  UNL     1      29.304   1.766 -48.528  1.00  0.00     0.293 C 
HETATM    4  C8  UNL     1      28.451   2.206 -49.742  1.00  0.00     0.210 C 
HETATM    5  C10 UNL     1      29.462   2.735 -50.736  1.00  0.00     0.177 C 
HETATM    6  C15 UNL     1      30.274   1.552 -51.182  1.00  0.00     0.184 C 
ENDROOT
BRANCH   5   7
HETATM    7  N6  UNL     1      28.902   3.536 -51.762  1.00  0.00    -0.249 N 
HETATM    8  N7  UNL     1      28.955   3.195 -53.060  1.00  0.00    -0.238 N 
HETATM    9  N8  UNL     1      28.356   4.110 -53.774  1.00  0.00    -0.281 N 
ATOM     10  H7  UNL     1      29.395   2.354 -53.431  1.00  0.00     0.208 HD
HETATM   11  C11 UNL     1      27.882   5.090 -52.983  1.00  0.00     0.111 A 
ATOM     12  H8  UNL     1      28.261   4.085 -54.789  1.00  0.00     0.188 HD
HETATM   13  C12 UNL     1      27.187   6.264 -53.190  1.00  0.00     0.141 A 
HETATM   14  C14 UNL     1      28.254   4.681 -51.690  1.00  0.00     0.169 A 
HETATM   15  N9  UNL     1      26.872   7.015 -52.120  1.00  0.00    -0.200 N 
HETATM   16  C13 UNL     1      27.213   6.657 -50.861  1.00  0.00     0.677 A 
ATOM     17  H9  UNL     1      26.358   7.884 -52.263  1.00  0.00     0.183 HD
HETATM   18  N11 UNL     1      27.888   5.505 -50.717  1.00  0.00    -0.173 N 
ATOM     19  H11 UNL     1      28.145   5.237 -49.767  1.00  0.00     0.186 HD
BRANCH  16  20
HETATM   20  N10 UNL     1      26.903   7.393 -49.826  1.00  0.00    -0.234 N 
ATOM     21 2H10 UNL     1      25.983   7.824 -49.743  1.00  0.00     0.174 HD
ATOM     22 1H10 UNL     1      27.564   7.561 -49.068  1.00  0.00     0.174 HD
ENDBRANCH  16  20
ENDBRANCH   5   7
BRANCH   4  23
HETATM   23  O7  UNL     1      27.736   1.140 -50.201  1.00  0.00    -0.314 OA
BRANCH  23  24
HETATM   24  C9  UNL     1      26.471   1.365 -50.652  1.00  0.00     0.412 C 
HETATM   25  N2  UNL     1      25.626   0.251 -50.205  1.00  0.00    -0.044 NA
HETATM   26  N3  UNL     1      24.651   0.071 -51.177  1.00  0.00    -0.015 NA
HETATM   27  N4  UNL     1      24.959   0.942 -52.214  1.00  0.00    -0.015 NA
HETATM   28  N5  UNL     1      26.320   1.244 -52.085  1.00  0.00    -0.044 NA
BRANCH  24  29
HETATM   29  N1  UNL     1      25.897   2.613 -50.193  1.00  0.00    -0.012 N 
ATOM     30  H13 UNL     1      26.227   2.837 -49.255  1.00  0.00     0.281 HD
ATOM     31  H12 UNL     1      26.293   3.401 -50.707  1.00  0.00     0.281 HD
ATOM     32  H11 UNL     1      24.877   2.638 -50.229  1.00  0.00     0.281 HD
ENDBRANCH  24  29
ENDBRANCH  23  24
ENDBRANCH   4  23
BRANCH   6  33
HETATM   33  O8  UNL     1      29.530   0.453 -51.562  1.00  0.00    -0.390 OA
ATOM     34  H8  UNL     1      28.630   0.745 -51.653  1.00  0.00     0.210 HD
ENDBRANCH   6  33
BRANCH   3  35
HETATM   35  O2  UNL     1      29.831   2.940 -48.015  1.00  0.00    -0.340 OA
BRANCH  35  36
HETATM   36  C4  UNL     1      29.703   3.088 -46.662  1.00  0.00     0.256 C 
BRANCH  36  37
HETATM   37  C5  UNL     1      28.910   4.281 -46.274  1.00  0.00     0.206 C 
HETATM   38  O3  UNL     1      28.691   5.193 -47.112  1.00  0.00    -0.646 OA
HETATM   39  O4  UNL     1      28.408   4.409 -45.008  1.00  0.00    -0.646 OA
ENDBRANCH  36  37
BRANCH  36  40
HETATM   40  C6  UNL     1      31.122   3.238 -46.096  1.00  0.00     0.181 C 
BRANCH  40  41
HETATM   41  O5  UNL     1      31.232   4.332 -45.266  1.00  0.00    -0.390 OA
ATOM     42  H5  UNL     1      32.133   4.498 -45.016  1.00  0.00     0.210 HD
ENDBRANCH  40  41
BRANCH  40  43
HETATM   43  C7  UNL     1      32.128   3.330 -47.233  1.00  0.00     0.199 C 
BRANCH  43  44
HETATM   44  O6  UNL     1      32.724   2.110 -47.494  1.00  0.00    -0.398 OA
ATOM     45  H6  UNL     1      33.665   2.191 -47.595  1.00  0.00     0.209 HD
ENDBRANCH  43  44
ENDBRANCH  40  43
ENDBRANCH  36  40
ENDBRANCH  35  36
ENDBRANCH   3  35
BRANCH   1  46
HETATM   46  S1  UNL     1      32.226  -0.158 -50.266  1.00  0.00    -0.139 SA
HETATM   47  C1  UNL     1      32.879  -0.086 -51.948  1.00  0.00     0.092 C 
ENDBRANCH   1  46
TORSDOF 14
ENDMDL
MODEL 4
REMARK VINA RESULT: -8.051907092      2.230      6.246
REMARK  14 active torsions:
REMARK  status: ('A' for Active; 'I' for Inactive)
REMARK    1  A    between atoms: S1_2  and  C2_3 
REMARK    2  A    between atoms: C3_5  and  O2_6 
REMARK    3  A    between atoms: O2_6  and  C4_7 
REMARK    4  A    between atoms: C4_7  and  C5_8 
REMARK    5  A    between atoms: C4_7  and  C6_11 
REMARK    6  A    between atoms: C6_11  and  O5_12 
REMARK    7  A    between atoms: C6_11  and  C7_14 
REMARK    8  A    between atoms: C7_14  and  O6_15 
REMARK    9  A    between atoms: C8_17  and  O7_18 
REMARK   10  A    between atoms: O7_18  and  C9_19 
REMARK   11  A    between atoms: C9_19  and  N1_20 
REMARK   12  A    between atoms: C10_28  and  N6_29 
REMARK   13  A    between atoms: C13_38  and  N10_39 
REMARK   14  A    between atoms: C15_45  and  O8_46 
ROOT
HETATM    1  C2  UNL     1      26.892   1.368 -50.762  1.00  0.00     0.216 C 
HETATM    2  O1  UNL     1      27.917   0.893 -49.990  1.00  0.00    -0.340 OA
HETATM    3  C3  UNL     1      28.992   1.730 -49.837  1.00  0.00     0.293 C 
HETATM    4  C8  UNL     1      28.579   3.148 -49.372  1.00  0.00     0.210 C 
HETATM    5  C10 UNL     1      27.619   3.626 -50.439  1.00  0.00     0.177 C 
HETATM    6  C15 UNL     1      26.397   2.758 -50.326  1.00  0.00     0.184 C 
ENDROOT
BRANCH   5   7
HETATM    7  N6  UNL     1      27.399   5.026 -50.436  1.00  0.00    -0.249 N 
HETATM    8  N7  UNL     1      27.347   5.751 -49.307  1.00  0.00    -0.238 N 
HETATM    9  N8  UNL     1      27.140   7.004 -49.606  1.00  0.00    -0.281 N 
ATOM     10  H7  UNL     1      27.452   5.380 -48.363  1.00  0.00     0.208 HD
HETATM   11  C11 UNL     1      27.048   7.163 -50.939  1.00  0.00     0.111 A 
ATOM     12  H8  UNL     1      27.060   7.758 -48.924  1.00  0.00     0.188 HD
HETATM   13  C12 UNL     1      26.843   8.233 -51.785  1.00  0.00     0.141 A 
HETATM   14  C14 UNL     1      27.221   5.861 -51.440  1.00  0.00     0.169 A 
HETATM   15  N9  UNL     1      26.812   8.002 -53.109  1.00  0.00    -0.200 N 
HETATM   16  C13 UNL     1      26.973   6.765 -53.629  1.00  0.00     0.677 A 
ATOM     17  H9  UNL     1      26.661   8.787 -53.742  1.00  0.00     0.183 HD
HETATM   18  N11 UNL     1      27.169   5.759 -52.761  1.00  0.00    -0.173 N 
ATOM     19  H11 UNL     1      27.290   4.826 -53.156  1.00  0.00     0.186 HD
BRANCH  16  20
HETATM   20  N10 UNL     1      26.942   6.548 -54.919  1.00  0.00    -0.234 N 
ATOM     21 2H10 UNL     1      27.586   7.024 -55.549  1.00  0.00     0.174 HD
ATOM     22 1H10 UNL     1      26.276   5.899 -55.339  1.00  0.00     0.174 HD
ENDBRANCH  16  20
ENDBRANCH   5   7
BRANCH   4  23
HETATM   23  O7  UNL     1      28.024   3.071 -48.129  1.00  0.00    -0.314 OA
BRANCH  23  24
HETATM   24  C9  UNL     1      28.856   3.137 -47.053  1.00  0.00     0.412 C 
HETATM   25  N2  UNL     1      28.121   3.774 -45.952  1.00  0.00    -0.044 NA
HETATM   26  N3  UNL     1      29.054   4.476 -45.200  1.00  0.00    -0.015 NA
HETATM   27  N4  UNL     1      30.264   4.375 -45.874  1.00  0.00    -0.015 NA
HETATM   28  N5  UNL     1      29.951   4.068 -47.204  1.00  0.00    -0.044 NA
BRANCH  24  29
HETATM   29  N1  UNL     1      29.353   1.850 -46.613  1.00  0.00    -0.012 N 
ATOM     30  H13 UNL     1      29.134   1.698 -45.628  1.00  0.00     0.281 HD
ATOM     31  H12 UNL     1      28.807   1.094 -47.028  1.00  0.00     0.281 HD
ATOM     32  H11 UNL     1      30.348   1.709 -46.784  1.00  0.00     0.281 HD
ENDBRANCH  24  29
ENDBRANCH  23  24
ENDBRANCH   4  23
BRANCH   6  33
HETATM   33  O8  UNL     1      25.901   2.626 -49.044  1.00  0.00    -0.390 OA
ATOM     34  H8  UNL     1      26.387   3.230 -48.495  1.00  0.00     0.210 HD
ENDBRANCH   6  33
BRANCH   3  35
HETATM   35  O2  UNL     1      29.715   1.931 -51.001  1.00  0.00    -0.340 OA
BRANCH  35  36
HETATM   36  C4  UNL     1      31.043   1.619 -50.917  1.00  0.00     0.256 C 
BRANCH  36  37
HETATM   37  C5  UNL     1      31.450   0.524 -51.831  1.00  0.00     0.206 C 
HETATM   38  O3  UNL     1      30.675  -0.445 -52.039  1.00  0.00    -0.646 OA
HETATM   39  O4  UNL     1      32.666   0.548 -52.458  1.00  0.00    -0.646 OA
ENDBRANCH  36  37
BRANCH  36  40
HETATM   40  C6  UNL     1      31.303   1.172 -49.471  1.00  0.00     0.181 C 
BRANCH  40  41
HETATM   41  O5  UNL     1      31.782   2.203 -48.692  1.00  0.00    -0.390 OA
ATOM     42  H5  UNL     1      32.292   1.884 -47.957  1.00  0.00     0.210 HD
ENDBRANCH  40  41
BRANCH  40  43
HETATM   43  C7  UNL     1      32.273   0.000 -49.456  1.00  0.00     0.199 C 
BRANCH  43  44
HETATM   44  O6  UNL     1      31.652  -1.177 -49.084  1.00  0.00    -0.398 OA
ATOM     45  H6  UNL     1      32.280  -1.845 -48.835  1.00  0.00     0.209 HD
ENDBRANCH  43  44
ENDBRANCH  40  43
ENDBRANCH  36  40
ENDBRANCH  35  36
ENDBRANCH   3  35
BRANCH   1  46
HETATM   46  S1  UNL     1      25.548   0.195 -50.858  1.00  0.00    -0.139 SA
HETATM   47  C1  UNL     1      25.481  -0.662 -52.447  1.00  0.00     0.092 C 
ENDBRANCH   1  46
TORSDOF 14
ENDMDL
MODEL 5
REMARK VINA RESULT: -7.950791273      2.870      5.400
REMARK  14 active torsions:
REMARK  status: ('A' for Active; 'I' for Inactive)
REMARK    1  A    between atoms: S1_2  and  C2_3 
REMARK    2  A    between atoms: C3_5  and  O2_6 
REMARK    3  A    between atoms: O2_6  and  C4_7 
REMARK    4  A    between atoms: C4_7  and  C5_8 
REMARK    5  A    between atoms: C4_7  and  C6_11 
REMARK    6  A    between atoms: C6_11  and  O5_12 
REMARK    7  A    between atoms: C6_11  and  C7_14 
REMARK    8  A    between atoms: C7_14  and  O6_15 
REMARK    9  A    between atoms: C8_17  and  O7_18 
REMARK   10  A    between atoms: O7_18  and  C9_19 
REMARK   11  A    between atoms: C9_19  and  N1_20 
REMARK   12  A    between atoms: C10_28  and  N6_29 
REMARK   13  A    between atoms: C13_38  and  N10_39 
REMARK   14  A    between atoms: C15_45  and  O8_46 
ROOT
HETATM    1  C2  UNL     1      25.812   0.784 -50.131  1.00  0.00     0.216 C 
HETATM    2  O1  UNL     1      25.450   2.078 -49.869  1.00  0.00    -0.340 OA
HETATM    3  C3  UNL     1      26.475   2.943 -49.588  1.00  0.00     0.293 C 
HETATM    4  C8  UNL     1      27.596   2.902 -50.655  1.00  0.00     0.210 C 
HETATM    5  C10 UNL     1      28.044   1.458 -50.670  1.00  0.00     0.177 C 
HETATM    6  C15 UNL     1      26.893   0.665 -51.220  1.00  0.00     0.184 C 
ENDROOT
BRANCH   5   7
HETATM    7  N6  UNL     1      29.303   1.248 -51.286  1.00  0.00    -0.249 N 
HETATM    8  N7  UNL     1      29.565   1.619 -52.549  1.00  0.00    -0.238 N 
HETATM    9  N8  UNL     1      30.798   1.309 -52.846  1.00  0.00    -0.281 N 
ATOM     10  H7  UNL     1      28.903   2.071 -53.179  1.00  0.00     0.208 HD
HETATM   11  C11 UNL     1      31.403   0.724 -51.796  1.00  0.00     0.111 A 
ATOM     12  H8  UNL     1      31.241   1.487 -53.747  1.00  0.00     0.188 HD
HETATM   13  C12 UNL     1      32.661   0.212 -51.553  1.00  0.00     0.141 A 
HETATM   14  C14 UNL     1      30.404   0.703 -50.807  1.00  0.00     0.169 A 
HETATM   15  N9  UNL     1      32.913  -0.310 -50.340  1.00  0.00    -0.200 N 
HETATM   16  C13 UNL     1      31.978  -0.350 -49.363  1.00  0.00     0.677 A 
ATOM     17  H9  UNL     1      33.840  -0.691 -50.151  1.00  0.00     0.183 HD
HETATM   18  N11 UNL     1      30.771   0.162 -49.654  1.00  0.00    -0.173 N 
ATOM     19  H11 UNL     1      30.068   0.131 -48.915  1.00  0.00     0.186 HD
BRANCH  16  20
HETATM   20  N10 UNL     1      32.231  -0.860 -48.186  1.00  0.00    -0.234 N 
ATOM     21 2H10 UNL     1      32.662  -1.779 -48.091  1.00  0.00     0.174 HD
ATOM     22 1H10 UNL     1      32.008  -0.362 -47.324  1.00  0.00     0.174 HD
ENDBRANCH  16  20
ENDBRANCH   5   7
BRANCH   4  23
HETATM   23  O7  UNL     1      27.099   3.336 -51.848  1.00  0.00    -0.314 OA
BRANCH  23  24
HETATM   24  C9  UNL     1      27.536   4.533 -52.326  1.00  0.00     0.412 C 
HETATM   25  N2  UNL     1      27.678   5.450 -51.187  1.00  0.00    -0.044 NA
HETATM   26  N3  UNL     1      27.399   6.725 -51.661  1.00  0.00    -0.015 NA
HETATM   27  N4  UNL     1      26.990   6.578 -52.980  1.00  0.00    -0.015 NA
HETATM   28  N5  UNL     1      26.561   5.252 -53.115  1.00  0.00    -0.044 NA
BRANCH  24  29
HETATM   29  N1  UNL     1      28.796   4.458 -53.037  1.00  0.00    -0.012 N 
ATOM     30  H13 UNL     1      29.503   5.028 -52.575  1.00  0.00     0.281 HD
ATOM     31  H12 UNL     1      29.217   3.536 -52.924  1.00  0.00     0.281 HD
ATOM     32  H11 UNL     1      28.728   4.702 -54.026  1.00  0.00     0.281 HD
ENDBRANCH  24  29
ENDBRANCH  23  24
ENDBRANCH   4  23
BRANCH   6  33
HETATM   33  O8  UNL     1      26.350   1.169 -52.384  1.00  0.00    -0.390 OA
ATOM     34  H8  UNL     1      26.678   2.056 -52.482  1.00  0.00     0.210 HD
ENDBRANCH   6  33
BRANCH   3  35
HETATM   35  O2  UNL     1      27.113   2.683 -48.387  1.00  0.00    -0.340 OA
BRANCH  35  36
HETATM   36  C4  UNL     1      28.291   3.351 -48.202  1.00  0.00     0.256 C 
BRANCH  36  37
HETATM   37  C5  UNL     1      29.416   2.465 -47.814  1.00  0.00     0.206 C 
HETATM   38  O3  UNL     1      29.194   1.274 -47.476  1.00  0.00    -0.646 OA
HETATM   39  O4  UNL     1      30.705   2.924 -47.816  1.00  0.00    -0.646 OA
ENDBRANCH  36  37
BRANCH  36  40
HETATM   40  C6  UNL     1      28.054   4.364 -47.072  1.00  0.00     0.181 C 
BRANCH  40  41
HETATM   41  O5  UNL     1      28.983   5.381 -47.089  1.00  0.00    -0.390 OA
ATOM     42  H5  UNL     1      28.877   5.946 -47.845  1.00  0.00     0.210 HD
ENDBRANCH  40  41
BRANCH  40  43
HETATM   43  C7  UNL     1      28.067   3.654 -45.727  1.00  0.00     0.199 C 
BRANCH  43  44
HETATM   44  O6  UNL     1      28.932   4.259 -44.834  1.00  0.00    -0.398 OA
ATOM     45  H6  UNL     1      28.813   3.932 -43.950  1.00  0.00     0.209 HD
ENDBRANCH  43  44
ENDBRANCH  40  43
ENDBRANCH  36  40
ENDBRANCH  35  36
ENDBRANCH   3  35
BRANCH   1  46
HETATM   46  S1  UNL     1      24.389  -0.230 -50.507  1.00  0.00    -0.139 SA
HETATM   47  C1  UNL     1      24.728  -1.466 -51.779  1.00  0.00     0.092 C 
ENDBRANCH   1  46
TORSDOF 14
ENDMDL
