MODEL 1
REMARK VINA RESULT: -9.769360569      0.000      0.000
REMARK  16 active torsions:
REMARK  status: ('A' for Active; 'I' for Inactive)
REMARK    1  A    between atoms: C1_4  and  O1_6 
REMARK    2  A    between atoms: O1_6  and  N3_7 
REMARK    3  A    between atoms: C2_9  and  C3_11 
REMARK    4  A    between atoms: C3_11  and  C4_12 
REMARK    5  A    between atoms: C4_12  and  N5_13 
REMARK    6  A    between atoms: C4_12  and  C5_17 
REMARK       I    between atoms: C5_17  and  N6_19 
REMARK       I    between atoms: N6_19  and  C6_21 
REMARK    7  A    between atoms: C6_21  and  C7_23 
REMARK    8  A    between atoms: C7_23  and  O4_24 
REMARK    9  A    between atoms: O4_24  and  C8_25 
REMARK   10  A    between atoms: C9_26  and  N7_27 
REMARK   11  A    between atoms: C10_31  and  O5_32 
REMARK   12  A    between atoms: C11_34  and  O6_35 
REMARK   13  A    between atoms: C12_37  and  S1_38 
REMARK   14  A    between atoms: C14_42  and  O8_43 
REMARK   15  A    between atoms: C15_45  and  N8_46 
REMARK   16  A    between atoms: C16_50  and  O9_51 
ROOT
HETATM    1  C8  UNL     1      30.248   2.043 -49.639  1.00  0.00     0.193 C 
HETATM    2  C9  UNL     1      31.459   1.525 -50.339  1.00  0.00     0.246 C 
HETATM    3  C10 UNL     1      32.519   0.967 -49.468  1.00  0.00     0.181 C 
HETATM    4  C11 UNL     1      32.027   0.070 -48.369  1.00  0.00     0.166 C 
HETATM    5  C12 UNL     1      30.705   0.459 -47.816  1.00  0.00     0.131 C 
HETATM    6  C13 UNL     1      30.290   1.867 -48.136  1.00  0.00     0.135 C 
HETATM    7  O7  UNL     1      29.000   2.025 -47.682  1.00  0.00    -0.342 OA
HETATM    8  C14 UNL     1      28.902   3.106 -46.883  1.00  0.00     0.291 C 
HETATM    9  C15 UNL     1      30.167   3.891 -46.910  1.00  0.00     0.269 C 
HETATM   10  C16 UNL     1      31.147   2.920 -47.522  1.00  0.00     0.192 C 
ENDROOT
BRANCH   1  11
HETATM   11  O4  UNL     1      29.144   1.351 -50.137  1.00  0.00    -0.371 OA
BRANCH  11  12
HETATM   12  C7  UNL     1      28.054   2.199 -50.327  1.00  0.00     0.271 C 
BRANCH  12  13
HETATM   13  C6  UNL     1      26.835   1.378 -50.651  1.00  0.00     0.247 C 
HETATM   14  N6  UNL     1      26.712   0.766 -51.902  1.00  0.00    -0.294 N 
HETATM   15  C5  UNL     1      25.657  -0.020 -52.358  1.00  0.00     0.255 C 
ATOM     16  H6  UNL     1      27.482   0.912 -52.555  1.00  0.00     0.171 HD
HETATM   17  O2  UNL     1      25.789  -0.557 -53.521  1.00  0.00    -0.271 OA
HETATM   18  O3  UNL     1      25.976   1.282 -49.766  1.00  0.00    -0.271 OA
BRANCH  15  19
HETATM   19  C4  UNL     1      24.429  -0.261 -51.594  1.00  0.00     0.281 C 
BRANCH  19  20
HETATM   20  C3  UNL     1      24.049  -1.726 -51.523  1.00  0.00     0.117 C 
BRANCH  20  21
HETATM   21  C2  UNL     1      23.643  -2.178 -50.188  1.00  0.00     0.116 C 
HETATM   22  N3  UNL     1      22.414  -2.051 -49.823  1.00  0.00    -0.248 N 
ATOM     23  H3  UNL     1      21.749  -1.633 -50.473  1.00  0.00     0.196 HD
HETATM   24  N4  UNL     1      24.557  -2.761 -49.270  1.00  0.00    -0.086 NA
BRANCH  22  25
HETATM   25  O1  UNL     1      21.966  -2.461 -48.583  1.00  0.00    -0.203 OA
BRANCH  25  26
HETATM   26  C1  UNL     1      20.826  -3.267 -48.441  1.00  0.00     0.249 C 
HETATM   27  N1  UNL     1      19.820  -2.786 -47.796  1.00  0.00    -0.366 N 
ATOM     28  H12 UNL     1      18.992  -3.372 -47.692  1.00  0.00     0.159 HD
ATOM     29  H11 UNL     1      19.850  -1.846 -47.400  1.00  0.00     0.159 HD
HETATM   30  N2  UNL     1      20.785  -4.572 -48.990  1.00  0.00    -0.055 NA
ENDBRANCH  25  26
ENDBRANCH  22  25
ENDBRANCH  20  21
ENDBRANCH  19  20
BRANCH  19  31
HETATM   31  N5  UNL     1      23.343   0.548 -52.068  1.00  0.00    -0.066 N 
ATOM     32  H53 UNL     1      22.509  -0.013 -52.241  1.00  0.00     0.275 HD
ATOM     33  H52 UNL     1      22.979   1.150 -51.330  1.00  0.00     0.275 HD
ATOM     34  H51 UNL     1      23.605   1.087 -52.892  1.00  0.00     0.275 HD
ENDBRANCH  19  31
ENDBRANCH  15  19
ENDBRANCH  12  13
ENDBRANCH  11  12
ENDBRANCH   1  11
BRANCH   2  35
HETATM   35  N7  UNL     1      31.123   0.520 -51.359  1.00  0.00    -0.070 N 
ATOM     36  H73 UNL     1      31.080  -0.416 -50.955  1.00  0.00     0.274 HD
ATOM     37  H72 UNL     1      30.152   0.611 -51.661  1.00  0.00     0.274 HD
ATOM     38  H71 UNL     1      31.761   0.552 -52.154  1.00  0.00     0.274 HD
ENDBRANCH   2  35
BRANCH   3  39
HETATM   39  O5  UNL     1      33.361   0.170 -50.281  1.00  0.00    -0.391 OA
ATOM     40  H5  UNL     1      33.512  -0.647 -49.821  1.00  0.00     0.210 HD
ENDBRANCH   3  39
BRANCH   5  41
HETATM   41  S1  UNL     1      30.667   0.139 -46.045  1.00  0.00    -0.074 SA
HETATM   42  S2  UNL     1      31.541  -1.745 -45.574  1.00  0.00    -0.013 SA
ENDBRANCH   5  41
BRANCH  10  43
HETATM   43  O9  UNL     1      31.985   2.478 -46.523  1.00  0.00    -0.390 OA
ATOM     44  H9  UNL     1      32.013   3.029 -45.751  1.00  0.00     0.210 HD
ENDBRANCH  10  43
BRANCH   4  45
HETATM   45  O6  UNL     1      31.948  -1.246 -48.829  1.00  0.00    -0.392 OA
ATOM     46  H6  UNL     1      32.373  -1.830 -48.213  1.00  0.00     0.210 HD
ENDBRANCH   4  45
BRANCH   8  47
HETATM   47  O8  UNL     1      28.497   2.724 -45.617  1.00  0.00    -0.369 OA
ATOM     48  H8  UNL     1      28.654   3.428 -44.999  1.00  0.00     0.212 HD
ENDBRANCH   8  47
BRANCH   9  49
HETATM   49  N8  UNL     1      30.550   4.306 -45.575  1.00  0.00    -0.068 N 
ATOM     50  H83 UNL     1      31.280   5.019 -45.599  1.00  0.00     0.275 HD
ATOM     51  H82 UNL     1      29.815   4.851 -45.126  1.00  0.00     0.275 HD
ATOM     52  H81 UNL     1      30.825   3.505 -45.007  1.00  0.00     0.275 HD
ENDBRANCH   9  49
TORSDOF 16
ENDMDL
MODEL 2
REMARK VINA RESULT: -9.553782671      0.955      1.332
REMARK  16 active torsions:
REMARK  status: ('A' for Active; 'I' for Inactive)
REMARK    1  A    between atoms: C1_4  and  O1_6 
REMARK    2  A    between atoms: O1_6  and  N3_7 
REMARK    3  A    between atoms: C2_9  and  C3_11 
REMARK    4  A    between atoms: C3_11  and  C4_12 
REMARK    5  A    between atoms: C4_12  and  N5_13 
REMARK    6  A    between atoms: C4_12  and  C5_17 
REMARK       I    between atoms: C5_17  and  N6_19 
REMARK       I    between atoms: N6_19  and  C6_21 
REMARK    7  A    between atoms: C6_21  and  C7_23 
REMARK    8  A    between atoms: C7_23  and  O4_24 
REMARK    9  A    between atoms: O4_24  and  C8_25 
REMARK   10  A    between atoms: C9_26  and  N7_27 
REMARK   11  A    between atoms: C10_31  and  O5_32 
REMARK   12  A    between atoms: C11_34  and  O6_35 
REMARK   13  A    between atoms: C12_37  and  S1_38 
REMARK   14  A    between atoms: C14_42  and  O8_43 
REMARK   15  A    between atoms: C15_45  and  N8_46 
REMARK   16  A    between atoms: C16_50  and  O9_51 
ROOT
HETATM    1  C8  UNL     1      30.291   2.037 -49.658  1.00  0.00     0.193 C 
HETATM    2  C9  UNL     1      31.489   1.484 -50.353  1.00  0.00     0.246 C 
HETATM    3  C10 UNL     1      32.535   0.906 -49.478  1.00  0.00     0.181 C 
HETATM    4  C11 UNL     1      32.019   0.028 -48.374  1.00  0.00     0.166 C 
HETATM    5  C12 UNL     1      30.707   0.453 -47.825  1.00  0.00     0.131 C 
HETATM    6  C13 UNL     1      30.327   1.869 -48.154  1.00  0.00     0.135 C 
HETATM    7  O7  UNL     1      29.041   2.061 -47.702  1.00  0.00    -0.342 OA
HETATM    8  C14 UNL     1      28.969   3.150 -46.910  1.00  0.00     0.291 C 
HETATM    9  C15 UNL     1      30.253   3.903 -46.940  1.00  0.00     0.269 C 
HETATM   10  C16 UNL     1      31.209   2.904 -47.545  1.00  0.00     0.192 C 
ENDROOT
BRANCH   1  11
HETATM   11  O4  UNL     1      29.170   1.369 -50.152  1.00  0.00    -0.371 OA
BRANCH  11  12
HETATM   12  C7  UNL     1      28.413   2.191 -50.985  1.00  0.00     0.271 C 
BRANCH  12  13
HETATM   13  C6  UNL     1      27.168   1.460 -51.409  1.00  0.00     0.247 C 
HETATM   14  N6  UNL     1      26.290   0.951 -50.447  1.00  0.00    -0.294 N 
HETATM   15  C5  UNL     1      25.105   0.255 -50.670  1.00  0.00     0.255 C 
ATOM     16  H6  UNL     1      26.547   1.107 -49.472  1.00  0.00     0.171 HD
HETATM   17  O2  UNL     1      24.404  -0.050 -49.633  1.00  0.00    -0.271 OA
HETATM   18  O3  UNL     1      26.977   1.342 -52.626  1.00  0.00    -0.271 OA
BRANCH  15  19
HETATM   19  C4  UNL     1      24.626  -0.139 -51.998  1.00  0.00     0.281 C 
BRANCH  19  20
HETATM   20  C3  UNL     1      23.234  -0.736 -51.978  1.00  0.00     0.117 C 
BRANCH  20  21
HETATM   21  C2  UNL     1      23.088  -1.890 -51.084  1.00  0.00     0.116 C 
HETATM   22  N3  UNL     1      22.250  -1.831 -50.107  1.00  0.00    -0.248 N 
ATOM     23  H3  UNL     1      21.708  -0.978 -49.975  1.00  0.00     0.196 HD
HETATM   24  N4  UNL     1      23.835  -3.085 -51.254  1.00  0.00    -0.086 NA
BRANCH  22  25
HETATM   25  O1  UNL     1      22.060  -2.883 -49.233  1.00  0.00    -0.203 OA
BRANCH  25  26
HETATM   26  C1  UNL     1      20.819  -3.528 -49.114  1.00  0.00     0.249 C 
HETATM   27  N1  UNL     1      20.722  -4.738 -49.545  1.00  0.00    -0.366 N 
ATOM     28  H12 UNL     1      19.820  -5.207 -49.459  1.00  0.00     0.159 HD
ATOM     29  H11 UNL     1      21.522  -5.215 -49.960  1.00  0.00     0.159 HD
HETATM   30  N2  UNL     1      19.707  -2.866 -48.537  1.00  0.00    -0.055 NA
ENDBRANCH  25  26
ENDBRANCH  22  25
ENDBRANCH  20  21
ENDBRANCH  19  20
BRANCH  19  31
HETATM   31  N5  UNL     1      25.563  -0.997 -52.666  1.00  0.00    -0.066 N 
ATOM     32  H53 UNL     1      26.525  -0.717 -52.474  1.00  0.00     0.275 HD
ATOM     33  H52 UNL     1      25.581  -1.925 -52.246  1.00  0.00     0.275 HD
ATOM     34  H51 UNL     1      25.383  -1.045 -53.668  1.00  0.00     0.275 HD
ENDBRANCH  19  31
ENDBRANCH  15  19
ENDBRANCH  12  13
ENDBRANCH  11  12
ENDBRANCH   1  11
BRANCH   2  35
HETATM   35  N7  UNL     1      31.129   0.482 -51.368  1.00  0.00    -0.070 N 
ATOM     36  H73 UNL     1      30.321  -0.067 -51.073  1.00  0.00     0.274 HD
ATOM     37  H72 UNL     1      30.730   0.923 -52.197  1.00  0.00     0.274 HD
ATOM     38  H71 UNL     1      31.916  -0.118 -51.611  1.00  0.00     0.274 HD
ENDBRANCH   2  35
BRANCH   3  39
HETATM   39  O5  UNL     1      33.357   0.083 -50.286  1.00  0.00    -0.391 OA
ATOM     40  H5  UNL     1      32.823  -0.639 -50.593  1.00  0.00     0.210 HD
ENDBRANCH   3  39
BRANCH   5  41
HETATM   41  S1  UNL     1      30.660   0.145 -46.052  1.00  0.00    -0.074 SA
HETATM   42  S2  UNL     1      31.519  -1.742 -45.565  1.00  0.00    -0.013 SA
ENDBRANCH   5  41
BRANCH  10  43
HETATM   43  O9  UNL     1      32.035   2.447 -46.543  1.00  0.00    -0.390 OA
ATOM     44  H9  UNL     1      32.865   2.092 -46.839  1.00  0.00     0.210 HD
ENDBRANCH  10  43
BRANCH   4  45
HETATM   45  O6  UNL     1      31.908  -1.288 -48.827  1.00  0.00    -0.392 OA
ATOM     46  H6  UNL     1      31.217  -1.736 -48.353  1.00  0.00     0.210 HD
ENDBRANCH   4  45
BRANCH   8  47
HETATM   47  O8  UNL     1      28.554   2.786 -45.642  1.00  0.00    -0.369 OA
ATOM     48  H8  UNL     1      29.236   2.289 -45.207  1.00  0.00     0.212 HD
ENDBRANCH   8  47
BRANCH   9  49
HETATM   49  N8  UNL     1      30.646   4.317 -45.608  1.00  0.00    -0.068 N 
ATOM     50  H83 UNL     1      30.088   3.852 -44.891  1.00  0.00     0.275 HD
ATOM     51  H82 UNL     1      31.562   3.949 -45.355  1.00  0.00     0.275 HD
ATOM     52  H81 UNL     1      30.609   5.331 -45.514  1.00  0.00     0.275 HD
ENDBRANCH   9  49
TORSDOF 16
ENDMDL
MODEL 3
REMARK VINA RESULT: -8.576961560      1.120      1.630
REMARK  16 active torsions:
REMARK  status: ('A' for Active; 'I' for Inactive)
REMARK    1  A    between atoms: C1_4  and  O1_6 
REMARK    2  A    between atoms: O1_6  and  N3_7 
REMARK    3  A    between atoms: C2_9  and  C3_11 
REMARK    4  A    between atoms: C3_11  and  C4_12 
REMARK    5  A    between atoms: C4_12  and  N5_13 
REMARK    6  A    between atoms: C4_12  and  C5_17 
REMARK       I    between atoms: C5_17  and  N6_19 
REMARK       I    between atoms: N6_19  and  C6_21 
REMARK    7  A    between atoms: C6_21  and  C7_23 
REMARK    8  A    between atoms: C7_23  and  O4_24 
REMARK    9  A    between atoms: O4_24  and  C8_25 
REMARK   10  A    between atoms: C9_26  and  N7_27 
REMARK   11  A    between atoms: C10_31  and  O5_32 
REMARK   12  A    between atoms: C11_34  and  O6_35 
REMARK   13  A    between atoms: C12_37  and  S1_38 
REMARK   14  A    between atoms: C14_42  and  O8_43 
REMARK   15  A    between atoms: C15_45  and  N8_46 
REMARK   16  A    between atoms: C16_50  and  O9_51 
ROOT
HETATM    1  C8  UNL     1      30.759   1.744 -50.105  1.00  0.00     0.193 C 
HETATM    2  C9  UNL     1      32.078   1.138 -50.448  1.00  0.00     0.246 C 
HETATM    3  C10 UNL     1      32.884   0.657 -49.304  1.00  0.00     0.181 C 
HETATM    4  C11 UNL     1      32.116  -0.116 -48.269  1.00  0.00     0.166 C 
HETATM    5  C12 UNL     1      30.718   0.349 -48.082  1.00  0.00     0.131 C 
HETATM    6  C13 UNL     1      30.444   1.723 -48.624  1.00  0.00     0.135 C 
HETATM    7  O7  UNL     1      29.091   1.947 -48.503  1.00  0.00    -0.342 OA
HETATM    8  C14 UNL     1      28.853   3.106 -47.857  1.00  0.00     0.291 C 
HETATM    9  C15 UNL     1      30.120   3.864 -47.662  1.00  0.00     0.269 C 
HETATM   10  C16 UNL     1      31.176   2.820 -47.931  1.00  0.00     0.192 C 
ENDROOT
BRANCH   1  11
HETATM   11  O4  UNL     1      29.774   1.022 -50.779  1.00  0.00    -0.371 OA
BRANCH  11  12
HETATM   12  C7  UNL     1      28.993   1.851 -51.583  1.00  0.00     0.271 C 
BRANCH  12  13
HETATM   13  C6  UNL     1      27.551   1.432 -51.479  1.00  0.00     0.247 C 
HETATM   14  N6  UNL     1      26.793   1.794 -50.361  1.00  0.00    -0.294 N 
HETATM   15  C5  UNL     1      25.457   1.489 -50.112  1.00  0.00     0.255 C 
ATOM     16  H6  UNL     1      27.272   2.343 -49.648  1.00  0.00     0.171 HD
HETATM   17  O2  UNL     1      24.931   1.998 -49.053  1.00  0.00    -0.271 OA
HETATM   18  O3  UNL     1      27.095   0.768 -52.418  1.00  0.00    -0.271 OA
BRANCH  15  19
HETATM   19  C4  UNL     1      24.639   0.636 -50.979  1.00  0.00     0.281 C 
BRANCH  19  20
HETATM   20  C3  UNL     1      24.856  -0.843 -50.735  1.00  0.00     0.117 C 
BRANCH  20  21
HETATM   21  C2  UNL     1      23.634  -1.651 -50.814  1.00  0.00     0.116 C 
HETATM   22  N3  UNL     1      23.307  -2.402 -49.820  1.00  0.00    -0.248 N 
ATOM     23  H3  UNL     1      23.910  -2.421 -48.999  1.00  0.00     0.196 HD
HETATM   24  N4  UNL     1      22.782  -1.636 -51.951  1.00  0.00    -0.086 NA
BRANCH  22  25
HETATM   25  O1  UNL     1      22.167  -3.183 -49.828  1.00  0.00    -0.203 OA
BRANCH  25  26
HETATM   26  C1  UNL     1      21.072  -2.897 -48.999  1.00  0.00     0.249 C 
HETATM   27  N1  UNL     1      20.168  -3.803 -48.855  1.00  0.00    -0.366 N 
ATOM     28  H12 UNL     1      19.372  -3.595 -48.252  1.00  0.00     0.159 HD
ATOM     29  H11 UNL     1      20.246  -4.703 -49.328  1.00  0.00     0.159 HD
HETATM   30  N2  UNL     1      20.965  -1.647 -48.340  1.00  0.00    -0.055 NA
ENDBRANCH  25  26
ENDBRANCH  22  25
ENDBRANCH  20  21
ENDBRANCH  19  20
BRANCH  19  31
HETATM   31  N5  UNL     1      24.803   0.976 -52.364  1.00  0.00    -0.066 N 
ATOM     32  H53 UNL     1      25.726   0.709 -52.706  1.00  0.00     0.275 HD
ATOM     33  H52 UNL     1      24.233   0.379 -52.963  1.00  0.00     0.275 HD
ATOM     34  H51 UNL     1      24.614   1.963 -52.535  1.00  0.00     0.275 HD
ENDBRANCH  19  31
ENDBRANCH  15  19
ENDBRANCH  12  13
ENDBRANCH  11  12
ENDBRANCH   1  11
BRANCH   2  35
HETATM   35  N7  UNL     1      31.948   0.040 -51.417  1.00  0.00    -0.070 N 
ATOM     36  H73 UNL     1      32.425  -0.800 -51.089  1.00  0.00     0.274 HD
ATOM     37  H72 UNL     1      30.992  -0.318 -51.444  1.00  0.00     0.274 HD
ATOM     38  H71 UNL     1      32.268   0.309 -52.347  1.00  0.00     0.274 HD
ENDBRANCH   2  35
BRANCH   3  39
HETATM   39  O5  UNL     1      33.860  -0.233 -49.816  1.00  0.00    -0.391 OA
ATOM     40  H5  UNL     1      34.626  -0.167 -49.259  1.00  0.00     0.210 HD
ENDBRANCH   3  39
BRANCH   5  41
HETATM   41  S1  UNL     1      30.258   0.213 -46.347  1.00  0.00    -0.074 SA
HETATM   42  S2  UNL     1      31.683  -0.927 -45.250  1.00  0.00    -0.013 SA
ENDBRANCH   5  41
BRANCH  10  43
HETATM   43  O9  UNL     1      31.741   2.470 -46.726  1.00  0.00    -0.390 OA
ATOM     44  H9  UNL     1      32.552   2.919 -46.518  1.00  0.00     0.210 HD
ENDBRANCH  10  43
BRANCH   4  45
HETATM   45  O6  UNL     1      32.094  -1.470 -48.607  1.00  0.00    -0.392 OA
ATOM     46  H6  UNL     1      31.208  -1.736 -48.820  1.00  0.00     0.210 HD
ENDBRANCH   4  45
BRANCH   8  47
HETATM   47  O8  UNL     1      28.151   2.862 -46.691  1.00  0.00    -0.369 OA
ATOM     48  H8  UNL     1      27.742   2.006 -46.731  1.00  0.00     0.212 HD
ENDBRANCH   8  47
BRANCH   9  49
HETATM   49  N8  UNL     1      30.199   4.408 -46.321  1.00  0.00    -0.068 N 
ATOM     50  H83 UNL     1      29.400   4.126 -45.754  1.00  0.00     0.275 HD
ATOM     51  H82 UNL     1      30.939   3.964 -45.778  1.00  0.00     0.275 HD
ATOM     52  H81 UNL     1      30.306   5.422 -46.343  1.00  0.00     0.275 HD
ENDBRANCH   9  49
TORSDOF 16
ENDMDL
MODEL 4
REMARK VINA RESULT: -8.419790645      1.771      2.094
REMARK  16 active torsions:
REMARK  status: ('A' for Active; 'I' for Inactive)
REMARK    1  A    between atoms: C1_4  and  O1_6 
REMARK    2  A    between atoms: O1_6  and  N3_7 
REMARK    3  A    between atoms: C2_9  and  C3_11 
REMARK    4  A    between atoms: C3_11  and  C4_12 
REMARK    5  A    between atoms: C4_12  and  N5_13 
REMARK    6  A    between atoms: C4_12  and  C5_17 
REMARK       I    between atoms: C5_17  and  N6_19 
REMARK       I    between atoms: N6_19  and  C6_21 
REMARK    7  A    between atoms: C6_21  and  C7_23 
REMARK    8  A    between atoms: C7_23  and  O4_24 
REMARK    9  A    between atoms: O4_24  and  C8_25 
REMARK   10  A    between atoms: C9_26  and  N7_27 
REMARK   11  A    between atoms: C10_31  and  O5_32 
REMARK   12  A    between atoms: C11_34  and  O6_35 
REMARK   13  A    between atoms: C12_37  and  S1_38 
REMARK   14  A    between atoms: C14_42  and  O8_43 
REMARK   15  A    between atoms: C15_45  and  N8_46 
REMARK   16  A    between atoms: C16_50  and  O9_51 
ROOT
HETATM    1  C8  UNL     1      29.248   2.049 -49.890  1.00  0.00     0.193 C 
HETATM    2  C9  UNL     1      29.670   2.230 -51.309  1.00  0.00     0.246 C 
HETATM    3  C10 UNL     1      31.073   1.871 -51.617  1.00  0.00     0.181 C 
HETATM    4  C11 UNL     1      31.543   0.580 -51.008  1.00  0.00     0.166 C 
HETATM    5  C12 UNL     1      30.949   0.287 -49.679  1.00  0.00     0.131 C 
HETATM    6  C13 UNL     1      30.331   1.476 -49.000  1.00  0.00     0.135 C 
HETATM    7  O7  UNL     1      29.707   1.018 -47.862  1.00  0.00    -0.342 OA
HETATM    8  C14 UNL     1      30.114   1.712 -46.780  1.00  0.00     0.291 C 
HETATM    9  C15 UNL     1      30.950   2.874 -47.190  1.00  0.00     0.269 C 
HETATM   10  C16 UNL     1      31.298   2.545 -48.620  1.00  0.00     0.192 C 
ENDROOT
BRANCH   1  11
HETATM   11  O4  UNL     1      28.159   1.177 -49.881  1.00  0.00    -0.371 OA
BRANCH  11  12
HETATM   12  C7  UNL     1      26.951   1.870 -49.822  1.00  0.00     0.271 C 
BRANCH  12  13
HETATM   13  C6  UNL     1      25.839   0.975 -50.299  1.00  0.00     0.247 C 
HETATM   14  N6  UNL     1      26.030   0.148 -51.410  1.00  0.00    -0.294 N 
HETATM   15  C5  UNL     1      25.111  -0.732 -51.975  1.00  0.00     0.255 C 
ATOM     16  H6  UNL     1      26.946   0.194 -51.856  1.00  0.00     0.171 HD
HETATM   17  O2  UNL     1      25.528  -1.464 -52.949  1.00  0.00    -0.271 OA
HETATM   18  O3  UNL     1      24.778   1.017 -49.663  1.00  0.00    -0.271 OA
BRANCH  15  19
HETATM   19  C4  UNL     1      23.723  -0.864 -51.524  1.00  0.00     0.281 C 
BRANCH  19  20
HETATM   20  C3  UNL     1      23.519  -2.000 -50.543  1.00  0.00     0.117 C 
BRANCH  20  21
HETATM   21  C2  UNL     1      22.204  -2.007 -49.894  1.00  0.00     0.116 C 
HETATM   22  N3  UNL     1      22.112  -2.338 -48.653  1.00  0.00    -0.248 N 
ATOM     23  H3  UNL     1      22.961  -2.593 -48.148  1.00  0.00     0.196 HD
HETATM   24  N4  UNL     1      21.013  -1.654 -50.583  1.00  0.00    -0.086 NA
BRANCH  22  25
HETATM   25  O1  UNL     1      20.906  -2.360 -47.981  1.00  0.00    -0.203 OA
BRANCH  25  26
HETATM   26  C1  UNL     1      19.941  -3.347 -48.232  1.00  0.00     0.249 C 
HETATM   27  N1  UNL     1      18.758  -3.174 -47.752  1.00  0.00    -0.366 N 
ATOM     28  H12 UNL     1      18.057  -3.892 -47.934  1.00  0.00     0.159 HD
ATOM     29  H11 UNL     1      18.528  -2.343 -47.207  1.00  0.00     0.159 HD
HETATM   30  N2  UNL     1      20.260  -4.502 -48.989  1.00  0.00    -0.055 NA
ENDBRANCH  25  26
ENDBRANCH  22  25
ENDBRANCH  20  21
ENDBRANCH  19  20
BRANCH  19  31
HETATM   31  N5  UNL     1      22.812  -0.947 -52.630  1.00  0.00    -0.066 N 
ATOM     32  H53 UNL     1      22.507  -0.021 -52.931  1.00  0.00     0.275 HD
ATOM     33  H52 UNL     1      23.289  -1.242 -53.482  1.00  0.00     0.275 HD
ATOM     34  H51 UNL     1      22.017  -1.550 -52.420  1.00  0.00     0.275 HD
ENDBRANCH  19  31
ENDBRANCH  15  19
ENDBRANCH  12  13
ENDBRANCH  11  12
ENDBRANCH   1  11
BRANCH   2  35
HETATM   35  N7  UNL     1      28.792   1.510 -52.245  1.00  0.00    -0.070 N 
ATOM     36  H73 UNL     1      28.641   2.048 -53.098  1.00  0.00     0.274 HD
ATOM     37  H72 UNL     1      29.265   0.700 -52.646  1.00  0.00     0.274 HD
ATOM     38  H71 UNL     1      27.907   1.244 -51.813  1.00  0.00     0.274 HD
ENDBRANCH   2  35
BRANCH   3  39
HETATM   39  O5  UNL     1      31.171   1.703 -53.020  1.00  0.00    -0.391 OA
ATOM     40  H5  UNL     1      31.199   0.770 -53.194  1.00  0.00     0.210 HD
ENDBRANCH   3  39
BRANCH   5  41
HETATM   41  S1  UNL     1      32.170  -0.518 -48.630  1.00  0.00    -0.074 SA
HETATM   42  S2  UNL     1      33.958  -0.949 -49.704  1.00  0.00    -0.013 SA
ENDBRANCH   5  41
BRANCH  10  43
HETATM   43  O9  UNL     1      32.622   2.170 -48.659  1.00  0.00    -0.390 OA
ATOM     44  H9  UNL     1      32.786   1.318 -49.043  1.00  0.00     0.210 HD
ENDBRANCH  10  43
BRANCH   4  45
HETATM   45  O6  UNL     1      31.260  -0.482 -51.867  1.00  0.00    -0.392 OA
ATOM     46  H6  UNL     1      30.326  -0.523 -52.034  1.00  0.00     0.210 HD
ENDBRANCH   4  45
BRANCH   8  47
HETATM   47  O8  UNL     1      30.726   0.862 -45.876  1.00  0.00    -0.369 OA
ATOM     48  H8  UNL     1      30.712   1.247 -45.008  1.00  0.00     0.212 HD
ENDBRANCH   8  47
BRANCH   9  49
HETATM   49  N8  UNL     1      32.120   2.998 -46.343  1.00  0.00    -0.068 N 
ATOM     50  H83 UNL     1      32.731   3.752 -46.657  1.00  0.00     0.275 HD
ATOM     51  H82 UNL     1      31.880   3.365 -45.423  1.00  0.00     0.275 HD
ATOM     52  H81 UNL     1      32.619   2.112 -46.277  1.00  0.00     0.275 HD
ENDBRANCH   9  49
TORSDOF 16
ENDMDL
MODEL 5
REMARK VINA RESULT: -8.193320117      1.859      3.564
REMARK  16 active torsions:
REMARK  status: ('A' for Active; 'I' for Inactive)
REMARK    1  A    between atoms: C1_4  and  O1_6 
REMARK    2  A    between atoms: O1_6  and  N3_7 
REMARK    3  A    between atoms: C2_9  and  C3_11 
REMARK    4  A    between atoms: C3_11  and  C4_12 
REMARK    5  A    between atoms: C4_12  and  N5_13 
REMARK    6  A    between atoms: C4_12  and  C5_17 
REMARK       I    between atoms: C5_17  and  N6_19 
REMARK       I    between atoms: N6_19  and  C6_21 
REMARK    7  A    between atoms: C6_21  and  C7_23 
REMARK    8  A    between atoms: C7_23  and  O4_24 
REMARK    9  A    between atoms: O4_24  and  C8_25 
REMARK   10  A    between atoms: C9_26  and  N7_27 
REMARK   11  A    between atoms: C10_31  and  O5_32 
REMARK   12  A    between atoms: C11_34  and  O6_35 
REMARK   13  A    between atoms: C12_37  and  S1_38 
REMARK   14  A    between atoms: C14_42  and  O8_43 
REMARK   15  A    between atoms: C15_45  and  N8_46 
REMARK   16  A    between atoms: C16_50  and  O9_51 
ROOT
HETATM    1  C8  UNL     1      28.579   2.418 -49.434  1.00  0.00     0.193 C 
HETATM    2  C9  UNL     1      27.680   2.790 -48.305  1.00  0.00     0.246 C 
HETATM    3  C10 UNL     1      28.309   2.835 -46.965  1.00  0.00     0.181 C 
HETATM    4  C11 UNL     1      29.648   3.514 -46.919  1.00  0.00     0.166 C 
HETATM    5  C12 UNL     1      30.464   3.326 -48.145  1.00  0.00     0.131 C 
HETATM    6  C13 UNL     1      30.017   2.189 -49.019  1.00  0.00     0.135 C 
HETATM    7  O7  UNL     1      30.774   2.235 -50.168  1.00  0.00    -0.342 OA
HETATM    8  C14 UNL     1      31.353   1.041 -50.409  1.00  0.00     0.291 C 
HETATM    9  C15 UNL     1      30.831   0.009 -49.471  1.00  0.00     0.269 C 
HETATM   10  C16 UNL     1      30.162   0.839 -48.403  1.00  0.00     0.192 C 
ENDROOT
BRANCH   1  11
HETATM   11  O4  UNL     1      28.546   3.458 -50.363  1.00  0.00    -0.371 OA
BRANCH  11  12
HETATM   12  C7  UNL     1      28.172   3.003 -51.626  1.00  0.00     0.271 C 
BRANCH  12  13
HETATM   13  C6  UNL     1      26.980   2.094 -51.496  1.00  0.00     0.247 C 
HETATM   14  N6  UNL     1      26.862   0.968 -52.317  1.00  0.00    -0.294 N 
HETATM   15  C5  UNL     1      25.831   0.033 -52.325  1.00  0.00     0.255 C 
ATOM     16  H6  UNL     1      27.617   0.814 -52.986  1.00  0.00     0.171 HD
HETATM   17  O2  UNL     1      25.967  -0.979 -53.110  1.00  0.00    -0.271 OA
HETATM   18  O3  UNL     1      26.138   2.397 -50.642  1.00  0.00    -0.271 OA
BRANCH  15  19
HETATM   19  C4  UNL     1      24.624   0.142 -51.500  1.00  0.00     0.281 C 
BRANCH  19  20
HETATM   20  C3  UNL     1      24.685  -0.697 -50.240  1.00  0.00     0.117 C 
BRANCH  20  21
HETATM   21  C2  UNL     1      23.875  -1.919 -50.291  1.00  0.00     0.116 C 
HETATM   22  N3  UNL     1      22.955  -2.106 -49.410  1.00  0.00    -0.248 N 
ATOM     23  H3  UNL     1      22.813  -1.398 -48.690  1.00  0.00     0.196 HD
HETATM   24  N4  UNL     1      24.061  -2.915 -51.286  1.00  0.00    -0.086 NA
BRANCH  22  25
HETATM   25  O1  UNL     1      22.155  -3.232 -49.404  1.00  0.00    -0.203 OA
BRANCH  25  26
HETATM   26  C1  UNL     1      20.884  -3.230 -48.809  1.00  0.00     0.249 C 
HETATM   27  N1  UNL     1      20.552  -2.212 -48.093  1.00  0.00    -0.366 N 
ATOM     28  H12 UNL     1      19.629  -2.210 -47.660  1.00  0.00     0.159 HD
ATOM     29  H11 UNL     1      21.194  -1.429 -47.962  1.00  0.00     0.159 HD
HETATM   30  N2  UNL     1      19.993  -4.317 -48.991  1.00  0.00    -0.055 NA
ENDBRANCH  25  26
ENDBRANCH  22  25
ENDBRANCH  20  21
ENDBRANCH  19  20
BRANCH  19  31
HETATM   31  N5  UNL     1      23.437  -0.126 -52.260  1.00  0.00    -0.066 N 
ATOM     32  H53 UNL     1      23.197  -1.118 -52.239  1.00  0.00     0.275 HD
ATOM     33  H52 UNL     1      22.608   0.247 -51.799  1.00  0.00     0.275 HD
ATOM     34  H51 UNL     1      23.516   0.216 -53.217  1.00  0.00     0.275 HD
ENDBRANCH  19  31
ENDBRANCH  15  19
ENDBRANCH  12  13
ENDBRANCH  11  12
ENDBRANCH   1  11
BRANCH   2  35
HETATM   35  N7  UNL     1      26.998   4.073 -48.539  1.00  0.00    -0.070 N 
ATOM     36  H73 UNL     1      26.561   4.095 -49.460  1.00  0.00     0.274 HD
ATOM     37  H72 UNL     1      26.161   4.158 -47.961  1.00  0.00     0.274 HD
ATOM     38  H71 UNL     1      27.621   4.869 -48.405  1.00  0.00     0.274 HD
ENDBRANCH   2  35
BRANCH   3  39
HETATM   39  O5  UNL     1      27.457   3.587 -46.120  1.00  0.00    -0.391 OA
ATOM     40  H5  UNL     1      27.717   4.498 -46.190  1.00  0.00     0.210 HD
ENDBRANCH   3  39
BRANCH   5  41
HETATM   41  S1  UNL     1      32.204   3.182 -47.703  1.00  0.00    -0.074 SA
HETATM   42  S2  UNL     1      32.539   3.725 -45.672  1.00  0.00    -0.013 SA
ENDBRANCH   5  41
BRANCH  10  43
HETATM   43  O9  UNL     1      30.952   0.797 -47.277  1.00  0.00    -0.390 OA
ATOM     44  H9  UNL     1      30.491   0.597 -46.471  1.00  0.00     0.210 HD
ENDBRANCH  10  43
BRANCH   4  45
HETATM   45  O6  UNL     1      29.481   4.882 -46.700  1.00  0.00    -0.392 OA
ATOM     46  H6  UNL     1      30.162   5.367 -47.150  1.00  0.00     0.210 HD
ENDBRANCH   4  45
BRANCH   8  47
HETATM   47  O8  UNL     1      32.730   1.173 -50.399  1.00  0.00    -0.369 OA
ATOM     48  H8  UNL     1      33.120   0.476 -49.884  1.00  0.00     0.212 HD
ENDBRANCH   8  47
BRANCH   9  49
HETATM   49  N8  UNL     1      31.905  -0.813 -48.950  1.00  0.00    -0.068 N 
ATOM     50  H83 UNL     1      31.992  -1.688 -49.467  1.00  0.00     0.275 HD
ATOM     51  H82 UNL     1      32.819  -0.415 -49.162  1.00  0.00     0.275 HD
ATOM     52  H81 UNL     1      31.789  -0.977 -47.951  1.00  0.00     0.275 HD
ENDBRANCH   9  49
TORSDOF 16
ENDMDL
