MODEL 1
REMARK VINA RESULT: -8.449987412      0.000      0.000
REMARK  16 active torsions:
REMARK  status: ('A' for Active; 'I' for Inactive)
REMARK    1  A    between atoms: C2_2  and  O1_4 
REMARK    2  A    between atoms: C2_2  and  C4_6 
REMARK    3  A    between atoms: C4_6  and  C5_7 
REMARK    4  A    between atoms: C5_7  and  C6_8 
REMARK    5  A    between atoms: C8_14  and  N3_15 
REMARK    6  A    between atoms: N3_15  and  C9_17 
REMARK    7  A    between atoms: C9_17  and  C10_18 
REMARK    8  A    between atoms: C10_18  and  O2_19 
REMARK    9  A    between atoms: C10_18  and  C11_21 
REMARK   10  A    between atoms: C11_21  and  O3_22 
REMARK   11  A    between atoms: C11_21  and  C12_24 
REMARK   12  A    between atoms: C11_21  and  N4_27 
REMARK   13  A    between atoms: C12_24  and  O4_25 
REMARK   14  A    between atoms: C14_35  and  N8_36 
REMARK   15  A    between atoms: N8_36  and  N9_38 
REMARK   16  A    between atoms: C16_44  and  N11_45 
ROOT
HETATM    1  C6  UNL     1     -22.135   3.190  39.749  1.00  0.00     0.164 A 
HETATM    2  N1  UNL     1     -21.268   3.365  40.753  1.00  0.00    -0.319 N 
ATOM      3  H1  UNL     1     -21.016   4.313  41.035  1.00  0.00     0.169 HD
HETATM    4  C7  UNL     1     -20.719   2.319  41.402  1.00  0.00     0.140 A 
HETATM    5  N2  UNL     1     -19.836   2.529  42.424  1.00  0.00    -0.324 N 
ATOM      6  H2  UNL     1     -19.595   3.482  42.694  1.00  0.00     0.169 HD
HETATM    7  C8  UNL     1     -19.288   1.502  43.070  1.00  0.00     0.149 A 
HETATM    8  C14 UNL     1     -19.622   0.193  42.698  1.00  0.00     0.165 A 
HETATM    9  N10 UNL     1     -20.490   0.022  41.694  1.00  0.00    -0.332 N 
ATOM     10  H10 UNL     1     -20.735  -0.930  41.421  1.00  0.00     0.168 HD
HETATM   11  C15 UNL     1     -21.054   1.040  41.029  1.00  0.00     0.122 A 
HETATM   12  C16 UNL     1     -21.946   0.850  39.996  1.00  0.00     0.132 A 
HETATM   13  N12 UNL     1     -22.454   1.933  39.394  1.00  0.00    -0.320 N 
ATOM     14  H12 UNL     1     -23.115   1.797  38.630  1.00  0.00     0.169 HD
ENDROOT
BRANCH   7  15
HETATM   15  N3  UNL     1     -18.447   1.619  44.039  1.00  0.00    -0.370 N 
ATOM     16  H3  UNL     1     -17.503   1.286  43.843  1.00  0.00     0.161 HD
BRANCH  15  17
HETATM   17  C9  UNL     1     -18.650   2.144  45.334  1.00  0.00     0.158 C 
BRANCH  17  18
HETATM   18  C10 UNL     1     -19.819   1.660  46.106  1.00  0.00     0.197 C 
BRANCH  18  19
HETATM   19  O2  UNL     1     -20.044   0.283  46.016  1.00  0.00    -0.389 OA
ATOM     20  H2  UNL     1     -20.893   0.045  45.664  1.00  0.00     0.210 HD
ENDBRANCH  18  19
BRANCH  18  21
HETATM   21  C11 UNL     1     -21.127   2.354  45.888  1.00  0.00     0.218 C 
BRANCH  21  22
HETATM   22  O3  UNL     1     -20.754   3.666  45.434  1.00  0.00    -0.364 OA
ATOM     23  H3  UNL     1     -21.552   4.012  45.051  1.00  0.00     0.213 HD
ENDBRANCH  21  22
BRANCH  21  24
HETATM   24  C12 UNL     1     -21.999   1.801  44.822  1.00  0.00     0.231 C 
BRANCH  24  25
HETATM   25  O4  UNL     1     -23.355   2.050  44.996  1.00  0.00    -0.396 OA
ATOM     26  H4  UNL     1     -23.860   1.301  45.290  1.00  0.00     0.209 HD
ENDBRANCH  24  25
ENDBRANCH  21  24
BRANCH  21  27
HETATM   27  N4  UNL     1     -21.880   2.573  47.126  1.00  0.00    -0.177 N 
HETATM   28  N5  UNL     1     -22.493   1.609  47.801  1.00  0.00    -0.274 N 
HETATM   29  C13 UNL     1     -23.080   2.182  48.851  1.00  0.00     0.217 A 
ATOM     30  H5  UNL     1     -22.512   0.617  47.562  1.00  0.00     0.189 HD
HETATM   31  N6  UNL     1     -22.825   3.517  48.823  1.00  0.00    -0.279 N 
HETATM   32  N7  UNL     1     -22.086   3.710  47.748  1.00  0.00    -0.222 N 
ATOM     33  H6  UNL     1     -23.140   4.221  49.492  1.00  0.00     0.189 HD
ATOM     34  H7  UNL     1     -21.725   4.614  47.443  1.00  0.00     0.210 HD
ENDBRANCH  21  27
ENDBRANCH  18  21
ENDBRANCH  17  18
ENDBRANCH  15  17
ENDBRANCH   7  15
BRANCH   8  35
HETATM   35  N8  UNL     1     -19.050  -0.916  43.393  1.00  0.00    -0.289 N 
ATOM     36  H8  UNL     1     -19.273  -1.085  44.374  1.00  0.00     0.188 HD
BRANCH  35  37
HETATM   37  N9  UNL     1     -18.186  -1.758  42.712  1.00  0.00    -0.344 N 
ATOM     38  H92 UNL     1     -17.602  -1.383  41.964  1.00  0.00     0.176 HD
ATOM     39  H91 UNL     1     -18.150  -2.743  42.974  1.00  0.00     0.176 HD
ENDBRANCH  35  37
ENDBRANCH   8  35
BRANCH   1  40
HETATM   40  C5  UNL     1     -22.710   4.338  39.068  1.00  0.00    -0.027 C 
BRANCH  40  41
HETATM   41  C4  UNL     1     -23.206   5.284  38.507  1.00  0.00    -0.061 C 
BRANCH  41  42
HETATM   42  C2  UNL     1     -23.833   6.432  37.834  1.00  0.00     0.114 C 
HETATM   43  C1  UNL     1     -24.911   5.959  36.862  1.00  0.00     0.060 C 
HETATM   44  C3  UNL     1     -24.519   7.357  38.813  1.00  0.00     0.060 C 
BRANCH  42  45
HETATM   45  O1  UNL     1     -22.860   7.141  37.143  1.00  0.00    -0.378 OA
ATOM     46  H1  UNL     1     -22.664   7.947  37.604  1.00  0.00     0.211 HD
ENDBRANCH  42  45
ENDBRANCH  41  42
ENDBRANCH  40  41
ENDBRANCH   1  40
BRANCH  12  47
HETATM   47  N11 UNL     1     -22.241  -0.363  39.667  1.00  0.00    -0.383 N 
ATOM     48 2H11 UNL     1     -21.566  -1.127  39.643  1.00  0.00     0.157 HD
ATOM     49 1H11 UNL     1     -23.209  -0.568  39.418  1.00  0.00     0.157 HD
ENDBRANCH  12  47
TORSDOF 16
ENDMDL
MODEL 2
REMARK VINA RESULT: -8.028991400      2.146      3.239
REMARK  16 active torsions:
REMARK  status: ('A' for Active; 'I' for Inactive)
REMARK    1  A    between atoms: C2_2  and  O1_4 
REMARK    2  A    between atoms: C2_2  and  C4_6 
REMARK    3  A    between atoms: C4_6  and  C5_7 
REMARK    4  A    between atoms: C5_7  and  C6_8 
REMARK    5  A    between atoms: C8_14  and  N3_15 
REMARK    6  A    between atoms: N3_15  and  C9_17 
REMARK    7  A    between atoms: C9_17  and  C10_18 
REMARK    8  A    between atoms: C10_18  and  O2_19 
REMARK    9  A    between atoms: C10_18  and  C11_21 
REMARK   10  A    between atoms: C11_21  and  O3_22 
REMARK   11  A    between atoms: C11_21  and  C12_24 
REMARK   12  A    between atoms: C11_21  and  N4_27 
REMARK   13  A    between atoms: C12_24  and  O4_25 
REMARK   14  A    between atoms: C14_35  and  N8_36 
REMARK   15  A    between atoms: N8_36  and  N9_38 
REMARK   16  A    between atoms: C16_44  and  N11_45 
ROOT
HETATM    1  C6  UNL     1     -21.837   3.332  39.820  1.00  0.00     0.164 A 
HETATM    2  N1  UNL     1     -21.979   3.194  41.145  1.00  0.00    -0.319 N 
ATOM      3  H1  UNL     1     -22.575   3.847  41.653  1.00  0.00     0.169 HD
HETATM    4  C7  UNL     1     -21.352   2.212  41.822  1.00  0.00     0.140 A 
HETATM    5  N2  UNL     1     -21.515   2.096  43.174  1.00  0.00    -0.324 N 
ATOM      6  H2  UNL     1     -22.115   2.756  43.668  1.00  0.00     0.169 HD
HETATM    7  C8  UNL     1     -20.899   1.129  43.853  1.00  0.00     0.149 A 
HETATM    8  C14 UNL     1     -20.077   0.222  43.171  1.00  0.00     0.165 A 
HETATM    9  N10 UNL     1     -19.938   0.364  41.847  1.00  0.00    -0.332 N 
ATOM     10  H10 UNL     1     -19.340  -0.295  41.349  1.00  0.00     0.168 HD
HETATM   11  C15 UNL     1     -20.548   1.328  41.144  1.00  0.00     0.122 A 
HETATM   12  C16 UNL     1     -20.397   1.462  39.780  1.00  0.00     0.132 A 
HETATM   13  N12 UNL     1     -21.048   2.460  39.170  1.00  0.00    -0.320 N 
ATOM     14  H12 UNL     1     -20.939   2.564  38.161  1.00  0.00     0.169 HD
ENDROOT
BRANCH   7  15
HETATM   15  N3  UNL     1     -21.001   0.958  45.125  1.00  0.00    -0.370 N 
ATOM     16  H3  UNL     1     -21.360   0.049  45.418  1.00  0.00     0.161 HD
BRANCH  15  17
HETATM   17  C9  UNL     1     -20.684   1.851  46.171  1.00  0.00     0.158 C 
BRANCH  17  18
HETATM   18  C10 UNL     1     -19.652   2.885  45.916  1.00  0.00     0.197 C 
BRANCH  18  19
HETATM   19  O2  UNL     1     -19.922   3.716  44.825  1.00  0.00    -0.389 OA
ATOM     20  H2  UNL     1     -19.161   4.161  44.471  1.00  0.00     0.210 HD
ENDBRANCH  18  19
BRANCH  18  21
HETATM   21  C11 UNL     1     -18.231   2.429  45.805  1.00  0.00     0.218 C 
BRANCH  21  22
HETATM   22  O3  UNL     1     -18.260   1.074  46.283  1.00  0.00    -0.364 OA
ATOM     23  H3  UNL     1     -17.346   0.867  46.443  1.00  0.00     0.213 HD
ENDBRANCH  21  22
BRANCH  21  24
HETATM   24  C12 UNL     1     -17.666   2.352  44.434  1.00  0.00     0.231 C 
BRANCH  24  25
HETATM   25  O4  UNL     1     -16.440   1.706  44.349  1.00  0.00    -0.396 OA
ATOM     26  H4  UNL     1     -15.995   1.589  45.181  1.00  0.00     0.209 HD
ENDBRANCH  24  25
ENDBRANCH  21  24
BRANCH  21  27
HETATM   27  N4  UNL     1     -17.323   3.139  46.711  1.00  0.00    -0.177 N 
HETATM   28  N5  UNL     1     -17.476   4.407  47.070  1.00  0.00    -0.274 N 
HETATM   29  C13 UNL     1     -16.460   4.707  47.879  1.00  0.00     0.217 A 
ATOM     30  H5  UNL     1     -18.228   5.033  46.781  1.00  0.00     0.189 HD
HETATM   31  N6  UNL     1     -15.672   3.609  48.021  1.00  0.00    -0.279 N 
HETATM   32  N7  UNL     1     -16.240   2.672  47.287  1.00  0.00    -0.222 N 
ATOM     33  H6  UNL     1     -14.820   3.527  48.577  1.00  0.00     0.189 HD
ATOM     34  H7  UNL     1     -15.888   1.720  47.182  1.00  0.00     0.210 HD
ENDBRANCH  21  27
ENDBRANCH  18  21
ENDBRANCH  17  18
ENDBRANCH  15  17
ENDBRANCH   7  15
BRANCH   8  35
HETATM   35  N8  UNL     1     -19.422  -0.826  43.887  1.00  0.00    -0.289 N 
ATOM     36  H8  UNL     1     -19.952  -1.448  44.497  1.00  0.00     0.188 HD
BRANCH  35  37
HETATM   37  N9  UNL     1     -18.053  -0.982  43.739  1.00  0.00    -0.344 N 
ATOM     38  H92 UNL     1     -17.543  -0.376  43.097  1.00  0.00     0.176 HD
ATOM     39  H91 UNL     1     -17.579  -1.706  44.280  1.00  0.00     0.176 HD
ENDBRANCH  35  37
ENDBRANCH   8  35
BRANCH   1  40
HETATM   40  C5  UNL     1     -22.525   4.402  39.117  1.00  0.00    -0.027 C 
BRANCH  40  41
HETATM   41  C4  UNL     1     -23.115   5.278  38.533  1.00  0.00    -0.061 C 
BRANCH  41  42
HETATM   42  C2  UNL     1     -23.853   6.331  37.818  1.00  0.00     0.114 C 
HETATM   43  C1  UNL     1     -24.848   5.715  36.839  1.00  0.00     0.060 C 
HETATM   44  C3  UNL     1     -24.659   7.195  38.760  1.00  0.00     0.060 C 
BRANCH  42  45
HETATM   45  O1  UNL     1     -22.951   7.129  37.128  1.00  0.00    -0.378 OA
ATOM     46  H1  UNL     1     -22.064   6.865  37.339  1.00  0.00     0.211 HD
ENDBRANCH  42  45
ENDBRANCH  41  42
ENDBRANCH  40  41
ENDBRANCH   1  40
BRANCH  12  47
HETATM   47  N11 UNL     1     -19.634   0.618  39.171  1.00  0.00    -0.383 N 
ATOM     48 2H11 UNL     1     -18.704   0.841  38.818  1.00  0.00     0.157 HD
ATOM     49 1H11 UNL     1     -19.985  -0.330  39.035  1.00  0.00     0.157 HD
ENDBRANCH  12  47
TORSDOF 16
ENDMDL
MODEL 3
REMARK VINA RESULT: -7.981384225      3.093      5.582
REMARK  16 active torsions:
REMARK  status: ('A' for Active; 'I' for Inactive)
REMARK    1  A    between atoms: C2_2  and  O1_4 
REMARK    2  A    between atoms: C2_2  and  C4_6 
REMARK    3  A    between atoms: C4_6  and  C5_7 
REMARK    4  A    between atoms: C5_7  and  C6_8 
REMARK    5  A    between atoms: C8_14  and  N3_15 
REMARK    6  A    between atoms: N3_15  and  C9_17 
REMARK    7  A    between atoms: C9_17  and  C10_18 
REMARK    8  A    between atoms: C10_18  and  O2_19 
REMARK    9  A    between atoms: C10_18  and  C11_21 
REMARK   10  A    between atoms: C11_21  and  O3_22 
REMARK   11  A    between atoms: C11_21  and  C12_24 
REMARK   12  A    between atoms: C11_21  and  N4_27 
REMARK   13  A    between atoms: C12_24  and  O4_25 
REMARK   14  A    between atoms: C14_35  and  N8_36 
REMARK   15  A    between atoms: N8_36  and  N9_38 
REMARK   16  A    between atoms: C16_44  and  N11_45 
ROOT
HETATM    1  C6  UNL     1     -23.893   6.042  37.891  1.00  0.00     0.164 A 
HETATM    2  N1  UNL     1     -23.591   4.758  38.120  1.00  0.00    -0.319 N 
ATOM      3  H1  UNL     1     -23.872   4.051  37.439  1.00  0.00     0.169 HD
HETATM    4  C7  UNL     1     -22.926   4.376  39.227  1.00  0.00     0.140 A 
HETATM    5  N2  UNL     1     -22.633   3.057  39.433  1.00  0.00    -0.324 N 
ATOM      6  H2  UNL     1     -22.920   2.363  38.744  1.00  0.00     0.169 HD
HETATM    7  C8  UNL     1     -21.976   2.669  40.525  1.00  0.00     0.149 A 
HETATM    8  C14 UNL     1     -21.581   3.625  41.471  1.00  0.00     0.165 A 
HETATM    9  N10 UNL     1     -21.883   4.908  41.238  1.00  0.00    -0.332 N 
ATOM     10  H10 UNL     1     -21.597   5.606  41.925  1.00  0.00     0.168 HD
HETATM   11  C15 UNL     1     -22.543   5.322  40.148  1.00  0.00     0.122 A 
HETATM   12  C16 UNL     1     -22.849   6.646  39.920  1.00  0.00     0.132 A 
HETATM   13  N12 UNL     1     -23.513   6.957  38.800  1.00  0.00    -0.320 N 
ATOM     14  H12 UNL     1     -23.740   7.936  38.627  1.00  0.00     0.169 HD
ENDROOT
BRANCH   7  15
HETATM   15  N3  UNL     1     -21.666   1.447  40.791  1.00  0.00    -0.370 N 
ATOM     16  H3  UNL     1     -22.401   0.895  41.234  1.00  0.00     0.161 HD
BRANCH  15  17
HETATM   17  C9  UNL     1     -20.452   0.766  40.556  1.00  0.00     0.158 C 
BRANCH  17  18
HETATM   18  C10 UNL     1     -19.959  -0.159  41.603  1.00  0.00     0.197 C 
BRANCH  18  19
HETATM   19  O2  UNL     1     -20.344   0.178  42.904  1.00  0.00    -0.389 OA
ATOM     20  H2  UNL     1     -19.922   0.955  43.251  1.00  0.00     0.210 HD
ENDBRANCH  18  19
BRANCH  18  21
HETATM   21  C11 UNL     1     -18.492  -0.462  41.622  1.00  0.00     0.218 C 
BRANCH  21  22
HETATM   22  O3  UNL     1     -18.415  -1.772  42.209  1.00  0.00    -0.364 OA
ATOM     23  H3  UNL     1     -18.125  -2.328  41.494  1.00  0.00     0.213 HD
ENDBRANCH  21  22
BRANCH  21  24
HETATM   24  C12 UNL     1     -17.824  -0.581  40.302  1.00  0.00     0.231 C 
BRANCH  24  25
HETATM   25  O4  UNL     1     -16.787  -1.504  40.260  1.00  0.00    -0.396 OA
ATOM     26  H4  UNL     1     -15.997  -1.192  39.835  1.00  0.00     0.209 HD
ENDBRANCH  24  25
ENDBRANCH  21  24
BRANCH  21  27
HETATM   27  N4  UNL     1     -17.733   0.410  42.523  1.00  0.00    -0.177 N 
HETATM   28  N5  UNL     1     -17.643   1.726  42.379  1.00  0.00    -0.274 N 
HETATM   29  C13 UNL     1     -16.865   2.173  43.364  1.00  0.00     0.217 A 
ATOM     30  H5  UNL     1     -18.086   2.289  41.652  1.00  0.00     0.189 HD
HETATM   31  N6  UNL     1     -16.470   1.119  44.125  1.00  0.00    -0.279 N 
HETATM   32  N7  UNL     1     -17.027   0.058  43.571  1.00  0.00    -0.222 N 
ATOM     33  H6  UNL     1     -15.869   1.142  44.949  1.00  0.00     0.189 HD
ATOM     34  H7  UNL     1     -16.924  -0.898  43.910  1.00  0.00     0.210 HD
ENDBRANCH  21  27
ENDBRANCH  18  21
ENDBRANCH  17  18
ENDBRANCH  15  17
ENDBRANCH   7  15
BRANCH   8  35
HETATM   35  N8  UNL     1     -20.865   3.222  42.639  1.00  0.00    -0.289 N 
ATOM     36  H8  UNL     1     -20.131   2.516  42.580  1.00  0.00     0.188 HD
BRANCH  35  37
HETATM   37  N9  UNL     1     -21.185   3.807  43.853  1.00  0.00    -0.344 N 
ATOM     38  H92 UNL     1     -20.988   4.796  44.004  1.00  0.00     0.176 HD
ATOM     39  H91 UNL     1     -21.613   3.231  44.579  1.00  0.00     0.176 HD
ENDBRANCH  35  37
ENDBRANCH   8  35
BRANCH   1  40
HETATM   40  C5  UNL     1     -24.612   6.423  36.688  1.00  0.00    -0.027 C 
BRANCH  40  41
HETATM   41  C4  UNL     1     -25.224   6.724  35.691  1.00  0.00    -0.061 C 
BRANCH  41  42
HETATM   42  C2  UNL     1     -25.960   7.070  34.466  1.00  0.00     0.114 C 
HETATM   43  C1  UNL     1     -26.001   5.879  33.512  1.00  0.00     0.060 C 
HETATM   44  C3  UNL     1     -27.398   7.436  34.753  1.00  0.00     0.060 C 
BRANCH  42  45
HETATM   45  O1  UNL     1     -25.332   8.142  33.847  1.00  0.00    -0.378 OA
ATOM     46  H1  UNL     1     -24.395   8.092  33.994  1.00  0.00     0.211 HD
ENDBRANCH  42  45
ENDBRANCH  41  42
ENDBRANCH  40  41
ENDBRANCH   1  40
BRANCH  12  47
HETATM   47  N11 UNL     1     -22.478   7.512  40.803  1.00  0.00    -0.383 N 
ATOM     48 2H11 UNL     1     -22.007   8.389  40.579  1.00  0.00     0.157 HD
ATOM     49 1H11 UNL     1     -22.668   7.305  41.784  1.00  0.00     0.157 HD
ENDBRANCH  12  47
TORSDOF 16
ENDMDL
MODEL 4
REMARK VINA RESULT: -7.945080545      2.241      2.728
REMARK  16 active torsions:
REMARK  status: ('A' for Active; 'I' for Inactive)
REMARK    1  A    between atoms: C2_2  and  O1_4 
REMARK    2  A    between atoms: C2_2  and  C4_6 
REMARK    3  A    between atoms: C4_6  and  C5_7 
REMARK    4  A    between atoms: C5_7  and  C6_8 
REMARK    5  A    between atoms: C8_14  and  N3_15 
REMARK    6  A    between atoms: N3_15  and  C9_17 
REMARK    7  A    between atoms: C9_17  and  C10_18 
REMARK    8  A    between atoms: C10_18  and  O2_19 
REMARK    9  A    between atoms: C10_18  and  C11_21 
REMARK   10  A    between atoms: C11_21  and  O3_22 
REMARK   11  A    between atoms: C11_21  and  C12_24 
REMARK   12  A    between atoms: C11_21  and  N4_27 
REMARK   13  A    between atoms: C12_24  and  O4_25 
REMARK   14  A    between atoms: C14_35  and  N8_36 
REMARK   15  A    between atoms: N8_36  and  N9_38 
REMARK   16  A    between atoms: C16_44  and  N11_45 
ROOT
HETATM    1  C6  UNL     1     -22.524   3.283  39.445  1.00  0.00     0.164 A 
HETATM    2  N1  UNL     1     -21.282   3.321  39.943  1.00  0.00    -0.319 N 
ATOM      3  H1  UNL     1     -20.743   4.185  39.873  1.00  0.00     0.169 HD
HETATM    4  C7  UNL     1     -20.726   2.245  40.535  1.00  0.00     0.140 A 
HETATM    5  N2  UNL     1     -19.456   2.314  41.034  1.00  0.00    -0.324 N 
ATOM      6  H2  UNL     1     -18.930   3.184  40.957  1.00  0.00     0.169 HD
HETATM    7  C8  UNL     1     -18.898   1.256  41.621  1.00  0.00     0.149 A 
HETATM    8  C14 UNL     1     -19.624   0.062  41.727  1.00  0.00     0.165 A 
HETATM    9  N10 UNL     1     -20.865   0.028  41.228  1.00  0.00    -0.332 N 
ATOM     10  H10 UNL     1     -21.395  -0.840  41.304  1.00  0.00     0.168 HD
HETATM   11  C15 UNL     1     -21.447   1.079  40.634  1.00  0.00     0.122 A 
HETATM   12  C16 UNL     1     -22.727   1.031  40.124  1.00  0.00     0.132 A 
HETATM   13  N12 UNL     1     -23.217   2.136  39.548  1.00  0.00    -0.320 N 
ATOM     14  H12 UNL     1     -24.164   2.105  39.170  1.00  0.00     0.169 HD
ENDROOT
BRANCH   7  15
HETATM   15  N3  UNL     1     -17.707   1.242  42.111  1.00  0.00    -0.370 N 
ATOM     16  H3  UNL     1     -17.035   0.658  41.614  1.00  0.00     0.161 HD
BRANCH  15  17
HETATM   17  C9  UNL     1     -17.204   1.921  43.242  1.00  0.00     0.158 C 
BRANCH  17  18
HETATM   18  C10 UNL     1     -17.246   1.225  44.549  1.00  0.00     0.197 C 
BRANCH  18  19
HETATM   19  O2  UNL     1     -17.362  -0.165  44.462  1.00  0.00    -0.389 OA
ATOM     20  H2  UNL     1     -17.950  -0.470  43.782  1.00  0.00     0.210 HD
ENDBRANCH  18  19
BRANCH  18  21
HETATM   21  C11 UNL     1     -18.243   1.706  45.557  1.00  0.00     0.218 C 
BRANCH  21  22
HETATM   22  O3  UNL     1     -18.341   0.622  46.496  1.00  0.00    -0.364 OA
ATOM     23  H3  UNL     1     -19.275   0.458  46.562  1.00  0.00     0.213 HD
ENDBRANCH  21  22
BRANCH  21  24
HETATM   24  C12 UNL     1     -17.851   2.890  46.362  1.00  0.00     0.231 C 
BRANCH  24  25
HETATM   25  O4  UNL     1     -16.523   2.899  46.769  1.00  0.00    -0.396 OA
ATOM     26  H4  UNL     1     -16.385   2.649  47.675  1.00  0.00     0.209 HD
ENDBRANCH  24  25
ENDBRANCH  21  24
BRANCH  21  27
HETATM   27  N4  UNL     1     -19.592   1.864  45.007  1.00  0.00    -0.177 N 
HETATM   28  N5  UNL     1     -20.086   3.017  44.572  1.00  0.00    -0.274 N 
HETATM   29  C13 UNL     1     -21.332   2.778  44.165  1.00  0.00     0.217 A 
ATOM     30  H5  UNL     1     -19.602   3.915  44.554  1.00  0.00     0.189 HD
HETATM   31  N6  UNL     1     -21.610   1.460  44.351  1.00  0.00    -0.279 N 
HETATM   32  N7  UNL     1     -20.514   0.940  44.869  1.00  0.00    -0.222 N 
ATOM     33  H6  UNL     1     -22.482   0.976  44.137  1.00  0.00     0.189 HD
ATOM     34  H7  UNL     1     -20.399  -0.041  45.125  1.00  0.00     0.210 HD
ENDBRANCH  21  27
ENDBRANCH  18  21
ENDBRANCH  17  18
ENDBRANCH  15  17
ENDBRANCH   7  15
BRANCH   8  35
HETATM   35  N8  UNL     1     -19.040  -1.075  42.365  1.00  0.00    -0.289 N 
ATOM     36  H8  UNL     1     -19.516  -1.538  43.139  1.00  0.00     0.188 HD
BRANCH  35  37
HETATM   37  N9  UNL     1     -17.814  -1.537  41.915  1.00  0.00    -0.344 N 
ATOM     38  H92 UNL     1     -17.101  -0.870  41.619  1.00  0.00     0.176 HD
ATOM     39  H91 UNL     1     -17.647  -2.544  41.888  1.00  0.00     0.176 HD
ENDBRANCH  35  37
ENDBRANCH   8  35
BRANCH   1  40
HETATM   40  C5  UNL     1     -23.096   4.459  38.811  1.00  0.00    -0.027 C 
BRANCH  40  41
HETATM   41  C4  UNL     1     -23.588   5.425  38.280  1.00  0.00    -0.061 C 
BRANCH  41  42
HETATM   42  C2  UNL     1     -24.211   6.594  37.640  1.00  0.00     0.114 C 
HETATM   43  C1  UNL     1     -25.230   6.151  36.594  1.00  0.00     0.060 C 
HETATM   44  C3  UNL     1     -24.964   7.449  38.634  1.00  0.00     0.060 C 
BRANCH  42  45
HETATM   45  O1  UNL     1     -23.225   7.360  37.036  1.00  0.00    -0.378 OA
ATOM     46  H1  UNL     1     -22.577   7.614  37.682  1.00  0.00     0.211 HD
ENDBRANCH  42  45
ENDBRANCH  41  42
ENDBRANCH  40  41
ENDBRANCH   1  40
BRANCH  12  47
HETATM   47  N11 UNL     1     -23.378  -0.077  40.231  1.00  0.00    -0.383 N 
ATOM     48 2H11 UNL     1     -23.626  -0.672  39.440  1.00  0.00     0.157 HD
ATOM     49 1H11 UNL     1     -23.661  -0.377  41.164  1.00  0.00     0.157 HD
ENDBRANCH  12  47
TORSDOF 16
ENDMDL
MODEL 5
REMARK VINA RESULT: -7.858482724      0.981      1.449
REMARK  16 active torsions:
REMARK  status: ('A' for Active; 'I' for Inactive)
REMARK    1  A    between atoms: C2_2  and  O1_4 
REMARK    2  A    between atoms: C2_2  and  C4_6 
REMARK    3  A    between atoms: C4_6  and  C5_7 
REMARK    4  A    between atoms: C5_7  and  C6_8 
REMARK    5  A    between atoms: C8_14  and  N3_15 
REMARK    6  A    between atoms: N3_15  and  C9_17 
REMARK    7  A    between atoms: C9_17  and  C10_18 
REMARK    8  A    between atoms: C10_18  and  O2_19 
REMARK    9  A    between atoms: C10_18  and  C11_21 
REMARK   10  A    between atoms: C11_21  and  O3_22 
REMARK   11  A    between atoms: C11_21  and  C12_24 
REMARK   12  A    between atoms: C11_21  and  N4_27 
REMARK   13  A    between atoms: C12_24  and  O4_25 
REMARK   14  A    between atoms: C14_35  and  N8_36 
REMARK   15  A    between atoms: N8_36  and  N9_38 
REMARK   16  A    between atoms: C16_44  and  N11_45 
ROOT
HETATM    1  C6  UNL     1     -22.156   3.195  39.600  1.00  0.00     0.164 A 
HETATM    2  N1  UNL     1     -21.100   3.336  40.412  1.00  0.00    -0.319 N 
ATOM      3  H1  UNL     1     -20.737   4.271  40.599  1.00  0.00     0.169 HD
HETATM    4  C7  UNL     1     -20.506   2.272  40.988  1.00  0.00     0.140 A 
HETATM    5  N2  UNL     1     -19.431   2.448  41.812  1.00  0.00    -0.324 N 
ATOM      6  H2  UNL     1     -19.079   3.389  41.990  1.00  0.00     0.169 HD
HETATM    7  C8  UNL     1     -18.836   1.403  42.386  1.00  0.00     0.149 A 
HETATM    8  C14 UNL     1     -19.321   0.111  42.141  1.00  0.00     0.165 A 
HETATM    9  N10 UNL     1     -20.377  -0.026  41.330  1.00  0.00    -0.332 N 
ATOM     10  H10 UNL     1     -20.731  -0.965  41.150  1.00  0.00     0.168 HD
HETATM   11  C15 UNL     1     -20.991   1.010  40.742  1.00  0.00     0.122 A 
HETATM   12  C16 UNL     1     -22.077   0.855  39.907  1.00  0.00     0.132 A 
HETATM   13  N12 UNL     1     -22.619   1.954  39.368  1.00  0.00    -0.320 N 
ATOM     14  H12 UNL     1     -23.423   1.845  38.750  1.00  0.00     0.169 HD
ENDROOT
BRANCH   7  15
HETATM   15  N3  UNL     1     -17.818   1.487  43.170  1.00  0.00    -0.370 N 
ATOM     16  H3  UNL     1     -16.914   1.590  42.707  1.00  0.00     0.161 HD
BRANCH  15  17
HETATM   17  C9  UNL     1     -17.777   1.457  44.581  1.00  0.00     0.158 C 
BRANCH  17  18
HETATM   18  C10 UNL     1     -18.841   2.174  45.324  1.00  0.00     0.197 C 
BRANCH  18  19
HETATM   19  O2  UNL     1     -18.426   2.733  46.536  1.00  0.00    -0.389 OA
ATOM     20  H2  UNL     1     -18.947   2.476  47.287  1.00  0.00     0.210 HD
ENDBRANCH  18  19
BRANCH  18  21
HETATM   21  C11 UNL     1     -20.124   1.442  45.572  1.00  0.00     0.218 C 
BRANCH  21  22
HETATM   22  O3  UNL     1     -20.847   1.578  44.337  1.00  0.00    -0.364 OA
ATOM     23  H3  UNL     1     -21.119   2.489  44.329  1.00  0.00     0.213 HD
ENDBRANCH  21  22
BRANCH  21  24
HETATM   24  C12 UNL     1     -20.017  -0.019  45.806  1.00  0.00     0.231 C 
BRANCH  24  25
HETATM   25  O4  UNL     1     -19.088  -0.384  46.773  1.00  0.00    -0.396 OA
ATOM     26  H4  UNL     1     -19.334  -1.140  47.293  1.00  0.00     0.209 HD
ENDBRANCH  24  25
ENDBRANCH  21  24
BRANCH  21  27
HETATM   27  N4  UNL     1     -20.968   2.080  46.586  1.00  0.00    -0.177 N 
HETATM   28  N5  UNL     1     -21.832   1.425  47.350  1.00  0.00    -0.274 N 
HETATM   29  C13 UNL     1     -22.423   2.328  48.132  1.00  0.00     0.217 A 
ATOM     30  H5  UNL     1     -22.011   0.420  47.341  1.00  0.00     0.189 HD
HETATM   31  N6  UNL     1     -21.917   3.556  47.845  1.00  0.00    -0.279 N 
HETATM   32  N7  UNL     1     -21.027   3.355  46.892  1.00  0.00    -0.222 N 
ATOM     33  H6  UNL     1     -22.170   4.446  48.276  1.00  0.00     0.189 HD
ATOM     34  H7  UNL     1     -20.465   4.086  46.456  1.00  0.00     0.210 HD
ENDBRANCH  21  27
ENDBRANCH  18  21
ENDBRANCH  17  18
ENDBRANCH  15  17
ENDBRANCH   7  15
BRANCH   8  35
HETATM   35  N8  UNL     1     -18.699  -1.015  42.761  1.00  0.00    -0.289 N 
ATOM     36  H8  UNL     1     -19.108  -1.442  43.592  1.00  0.00     0.188 HD
BRANCH  35  37
HETATM   37  N9  UNL     1     -17.530  -1.518  42.214  1.00  0.00    -0.344 N 
ATOM     38  H92 UNL     1     -16.921  -2.108  42.781  1.00  0.00     0.176 HD
ATOM     39  H91 UNL     1     -17.300  -1.287  41.247  1.00  0.00     0.176 HD
ENDBRANCH  35  37
ENDBRANCH   8  35
BRANCH   1  40
HETATM   40  C5  UNL     1     -22.774   4.361  38.993  1.00  0.00    -0.027 C 
BRANCH  40  41
HETATM   41  C4  UNL     1     -23.278   5.325  38.470  1.00  0.00    -0.061 C 
BRANCH  41  42
HETATM   42  C2  UNL     1     -23.914   6.495  37.844  1.00  0.00     0.114 C 
HETATM   43  C1  UNL     1     -25.045   6.057  36.918  1.00  0.00     0.060 C 
HETATM   44  C3  UNL     1     -24.534   7.417  38.869  1.00  0.00     0.060 C 
BRANCH  42  45
HETATM   45  O1  UNL     1     -22.961   7.196  37.119  1.00  0.00    -0.378 OA
ATOM     46  H1  UNL     1     -22.662   7.943  37.622  1.00  0.00     0.211 HD
ENDBRANCH  42  45
ENDBRANCH  41  42
ENDBRANCH  40  41
ENDBRANCH   1  40
BRANCH  12  47
HETATM   47  N11 UNL     1     -22.508  -0.342  39.694  1.00  0.00    -0.383 N 
ATOM     48 2H11 UNL     1     -22.633  -1.042  40.425  1.00  0.00     0.157 HD
ATOM     49 1H11 UNL     1     -22.740  -0.602  38.734  1.00  0.00     0.157 HD
ENDBRANCH  12  47
TORSDOF 16
ENDMDL
