MODEL 1
REMARK VINA RESULT: -10.459175221      0.000      0.000
REMARK  8 active torsions:
REMARK  status: ('A' for Active; 'I' for Inactive)
REMARK    1  A    between atoms: N3_10  and  C6_11 
REMARK    2  A    between atoms: C6_11  and  C7_12 
REMARK    3  A    between atoms: C7_12  and  O2_13 
REMARK    4  A    between atoms: C7_12  and  C8_15 
REMARK       I    between atoms: C8_15  and  N4_17 
REMARK    5  A    between atoms: N4_17  and  N5_19 
REMARK    6  A    between atoms: N5_19  and  C9_21 
REMARK    7  A    between atoms: C10_22  and  C11_23 
REMARK    8  A    between atoms: C12_27  and  N7_28 
ROOT
HETATM    1  N7  UNL     1     -18.360  -0.269  45.506  1.00  0.00    -0.125 N 
ATOM      2  H7  UNL     1     -18.438   0.621  45.998  1.00  0.00     0.197 HD
HETATM    3  C13 UNL     1     -18.382  -1.523  46.181  1.00  0.00     0.196 C 
HETATM    4  N8  UNL     1     -18.396  -2.532  46.746  1.00  0.00    -0.171 NA
ENDROOT
BRANCH   1   5
HETATM    5  C12 UNL     1     -18.222  -0.353  44.100  1.00  0.00     0.700 A 
HETATM    6  N6  UNL     1     -19.118   0.265  43.221  1.00  0.00    -0.132 N 
HETATM    7  C10 UNL     1     -20.357   0.991  43.350  1.00  0.00     0.176 C 
HETATM    8  C15 UNL     1     -18.953   0.200  41.748  1.00  0.00     0.317 A 
HETATM    9  C9  UNL     1     -21.114   0.636  42.296  1.00  0.00     0.154 C 
HETATM   10  N12 UNL     1     -20.309  -0.230  41.445  1.00  0.00    -0.335 N 
ATOM     11  H12 UNL     1     -20.618  -0.955  40.798  1.00  0.00     0.165 HD
HETATM   12  N11 UNL     1     -17.888  -0.591  41.314  1.00  0.00    -0.325 N 
HETATM   13  C14 UNL     1     -17.083  -1.173  42.171  1.00  0.00     0.205 A 
ATOM     14  H11 UNL     1     -17.732  -0.718  40.313  1.00  0.00     0.166 HD
HETATM   15  N9  UNL     1     -17.249  -1.047  43.556  1.00  0.00    -0.162 N 
HETATM   16  N10 UNL     1     -16.037  -1.940  41.570  1.00  0.00    -0.063 NA
ATOM     17  H9  UNL     1     -16.583  -1.515  44.170  1.00  0.00     0.187 HD
BRANCH   7  18
HETATM   18  C11 UNL     1     -20.679   1.862  44.453  1.00  0.00     0.231 C 
HETATM   19  O4  UNL     1     -20.604   1.586  45.658  1.00  0.00    -0.643 OA
HETATM   20  O5  UNL     1     -21.135   3.187  44.209  1.00  0.00    -0.643 OA
ENDBRANCH   7  18
BRANCH   9  21
HETATM   21  N5  UNL     1     -22.441   1.064  42.054  1.00  0.00    -0.281 N 
ATOM     22  H5  UNL     1     -22.867   1.793  42.626  1.00  0.00     0.188 HD
BRANCH  21  23
HETATM   23  N4  UNL     1     -23.154   0.464  41.013  1.00  0.00    -0.266 N 
HETATM   24  C8  UNL     1     -24.147  -0.478  41.332  1.00  0.00     0.266 C 
HETATM   25  O3  UNL     1     -24.384  -0.785  42.523  1.00  0.00    -0.269 OA
ATOM     26  H4  UNL     1     -22.958   0.704  40.041  1.00  0.00     0.190 HD
BRANCH  24  27
HETATM   27  C7  UNL     1     -24.977  -1.167  40.277  1.00  0.00     0.230 C 
BRANCH  27  28
HETATM   28  C6  UNL     1     -25.072  -2.608  40.665  1.00  0.00     0.173 C 
BRANCH  28  29
HETATM   29  N3  UNL     1     -26.344  -2.992  41.186  1.00  0.00    -0.319 N 
HETATM   30  C2  UNL     1     -27.541  -2.672  40.539  1.00  0.00     0.101 A 
HETATM   31  C1  UNL     1     -27.634  -2.162  39.320  1.00  0.00     0.064 C 
HETATM   32  N1  UNL     1     -28.782  -2.983  41.201  1.00  0.00    -0.310 N 
HETATM   33  C3  UNL     1     -28.714  -3.600  42.467  1.00  0.00     0.250 A 
ATOM     34  H1  UNL     1     -29.679  -2.766  40.768  1.00  0.00     0.170 HD
HETATM   35  O1  UNL     1     -29.754  -3.906  43.115  1.00  0.00    -0.268 OA
HETATM   36  C4  UNL     1     -27.434  -3.905  43.073  1.00  0.00     0.119 A 
HETATM   37  C5  UNL     1     -26.300  -3.627  42.488  1.00  0.00     0.125 A 
HETATM   38  N2  UNL     1     -25.029  -3.928  43.083  1.00  0.00    -0.082 NA
ENDBRANCH  28  29
ENDBRANCH  27  28
BRANCH  27  39
HETATM   39  O2  UNL     1     -24.381  -0.909  39.082  1.00  0.00    -0.384 OA
ATOM     40  H2  UNL     1     -24.965  -0.786  38.343  1.00  0.00     0.210 HD
ENDBRANCH  27  39
ENDBRANCH  24  27
ENDBRANCH  21  23
ENDBRANCH   9  21
ENDBRANCH   1   5
TORSDOF 8
ENDMDL
MODEL 2
REMARK VINA RESULT: -9.956016726      1.298      1.623
REMARK  8 active torsions:
REMARK  status: ('A' for Active; 'I' for Inactive)
REMARK    1  A    between atoms: N3_10  and  C6_11 
REMARK    2  A    between atoms: C6_11  and  C7_12 
REMARK    3  A    between atoms: C7_12  and  O2_13 
REMARK    4  A    between atoms: C7_12  and  C8_15 
REMARK       I    between atoms: C8_15  and  N4_17 
REMARK    5  A    between atoms: N4_17  and  N5_19 
REMARK    6  A    between atoms: N5_19  and  C9_21 
REMARK    7  A    between atoms: C10_22  and  C11_23 
REMARK    8  A    between atoms: C12_27  and  N7_28 
ROOT
HETATM    1  N7  UNL     1     -19.094   1.837  45.252  1.00  0.00    -0.125 N 
ATOM      2  H7  UNL     1     -20.002   1.931  45.707  1.00  0.00     0.197 HD
HETATM    3  C13 UNL     1     -17.913   2.444  45.768  1.00  0.00     0.196 C 
HETATM    4  N8  UNL     1     -16.965   2.948  46.197  1.00  0.00    -0.171 NA
ENDROOT
BRANCH   1   5
HETATM    5  C12 UNL     1     -18.910   1.093  44.063  1.00  0.00     0.700 A 
HETATM    6  N6  UNL     1     -19.761   1.221  42.960  1.00  0.00    -0.132 N 
HETATM    7  C10 UNL     1     -20.987   1.925  42.678  1.00  0.00     0.176 C 
HETATM    8  C15 UNL     1     -19.547   0.461  41.704  1.00  0.00     0.317 A 
HETATM    9  C9  UNL     1     -21.716   1.113  41.890  1.00  0.00     0.154 C 
HETATM   10  N12 UNL     1     -20.902  -0.057  41.587  1.00  0.00    -0.335 N 
ATOM     11  H12 UNL     1     -21.205  -1.002  41.352  1.00  0.00     0.165 HD
HETATM   12  N11 UNL     1     -18.486  -0.446  41.743  1.00  0.00    -0.325 N 
HETATM   13  C14 UNL     1     -17.725  -0.552  42.806  1.00  0.00     0.205 A 
ATOM     14  H11 UNL     1     -18.300  -1.035  40.931  1.00  0.00     0.166 HD
HETATM   15  N9  UNL     1     -17.935   0.220  43.955  1.00  0.00    -0.162 N 
HETATM   16  N10 UNL     1     -16.677  -1.516  42.686  1.00  0.00    -0.063 NA
ATOM     17  H9  UNL     1     -17.301   0.098  44.745  1.00  0.00     0.187 HD
BRANCH   7  18
HETATM   18  C11 UNL     1     -21.327   3.217  43.219  1.00  0.00     0.231 C 
HETATM   19  O4  UNL     1     -21.047   3.642  44.348  1.00  0.00    -0.643 OA
HETATM   20  O5  UNL     1     -22.055   4.153  42.433  1.00  0.00    -0.643 OA
ENDBRANCH   7  18
BRANCH   9  21
HETATM   21  N5  UNL     1     -23.024   1.379  41.419  1.00  0.00    -0.281 N 
ATOM     22  H5  UNL     1     -23.547   2.186  41.759  1.00  0.00     0.188 HD
BRANCH  21  23
HETATM   23  N4  UNL     1     -23.581   0.510  40.477  1.00  0.00    -0.266 N 
HETATM   24  C8  UNL     1     -24.341  -0.580  40.935  1.00  0.00     0.266 C 
HETATM   25  O3  UNL     1     -24.508  -0.779  42.159  1.00  0.00    -0.269 OA
ATOM     26  H4  UNL     1     -23.440   0.663  39.479  1.00  0.00     0.190 HD
BRANCH  24  27
HETATM   27  C7  UNL     1     -24.993  -1.563  39.993  1.00  0.00     0.230 C 
BRANCH  27  28
HETATM   28  C6  UNL     1     -25.093  -2.866  40.719  1.00  0.00     0.173 C 
BRANCH  28  29
HETATM   29  N3  UNL     1     -26.382  -3.131  41.272  1.00  0.00    -0.319 N 
HETATM   30  C2  UNL     1     -27.561  -2.758  40.624  1.00  0.00     0.101 A 
HETATM   31  C1  UNL     1     -27.636  -2.302  39.381  1.00  0.00     0.064 C 
HETATM   32  N1  UNL     1     -28.813  -2.946  41.313  1.00  0.00    -0.310 N 
HETATM   33  C3  UNL     1     -28.770  -3.503  42.607  1.00  0.00     0.250 A 
ATOM     34  H1  UNL     1     -29.698  -2.685  40.880  1.00  0.00     0.170 HD
HETATM   35  O1  UNL     1     -29.820  -3.701  43.282  1.00  0.00    -0.268 OA
HETATM   36  C4  UNL     1     -27.507  -3.870  43.215  1.00  0.00     0.119 A 
HETATM   37  C5  UNL     1     -26.364  -3.704  42.604  1.00  0.00     0.125 A 
HETATM   38  N2  UNL     1     -25.110  -4.066  43.200  1.00  0.00    -0.082 NA
ENDBRANCH  28  29
ENDBRANCH  27  28
BRANCH  27  39
HETATM   39  O2  UNL     1     -24.245  -1.569  38.857  1.00  0.00    -0.384 OA
ATOM     40  H2  UNL     1     -23.324  -1.361  38.963  1.00  0.00     0.210 HD
ENDBRANCH  27  39
ENDBRANCH  24  27
ENDBRANCH  21  23
ENDBRANCH   9  21
ENDBRANCH   1   5
TORSDOF 8
ENDMDL
MODEL 3
REMARK VINA RESULT: -9.836007599      3.505      7.888
REMARK  8 active torsions:
REMARK  status: ('A' for Active; 'I' for Inactive)
REMARK    1  A    between atoms: N3_10  and  C6_11 
REMARK    2  A    between atoms: C6_11  and  C7_12 
REMARK    3  A    between atoms: C7_12  and  O2_13 
REMARK    4  A    between atoms: C7_12  and  C8_15 
REMARK       I    between atoms: C8_15  and  N4_17 
REMARK    5  A    between atoms: N4_17  and  N5_19 
REMARK    6  A    between atoms: N5_19  and  C9_21 
REMARK    7  A    between atoms: C10_22  and  C11_23 
REMARK    8  A    between atoms: C12_27  and  N7_28 
ROOT
HETATM    1  N7  UNL     1     -21.219   0.876  39.188  1.00  0.00    -0.125 N 
ATOM      2  H7  UNL     1     -21.249   1.593  38.462  1.00  0.00     0.197 HD
HETATM    3  C13 UNL     1     -19.999   0.299  39.645  1.00  0.00     0.196 C 
HETATM    4  N8  UNL     1     -19.001  -0.163  40.000  1.00  0.00    -0.171 NA
ENDROOT
BRANCH   1   5
HETATM    5  C12 UNL     1     -22.384   0.380  39.818  1.00  0.00     0.700 A 
HETATM    6  N6  UNL     1     -22.843   0.876  41.042  1.00  0.00    -0.132 N 
HETATM    7  C10 UNL     1     -22.359   1.815  42.024  1.00  0.00     0.176 C 
HETATM    8  C15 UNL     1     -24.083   0.374  41.685  1.00  0.00     0.317 A 
HETATM    9  C9  UNL     1     -22.707   1.319  43.225  1.00  0.00     0.154 C 
HETATM   10  N12 UNL     1     -23.505   0.122  42.995  1.00  0.00    -0.335 N 
ATOM     11  H12 UNL     1     -23.628  -0.689  43.601  1.00  0.00     0.165 HD
HETATM   12  N11 UNL     1     -24.703  -0.682  41.013  1.00  0.00    -0.325 N 
HETATM   13  C14 UNL     1     -24.228  -1.134  39.877  1.00  0.00     0.205 A 
ATOM     14  H11 UNL     1     -25.539  -1.109  41.413  1.00  0.00     0.166 HD
HETATM   15  N9  UNL     1     -23.078  -0.598  39.283  1.00  0.00    -0.162 N 
HETATM   16  N10 UNL     1     -24.978  -2.210  39.311  1.00  0.00    -0.063 NA
ATOM     17  H9  UNL     1     -22.765  -0.986  38.392  1.00  0.00     0.187 HD
BRANCH   7  18
HETATM   18  C11 UNL     1     -21.603   3.002  41.710  1.00  0.00     0.231 C 
HETATM   19  O4  UNL     1     -22.057   4.138  41.516  1.00  0.00    -0.643 OA
HETATM   20  O5  UNL     1     -20.187   2.938  41.596  1.00  0.00    -0.643 OA
ENDBRANCH   7  18
BRANCH   9  21
HETATM   21  N5  UNL     1     -22.377   1.889  44.478  1.00  0.00    -0.281 N 
ATOM     22  H5  UNL     1     -23.041   2.487  44.970  1.00  0.00     0.188 HD
BRANCH  21  23
HETATM   23  N4  UNL     1     -21.120   1.616  45.023  1.00  0.00    -0.266 N 
HETATM   24  C8  UNL     1     -20.195   2.666  45.144  1.00  0.00     0.266 C 
HETATM   25  O3  UNL     1     -20.483   3.824  44.762  1.00  0.00    -0.269 OA
ATOM     26  H4  UNL     1     -20.879   0.672  45.328  1.00  0.00     0.190 HD
BRANCH  24  27
HETATM   27  C7  UNL     1     -18.821   2.469  45.734  1.00  0.00     0.230 C 
BRANCH  27  28
HETATM   28  C6  UNL     1     -18.650   1.002  45.970  1.00  0.00     0.173 C 
BRANCH  28  29
HETATM   29  N3  UNL     1     -18.019   0.305  44.895  1.00  0.00    -0.319 N 
HETATM   30  C2  UNL     1     -17.421   0.973  43.824  1.00  0.00     0.101 A 
HETATM   31  C1  UNL     1     -17.205   2.280  43.766  1.00  0.00     0.064 C 
HETATM   32  N1  UNL     1     -16.925   0.192  42.720  1.00  0.00    -0.310 N 
HETATM   33  C3  UNL     1     -17.070  -1.208  42.790  1.00  0.00     0.250 A 
ATOM     34  H1  UNL     1     -16.483   0.637  41.916  1.00  0.00     0.170 HD
HETATM   35  O1  UNL     1     -16.663  -1.967  41.865  1.00  0.00    -0.268 OA
HETATM   36  C4  UNL     1     -17.699  -1.831  43.936  1.00  0.00     0.119 A 
HETATM   37  C5  UNL     1     -18.157  -1.137  44.945  1.00  0.00     0.125 A 
HETATM   38  N2  UNL     1     -18.779  -1.748  46.084  1.00  0.00    -0.082 NA
ENDBRANCH  28  29
ENDBRANCH  27  28
BRANCH  27  39
HETATM   39  O2  UNL     1     -18.752   3.262  46.837  1.00  0.00    -0.384 OA
ATOM     40  H2  UNL     1     -19.571   3.647  47.125  1.00  0.00     0.210 HD
ENDBRANCH  27  39
ENDBRANCH  24  27
ENDBRANCH  21  23
ENDBRANCH   9  21
ENDBRANCH   1   5
TORSDOF 8
ENDMDL
MODEL 4
REMARK VINA RESULT: -9.665728642      1.115      1.320
REMARK  8 active torsions:
REMARK  status: ('A' for Active; 'I' for Inactive)
REMARK    1  A    between atoms: N3_10  and  C6_11 
REMARK    2  A    between atoms: C6_11  and  C7_12 
REMARK    3  A    between atoms: C7_12  and  O2_13 
REMARK    4  A    between atoms: C7_12  and  C8_15 
REMARK       I    between atoms: C8_15  and  N4_17 
REMARK    5  A    between atoms: N4_17  and  N5_19 
REMARK    6  A    between atoms: N5_19  and  C9_21 
REMARK    7  A    between atoms: C10_22  and  C11_23 
REMARK    8  A    between atoms: C12_27  and  N7_28 
ROOT
HETATM    1  N7  UNL     1     -19.026  -0.262  44.827  1.00  0.00    -0.125 N 
ATOM      2  H7  UNL     1     -19.810   0.385  44.915  1.00  0.00     0.197 HD
HETATM    3  C13 UNL     1     -18.488  -0.969  45.941  1.00  0.00     0.196 C 
HETATM    4  N8  UNL     1     -18.060  -1.532  46.856  1.00  0.00    -0.171 NA
ENDROOT
BRANCH   1   5
HETATM    5  C12 UNL     1     -18.390  -0.525  43.591  1.00  0.00     0.700 A 
HETATM    6  N6  UNL     1     -18.919  -0.096  42.370  1.00  0.00    -0.132 N 
HETATM    7  C10 UNL     1     -20.133   0.552  41.941  1.00  0.00     0.176 C 
HETATM    8  C15 UNL     1     -18.233  -0.349  41.078  1.00  0.00     0.317 A 
HETATM    9  C9  UNL     1     -20.454   0.006  40.754  1.00  0.00     0.154 C 
HETATM   10  N12 UNL     1     -19.382  -0.909  40.384  1.00  0.00    -0.335 N 
ATOM     11  H12 UNL     1     -19.425  -1.735  39.788  1.00  0.00     0.165 HD
HETATM   12  N11 UNL     1     -17.070  -1.115  41.174  1.00  0.00    -0.325 N 
HETATM   13  C14 UNL     1     -16.619  -1.519  42.338  1.00  0.00     0.205 A 
ATOM     14  H11 UNL     1     -16.563  -1.365  40.325  1.00  0.00     0.166 HD
HETATM   15  N9  UNL     1     -17.274  -1.217  43.538  1.00  0.00    -0.162 N 
HETATM   16  N10 UNL     1     -15.415  -2.285  42.270  1.00  0.00    -0.063 NA
ATOM     17  H9  UNL     1     -16.867  -1.551  44.412  1.00  0.00     0.187 HD
BRANCH   7  18
HETATM   18  C11 UNL     1     -20.845   1.540  42.713  1.00  0.00     0.231 C 
HETATM   19  O4  UNL     1     -22.073   1.631  42.843  1.00  0.00    -0.643 OA
HETATM   20  O5  UNL     1     -20.130   2.542  43.425  1.00  0.00    -0.643 OA
ENDBRANCH   7  18
BRANCH   9  21
HETATM   21  N5  UNL     1     -21.611   0.304  39.996  1.00  0.00    -0.281 N 
ATOM     22  H5  UNL     1     -21.535   0.643  39.037  1.00  0.00     0.188 HD
BRANCH  21  23
HETATM   23  N4  UNL     1     -22.862   0.123  40.593  1.00  0.00    -0.266 N 
HETATM   24  C8  UNL     1     -23.702  -0.891  40.102  1.00  0.00     0.266 C 
HETATM   25  O3  UNL     1     -23.346  -1.613  39.143  1.00  0.00    -0.269 OA
ATOM     26  H4  UNL     1     -23.159   0.715  41.369  1.00  0.00     0.190 HD
BRANCH  24  27
HETATM   27  C7  UNL     1     -25.062  -1.170  40.692  1.00  0.00     0.230 C 
BRANCH  27  28
HETATM   28  C6  UNL     1     -25.270  -2.649  40.636  1.00  0.00     0.173 C 
BRANCH  28  29
HETATM   29  N3  UNL     1     -26.484  -3.094  41.241  1.00  0.00    -0.319 N 
HETATM   30  C2  UNL     1     -27.734  -2.859  40.662  1.00  0.00     0.101 A 
HETATM   31  C1  UNL     1     -27.930  -2.384  39.440  1.00  0.00     0.064 C 
HETATM   32  N1  UNL     1     -28.914  -3.226  41.404  1.00  0.00    -0.310 N 
HETATM   33  C3  UNL     1     -28.734  -3.807  42.675  1.00  0.00     0.250 A 
ATOM     34  H1  UNL     1     -29.846  -3.071  41.022  1.00  0.00     0.170 HD
HETATM   35  O1  UNL     1     -29.714  -4.157  43.392  1.00  0.00    -0.268 OA
HETATM   36  C4  UNL     1     -27.404  -4.023  43.210  1.00  0.00     0.119 A 
HETATM   37  C5  UNL     1     -26.325  -3.694  42.551  1.00  0.00     0.125 A 
HETATM   38  N2  UNL     1     -25.006  -3.907  43.074  1.00  0.00    -0.082 NA
ENDBRANCH  28  29
ENDBRANCH  27  28
BRANCH  27  39
HETATM   39  O2  UNL     1     -25.952  -0.415  39.993  1.00  0.00    -0.384 OA
ATOM     40  H2  UNL     1     -26.762  -0.204  40.442  1.00  0.00     0.210 HD
ENDBRANCH  27  39
ENDBRANCH  24  27
ENDBRANCH  21  23
ENDBRANCH   9  21
ENDBRANCH   1   5
TORSDOF 8
ENDMDL
MODEL 5
REMARK VINA RESULT: -9.622055259      3.990      7.557
REMARK  8 active torsions:
REMARK  status: ('A' for Active; 'I' for Inactive)
REMARK    1  A    between atoms: N3_10  and  C6_11 
REMARK    2  A    between atoms: C6_11  and  C7_12 
REMARK    3  A    between atoms: C7_12  and  O2_13 
REMARK    4  A    between atoms: C7_12  and  C8_15 
REMARK       I    between atoms: C8_15  and  N4_17 
REMARK    5  A    between atoms: N4_17  and  N5_19 
REMARK    6  A    between atoms: N5_19  and  C9_21 
REMARK    7  A    between atoms: C10_22  and  C11_23 
REMARK    8  A    between atoms: C12_27  and  N7_28 
ROOT
HETATM    1  N7  UNL     1     -22.406   3.355  43.254  1.00  0.00    -0.125 N 
ATOM      2  H7  UNL     1     -21.694   3.658  43.919  1.00  0.00     0.197 HD
HETATM    3  C13 UNL     1     -23.573   2.642  43.653  1.00  0.00     0.196 C 
HETATM    4  N8  UNL     1     -24.512   2.059  43.992  1.00  0.00    -0.171 NA
ENDROOT
BRANCH   1   5
HETATM    5  C12 UNL     1     -22.309   3.610  41.866  1.00  0.00     0.700 A 
HETATM    6  N6  UNL     1     -22.005   2.609  40.939  1.00  0.00    -0.132 N 
HETATM    7  C10 UNL     1     -21.627   1.219  41.006  1.00  0.00     0.176 C 
HETATM    8  C15 UNL     1     -21.934   2.875  39.481  1.00  0.00     0.317 A 
HETATM    9  C9  UNL     1     -20.735   1.022  40.018  1.00  0.00     0.154 C 
HETATM   10  N12 UNL     1     -20.634   2.262  39.260  1.00  0.00    -0.335 N 
ATOM     11  H12 UNL     1     -19.849   2.612  38.711  1.00  0.00     0.165 HD
HETATM   12  N11 UNL     1     -22.112   4.213  39.122  1.00  0.00    -0.325 N 
HETATM   13  C14 UNL     1     -22.373   5.128  40.025  1.00  0.00     0.205 A 
ATOM     14  H11 UNL     1     -22.038   4.483  38.141  1.00  0.00     0.166 HD
HETATM   15  N9  UNL     1     -22.477   4.823  41.388  1.00  0.00    -0.162 N 
HETATM   16  N10 UNL     1     -22.537   6.446  39.499  1.00  0.00    -0.063 NA
ATOM     17  H9  UNL     1     -22.693   5.577  42.041  1.00  0.00     0.187 HD
BRANCH   7  18
HETATM   18  C11 UNL     1     -22.104   0.293  42.004  1.00  0.00     0.231 C 
HETATM   19  O4  UNL     1     -21.513  -0.047  43.037  1.00  0.00    -0.643 OA
HETATM   20  O5  UNL     1     -23.373  -0.330  41.852  1.00  0.00    -0.643 OA
ENDBRANCH   7  18
BRANCH   9  21
HETATM   21  N5  UNL     1     -20.053  -0.190  39.754  1.00  0.00    -0.281 N 
ATOM     22  H5  UNL     1     -20.018  -0.575  38.810  1.00  0.00     0.188 HD
BRANCH  21  23
HETATM   23  N4  UNL     1     -19.429  -0.847  40.818  1.00  0.00    -0.266 N 
HETATM   24  C8  UNL     1     -18.036  -0.727  40.959  1.00  0.00     0.266 C 
HETATM   25  O3  UNL     1     -17.362  -0.055  40.145  1.00  0.00    -0.269 OA
ATOM     26  H4  UNL     1     -19.973  -1.402  41.478  1.00  0.00     0.190 HD
BRANCH  24  27
HETATM   27  C7  UNL     1     -17.278  -1.388  42.084  1.00  0.00     0.230 C 
BRANCH  27  28
HETATM   28  C6  UNL     1     -16.879  -0.308  43.038  1.00  0.00     0.173 C 
BRANCH  28  29
HETATM   29  N3  UNL     1     -17.965   0.254  43.775  1.00  0.00    -0.319 N 
HETATM   30  C2  UNL     1     -18.496   1.511  43.475  1.00  0.00     0.101 A 
HETATM   31  C1  UNL     1     -18.199   2.226  42.400  1.00  0.00     0.064 C 
HETATM   32  N1  UNL     1     -19.502   2.057  44.350  1.00  0.00    -0.310 N 
HETATM   33  C3  UNL     1     -19.895   1.283  45.461  1.00  0.00     0.250 A 
ATOM     34  H1  UNL     1     -19.915   2.972  44.173  1.00  0.00     0.170 HD
HETATM   35  O1  UNL     1     -20.770   1.687  46.278  1.00  0.00    -0.268 OA
HETATM   36  C4  UNL     1     -19.301  -0.016  45.705  1.00  0.00     0.119 A 
HETATM   37  C5  UNL     1     -18.387  -0.524  44.923  1.00  0.00     0.125 A 
HETATM   38  N2  UNL     1     -17.797  -1.811  45.158  1.00  0.00    -0.082 NA
ENDBRANCH  28  29
ENDBRANCH  27  28
BRANCH  27  39
HETATM   39  O2  UNL     1     -16.259  -2.084  41.511  1.00  0.00    -0.384 OA
ATOM     40  H2  UNL     1     -15.556  -1.564  41.140  1.00  0.00     0.210 HD
ENDBRANCH  27  39
ENDBRANCH  24  27
ENDBRANCH  21  23
ENDBRANCH   9  21
ENDBRANCH   1   5
TORSDOF 8
ENDMDL
