MODEL 1
REMARK VINA RESULT: -6.920708558      0.000      0.000
REMARK  13 active torsions:
REMARK  status: ('A' for Active; 'I' for Inactive)
REMARK    1  A    between atoms: N1_2  and  C2_5 
REMARK    2  A    between atoms: C3_7  and  O2_8 
REMARK    3  A    between atoms: O2_8  and  C4_9 
REMARK    4  A    between atoms: C5_10  and  N2_11 
REMARK    5  A    between atoms: C7_16  and  N3_17 
REMARK    6  A    between atoms: C8_21  and  O3_22 
REMARK    7  A    between atoms: O3_22  and  C9_23 
REMARK    8  A    between atoms: C12_27  and  N4_28 
REMARK    9  A    between atoms: C13_32  and  O5_33 
REMARK   10  A    between atoms: C14_35  and  O6_36 
REMARK   11  A    between atoms: C15_38  and  N5_39 
REMARK   12  A    between atoms: N5_39  and  O7_40 
REMARK   13  A    between atoms: C17_44  and  O9_45 
ROOT
HETATM    1  C4  UNL     1     -23.093   1.564  40.966  1.00  0.00     0.181 C 
HETATM    2  C5  UNL     1     -23.429   1.558  42.473  1.00  0.00     0.216 C 
HETATM    3  C6  UNL     1     -22.312   2.292  43.214  1.00  0.00     0.070 C 
HETATM    4  C7  UNL     1     -21.089   1.416  43.075  1.00  0.00     0.216 C 
HETATM    5  C8  UNL     1     -20.683   1.270  41.617  1.00  0.00     0.179 C 
HETATM    6  C15 UNL     1     -21.844   0.829  40.740  1.00  0.00     0.168 C 
ENDROOT
BRANCH   5   7
HETATM    7  O3  UNL     1     -19.758   0.238  41.577  1.00  0.00    -0.349 OA
BRANCH   7   8
HETATM    8  C9  UNL     1     -18.451   0.673  41.354  1.00  0.00     0.292 C 
HETATM    9  O4  UNL     1     -17.673  -0.433  41.298  1.00  0.00    -0.351 OA
HETATM   10  C10 UNL     1     -17.507  -1.223  42.372  1.00  0.00     0.153 C 
HETATM   11  C11 UNL     1     -16.134  -1.859  42.476  1.00  0.00     0.042 C 
HETATM   12  C12 UNL     1     -17.943  -0.576  43.633  1.00  0.00     0.243 C 
HETATM   13  C13 UNL     1     -17.639   0.899  43.707  1.00  0.00     0.184 C 
HETATM   14  C14 UNL     1     -18.113   1.629  42.471  1.00  0.00     0.204 C 
BRANCH  12  15
HETATM   15  N4  UNL     1     -17.374  -1.205  44.820  1.00  0.00    -0.070 N 
ATOM     16  H43 UNL     1     -17.984  -1.945  45.170  1.00  0.00     0.274 HD
ATOM     17  H42 UNL     1     -16.556  -1.766  44.579  1.00  0.00     0.274 HD
ATOM     18  H41 UNL     1     -17.153  -0.535  45.557  1.00  0.00     0.274 HD
ENDBRANCH  12  15
BRANCH  13  19
HETATM   19  O5  UNL     1     -16.277   1.078  43.942  1.00  0.00    -0.391 OA
ATOM     20  H5  UNL     1     -15.871   1.449  43.168  1.00  0.00     0.210 HD
ENDBRANCH  13  19
BRANCH  14  21
HETATM   21  O6  UNL     1     -17.060   2.431  42.045  1.00  0.00    -0.388 OA
ATOM     22  H6  UNL     1     -17.427   3.174  41.582  1.00  0.00     0.210 HD
ENDBRANCH  14  21
ENDBRANCH   7   8
ENDBRANCH   5   7
BRANCH   4  23
HETATM   23  N3  UNL     1     -21.366   0.129  43.671  1.00  0.00    -0.072 N 
ATOM     24  H33 UNL     1     -21.517   0.191  44.678  1.00  0.00     0.274 HD
ATOM     25  H32 UNL     1     -22.284  -0.230  43.412  1.00  0.00     0.274 HD
ATOM     26  H31 UNL     1     -20.613  -0.516  43.430  1.00  0.00     0.274 HD
ENDBRANCH   4  23
BRANCH   6  27
HETATM   27  N5  UNL     1     -21.374   0.849  39.396  1.00  0.00    -0.094 NA
BRANCH  27  28
HETATM   28  O7  UNL     1     -20.746   1.985  39.078  1.00  0.00    -0.295 OA
ATOM     29  H7  UNL     1     -21.226   2.511  38.449  1.00  0.00     0.238 HD
ENDBRANCH  27  28
ENDBRANCH   6  27
BRANCH   1  30
HETATM   30  O2  UNL     1     -24.172   0.920  40.380  1.00  0.00    -0.330 OA
BRANCH  30  31
HETATM   31  C3  UNL     1     -24.344  -0.391  40.720  1.00  0.00     0.415 C 
HETATM   32  O1  UNL     1     -25.105  -0.984  39.689  1.00  0.00    -0.303 OA
HETATM   33  C2  UNL     1     -25.231  -2.342  39.808  1.00  0.00     0.355 C 
HETATM   34  C17 UNL     1     -24.840  -2.940  41.114  1.00  0.00     0.198 C 
HETATM   35  C16 UNL     1     -24.825  -1.970  42.251  1.00  0.00     0.209 C 
HETATM   36  O8  UNL     1     -25.022  -0.668  41.873  1.00  0.00    -0.336 OA
BRANCH  33  37
HETATM   37  N1  UNL     1     -26.627  -2.667  39.542  1.00  0.00    -0.050 N 
HETATM   38  C1  UNL     1     -27.503  -1.526  39.653  1.00  0.00     0.270 C 
ATOM     39  H12 UNL     1     -26.944  -3.428  40.141  1.00  0.00     0.279 HD
ATOM     40  H11 UNL     1     -26.729  -3.116  38.632  1.00  0.00     0.279 HD
ENDBRANCH  33  37
BRANCH  34  41
HETATM   41  O9  UNL     1     -25.616  -4.079  41.423  1.00  0.00    -0.389 OA
ATOM     42  H9  UNL     1     -25.287  -4.859  40.992  1.00  0.00     0.210 HD
ENDBRANCH  34  41
ENDBRANCH  30  31
ENDBRANCH   1  30
BRANCH   2  43
HETATM   43  N2  UNL     1     -24.668   2.198  42.753  1.00  0.00    -0.072 N 
ATOM     44  H23 UNL     1     -24.624   2.717  43.630  1.00  0.00     0.274 HD
ATOM     45  H22 UNL     1     -24.835   2.974  42.113  1.00  0.00     0.274 HD
ATOM     46  H21 UNL     1     -25.451   1.544  42.752  1.00  0.00     0.274 HD
ENDBRANCH   2  43
TORSDOF 13
ENDMDL
MODEL 2
REMARK VINA RESULT: -6.873833974      2.327      3.638
REMARK  13 active torsions:
REMARK  status: ('A' for Active; 'I' for Inactive)
REMARK    1  A    between atoms: N1_2  and  C2_5 
REMARK    2  A    between atoms: C3_7  and  O2_8 
REMARK    3  A    between atoms: O2_8  and  C4_9 
REMARK    4  A    between atoms: C5_10  and  N2_11 
REMARK    5  A    between atoms: C7_16  and  N3_17 
REMARK    6  A    between atoms: C8_21  and  O3_22 
REMARK    7  A    between atoms: O3_22  and  C9_23 
REMARK    8  A    between atoms: C12_27  and  N4_28 
REMARK    9  A    between atoms: C13_32  and  O5_33 
REMARK   10  A    between atoms: C14_35  and  O6_36 
REMARK   11  A    between atoms: C15_38  and  N5_39 
REMARK   12  A    between atoms: N5_39  and  O7_40 
REMARK   13  A    between atoms: C17_44  and  O9_45 
ROOT
HETATM    1  C4  UNL     1     -22.326   0.559  41.327  1.00  0.00     0.181 C 
HETATM    2  C5  UNL     1     -21.281   1.051  40.303  1.00  0.00     0.216 C 
HETATM    3  C6  UNL     1     -19.889   0.768  40.868  1.00  0.00     0.070 C 
HETATM    4  C7  UNL     1     -19.741   1.685  42.060  1.00  0.00     0.216 C 
HETATM    5  C8  UNL     1     -20.769   1.359  43.131  1.00  0.00     0.179 C 
HETATM    6  C15 UNL     1     -22.184   1.316  42.575  1.00  0.00     0.168 C 
ENDROOT
BRANCH   5   7
HETATM    7  O3  UNL     1     -20.741   2.418  44.026  1.00  0.00    -0.349 OA
BRANCH   7   8
HETATM    8  C9  UNL     1     -20.595   2.016  45.354  1.00  0.00     0.292 C 
HETATM    9  O4  UNL     1     -19.761   2.905  45.943  1.00  0.00    -0.351 OA
HETATM   10  C10 UNL     1     -18.478   3.017  45.560  1.00  0.00     0.153 C 
HETATM   11  C11 UNL     1     -17.516   3.358  46.682  1.00  0.00     0.042 C 
HETATM   12  C12 UNL     1     -18.024   1.871  44.735  1.00  0.00     0.243 C 
HETATM   13  C13 UNL     1     -18.587   0.540  45.165  1.00  0.00     0.184 C 
HETATM   14  C14 UNL     1     -20.089   0.595  45.328  1.00  0.00     0.204 C 
BRANCH  12  15
HETATM   15  N4  UNL     1     -16.571   1.744  44.691  1.00  0.00    -0.070 N 
ATOM     16  H43 UNL     1     -16.233   1.752  43.729  1.00  0.00     0.274 HD
ATOM     17  H42 UNL     1     -16.121   2.594  45.031  1.00  0.00     0.274 HD
ATOM     18  H41 UNL     1     -16.230   0.924  45.192  1.00  0.00     0.274 HD
ENDBRANCH  12  15
BRANCH  13  19
HETATM   19  O5  UNL     1     -17.940   0.119  46.326  1.00  0.00    -0.391 OA
ATOM     20  H5  UNL     1     -18.514  -0.459  46.813  1.00  0.00     0.210 HD
ENDBRANCH  13  19
BRANCH  14  21
HETATM   21  O6  UNL     1     -20.385   0.012  46.555  1.00  0.00    -0.388 OA
ATOM     22  H6  UNL     1     -21.296  -0.256  46.539  1.00  0.00     0.210 HD
ENDBRANCH  14  21
ENDBRANCH   7   8
ENDBRANCH   5   7
BRANCH   4  23
HETATM   23  N3  UNL     1     -19.866   3.054  41.615  1.00  0.00    -0.072 N 
ATOM     24  H33 UNL     1     -18.966   3.533  41.571  1.00  0.00     0.274 HD
ATOM     25  H32 UNL     1     -20.111   3.122  40.628  1.00  0.00     0.274 HD
ATOM     26  H31 UNL     1     -20.535   3.537  42.216  1.00  0.00     0.274 HD
ENDBRANCH   4  23
BRANCH   6  27
HETATM   27  N5  UNL     1     -23.030   0.885  43.635  1.00  0.00    -0.094 NA
BRANCH  27  28
HETATM   28  O7  UNL     1     -24.274   1.363  43.540  1.00  0.00    -0.295 OA
ATOM     29  H7  UNL     1     -24.932   0.680  43.482  1.00  0.00     0.238 HD
ENDBRANCH  27  28
ENDBRANCH   6  27
BRANCH   1  30
HETATM   30  O2  UNL     1     -23.543   0.817  40.714  1.00  0.00    -0.330 OA
BRANCH  30  31
HETATM   31  C3  UNL     1     -24.291  -0.278  40.386  1.00  0.00     0.415 C 
HETATM   32  O1  UNL     1     -24.778  -0.816  41.598  1.00  0.00    -0.303 OA
HETATM   33  C2  UNL     1     -25.678  -1.834  41.425  1.00  0.00     0.355 C 
HETATM   34  C17 UNL     1     -25.774  -2.420  40.060  1.00  0.00     0.198 C 
HETATM   35  C16 UNL     1     -24.577  -2.170  39.201  1.00  0.00     0.209 C 
HETATM   36  O8  UNL     1     -23.663  -1.315  39.757  1.00  0.00    -0.336 OA
BRANCH  33  37
HETATM   37  N1  UNL     1     -25.317  -2.888  42.365  1.00  0.00    -0.050 N 
HETATM   38  C1  UNL     1     -26.462  -3.555  42.934  1.00  0.00     0.270 C 
ATOM     39  H12 UNL     1     -24.705  -2.527  43.097  1.00  0.00     0.279 HD
ATOM     40  H11 UNL     1     -24.682  -3.558  41.932  1.00  0.00     0.279 HD
ENDBRANCH  33  37
BRANCH  34  41
HETATM   41  O9  UNL     1     -26.096  -3.795  40.101  1.00  0.00    -0.389 OA
ATOM     42  H9  UNL     1     -26.426  -4.055  40.953  1.00  0.00     0.210 HD
ENDBRANCH  34  41
ENDBRANCH  30  31
ENDBRANCH   1  30
BRANCH   2  43
HETATM   43  N2  UNL     1     -21.409   0.402  39.044  1.00  0.00    -0.072 N 
ATOM     44  H23 UNL     1     -20.515   0.024  38.732  1.00  0.00     0.274 HD
ATOM     45  H22 UNL     1     -21.933  -0.468  39.131  1.00  0.00     0.274 HD
ATOM     46  H21 UNL     1     -21.820   1.009  38.334  1.00  0.00     0.274 HD
ENDBRANCH   2  43
TORSDOF 13
ENDMDL
MODEL 3
REMARK VINA RESULT: -6.418757395      8.193     12.184
REMARK  13 active torsions:
REMARK  status: ('A' for Active; 'I' for Inactive)
REMARK    1  A    between atoms: N1_2  and  C2_5 
REMARK    2  A    between atoms: C3_7  and  O2_8 
REMARK    3  A    between atoms: O2_8  and  C4_9 
REMARK    4  A    between atoms: C5_10  and  N2_11 
REMARK    5  A    between atoms: C7_16  and  N3_17 
REMARK    6  A    between atoms: C8_21  and  O3_22 
REMARK    7  A    between atoms: O3_22  and  C9_23 
REMARK    8  A    between atoms: C12_27  and  N4_28 
REMARK    9  A    between atoms: C13_32  and  O5_33 
REMARK   10  A    between atoms: C14_35  and  O6_36 
REMARK   11  A    between atoms: C15_38  and  N5_39 
REMARK   12  A    between atoms: N5_39  and  O7_40 
REMARK   13  A    between atoms: C17_44  and  O9_45 
ROOT
HETATM    1  C4  UNL     1     -26.266   6.537  36.515  1.00  0.00     0.181 C 
HETATM    2  C5  UNL     1     -26.739   5.961  35.164  1.00  0.00     0.216 C 
HETATM    3  C6  UNL     1     -27.714   6.957  34.535  1.00  0.00     0.070 C 
HETATM    4  C7  UNL     1     -28.935   6.945  35.423  1.00  0.00     0.216 C 
HETATM    5  C8  UNL     1     -28.597   7.424  36.826  1.00  0.00     0.179 C 
HETATM    6  C15 UNL     1     -27.413   6.675  37.418  1.00  0.00     0.168 C 
ENDROOT
BRANCH   5   7
HETATM    7  O3  UNL     1     -29.689   7.101  37.617  1.00  0.00    -0.349 OA
BRANCH   7   8
HETATM    8  C9  UNL     1     -30.557   8.173  37.828  1.00  0.00     0.292 C 
HETATM    9  O4  UNL     1     -30.063   8.878  38.872  1.00  0.00    -0.351 OA
HETATM   10  C10 UNL     1     -29.999   8.346  40.105  1.00  0.00     0.153 C 
HETATM   11  C11 UNL     1     -30.219   9.340  41.229  1.00  0.00     0.042 C 
HETATM   12  C12 UNL     1     -30.822   7.121  40.244  1.00  0.00     0.243 C 
HETATM   13  C13 UNL     1     -32.128   7.166  39.491  1.00  0.00     0.184 C 
HETATM   14  C14 UNL     1     -31.928   7.586  38.053  1.00  0.00     0.204 C 
BRANCH  12  15
HETATM   15  N4  UNL     1     -31.123   6.795  41.634  1.00  0.00    -0.070 N 
ATOM     16  H43 UNL     1     -30.703   7.475  42.268  1.00  0.00     0.274 HD
ATOM     17  H42 UNL     1     -32.108   6.962  41.843  1.00  0.00     0.274 HD
ATOM     18  H41 UNL     1     -30.852   5.844  41.886  1.00  0.00     0.274 HD
ENDBRANCH  12  15
BRANCH  13  19
HETATM   19  O5  UNL     1     -33.022   7.993  40.169  1.00  0.00    -0.391 OA
ATOM     20  H5  UNL     1     -33.284   8.707  39.599  1.00  0.00     0.210 HD
ENDBRANCH  13  19
BRANCH  14  21
HETATM   21  O6  UNL     1     -32.867   8.578  37.786  1.00  0.00    -0.388 OA
ATOM     22  H6  UNL     1     -33.684   8.152  37.556  1.00  0.00     0.210 HD
ENDBRANCH  14  21
ENDBRANCH   7   8
ENDBRANCH   5   7
BRANCH   4  23
HETATM   23  N3  UNL     1     -29.484   5.608  35.446  1.00  0.00    -0.072 N 
ATOM     24  H33 UNL     1     -30.412   5.561  35.026  1.00  0.00     0.274 HD
ATOM     25  H32 UNL     1     -29.004   4.980  34.802  1.00  0.00     0.274 HD
ATOM     26  H31 UNL     1     -29.473   5.263  36.406  1.00  0.00     0.274 HD
ENDBRANCH   4  23
BRANCH   6  27
HETATM   27  N5  UNL     1     -27.120   7.291  38.667  1.00  0.00    -0.094 NA
BRANCH  27  28
HETATM   28  O7  UNL     1     -26.913   8.607  38.565  1.00  0.00    -0.295 OA
ATOM     29  H7  UNL     1     -26.019   8.860  38.764  1.00  0.00     0.238 HD
ENDBRANCH  27  28
ENDBRANCH   6  27
BRANCH   1  30
HETATM   30  O2  UNL     1     -25.364   5.593  36.983  1.00  0.00    -0.330 OA
BRANCH  30  31
HETATM   31  C3  UNL     1     -24.300   6.081  37.688  1.00  0.00     0.415 C 
HETATM   32  O1  UNL     1     -23.536   4.965  38.096  1.00  0.00    -0.303 OA
HETATM   33  C2  UNL     1     -22.345   5.299  38.684  1.00  0.00     0.355 C 
HETATM   34  C17 UNL     1     -22.170   6.723  39.084  1.00  0.00     0.198 C 
HETATM   35  C16 UNL     1     -23.451   7.477  39.235  1.00  0.00     0.209 C 
HETATM   36  O8  UNL     1     -24.558   6.779  38.833  1.00  0.00    -0.336 OA
BRANCH  33  37
HETATM   37  N1  UNL     1     -22.202   4.459  39.866  1.00  0.00    -0.050 N 
HETATM   38  C1  UNL     1     -22.556   3.081  39.626  1.00  0.00     0.270 C 
ATOM     39  H12 UNL     1     -22.733   4.839  40.649  1.00  0.00     0.279 HD
ATOM     40  H11 UNL     1     -21.261   4.531  40.252  1.00  0.00     0.279 HD
ENDBRANCH  33  37
BRANCH  34  41
HETATM   41  O9  UNL     1     -21.362   6.849  40.236  1.00  0.00    -0.389 OA
ATOM     42  H9  UNL     1     -20.452   6.648  40.052  1.00  0.00     0.210 HD
ENDBRANCH  34  41
ENDBRANCH  30  31
ENDBRANCH   1  30
BRANCH   2  43
HETATM   43  N2  UNL     1     -25.661   5.738  34.263  1.00  0.00    -0.072 N 
ATOM     44  H23 UNL     1     -25.818   4.901  33.701  1.00  0.00     0.274 HD
ATOM     45  H22 UNL     1     -25.654   6.435  33.519  1.00  0.00     0.274 HD
ATOM     46  H21 UNL     1     -24.760   5.698  34.739  1.00  0.00     0.274 HD
ENDBRANCH   2  43
TORSDOF 13
ENDMDL
MODEL 4
REMARK VINA RESULT: -6.348986748      1.879      2.276
REMARK  13 active torsions:
REMARK  status: ('A' for Active; 'I' for Inactive)
REMARK    1  A    between atoms: N1_2  and  C2_5 
REMARK    2  A    between atoms: C3_7  and  O2_8 
REMARK    3  A    between atoms: O2_8  and  C4_9 
REMARK    4  A    between atoms: C5_10  and  N2_11 
REMARK    5  A    between atoms: C7_16  and  N3_17 
REMARK    6  A    between atoms: C8_21  and  O3_22 
REMARK    7  A    between atoms: O3_22  and  C9_23 
REMARK    8  A    between atoms: C12_27  and  N4_28 
REMARK    9  A    between atoms: C13_32  and  O5_33 
REMARK   10  A    between atoms: C14_35  and  O6_36 
REMARK   11  A    between atoms: C15_38  and  N5_39 
REMARK   12  A    between atoms: N5_39  and  O7_40 
REMARK   13  A    between atoms: C17_44  and  O9_45 
ROOT
HETATM    1  C4  UNL     1     -21.574   1.721  39.962  1.00  0.00     0.181 C 
HETATM    2  C5  UNL     1     -22.467   2.916  40.356  1.00  0.00     0.216 C 
HETATM    3  C6  UNL     1     -21.582   3.980  41.005  1.00  0.00     0.070 C 
HETATM    4  C7  UNL     1     -21.120   3.380  42.312  1.00  0.00     0.216 C 
HETATM    5  C8  UNL     1     -20.280   2.135  42.076  1.00  0.00     0.179 C 
HETATM    6  C15 UNL     1     -20.978   1.136  41.168  1.00  0.00     0.168 C 
ENDROOT
BRANCH   5   7
HETATM    7  O3  UNL     1     -20.160   1.512  43.310  1.00  0.00    -0.349 OA
BRANCH   7   8
HETATM    8  C9  UNL     1     -18.981   1.838  43.982  1.00  0.00     0.292 C 
HETATM    9  O4  UNL     1     -17.988   1.124  43.402  1.00  0.00    -0.351 OA
HETATM   10  C10 UNL     1     -17.965  -0.218  43.467  1.00  0.00     0.153 C 
HETATM   11  C11 UNL     1     -16.574  -0.818  43.541  1.00  0.00     0.042 C 
HETATM   12  C12 UNL     1     -18.886  -0.758  44.496  1.00  0.00     0.243 C 
HETATM   13  C13 UNL     1     -18.964   0.073  45.751  1.00  0.00     0.184 C 
HETATM   14  C14 UNL     1     -19.212   1.531  45.441  1.00  0.00     0.204 C 
BRANCH  12  15
HETATM   15  N4  UNL     1     -18.558  -2.125  44.889  1.00  0.00    -0.070 N 
ATOM     16  H43 UNL     1     -17.659  -2.410  44.501  1.00  0.00     0.274 HD
ATOM     17  H42 UNL     1     -18.334  -2.175  45.882  1.00  0.00     0.274 HD
ATOM     18  H41 UNL     1     -19.290  -2.793  44.645  1.00  0.00     0.274 HD
ENDBRANCH  12  15
BRANCH  13  19
HETATM   19  O5  UNL     1     -17.809  -0.123  46.506  1.00  0.00    -0.391 OA
ATOM     20  H5  UNL     1     -17.854   0.407  47.293  1.00  0.00     0.210 HD
ENDBRANCH  13  19
BRANCH  14  21
HETATM   21  O6  UNL     1     -18.293   2.266  46.184  1.00  0.00    -0.388 OA
ATOM     22  H6  UNL     1     -18.774   2.914  46.684  1.00  0.00     0.210 HD
ENDBRANCH  14  21
ENDBRANCH   7   8
ENDBRANCH   5   7
BRANCH   4  23
HETATM   23  N3  UNL     1     -22.277   3.083  43.126  1.00  0.00    -0.072 N 
ATOM     24  H33 UNL     1     -22.904   3.882  43.217  1.00  0.00     0.274 HD
ATOM     25  H32 UNL     1     -22.925   2.446  42.662  1.00  0.00     0.274 HD
ATOM     26  H31 UNL     1     -21.964   2.729  44.029  1.00  0.00     0.274 HD
ENDBRANCH   4  23
BRANCH   6  27
HETATM   27  N5  UNL     1     -20.051   0.082  40.926  1.00  0.00    -0.094 NA
BRANCH  27  28
HETATM   28  O7  UNL     1     -19.542   0.107  39.691  1.00  0.00    -0.295 OA
ATOM     29  H7  UNL     1     -19.465  -0.757  39.303  1.00  0.00     0.238 HD
ENDBRANCH  27  28
ENDBRANCH   6  27
BRANCH   1  30
HETATM   30  O2  UNL     1     -22.449   0.836  39.350  1.00  0.00    -0.330 OA
BRANCH  30  31
HETATM   31  C3  UNL     1     -23.137   0.001  40.184  1.00  0.00     0.415 C 
HETATM   32  O1  UNL     1     -24.220  -0.517  39.439  1.00  0.00    -0.303 OA
HETATM   33  C2  UNL     1     -24.919  -1.496  40.093  1.00  0.00     0.355 C 
HETATM   34  C17 UNL     1     -24.656  -1.650  41.550  1.00  0.00     0.198 C 
HETATM   35  C16 UNL     1     -24.050  -0.444  42.192  1.00  0.00     0.209 C 
HETATM   36  O8  UNL     1     -23.697   0.540  41.307  1.00  0.00    -0.336 OA
BRANCH  33  37
HETATM   37  N1  UNL     1     -26.335  -1.211  39.899  1.00  0.00    -0.050 N 
HETATM   38  C1  UNL     1     -27.105  -2.380  39.548  1.00  0.00     0.270 C 
ATOM     39  H12 UNL     1     -26.466  -0.470  39.211  1.00  0.00     0.279 HD
ATOM     40  H11 UNL     1     -26.729  -0.749  40.719  1.00  0.00     0.279 HD
ENDBRANCH  33  37
BRANCH  34  41
HETATM   41  O9  UNL     1     -25.805  -2.079  42.249  1.00  0.00    -0.389 OA
ATOM     42  H9  UNL     1     -26.085  -1.440  42.895  1.00  0.00     0.210 HD
ENDBRANCH  34  41
ENDBRANCH  30  31
ENDBRANCH   1  30
BRANCH   2  43
HETATM   43  N2  UNL     1     -23.131   3.488  39.235  1.00  0.00    -0.072 N 
ATOM     44  H23 UNL     1     -23.961   4.005  39.524  1.00  0.00     0.274 HD
ATOM     45  H22 UNL     1     -22.590   4.257  38.840  1.00  0.00     0.274 HD
ATOM     46  H21 UNL     1     -23.359   2.794  38.523  1.00  0.00     0.274 HD
ENDBRANCH   2  43
TORSDOF 13
ENDMDL
MODEL 5
REMARK VINA RESULT: -6.236410980      3.685      5.584
REMARK  13 active torsions:
REMARK  status: ('A' for Active; 'I' for Inactive)
REMARK    1  A    between atoms: N1_2  and  C2_5 
REMARK    2  A    between atoms: C3_7  and  O2_8 
REMARK    3  A    between atoms: O2_8  and  C4_9 
REMARK    4  A    between atoms: C5_10  and  N2_11 
REMARK    5  A    between atoms: C7_16  and  N3_17 
REMARK    6  A    between atoms: C8_21  and  O3_22 
REMARK    7  A    between atoms: O3_22  and  C9_23 
REMARK    8  A    between atoms: C12_27  and  N4_28 
REMARK    9  A    between atoms: C13_32  and  O5_33 
REMARK   10  A    between atoms: C14_35  and  O6_36 
REMARK   11  A    between atoms: C15_38  and  N5_39 
REMARK   12  A    between atoms: N5_39  and  O7_40 
REMARK   13  A    between atoms: C17_44  and  O9_45 
ROOT
HETATM    1  C4  UNL     1     -22.678   2.501  40.549  1.00  0.00     0.181 C 
HETATM    2  C5  UNL     1     -22.820   0.987  40.286  1.00  0.00     0.216 C 
HETATM    3  C6  UNL     1     -23.249   0.314  41.590  1.00  0.00     0.070 C 
HETATM    4  C7  UNL     1     -22.068   0.447  42.523  1.00  0.00     0.216 C 
HETATM    5  C8  UNL     1     -21.763   1.908  42.813  1.00  0.00     0.179 C 
HETATM    6  C15 UNL     1     -21.623   2.729  41.542  1.00  0.00     0.168 C 
ENDROOT
BRANCH   5   7
HETATM    7  O3  UNL     1     -20.516   1.927  43.421  1.00  0.00    -0.349 OA
BRANCH   7   8
HETATM    8  C9  UNL     1     -20.569   1.715  44.799  1.00  0.00     0.292 C 
HETATM    9  O4  UNL     1     -19.877   2.723  45.378  1.00  0.00    -0.351 OA
HETATM   10  C10 UNL     1     -18.554   2.863  45.185  1.00  0.00     0.153 C 
HETATM   11  C11 UNL     1     -17.799   3.408  46.381  1.00  0.00     0.042 C 
HETATM   12  C12 UNL     1     -17.929   1.648  44.608  1.00  0.00     0.243 C 
HETATM   13  C13 UNL     1     -18.499   0.353  45.129  1.00  0.00     0.184 C 
HETATM   14  C14 UNL     1     -20.008   0.337  45.050  1.00  0.00     0.204 C 
BRANCH  12  15
HETATM   15  N4  UNL     1     -16.483   1.607  44.805  1.00  0.00    -0.070 N 
ATOM     16  H43 UNL     1     -16.214   2.124  45.643  1.00  0.00     0.274 HD
ATOM     17  H42 UNL     1     -16.179   0.673  45.083  1.00  0.00     0.274 HD
ATOM     18  H41 UNL     1     -15.963   1.933  43.991  1.00  0.00     0.274 HD
ENDBRANCH  12  15
BRANCH  13  19
HETATM   19  O5  UNL     1     -18.030   0.130  46.422  1.00  0.00    -0.391 OA
ATOM     20  H5  UNL     1     -18.732  -0.226  46.954  1.00  0.00     0.210 HD
ENDBRANCH  13  19
BRANCH  14  21
HETATM   21  O6  UNL     1     -20.474  -0.097  46.287  1.00  0.00    -0.388 OA
ATOM     22  H6  UNL     1     -21.058   0.569  46.629  1.00  0.00     0.210 HD
ENDBRANCH  14  21
ENDBRANCH   7   8
ENDBRANCH   5   7
BRANCH   4  23
HETATM   23  N3  UNL     1     -20.928  -0.217  41.932  1.00  0.00    -0.072 N 
ATOM     24  H33 UNL     1     -20.797  -1.161  42.295  1.00  0.00     0.274 HD
ATOM     25  H32 UNL     1     -21.084  -0.461  40.955  1.00  0.00     0.274 HD
ATOM     26  H31 UNL     1     -20.103   0.368  42.060  1.00  0.00     0.274 HD
ENDBRANCH   4  23
BRANCH   6  27
HETATM   27  N5  UNL     1     -21.463   4.086  41.944  1.00  0.00    -0.094 NA
BRANCH  27  28
HETATM   28  O7  UNL     1     -21.770   4.290  43.228  1.00  0.00    -0.295 OA
ATOM     29  H7  UNL     1     -21.731   5.206  43.478  1.00  0.00     0.238 HD
ENDBRANCH  27  28
ENDBRANCH   6  27
BRANCH   1  30
HETATM   30  O2  UNL     1     -22.331   3.025  39.312  1.00  0.00    -0.330 OA
BRANCH  30  31
HETATM   31  C3  UNL     1     -22.767   4.294  39.057  1.00  0.00     0.415 C 
HETATM   32  O1  UNL     1     -23.702   4.199  38.003  1.00  0.00    -0.303 OA
HETATM   33  C2  UNL     1     -24.348   5.377  37.733  1.00  0.00     0.355 C 
HETATM   34  C17 UNL     1     -23.778   6.610  38.341  1.00  0.00     0.198 C 
HETATM   35  C16 UNL     1     -22.346   6.484  38.751  1.00  0.00     0.209 C 
HETATM   36  O8  UNL     1     -21.846   5.213  38.642  1.00  0.00    -0.336 OA
BRANCH  33  37
HETATM   37  N1  UNL     1     -24.365   5.532  36.284  1.00  0.00    -0.050 N 
HETATM   38  C1  UNL     1     -25.596   5.079  35.682  1.00  0.00     0.270 C 
ATOM     39  H12 UNL     1     -23.561   5.070  35.860  1.00  0.00     0.279 HD
ATOM     40  H11 UNL     1     -24.164   6.496  36.019  1.00  0.00     0.279 HD
ENDBRANCH  33  37
BRANCH  34  41
HETATM   41  O9  UNL     1     -23.977   7.741  37.519  1.00  0.00    -0.389 OA
ATOM     42  H9  UNL     1     -23.214   8.307  37.507  1.00  0.00     0.210 HD
ENDBRANCH  34  41
ENDBRANCH  30  31
ENDBRANCH   1  30
BRANCH   2  43
HETATM   43  N2  UNL     1     -23.784   0.701  39.280  1.00  0.00    -0.072 N 
ATOM     44  H23 UNL     1     -24.710   0.566  39.685  1.00  0.00     0.274 HD
ATOM     45  H22 UNL     1     -23.974   1.523  38.708  1.00  0.00     0.274 HD
ATOM     46  H21 UNL     1     -23.516  -0.096  38.701  1.00  0.00     0.274 HD
ENDBRANCH   2  43
TORSDOF 13
ENDMDL
