MODEL 1
REMARK VINA RESULT: -5.038853488      0.000      0.000
REMARK  2 active torsions:
REMARK  status: ('A' for Active; 'I' for Inactive)
REMARK    1  A    between atoms: N1_2  and  C2_5 
REMARK    2  A    between atoms: C2_5  and  C3_6 
ROOT
HETATM    1  C3  UNL     1       3.656 -18.996   6.673  1.00  0.00     0.017 C 
HETATM    2  C4  UNL     1       3.890 -17.559   7.091  1.00  0.00     0.048 C 
HETATM    3  C5  UNL     1       2.431 -17.422   7.326  1.00  0.00     0.079 C 
HETATM    4  C6  UNL     1       2.374 -18.945   7.513  1.00  0.00     0.048 C 
HETATM    5  N2  UNL     1       1.584 -17.005   6.303  1.00  0.00    -0.384 N 
ATOM      6  H2  UNL     1       1.619 -17.422   5.373  1.00  0.00     0.160 HD
HETATM    7  C7  UNL     1       0.698 -15.999   6.613  1.00  0.00     0.067 C 
HETATM    8  C8  UNL     1       0.376 -15.879   8.047  1.00  0.00     0.120 C 
HETATM    9  S1  UNL     1       1.931 -16.512   8.805  1.00  0.00    -0.133 SA
ENDROOT
BRANCH   1  10
HETATM   10  C2  UNL     1       4.601 -19.994   7.307  1.00  0.00     0.236 C 
BRANCH  10  11
HETATM   11  N1  UNL     1       5.690 -20.193   6.346  1.00  0.00    -0.079 N 
HETATM   12  C1  UNL     1       5.827 -21.562   5.948  1.00  0.00     0.267 C 
ATOM     13  H12 UNL     1       6.570 -19.826   6.707  1.00  0.00     0.276 HD
ATOM     14  H11 UNL     1       5.579 -19.584   5.534  1.00  0.00     0.276 HD
ENDBRANCH  10  11
ENDBRANCH   1  10
TORSDOF 2
ENDMDL
MODEL 2
REMARK VINA RESULT: -4.992637145      2.024      5.413
REMARK  2 active torsions:
REMARK  status: ('A' for Active; 'I' for Inactive)
REMARK    1  A    between atoms: N1_2  and  C2_5 
REMARK    2  A    between atoms: C2_5  and  C3_6 
ROOT
HETATM    1  C3  UNL     1       0.599 -16.610   7.773  1.00  0.00     0.017 C 
HETATM    2  C4  UNL     1       1.708 -16.832   8.781  1.00  0.00     0.048 C 
HETATM    3  C5  UNL     1       2.507 -17.483   7.714  1.00  0.00     0.079 C 
HETATM    4  C6  UNL     1       1.681 -16.693   6.690  1.00  0.00     0.048 C 
HETATM    5  N2  UNL     1       2.411 -18.854   7.495  1.00  0.00    -0.384 N 
ATOM      6  H2  UNL     1       1.508 -19.323   7.411  1.00  0.00     0.160 HD
HETATM    7  C7  UNL     1       3.597 -19.545   7.396  1.00  0.00     0.067 C 
HETATM    8  C8  UNL     1       4.755 -18.726   6.992  1.00  0.00     0.120 C 
HETATM    9  S1  UNL     1       4.267 -17.081   7.661  1.00  0.00    -0.133 SA
ENDROOT
BRANCH   1  10
HETATM   10  C2  UNL     1       0.028 -15.209   7.768  1.00  0.00     0.236 C 
BRANCH  10  11
HETATM   11  N1  UNL     1       0.030 -14.763   9.165  1.00  0.00    -0.079 N 
HETATM   12  C1  UNL     1      -1.275 -14.385   9.622  1.00  0.00     0.267 C 
ATOM     13  H12 UNL     1       0.701 -14.009   9.308  1.00  0.00     0.276 HD
ATOM     14  H11 UNL     1       0.442 -15.469   9.775  1.00  0.00     0.276 HD
ENDBRANCH  10  11
ENDBRANCH   1  10
TORSDOF 2
ENDMDL
MODEL 3
REMARK VINA RESULT: -4.946984722      2.117      5.559
REMARK  2 active torsions:
REMARK  status: ('A' for Active; 'I' for Inactive)
REMARK    1  A    between atoms: N1_2  and  C2_5 
REMARK    2  A    between atoms: C2_5  and  C3_6 
ROOT
HETATM    1  C3  UNL     1       1.422 -15.493   8.337  1.00  0.00     0.017 C 
HETATM    2  C4  UNL     1       1.486 -16.281   7.044  1.00  0.00     0.048 C 
HETATM    3  C5  UNL     1       2.512 -17.156   7.664  1.00  0.00     0.079 C 
HETATM    4  C6  UNL     1       1.950 -16.753   9.033  1.00  0.00     0.048 C 
HETATM    5  N2  UNL     1       3.865 -16.844   7.558  1.00  0.00    -0.384 N 
ATOM      6  H2  UNL     1       4.218 -15.910   7.765  1.00  0.00     0.160 HD
HETATM    7  C7  UNL     1       4.700 -17.863   7.162  1.00  0.00     0.067 C 
HETATM    8  C8  UNL     1       4.186 -19.220   7.426  1.00  0.00     0.120 C 
HETATM    9  S1  UNL     1       2.370 -18.927   7.336  1.00  0.00    -0.133 SA
ENDROOT
BRANCH   1  10
HETATM   10  C2  UNL     1       0.020 -15.223   8.837  1.00  0.00     0.236 C 
BRANCH  10  11
HETATM   11  N1  UNL     1      -0.694 -14.583   7.728  1.00  0.00    -0.079 N 
HETATM   12  C1  UNL     1      -1.696 -13.665   8.178  1.00  0.00     0.267 C 
ATOM     13  H12 UNL     1      -1.090 -15.279   7.097  1.00  0.00     0.276 HD
ATOM     14  H11 UNL     1      -0.043 -14.131   7.085  1.00  0.00     0.276 HD
ENDBRANCH  10  11
ENDBRANCH   1  10
TORSDOF 2
ENDMDL
MODEL 4
REMARK VINA RESULT: -4.924754048      1.291      1.684
REMARK  2 active torsions:
REMARK  status: ('A' for Active; 'I' for Inactive)
REMARK    1  A    between atoms: N1_2  and  C2_5 
REMARK    2  A    between atoms: C2_5  and  C3_6 
ROOT
HETATM    1  C3  UNL     1       3.633 -18.847   7.434  1.00  0.00     0.017 C 
HETATM    2  C4  UNL     1       2.121 -18.926   7.491  1.00  0.00     0.048 C 
HETATM    3  C5  UNL     1       2.078 -17.447   7.602  1.00  0.00     0.079 C 
HETATM    4  C6  UNL     1       3.455 -17.411   6.927  1.00  0.00     0.048 C 
HETATM    5  N2  UNL     1       2.108 -16.830   8.850  1.00  0.00    -0.384 N 
ATOM      6  H2  UNL     1       2.797 -17.085   9.558  1.00  0.00     0.160 HD
HETATM    7  C7  UNL     1       1.161 -15.859   9.077  1.00  0.00     0.067 C 
HETATM    8  C8  UNL     1       0.622 -15.226   7.858  1.00  0.00     0.120 C 
HETATM    9  S1  UNL     1       0.801 -16.600   6.646  1.00  0.00    -0.133 SA
ENDROOT
BRANCH   1  10
HETATM   10  C2  UNL     1       4.262 -19.669   6.330  1.00  0.00     0.236 C 
BRANCH  10  11
HETATM   11  N1  UNL     1       5.317 -20.465   6.963  1.00  0.00    -0.079 N 
HETATM   12  C1  UNL     1       5.735 -21.568   6.150  1.00  0.00     0.267 C 
ATOM     13  H12 UNL     1       5.033 -20.779   7.891  1.00  0.00     0.276 HD
ATOM     14  H11 UNL     1       6.112 -19.880   7.224  1.00  0.00     0.276 HD
ENDBRANCH  10  11
ENDBRANCH   1  10
TORSDOF 2
ENDMDL
MODEL 5
REMARK VINA RESULT: -4.918744569      1.451      1.606
REMARK  2 active torsions:
REMARK  status: ('A' for Active; 'I' for Inactive)
REMARK    1  A    between atoms: N1_2  and  C2_5 
REMARK    2  A    between atoms: C2_5  and  C3_6 
ROOT
HETATM    1  C3  UNL     1       2.997 -18.885   6.657  1.00  0.00     0.017 C 
HETATM    2  C4  UNL     1       2.891 -17.447   6.193  1.00  0.00     0.048 C 
HETATM    3  C5  UNL     1       1.733 -17.269   7.104  1.00  0.00     0.079 C 
HETATM    4  C6  UNL     1       2.279 -18.437   7.937  1.00  0.00     0.048 C 
HETATM    5  N2  UNL     1       0.438 -17.524   6.661  1.00  0.00    -0.384 N 
ATOM      6  H2  UNL     1       0.200 -18.384   6.166  1.00  0.00     0.160 HD
HETATM    7  C7  UNL     1      -0.503 -16.556   6.927  1.00  0.00     0.067 C 
HETATM    8  C8  UNL     1      -0.181 -15.680   8.068  1.00  0.00     0.120 C 
HETATM    9  S1  UNL     1       1.659 -15.718   8.027  1.00  0.00    -0.133 SA
ENDROOT
BRANCH   1  10
HETATM   10  C2  UNL     1       4.398 -19.322   7.025  1.00  0.00     0.236 C 
BRANCH  10  11
HETATM   11  N1  UNL     1       5.108 -18.109   7.441  1.00  0.00    -0.079 N 
HETATM   12  C1  UNL     1       6.532 -18.254   7.364  1.00  0.00     0.267 C 
ATOM     13  H12 UNL     1       4.819 -17.817   8.374  1.00  0.00     0.276 HD
ATOM     14  H11 UNL     1       4.792 -17.298   6.909  1.00  0.00     0.276 HD
ENDBRANCH  10  11
ENDBRANCH   1  10
TORSDOF 2
ENDMDL
