MODEL 1
REMARK VINA RESULT: -5.752518566      0.000      0.000
REMARK  4 active torsions:
REMARK  status: ('A' for Active; 'I' for Inactive)
REMARK    1  A    between atoms: C2_3  and  C3_4 
REMARK    2  A    between atoms: C3_4  and  N2_5 
REMARK    3  A    between atoms: N2_5  and  N3_6 
REMARK    4  A    between atoms: N2_5  and  N4_9 
ROOT
HETATM    1  N1  UNL     1       2.997 -16.693  10.043  1.00  0.00    -0.196 NA
HETATM    2  C1  UNL     1       2.392 -16.754   9.058  1.00  0.00     0.070 C 
HETATM    3  C2  UNL     1       1.619 -16.808   7.796  1.00  0.00     0.064 C 
HETATM    4  C4  UNL     1       1.185 -18.240   7.554  1.00  0.00     0.026 C 
HETATM    5  C5  UNL     1       2.335 -19.194   7.469  1.00  0.00     0.002 C 
HETATM    6  C6  UNL     1       3.585 -18.560   6.903  1.00  0.00     0.000 C 
HETATM    7  C7  UNL     1       3.133 -17.494   5.926  1.00  0.00     0.002 C 
HETATM    8  C8  UNL     1       2.408 -16.361   6.614  1.00  0.00     0.026 C 
ENDROOT
BRANCH   3   9
HETATM    9  C3  UNL     1       0.361 -16.012   8.038  1.00  0.00     0.162 C 
BRANCH   9  10
HETATM   10  N2  UNL     1       0.613 -14.689   8.542  1.00  0.00    -0.151 NA
BRANCH  10  11
HETATM   11  N3  UNL     1      -0.090 -13.689   7.909  1.00  0.00    -0.346 NA
ATOM     12  H32 UNL     1      -0.993 -14.050   7.603  1.00  0.00     0.172 HD
ATOM     13  H31 UNL     1       0.395 -13.260   7.122  1.00  0.00     0.172 HD
ENDBRANCH  10  11
BRANCH  10  14
HETATM   14  N4  UNL     1       0.352 -14.648   9.894  1.00  0.00    -0.346 NA
ATOM     15  H42 UNL     1       0.007 -15.557  10.201  1.00  0.00     0.172 HD
ATOM     16  H41 UNL     1       1.175 -14.313  10.394  1.00  0.00     0.172 HD
ENDBRANCH  10  14
ENDBRANCH   9  10
ENDBRANCH   3   9
TORSDOF 4
ENDMDL
MODEL 2
REMARK VINA RESULT: -4.922856171      1.253      2.398
REMARK  4 active torsions:
REMARK  status: ('A' for Active; 'I' for Inactive)
REMARK    1  A    between atoms: C2_3  and  C3_4 
REMARK    2  A    between atoms: C3_4  and  N2_5 
REMARK    3  A    between atoms: N2_5  and  N3_6 
REMARK    4  A    between atoms: N2_5  and  N4_9 
ROOT
HETATM    1  N1  UNL     1      -0.764 -17.153   6.864  1.00  0.00    -0.196 NA
HETATM    2  C1  UNL     1       0.297 -16.848   7.214  1.00  0.00     0.070 C 
HETATM    3  C2  UNL     1       1.646 -16.455   7.683  1.00  0.00     0.064 C 
HETATM    4  C4  UNL     1       2.597 -16.485   6.503  1.00  0.00     0.026 C 
HETATM    5  C5  UNL     1       2.676 -17.828   5.848  1.00  0.00     0.002 C 
HETATM    6  C6  UNL     1       2.459 -18.968   6.817  1.00  0.00     0.000 C 
HETATM    7  C7  UNL     1       2.990 -18.511   8.160  1.00  0.00     0.002 C 
HETATM    8  C8  UNL     1       2.184 -17.366   8.731  1.00  0.00     0.026 C 
ENDROOT
BRANCH   3   9
HETATM    9  C3  UNL     1       1.538 -15.012   8.112  1.00  0.00     0.162 C 
BRANCH   9  10
HETATM   10  N2  UNL     1       0.286 -14.700   8.746  1.00  0.00    -0.151 NA
BRANCH  10  11
HETATM   11  N3  UNL     1       0.345 -14.598  10.117  1.00  0.00    -0.346 NA
ATOM     12  H32 UNL     1       0.564 -13.636  10.377  1.00  0.00     0.172 HD
ATOM     13  H31 UNL     1       1.004 -15.234  10.564  1.00  0.00     0.172 HD
ENDBRANCH  10  11
BRANCH  10  14
HETATM   14  N4  UNL     1      -0.224 -13.534   8.221  1.00  0.00    -0.346 NA
ATOM     15  H42 UNL     1      -0.759 -13.746   7.379  1.00  0.00     0.172 HD
ATOM     16  H41 UNL     1      -0.742 -13.030   8.940  1.00  0.00     0.172 HD
ENDBRANCH  10  14
ENDBRANCH   9  10
ENDBRANCH   3   9
TORSDOF 4
ENDMDL
MODEL 3
REMARK VINA RESULT: -4.886171357      1.337      1.592
REMARK  4 active torsions:
REMARK  status: ('A' for Active; 'I' for Inactive)
REMARK    1  A    between atoms: C2_3  and  C3_4 
REMARK    2  A    between atoms: C3_4  and  N2_5 
REMARK    3  A    between atoms: N2_5  and  N3_6 
REMARK    4  A    between atoms: N2_5  and  N4_9 
ROOT
HETATM    1  N1  UNL     1       2.451 -16.895  10.036  1.00  0.00    -0.196 NA
HETATM    2  C1  UNL     1       2.384 -16.964   8.883  1.00  0.00     0.070 C 
HETATM    3  C2  UNL     1       2.307 -17.031   7.405  1.00  0.00     0.064 C 
HETATM    4  C4  UNL     1       1.785 -18.397   7.008  1.00  0.00     0.026 C 
HETATM    5  C5  UNL     1       2.641 -19.519   7.506  1.00  0.00     0.002 C 
HETATM    6  C6  UNL     1       4.102 -19.144   7.607  1.00  0.00     0.000 C 
HETATM    7  C7  UNL     1       4.372 -18.129   6.515  1.00  0.00     0.002 C 
HETATM    8  C8  UNL     1       3.628 -16.833   6.746  1.00  0.00     0.026 C 
ENDROOT
BRANCH   3   9
HETATM    9  C3  UNL     1       1.254 -16.031   6.994  1.00  0.00     0.162 C 
BRANCH   9  10
HETATM   10  N2  UNL     1      -0.003 -16.221   7.665  1.00  0.00    -0.151 NA
BRANCH  10  11
HETATM   11  N3  UNL     1      -0.520 -15.087   8.249  1.00  0.00    -0.346 NA
ATOM     12  H32 UNL     1       0.242 -14.517   8.618  1.00  0.00     0.172 HD
ATOM     13  H31 UNL     1      -1.207 -15.260   8.982  1.00  0.00     0.172 HD
ENDBRANCH  10  11
BRANCH  10  14
HETATM   14  N4  UNL     1      -0.925 -16.746   6.788  1.00  0.00    -0.346 NA
ATOM     15  H42 UNL     1      -0.601 -17.655   6.458  1.00  0.00     0.172 HD
ATOM     16  H41 UNL     1      -1.848 -16.754   7.221  1.00  0.00     0.172 HD
ENDBRANCH  10  14
ENDBRANCH   9  10
ENDBRANCH   3   9
TORSDOF 4
ENDMDL
MODEL 4
REMARK VINA RESULT: -4.830318963      1.360      1.598
REMARK  4 active torsions:
REMARK  status: ('A' for Active; 'I' for Inactive)
REMARK    1  A    between atoms: C2_3  and  C3_4 
REMARK    2  A    between atoms: C3_4  and  N2_5 
REMARK    3  A    between atoms: N2_5  and  N3_6 
REMARK    4  A    between atoms: N2_5  and  N4_9 
ROOT
HETATM    1  N1  UNL     1       4.034 -15.281   8.306  1.00  0.00    -0.196 NA
HETATM    2  C1  UNL     1       2.959 -15.709   8.262  1.00  0.00     0.070 C 
HETATM    3  C2  UNL     1       1.576 -16.235   8.200  1.00  0.00     0.064 C 
HETATM    4  C4  UNL     1       1.599 -17.704   8.571  1.00  0.00     0.026 C 
HETATM    5  C5  UNL     1       2.476 -18.521   7.675  1.00  0.00     0.002 C 
HETATM    6  C6  UNL     1       2.541 -17.981   6.264  1.00  0.00     0.000 C 
HETATM    7  C7  UNL     1       1.203 -17.330   5.981  1.00  0.00     0.002 C 
HETATM    8  C8  UNL     1       0.968 -16.112   6.846  1.00  0.00     0.026 C 
ENDROOT
BRANCH   3   9
HETATM    9  C3  UNL     1       0.808 -15.528   9.290  1.00  0.00     0.162 C 
BRANCH   9  10
HETATM   10  N2  UNL     1      -0.321 -14.785   8.799  1.00  0.00    -0.151 NA
BRANCH  10  11
HETATM   11  N3  UNL     1      -1.383 -14.709   9.672  1.00  0.00    -0.346 NA
ATOM     12  H32 UNL     1      -1.148 -15.198  10.536  1.00  0.00     0.172 HD
ATOM     13  H31 UNL     1      -2.264 -15.065   9.304  1.00  0.00     0.172 HD
ENDBRANCH  10  11
BRANCH  10  14
HETATM   14  N4  UNL     1       0.074 -13.514   8.448  1.00  0.00    -0.346 NA
ATOM     15  H42 UNL     1       0.816 -13.570   7.750  1.00  0.00     0.172 HD
ATOM     16  H41 UNL     1      -0.737 -12.966   8.164  1.00  0.00     0.172 HD
ENDBRANCH  10  14
ENDBRANCH   9  10
ENDBRANCH   3   9
TORSDOF 4
ENDMDL
MODEL 5
REMARK VINA RESULT: -4.787474570      1.294      2.273
REMARK  4 active torsions:
REMARK  status: ('A' for Active; 'I' for Inactive)
REMARK    1  A    between atoms: C2_3  and  C3_4 
REMARK    2  A    between atoms: C3_4  and  N2_5 
REMARK    3  A    between atoms: N2_5  and  N3_6 
REMARK    4  A    between atoms: N2_5  and  N4_9 
ROOT
HETATM    1  N1  UNL     1       1.124 -15.942   5.538  1.00  0.00    -0.196 NA
HETATM    2  C1  UNL     1       1.392 -16.375   6.577  1.00  0.00     0.070 C 
HETATM    3  C2  UNL     1       1.715 -16.940   7.908  1.00  0.00     0.064 C 
HETATM    4  C4  UNL     1       3.085 -16.446   8.325  1.00  0.00     0.026 C 
HETATM    5  C5  UNL     1       4.163 -16.821   7.358  1.00  0.00     0.002 C 
HETATM    6  C6  UNL     1       3.891 -18.130   6.653  1.00  0.00     0.000 C 
HETATM    7  C7  UNL     1       3.111 -18.996   7.620  1.00  0.00     0.002 C 
HETATM    8  C8  UNL     1       1.741 -18.429   7.915  1.00  0.00     0.026 C 
ENDROOT
BRANCH   3   9
HETATM    9  C3  UNL     1       0.726 -16.333   8.873  1.00  0.00     0.162 C 
BRANCH   9  10
HETATM   10  N2  UNL     1       0.927 -14.925   9.083  1.00  0.00    -0.151 NA
BRANCH  10  11
HETATM   11  N3  UNL     1       0.305 -14.112   8.163  1.00  0.00    -0.346 NA
ATOM     12  H32 UNL     1       0.204 -14.614   7.280  1.00  0.00     0.172 HD
ATOM     13  H31 UNL     1       0.769 -13.219   8.000  1.00  0.00     0.172 HD
ENDBRANCH  10  11
BRANCH  10  14
HETATM   14  N4  UNL     1       0.516 -14.580  10.351  1.00  0.00    -0.346 NA
ATOM     15  H42 UNL     1       0.678 -13.584  10.501  1.00  0.00     0.172 HD
ATOM     16  H41 UNL     1      -0.447 -14.882  10.496  1.00  0.00     0.172 HD
ENDBRANCH  10  14
ENDBRANCH   9  10
ENDBRANCH   3   9
TORSDOF 4
ENDMDL
