MODEL 1
REMARK VINA RESULT: -5.191616036      0.000      0.000
REMARK  2 active torsions:
REMARK  status: ('A' for Active; 'I' for Inactive)
REMARK    1  A    between atoms: C2_2  and  C3_3 
REMARK    2  A    between atoms: C5_7  and  C6_8 
ROOT
HETATM    1  C3  UNL     1       2.511 -17.858   7.542  1.00  0.00     0.160 C 
HETATM    2  C4  UNL     1       1.508 -17.586   6.462  1.00  0.00     0.150 C 
HETATM    3  N1  UNL     1       0.722 -16.426   6.689  1.00  0.00    -0.412 N 
ATOM      4  H1  UNL     1       0.351 -15.869   5.918  1.00  0.00     0.153 HD
HETATM    5  C5  UNL     1       0.480 -16.078   8.047  1.00  0.00     0.110 C 
HETATM    6  C7  UNL     1       1.680 -16.271   8.939  1.00  0.00     0.194 C 
HETATM    7  O1  UNL     1       2.052 -17.592   8.829  1.00  0.00    -0.378 OA
ENDROOT
BRANCH   1   8
HETATM    8  C2  UNL     1       2.977 -19.250   7.436  1.00  0.00    -0.004 C 
HETATM    9  C1  UNL     1       4.226 -19.481   7.060  1.00  0.00     0.009 C 
ENDBRANCH   1   8
BRANCH   5  10
HETATM   10  C6  UNL     1      -0.015 -14.637   8.077  1.00  0.00     0.113 C 
HETATM   11  S1  UNL     1      -0.901 -14.419   9.640  1.00  0.00    -0.096 SA
ENDBRANCH   5  10
TORSDOF 2
ENDMDL
MODEL 2
REMARK VINA RESULT: -5.119819749      2.489      4.478
REMARK  2 active torsions:
REMARK  status: ('A' for Active; 'I' for Inactive)
REMARK    1  A    between atoms: C2_2  and  C3_3 
REMARK    2  A    between atoms: C5_7  and  C6_8 
ROOT
HETATM    1  C3  UNL     1       0.168 -15.360   8.946  1.00  0.00     0.160 C 
HETATM    2  C4  UNL     1      -0.467 -15.498   7.596  1.00  0.00     0.150 C 
HETATM    3  N1  UNL     1       0.245 -16.350   6.712  1.00  0.00    -0.412 N 
ATOM      4  H1  UNL     1      -0.229 -16.889   5.986  1.00  0.00     0.153 HD
HETATM    5  C5  UNL     1       1.655 -16.415   6.891  1.00  0.00     0.110 C 
HETATM    6  C7  UNL     1       2.075 -16.434   8.339  1.00  0.00     0.194 C 
HETATM    7  O1  UNL     1       1.558 -15.298   8.921  1.00  0.00    -0.378 OA
ENDROOT
BRANCH   1   8
HETATM    8  C2  UNL     1      -0.390 -14.182   9.630  1.00  0.00    -0.004 C 
HETATM    9  C1  UNL     1      -1.646 -13.836   9.389  1.00  0.00     0.009 C 
ENDBRANCH   1   8
BRANCH   5  10
HETATM   10  C6  UNL     1       2.163 -17.643   6.145  1.00  0.00     0.113 C 
HETATM   11  S1  UNL     1       2.559 -18.890   7.395  1.00  0.00    -0.096 SA
ENDBRANCH   5  10
TORSDOF 2
ENDMDL
MODEL 3
REMARK VINA RESULT: -5.113633420      1.296      1.636
REMARK  2 active torsions:
REMARK  status: ('A' for Active; 'I' for Inactive)
REMARK    1  A    between atoms: C2_2  and  C3_3 
REMARK    2  A    between atoms: C5_7  and  C6_8 
ROOT
HETATM    1  C3  UNL     1       1.801 -18.163   7.692  1.00  0.00     0.160 C 
HETATM    2  C4  UNL     1       2.146 -17.126   8.716  1.00  0.00     0.150 C 
HETATM    3  N1  UNL     1       1.241 -16.032   8.752  1.00  0.00    -0.412 N 
ATOM      4  H1  UNL     1       1.058 -15.514   9.612  1.00  0.00     0.153 HD
HETATM    5  C5  UNL     1       0.602 -15.698   7.525  1.00  0.00     0.110 C 
HETATM    6  C7  UNL     1       0.182 -16.901   6.719  1.00  0.00     0.194 C 
HETATM    7  O1  UNL     1       1.318 -17.646   6.494  1.00  0.00    -0.378 OA
ENDROOT
BRANCH   1   8
HETATM    8  C2  UNL     1       2.974 -19.019   7.451  1.00  0.00    -0.004 C 
HETATM    9  C1  UNL     1       4.176 -18.464   7.415  1.00  0.00     0.009 C 
ENDBRANCH   1   8
BRANCH   5  10
HETATM   10  C6  UNL     1      -0.587 -14.800   7.851  1.00  0.00     0.113 C 
HETATM   11  S1  UNL     1      -0.504 -14.444   9.623  1.00  0.00    -0.096 SA
ENDBRANCH   5  10
TORSDOF 2
ENDMDL
MODEL 4
REMARK VINA RESULT: -5.037059374      2.276      2.738
REMARK  2 active torsions:
REMARK  status: ('A' for Active; 'I' for Inactive)
REMARK    1  A    between atoms: C2_2  and  C3_3 
REMARK    2  A    between atoms: C5_7  and  C6_8 
ROOT
HETATM    1  C3  UNL     1       1.340 -15.625   8.803  1.00  0.00     0.160 C 
HETATM    2  C4  UNL     1       0.432 -16.092   7.706  1.00  0.00     0.150 C 
HETATM    3  N1  UNL     1      -0.694 -15.251   7.498  1.00  0.00    -0.412 N 
ATOM      4  H1  UNL     1      -1.128 -15.152   6.580  1.00  0.00     0.153 HD
HETATM    5  C5  UNL     1      -1.184 -14.554   8.638  1.00  0.00     0.110 C 
HETATM    6  C7  UNL     1      -0.092 -14.019   9.529  1.00  0.00     0.194 C 
HETATM    7  O1  UNL     1       0.679 -15.095   9.907  1.00  0.00    -0.378 OA
ENDROOT
BRANCH   1   8
HETATM    8  C2  UNL     1       2.221 -16.732   9.210  1.00  0.00    -0.004 C 
HETATM    9  C1  UNL     1       3.482 -16.730   8.804  1.00  0.00     0.009 C 
ENDBRANCH   1   8
BRANCH   5  10
HETATM   10  C6  UNL     1      -2.098 -13.440   8.142  1.00  0.00     0.113 C 
HETATM   11  S1  UNL     1      -1.303 -11.874   8.582  1.00  0.00    -0.096 SA
ENDBRANCH   5  10
TORSDOF 2
ENDMDL
MODEL 5
REMARK VINA RESULT: -4.957725261      2.525      4.386
REMARK  2 active torsions:
REMARK  status: ('A' for Active; 'I' for Inactive)
REMARK    1  A    between atoms: C2_2  and  C3_3 
REMARK    2  A    between atoms: C5_7  and  C6_8 
ROOT
HETATM    1  C3  UNL     1       0.507 -15.735   8.465  1.00  0.00     0.160 C 
HETATM    2  C4  UNL     1       0.895 -15.906   7.028  1.00  0.00     0.150 C 
HETATM    3  N1  UNL     1       2.069 -16.681   6.840  1.00  0.00    -0.412 N 
ATOM      4  H1  UNL     1       2.211 -17.247   6.002  1.00  0.00     0.153 HD
HETATM    5  C5  UNL     1       3.038 -16.628   7.881  1.00  0.00     0.110 C 
HETATM    6  C7  UNL     1       2.434 -16.634   9.263  1.00  0.00     0.194 C 
HETATM    7  O1  UNL     1       1.582 -15.555   9.330  1.00  0.00    -0.378 OA
ENDROOT
BRANCH   1   8
HETATM    8  C2  UNL     1      -0.446 -14.619   8.583  1.00  0.00    -0.004 C 
HETATM    9  C1  UNL     1      -1.128 -14.474   9.709  1.00  0.00     0.009 C 
ENDBRANCH   1   8
BRANCH   5  10
HETATM   10  C6  UNL     1       3.995 -17.798   7.684  1.00  0.00     0.113 C 
HETATM   11  S1  UNL     1       2.980 -19.253   7.326  1.00  0.00    -0.096 SA
ENDBRANCH   5  10
TORSDOF 2
ENDMDL
