MODEL 1
REMARK VINA RESULT: -4.926147154      0.000      0.000
REMARK  3 active torsions:
REMARK  status: ('A' for Active; 'I' for Inactive)
REMARK    1  A    between atoms: N1_2  and  C2_5 
REMARK    2  A    between atoms: C2_5  and  C3_6 
REMARK    3  A    between atoms: C5_8  and  N2_9 
ROOT
HETATM    1  C3  UNL     1       1.311 -16.095   8.809  1.00  0.00     0.150 C 
HETATM    2  C4  UNL     1       1.443 -16.129   7.280  1.00  0.00     0.066 C 
HETATM    3  C5  UNL     1       0.096 -15.802   6.692  1.00  0.00     0.188 C 
HETATM    4  C6  UNL     1      -0.865 -15.211   7.660  1.00  0.00     0.070 C 
HETATM    5  C7  UNL     1      -0.285 -14.502   8.817  1.00  0.00     0.056 C 
HETATM    6  C8  UNL     1      -1.107 -14.747  10.088  1.00  0.00     0.045 C 
HETATM    7  C9  UNL     1      -0.357 -12.987   8.570  1.00  0.00     0.045 C 
HETATM    8  O1  UNL     1       1.018 -14.788   9.122  1.00  0.00    -0.374 OA
ENDROOT
BRANCH   1   9
HETATM    9  C2  UNL     1       2.606 -16.573   9.401  1.00  0.00     0.263 C 
BRANCH   9  10
HETATM   10  N1  UNL     1       3.742 -16.284   8.573  1.00  0.00    -0.077 N 
HETATM   11  C1  UNL     1       4.361 -17.513   8.111  1.00  0.00     0.267 C 
ATOM     12  H12 UNL     1       4.412 -15.677   9.046  1.00  0.00     0.276 HD
ATOM     13  H11 UNL     1       3.499 -15.667   7.797  1.00  0.00     0.276 HD
ENDBRANCH   9  10
ENDBRANCH   1   9
BRANCH   3  14
HETATM   14  N2  UNL     1      -0.520 -17.028   6.163  1.00  0.00    -0.075 N 
ATOM     15  H23 UNL     1      -0.776 -17.681   6.904  1.00  0.00     0.274 HD
ATOM     16  H22 UNL     1      -1.453 -16.859   5.787  1.00  0.00     0.274 HD
ATOM     17  H21 UNL     1       0.102 -17.452   5.474  1.00  0.00     0.274 HD
ENDBRANCH   3  14
TORSDOF 3
ENDMDL
MODEL 2
REMARK VINA RESULT: -4.909499686      1.819      4.121
REMARK  3 active torsions:
REMARK  status: ('A' for Active; 'I' for Inactive)
REMARK    1  A    between atoms: N1_2  and  C2_5 
REMARK    2  A    between atoms: C2_5  and  C3_6 
REMARK    3  A    between atoms: C5_8  and  N2_9 
ROOT
HETATM    1  C3  UNL     1       0.418 -14.788   8.046  1.00  0.00     0.150 C 
HETATM    2  C4  UNL     1      -0.616 -15.880   7.740  1.00  0.00     0.066 C 
HETATM    3  C5  UNL     1       0.117 -17.059   7.158  1.00  0.00     0.188 C 
HETATM    4  C6  UNL     1       1.591 -17.018   7.352  1.00  0.00     0.070 C 
HETATM    5  C7  UNL     1       2.085 -16.237   8.503  1.00  0.00     0.056 C 
HETATM    6  C8  UNL     1       3.382 -15.497   8.156  1.00  0.00     0.045 C 
HETATM    7  C9  UNL     1       2.453 -17.196   9.645  1.00  0.00     0.045 C 
HETATM    8  O1  UNL     1       1.224 -15.311   9.030  1.00  0.00    -0.374 OA
ENDROOT
BRANCH   1   9
HETATM    9  C2  UNL     1      -0.321 -13.553   8.479  1.00  0.00     0.263 C 
BRANCH   9  10
HETATM   10  N1  UNL     1      -1.612 -13.427   7.865  1.00  0.00    -0.077 N 
HETATM   11  C1  UNL     1      -1.833 -12.065   7.418  1.00  0.00     0.267 C 
ATOM     12  H12 UNL     1      -2.358 -13.749   8.482  1.00  0.00     0.276 HD
ATOM     13  H11 UNL     1      -1.739 -14.100   7.108  1.00  0.00     0.276 HD
ENDBRANCH   9  10
ENDBRANCH   1   9
BRANCH   3  14
HETATM   14  N2  UNL     1      -0.128 -17.124   5.710  1.00  0.00    -0.075 N 
ATOM     15  H23 UNL     1      -0.832 -16.451   5.407  1.00  0.00     0.274 HD
ATOM     16  H22 UNL     1       0.659 -16.765   5.169  1.00  0.00     0.274 HD
ATOM     17  H21 UNL     1      -0.371 -18.080   5.447  1.00  0.00     0.274 HD
ENDBRANCH   3  14
TORSDOF 3
ENDMDL
MODEL 3
REMARK VINA RESULT: -4.505769136      2.713      3.540
REMARK  3 active torsions:
REMARK  status: ('A' for Active; 'I' for Inactive)
REMARK    1  A    between atoms: N1_2  and  C2_5 
REMARK    2  A    between atoms: C2_5  and  C3_6 
REMARK    3  A    between atoms: C5_8  and  N2_9 
ROOT
HETATM    1  C3  UNL     1       2.763 -18.613   7.385  1.00  0.00     0.150 C 
HETATM    2  C4  UNL     1       2.289 -18.071   6.029  1.00  0.00     0.066 C 
HETATM    3  C5  UNL     1       1.492 -16.820   6.285  1.00  0.00     0.188 C 
HETATM    4  C6  UNL     1       1.659 -16.258   7.652  1.00  0.00     0.070 C 
HETATM    5  C7  UNL     1       2.919 -16.580   8.349  1.00  0.00     0.056 C 
HETATM    6  C8  UNL     1       2.682 -16.813   9.845  1.00  0.00     0.045 C 
HETATM    7  C9  UNL     1       3.865 -15.372   8.267  1.00  0.00     0.045 C 
HETATM    8  O1  UNL     1       3.620 -17.660   7.882  1.00  0.00    -0.374 OA
ENDROOT
BRANCH   1   9
HETATM    9  C2  UNL     1       3.423 -19.943   7.153  1.00  0.00     0.263 C 
BRANCH   9  10
HETATM   10  N1  UNL     1       4.854 -19.856   7.096  1.00  0.00    -0.077 N 
HETATM   11  C1  UNL     1       5.390 -20.869   6.205  1.00  0.00     0.267 C 
ATOM     12  H12 UNL     1       5.274 -19.907   8.024  1.00  0.00     0.276 HD
ATOM     13  H11 UNL     1       5.167 -18.920   6.838  1.00  0.00     0.276 HD
ENDBRANCH   9  10
ENDBRANCH   1   9
BRANCH   3  14
HETATM   14  N2  UNL     1       0.061 -17.104   6.104  1.00  0.00    -0.075 N 
ATOM     15  H23 UNL     1      -0.187 -17.229   5.123  1.00  0.00     0.274 HD
ATOM     16  H22 UNL     1      -0.193 -18.033   6.439  1.00  0.00     0.274 HD
ATOM     17  H21 UNL     1      -0.491 -16.371   6.550  1.00  0.00     0.274 HD
ENDBRANCH   3  14
TORSDOF 3
ENDMDL
MODEL 4
REMARK VINA RESULT: -4.148202985     10.666     12.510
REMARK  3 active torsions:
REMARK  status: ('A' for Active; 'I' for Inactive)
REMARK    1  A    between atoms: N1_2  and  C2_5 
REMARK    2  A    between atoms: C2_5  and  C3_6 
REMARK    3  A    between atoms: C5_8  and  N2_9 
ROOT
HETATM    1  C3  UNL     1       3.522  -5.481  13.962  1.00  0.00     0.150 C 
HETATM    2  C4  UNL     1       4.282  -4.312  14.604  1.00  0.00     0.066 C 
HETATM    3  C5  UNL     1       5.649  -4.250  13.977  1.00  0.00     0.188 C 
HETATM    4  C6  UNL     1       5.783  -5.043  12.726  1.00  0.00     0.070 C 
HETATM    5  C7  UNL     1       4.544  -5.287  11.962  1.00  0.00     0.056 C 
HETATM    6  C8  UNL     1       4.535  -6.694  11.354  1.00  0.00     0.045 C 
HETATM    7  C9  UNL     1       4.491  -4.324  10.765  1.00  0.00     0.045 C 
HETATM    8  O1  UNL     1       3.365  -5.136  12.640  1.00  0.00    -0.374 OA
ENDROOT
BRANCH   1   9
HETATM    9  C2  UNL     1       2.218  -5.649  14.691  1.00  0.00     0.263 C 
BRANCH   9  10
HETATM   10  N1  UNL     1       1.693  -6.981  14.602  1.00  0.00    -0.077 N 
HETATM   11  C1  UNL     1       2.127  -7.776  15.736  1.00  0.00     0.267 C 
ATOM     12  H12 UNL     1       1.931  -7.424  13.714  1.00  0.00     0.276 HD
ATOM     13  H11 UNL     1       0.677  -6.982  14.505  1.00  0.00     0.276 HD
ENDBRANCH   9  10
ENDBRANCH   1   9
BRANCH   3  14
HETATM   14  N2  UNL     1       6.648  -4.763  14.925  1.00  0.00    -0.075 N 
ATOM     15  H23 UNL     1       6.490  -4.421  15.873  1.00  0.00     0.274 HD
ATOM     16  H22 UNL     1       6.530  -5.759  15.107  1.00  0.00     0.274 HD
ATOM     17  H21 UNL     1       7.585  -4.541  14.587  1.00  0.00     0.274 HD
ENDBRANCH   3  14
TORSDOF 3
ENDMDL
MODEL 5
REMARK VINA RESULT: -3.963636062      2.082      4.562
REMARK  3 active torsions:
REMARK  status: ('A' for Active; 'I' for Inactive)
REMARK    1  A    between atoms: N1_2  and  C2_5 
REMARK    2  A    between atoms: C2_5  and  C3_6 
REMARK    3  A    between atoms: C5_8  and  N2_9 
ROOT
HETATM    1  C3  UNL     1       1.953 -17.349   6.762  1.00  0.00     0.150 C 
HETATM    2  C4  UNL     1       2.091 -18.859   6.999  1.00  0.00     0.066 C 
HETATM    3  C5  UNL     1       3.475 -19.120   7.529  1.00  0.00     0.188 C 
HETATM    4  C6  UNL     1       4.186 -17.902   8.004  1.00  0.00     0.070 C 
HETATM    5  C7  UNL     1       3.342 -16.774   8.442  1.00  0.00     0.056 C 
HETATM    6  C8  UNL     1       3.955 -15.430   8.031  1.00  0.00     0.045 C 
HETATM    7  C9  UNL     1       3.291 -16.747   9.978  1.00  0.00     0.045 C 
HETATM    8  O1  UNL     1       2.044 -16.772   8.007  1.00  0.00    -0.374 OA
ENDROOT
BRANCH   1   9
HETATM    9  C2  UNL     1       0.634 -17.100   6.086  1.00  0.00     0.263 C 
BRANCH   9  10
HETATM   10  N1  UNL     1      -0.445 -16.915   7.014  1.00  0.00    -0.077 N 
HETATM   11  C1  UNL     1      -0.588 -15.512   7.355  1.00  0.00     0.267 C 
ATOM     12  H12 UNL     1      -0.335 -17.498   7.844  1.00  0.00     0.276 HD
ATOM     13  H11 UNL     1      -1.318 -17.312   6.664  1.00  0.00     0.276 HD
ENDBRANCH   9  10
ENDBRANCH   1   9
BRANCH   3  14
HETATM   14  N2  UNL     1       4.302 -19.720   6.472  1.00  0.00    -0.075 N 
ATOM     15  H23 UNL     1       4.766 -20.573   6.783  1.00  0.00     0.274 HD
ATOM     16  H22 UNL     1       3.737 -20.125   5.725  1.00  0.00     0.274 HD
ATOM     17  H21 UNL     1       4.963 -19.027   6.121  1.00  0.00     0.274 HD
ENDBRANCH   3  14
TORSDOF 3
ENDMDL
