MODEL 1
REMARK VINA RESULT: -4.896302825      0.000      0.000
REMARK  3 active torsions:
REMARK  status: ('A' for Active; 'I' for Inactive)
REMARK    1  A    between atoms: C2_2  and  C3_3 
REMARK    2  A    between atoms: C5_8  and  C6_9 
REMARK    3  A    between atoms: C6_9  and  N2_10 
ROOT
HETATM    1  C3  UNL     1       2.112 -17.516   7.234  1.00  0.00     0.316 C 
HETATM    2  C4  UNL     1       3.004 -17.249   6.057  1.00  0.00     0.082 C 
HETATM    3  N1  UNL     1       0.734 -17.171   6.930  1.00  0.00    -0.031 N 
ATOM      4  H11 UNL     1       0.038 -17.815   7.308  1.00  0.00     0.280 HD
ATOM      5  H12 UNL     1       0.467 -17.295   5.954  1.00  0.00     0.280 HD
HETATM    6  C5  UNL     1       0.636 -15.830   7.415  1.00  0.00     0.242 C 
HETATM    7  C7  UNL     1       1.422 -15.860   8.709  1.00  0.00     0.309 C 
HETATM    8  N3  UNL     1       2.449 -16.826   8.422  1.00  0.00     0.123 N 
HETATM    9  C8  UNL     1       3.760 -16.267   8.491  1.00  0.00     0.313 C 
ENDROOT
BRANCH   6  10
HETATM   10  C6  UNL     1      -0.768 -15.415   7.781  1.00  0.00     0.264 C 
BRANCH  10  11
HETATM   11  N2  UNL     1      -0.833 -14.751   9.061  1.00  0.00    -0.077 N 
ATOM     12  H23 UNL     1      -0.104 -15.091   9.688  1.00  0.00     0.274 HD
ATOM     13  H22 UNL     1      -0.541 -13.777   8.983  1.00  0.00     0.274 HD
ATOM     14  H21 UNL     1      -1.753 -14.826   9.494  1.00  0.00     0.274 HD
ENDBRANCH  10  11
ENDBRANCH   6  10
BRANCH   1  15
HETATM   15  C2  UNL     1       2.236 -19.015   7.545  1.00  0.00     0.068 C 
HETATM   16  C1  UNL     1       3.597 -19.540   7.148  1.00  0.00     0.009 C 
ENDBRANCH   1  15
TORSDOF 3
ENDMDL
MODEL 2
REMARK VINA RESULT: -4.799042648      1.590      1.709
REMARK  3 active torsions:
REMARK  status: ('A' for Active; 'I' for Inactive)
REMARK    1  A    between atoms: C2_2  and  C3_3 
REMARK    2  A    between atoms: C5_8  and  C6_9 
REMARK    3  A    between atoms: C6_9  and  N2_10 
ROOT
HETATM    1  C3  UNL     1       3.257 -17.829   7.369  1.00  0.00     0.316 C 
HETATM    2  C4  UNL     1       4.600 -17.191   7.168  1.00  0.00     0.082 C 
HETATM    3  N1  UNL     1       2.372 -17.539   6.255  1.00  0.00    -0.031 N 
ATOM      4  H11 UNL     1       1.777 -18.316   5.966  1.00  0.00     0.280 HD
ATOM      5  H12 UNL     1       2.838 -17.429   5.355  1.00  0.00     0.280 HD
HETATM    6  C5  UNL     1       1.668 -16.381   6.712  1.00  0.00     0.242 C 
HETATM    7  C7  UNL     1       1.408 -16.676   8.174  1.00  0.00     0.309 C 
HETATM    8  N3  UNL     1       2.568 -17.442   8.543  1.00  0.00     0.123 N 
HETATM    9  C8  UNL     1       3.341 -16.808   9.562  1.00  0.00     0.313 C 
ENDROOT
BRANCH   6  10
HETATM   10  C6  UNL     1       0.314 -16.199   6.070  1.00  0.00     0.264 C 
BRANCH  10  11
HETATM   11  N2  UNL     1      -0.709 -17.001   6.698  1.00  0.00    -0.077 N 
ATOM     12  H23 UNL     1      -0.339 -17.907   6.985  1.00  0.00     0.274 HD
ATOM     13  H22 UNL     1      -0.958 -16.626   7.613  1.00  0.00     0.274 HD
ATOM     14  H21 UNL     1      -1.535 -17.112   6.109  1.00  0.00     0.274 HD
ENDBRANCH  10  11
ENDBRANCH   6  10
BRANCH   1  15
HETATM   15  C2  UNL     1       3.503 -19.341   7.482  1.00  0.00     0.068 C 
HETATM   16  C1  UNL     1       4.880 -19.705   6.973  1.00  0.00     0.009 C 
ENDBRANCH   1  15
TORSDOF 3
ENDMDL
MODEL 3
REMARK VINA RESULT: -4.437979180      1.365      2.268
REMARK  3 active torsions:
REMARK  status: ('A' for Active; 'I' for Inactive)
REMARK    1  A    between atoms: C2_2  and  C3_3 
REMARK    2  A    between atoms: C5_8  and  C6_9 
REMARK    3  A    between atoms: C6_9  and  N2_10 
ROOT
HETATM    1  C3  UNL     1       2.211 -16.597   8.082  1.00  0.00     0.316 C 
HETATM    2  C4  UNL     1       2.206 -17.989   8.641  1.00  0.00     0.082 C 
HETATM    3  N1  UNL     1       1.383 -15.713   8.882  1.00  0.00    -0.031 N 
ATOM      4  H11 UNL     1       1.759 -14.773   9.013  1.00  0.00     0.280 HD
ATOM      5  H12 UNL     1       1.343 -15.944   9.875  1.00  0.00     0.280 HD
HETATM    6  C5  UNL     1       0.126 -15.766   8.202  1.00  0.00     0.242 C 
HETATM    7  C7  UNL     1       0.512 -15.759   6.738  1.00  0.00     0.309 C 
HETATM    8  N3  UNL     1       1.760 -16.475   6.747  1.00  0.00     0.123 N 
HETATM    9  C8  UNL     1       1.708 -17.673   5.975  1.00  0.00     0.313 C 
ENDROOT
BRANCH   6  10
HETATM   10  C6  UNL     1      -0.736 -14.546   8.419  1.00  0.00     0.264 C 
BRANCH  10  11
HETATM   11  N2  UNL     1      -1.303 -14.498   9.745  1.00  0.00    -0.077 N 
ATOM     12  H23 UNL     1      -2.302 -14.294   9.710  1.00  0.00     0.274 HD
ATOM     13  H22 UNL     1      -1.339 -15.428  10.163  1.00  0.00     0.274 HD
ATOM     14  H21 UNL     1      -0.817 -13.840  10.355  1.00  0.00     0.274 HD
ENDBRANCH  10  11
ENDBRANCH   6  10
BRANCH   1  15
HETATM   15  C2  UNL     1       3.673 -16.125   8.098  1.00  0.00     0.068 C 
HETATM   16  C1  UNL     1       4.618 -17.279   7.848  1.00  0.00     0.009 C 
ENDBRANCH   1  15
TORSDOF 3
ENDMDL
MODEL 4
REMARK VINA RESULT: -4.141664023      2.485      4.825
REMARK  3 active torsions:
REMARK  status: ('A' for Active; 'I' for Inactive)
REMARK    1  A    between atoms: C2_2  and  C3_3 
REMARK    2  A    between atoms: C5_8  and  C6_9 
REMARK    3  A    between atoms: C6_9  and  N2_10 
ROOT
HETATM    1  C3  UNL     1       2.916 -18.082   6.940  1.00  0.00     0.316 C 
HETATM    2  C4  UNL     1       1.841 -18.535   7.884  1.00  0.00     0.082 C 
HETATM    3  N1  UNL     1       3.574 -19.218   6.318  1.00  0.00    -0.031 N 
ATOM      4  H11 UNL     1       3.806 -19.092   5.332  1.00  0.00     0.280 HD
ATOM      5  H12 UNL     1       2.978 -20.034   6.178  1.00  0.00     0.280 HD
HETATM    6  C5  UNL     1       4.697 -19.434   7.176  1.00  0.00     0.242 C 
HETATM    7  C7  UNL     1       5.169 -18.034   7.506  1.00  0.00     0.309 C 
HETATM    8  N3  UNL     1       3.937 -17.290   7.515  1.00  0.00     0.123 N 
HETATM    9  C8  UNL     1       3.659 -16.709   8.788  1.00  0.00     0.313 C 
ENDROOT
BRANCH   6  10
HETATM   10  C6  UNL     1       5.856 -20.123   6.500  1.00  0.00     0.264 C 
BRANCH  10  11
HETATM   11  N2  UNL     1       5.468 -21.356   5.855  1.00  0.00    -0.077 N 
ATOM     12  H23 UNL     1       4.463 -21.378   5.683  1.00  0.00     0.274 HD
ATOM     13  H22 UNL     1       5.802 -21.386   4.892  1.00  0.00     0.274 HD
ATOM     14  H21 UNL     1       5.770 -22.180   6.375  1.00  0.00     0.274 HD
ENDBRANCH  10  11
ENDBRANCH   6  10
BRANCH   1  15
HETATM   15  C2  UNL     1       2.228 -17.211   5.879  1.00  0.00     0.068 C 
HETATM   16  C1  UNL     1       0.787 -16.940   6.252  1.00  0.00     0.009 C 
ENDBRANCH   1  15
TORSDOF 3
ENDMDL
MODEL 5
REMARK VINA RESULT: -3.854166139      2.020      4.193
REMARK  3 active torsions:
REMARK  status: ('A' for Active; 'I' for Inactive)
REMARK    1  A    between atoms: C2_2  and  C3_3 
REMARK    2  A    between atoms: C5_8  and  C6_9 
REMARK    3  A    between atoms: C6_9  and  N2_10 
ROOT
HETATM    1  C3  UNL     1       2.276 -17.200   7.160  1.00  0.00     0.316 C 
HETATM    2  C4  UNL     1       1.651 -18.519   7.508  1.00  0.00     0.082 C 
HETATM    3  N1  UNL     1       3.503 -17.388   6.406  1.00  0.00    -0.031 N 
ATOM      4  H11 UNL     1       3.648 -16.720   5.649  1.00  0.00     0.280 HD
ATOM      5  H12 UNL     1       3.518 -18.217   5.812  1.00  0.00     0.280 HD
HETATM    6  C5  UNL     1       4.502 -17.364   7.429  1.00  0.00     0.242 C 
HETATM    7  C7  UNL     1       4.031 -16.266   8.361  1.00  0.00     0.309 C 
HETATM    8  N3  UNL     1       2.600 -16.370   8.259  1.00  0.00     0.123 N 
HETATM    9  C8  UNL     1       1.985 -16.688   9.507  1.00  0.00     0.313 C 
ENDROOT
BRANCH   6  10
HETATM   10  C6  UNL     1       5.866 -16.947   6.938  1.00  0.00     0.264 C 
BRANCH  10  11
HETATM   11  N2  UNL     1       6.884 -17.926   7.235  1.00  0.00    -0.077 N 
ATOM     12  H23 UNL     1       7.817 -17.523   7.149  1.00  0.00     0.274 HD
ATOM     13  H22 UNL     1       6.895 -18.154   8.230  1.00  0.00     0.274 HD
ATOM     14  H21 UNL     1       6.795 -18.768   6.666  1.00  0.00     0.274 HD
ENDBRANCH  10  11
ENDBRANCH   6  10
BRANCH   1  15
HETATM   15  C2  UNL     1       1.241 -16.435   6.322  1.00  0.00     0.068 C 
HETATM   16  C1  UNL     1      -0.166 -16.869   6.668  1.00  0.00     0.009 C 
ENDBRANCH   1  15
TORSDOF 3
ENDMDL
