MODEL 1
REMARK VINA RESULT: -5.261694329      0.000      0.000
REMARK  2 active torsions:
REMARK  status: ('A' for Active; 'I' for Inactive)
REMARK    1  A    between atoms: N1_2  and  C2_4 
REMARK    2  A    between atoms: C7_12  and  O1_13 
ROOT
HETATM    1  C2  UNL     1      -0.584 -13.743   9.372  1.00  0.00     0.110 C 
HETATM    2  C3  UNL     1      -1.977 -14.380   9.333  1.00  0.00     0.257 C 
HETATM    3  N2  UNL     1      -2.716 -13.445   8.508  1.00  0.00    -0.069 N 
ATOM      4  H21 UNL     1      -3.130 -12.680   9.040  1.00  0.00     0.277 HD
ATOM      5  H22 UNL     1      -3.585 -13.833   8.141  1.00  0.00     0.277 HD
HETATM    6  C4  UNL     1      -1.817 -12.998   7.477  1.00  0.00     0.194 C 
HETATM    7  C5  UNL     1      -2.251 -11.620   7.017  1.00  0.00     0.036 C 
HETATM    8  C6  UNL     1      -1.561 -10.635   7.910  1.00  0.00     0.034 C 
HETATM    9  C7  UNL     1      -0.406 -11.356   8.573  1.00  0.00     0.129 C 
HETATM   10  C9  UNL     1      -0.512 -12.800   8.218  1.00  0.00     0.069 C 
ENDROOT
BRANCH   1  11
HETATM   11  N1  UNL     1       0.458 -14.690   9.452  1.00  0.00    -0.419 N 
HETATM   12  C1  UNL     1       0.584 -15.627   8.406  1.00  0.00     0.140 C 
ATOM     13  H1  UNL     1       1.101 -14.698  10.244  1.00  0.00     0.153 HD
ENDBRANCH   1  11
BRANCH   9  14
HETATM   14  O1  UNL     1       0.800 -10.796   8.145  1.00  0.00    -0.390 OA
HETATM   15  C8  UNL     1       0.865  -9.437   8.431  1.00  0.00     0.202 C 
ENDBRANCH   9  14
TORSDOF 2
ENDMDL
MODEL 2
REMARK VINA RESULT: -5.090911609      3.503      5.397
REMARK  2 active torsions:
REMARK  status: ('A' for Active; 'I' for Inactive)
REMARK    1  A    between atoms: N1_2  and  C2_4 
REMARK    2  A    between atoms: C7_12  and  O1_13 
ROOT
HETATM    1  C2  UNL     1       2.987 -17.342   8.207  1.00  0.00     0.110 C 
HETATM    2  C3  UNL     1       2.865 -18.756   7.627  1.00  0.00     0.257 C 
HETATM    3  N2  UNL     1       1.612 -18.681   6.903  1.00  0.00    -0.069 N 
ATOM      4  H21 UNL     1       0.800 -18.896   7.482  1.00  0.00     0.277 HD
ATOM      5  H22 UNL     1       1.492 -19.435   6.227  1.00  0.00     0.277 HD
HETATM    6  C4  UNL     1       1.552 -17.372   6.308  1.00  0.00     0.194 C 
HETATM    7  C5  UNL     1       0.097 -16.989   6.120  1.00  0.00     0.036 C 
HETATM    8  C6  UNL     1      -0.336 -16.324   7.389  1.00  0.00     0.034 C 
HETATM    9  C7  UNL     1       0.915 -15.903   8.132  1.00  0.00     0.129 C 
HETATM   10  C9  UNL     1       2.084 -16.470   7.400  1.00  0.00     0.069 C 
ENDROOT
BRANCH   1  11
HETATM   11  N1  UNL     1       4.322 -16.902   8.318  1.00  0.00    -0.419 N 
HETATM   12  C1  UNL     1       5.309 -17.581   7.575  1.00  0.00     0.140 C 
ATOM     13  H1  UNL     1       4.567 -16.114   8.919  1.00  0.00     0.153 HD
ENDBRANCH   1  11
BRANCH   9  14
HETATM   14  O1  UNL     1       0.967 -14.510   8.207  1.00  0.00    -0.390 OA
HETATM   15  C8  UNL     1      -0.292 -13.961   8.423  1.00  0.00     0.202 C 
ENDBRANCH   9  14
TORSDOF 2
ENDMDL
MODEL 3
REMARK VINA RESULT: -4.969117617      5.483      7.875
REMARK  2 active torsions:
REMARK  status: ('A' for Active; 'I' for Inactive)
REMARK    1  A    between atoms: N1_2  and  C2_4 
REMARK    2  A    between atoms: C7_12  and  O1_13 
ROOT
HETATM    1  C2  UNL     1       1.971 -17.799   7.743  1.00  0.00     0.110 C 
HETATM    2  C3  UNL     1       2.166 -16.562   8.628  1.00  0.00     0.257 C 
HETATM    3  N2  UNL     1       3.604 -16.388   8.594  1.00  0.00    -0.069 N 
ATOM      4  H21 UNL     1       4.091 -16.924   9.313  1.00  0.00     0.277 HD
ATOM      5  H22 UNL     1       3.904 -15.462   8.899  1.00  0.00     0.277 HD
HETATM    6  C4  UNL     1       4.032 -16.711   7.259  1.00  0.00     0.194 C 
HETATM    7  C5  UNL     1       5.473 -17.182   7.310  1.00  0.00     0.036 C 
HETATM    8  C6  UNL     1       5.431 -18.659   7.549  1.00  0.00     0.034 C 
HETATM    9  C7  UNL     1       4.039 -19.137   7.193  1.00  0.00     0.129 C 
HETATM   10  C9  UNL     1       3.206 -17.931   6.916  1.00  0.00     0.069 C 
ENDROOT
BRANCH   1  11
HETATM   11  N1  UNL     1       0.756 -17.783   7.028  1.00  0.00    -0.419 N 
HETATM   12  C1  UNL     1      -0.031 -16.614   7.083  1.00  0.00     0.140 C 
ATOM     13  H1  UNL     1       0.455 -18.593   6.486  1.00  0.00     0.153 HD
ENDBRANCH   1  11
BRANCH   9  14
HETATM   14  O1  UNL     1       4.107 -19.994   6.093  1.00  0.00    -0.390 OA
HETATM   15  C8  UNL     1       5.270 -20.755   6.106  1.00  0.00     0.202 C 
ENDBRANCH   9  14
TORSDOF 2
ENDMDL
MODEL 4
REMARK VINA RESULT: -4.785671837      3.628      5.697
REMARK  2 active torsions:
REMARK  status: ('A' for Active; 'I' for Inactive)
REMARK    1  A    between atoms: N1_2  and  C2_4 
REMARK    2  A    between atoms: C7_12  and  O1_13 
ROOT
HETATM    1  C2  UNL     1       0.884 -15.426   8.340  1.00  0.00     0.110 C 
HETATM    2  C3  UNL     1      -0.296 -15.429   7.362  1.00  0.00     0.257 C 
HETATM    3  N2  UNL     1       0.127 -16.405   6.378  1.00  0.00    -0.069 N 
ATOM      4  H21 UNL     1       0.689 -16.001   5.628  1.00  0.00     0.277 HD
ATOM      5  H22 UNL     1      -0.638 -16.746   5.796  1.00  0.00     0.277 HD
HETATM    6  C4  UNL     1       0.805 -17.452   7.093  1.00  0.00     0.194 C 
HETATM    7  C5  UNL     1       1.797 -18.117   6.159  1.00  0.00     0.036 C 
HETATM    8  C6  UNL     1       3.074 -17.346   6.274  1.00  0.00     0.034 C 
HETATM    9  C7  UNL     1       3.007 -16.544   7.557  1.00  0.00     0.129 C 
HETATM   10  C9  UNL     1       1.631 -16.698   8.112  1.00  0.00     0.069 C 
ENDROOT
BRANCH   1  11
HETATM   11  N1  UNL     1       0.500 -15.174   9.673  1.00  0.00    -0.419 N 
HETATM   12  C1  UNL     1      -0.662 -14.407   9.895  1.00  0.00     0.140 C 
ATOM     13  H1  UNL     1       1.046 -15.537  10.455  1.00  0.00     0.153 HD
ENDBRANCH   1  11
BRANCH   9  14
HETATM   14  O1  UNL     1       3.986 -16.999   8.444  1.00  0.00    -0.390 OA
HETATM   15  C8  UNL     1       5.018 -17.650   7.778  1.00  0.00     0.202 C 
ENDBRANCH   9  14
TORSDOF 2
ENDMDL
MODEL 5
REMARK VINA RESULT: -4.702930640      3.515      6.004
REMARK  2 active torsions:
REMARK  status: ('A' for Active; 'I' for Inactive)
REMARK    1  A    between atoms: N1_2  and  C2_4 
REMARK    2  A    between atoms: C7_12  and  O1_13 
ROOT
HETATM    1  C2  UNL     1       0.729 -16.062   7.268  1.00  0.00     0.110 C 
HETATM    2  C3  UNL     1       0.305 -16.869   6.035  1.00  0.00     0.257 C 
HETATM    3  N2  UNL     1       1.395 -17.815   5.902  1.00  0.00    -0.069 N 
ATOM      4  H21 UNL     1       2.171 -17.457   5.345  1.00  0.00     0.277 HD
ATOM      5  H22 UNL     1       1.165 -18.611   5.306  1.00  0.00     0.277 HD
HETATM    6  C4  UNL     1       1.781 -18.197   7.234  1.00  0.00     0.194 C 
HETATM    7  C5  UNL     1       3.237 -18.619   7.217  1.00  0.00     0.036 C 
HETATM    8  C6  UNL     1       4.043 -17.379   7.445  1.00  0.00     0.034 C 
HETATM    9  C7  UNL     1       3.116 -16.337   8.037  1.00  0.00     0.129 C 
HETATM   10  C9  UNL     1       1.733 -16.891   7.997  1.00  0.00     0.069 C 
ENDROOT
BRANCH   1  11
HETATM   11  N1  UNL     1      -0.364 -15.610   8.037  1.00  0.00    -0.419 N 
HETATM   12  C1  UNL     1      -0.108 -14.695   9.079  1.00  0.00     0.140 C 
ATOM     13  H1  UNL     1      -1.312 -15.935   7.845  1.00  0.00     0.153 HD
ENDBRANCH   1  11
BRANCH   9  14
HETATM   14  O1  UNL     1       3.525 -16.035   9.338  1.00  0.00    -0.390 OA
HETATM   15  C8  UNL     1       2.709 -16.640  10.286  1.00  0.00     0.202 C 
ENDBRANCH   9  14
TORSDOF 2
ENDMDL
