MODEL 1
REMARK VINA RESULT: -5.790917645      0.000      0.000
REMARK  5 active torsions:
REMARK  status: ('A' for Active; 'I' for Inactive)
REMARK    1  A    between atoms: O1_2  and  C2_3 
REMARK    2  A    between atoms: C2_3  and  C3_4 
REMARK    3  A    between atoms: C3_4  and  C4_5 
REMARK    4  A    between atoms: C5_6  and  C6_7 
REMARK    5  A    between atoms: C6_7  and  C7_8 
ROOT
HETATM    1  C7  UNL     1     -31.602  -8.684  13.084  1.00  0.00     0.205 A 
HETATM    2  N1  UNL     1     -32.086  -8.002  11.951  1.00  0.00    -0.351 N 
ATOM      3  H1  UNL     1     -32.874  -8.122  11.314  1.00  0.00     0.163 HD
HETATM    4  C8  UNL     1     -31.027  -7.086  12.071  1.00  0.00     0.151 A 
HETATM    5  C9  UNL     1     -30.225  -5.972  11.749  1.00  0.00     0.163 A 
HETATM    6  N2  UNL     1     -30.427  -5.070  10.673  1.00  0.00    -0.079 NA
HETATM    7  N3  UNL     1     -29.262  -5.981  12.684  1.00  0.00    -0.318 N 
ATOM      8  H3  UNL     1     -28.505  -5.301  12.745  1.00  0.00     0.169 HD
HETATM    9  C10 UNL     1     -29.435  -7.010  13.525  1.00  0.00     0.182 A 
HETATM   10  S1  UNL     1     -28.538  -7.442  14.810  1.00  0.00    -0.040 SA
HETATM   11  N4  UNL     1     -30.548  -7.707  13.138  1.00  0.00    -0.284 N 
ENDROOT
BRANCH   1  12
HETATM   12  C6  UNL     1     -32.488  -8.681  14.310  1.00  0.00     0.141 C 
BRANCH  12  13
HETATM   13  C5  UNL     1     -33.805  -9.202  13.930  1.00  0.00    -0.103 C 
HETATM   14  C4  UNL     1     -34.872  -9.643  13.628  1.00  0.00    -0.104 C 
BRANCH  14  15
HETATM   15  C3  UNL     1     -36.194 -10.211  13.259  1.00  0.00     0.120 C 
BRANCH  15  16
HETATM   16  C2  UNL     1     -37.218  -9.135  13.401  1.00  0.00     0.179 C 
BRANCH  16  17
HETATM   17  O1  UNL     1     -38.170  -9.175  12.416  1.00  0.00    -0.395 OA
HETATM   18  C1  UNL     1     -37.753  -9.619  11.188  1.00  0.00     0.201 C 
ENDBRANCH  16  17
ENDBRANCH  15  16
ENDBRANCH  14  15
ENDBRANCH  12  13
ENDBRANCH   1  12
TORSDOF 5
ENDMDL
MODEL 2
REMARK VINA RESULT: -5.761405774      4.417      6.921
REMARK  5 active torsions:
REMARK  status: ('A' for Active; 'I' for Inactive)
REMARK    1  A    between atoms: O1_2  and  C2_3 
REMARK    2  A    between atoms: C2_3  and  C3_4 
REMARK    3  A    between atoms: C3_4  and  C4_5 
REMARK    4  A    between atoms: C5_6  and  C6_7 
REMARK    5  A    between atoms: C6_7  and  C7_8 
ROOT
HETATM    1  C7  UNL     1     -34.149  -8.876  12.183  1.00  0.00     0.205 A 
HETATM    2  N1  UNL     1     -34.766  -9.007  10.924  1.00  0.00    -0.351 N 
ATOM      3  H1  UNL     1     -34.463  -8.915   9.955  1.00  0.00     0.163 HD
HETATM    4  C8  UNL     1     -35.975  -9.322  11.568  1.00  0.00     0.151 A 
HETATM    5  C9  UNL     1     -37.337  -9.664  11.687  1.00  0.00     0.163 A 
HETATM    6  N2  UNL     1     -38.250  -9.874  10.622  1.00  0.00    -0.079 NA
HETATM    7  N3  UNL     1     -37.541  -9.740  13.012  1.00  0.00    -0.318 N 
ATOM      8  H3  UNL     1     -38.432  -9.971  13.450  1.00  0.00     0.169 HD
HETATM    9  C10 UNL     1     -36.409  -9.468  13.677  1.00  0.00     0.182 A 
HETATM   10  S1  UNL     1     -36.149  -9.433  15.281  1.00  0.00    -0.040 SA
HETATM   11  N4  UNL     1     -35.422  -9.204  12.766  1.00  0.00    -0.284 N 
ENDROOT
BRANCH   1  12
HETATM   12  C6  UNL     1     -33.060  -9.872  12.515  1.00  0.00     0.141 C 
BRANCH  12  13
HETATM   13  C5  UNL     1     -32.266  -9.338  13.626  1.00  0.00    -0.103 C 
HETATM   14  C4  UNL     1     -31.627  -8.885  14.525  1.00  0.00    -0.104 C 
BRANCH  14  15
HETATM   15  C3  UNL     1     -30.839  -8.302  15.641  1.00  0.00     0.120 C 
BRANCH  15  16
HETATM   16  C2  UNL     1     -29.766  -7.446  15.055  1.00  0.00     0.179 C 
BRANCH  16  17
HETATM   17  O1  UNL     1     -28.567  -7.575  15.707  1.00  0.00    -0.395 OA
HETATM   18  C1  UNL     1     -27.506  -7.996  14.948  1.00  0.00     0.201 C 
ENDBRANCH  16  17
ENDBRANCH  15  16
ENDBRANCH  14  15
ENDBRANCH  12  13
ENDBRANCH   1  12
TORSDOF 5
ENDMDL
MODEL 3
REMARK VINA RESULT: -5.646518396      2.219      2.893
REMARK  5 active torsions:
REMARK  status: ('A' for Active; 'I' for Inactive)
REMARK    1  A    between atoms: O1_2  and  C2_3 
REMARK    2  A    between atoms: C2_3  and  C3_4 
REMARK    3  A    between atoms: C3_4  and  C4_5 
REMARK    4  A    between atoms: C5_6  and  C6_7 
REMARK    5  A    between atoms: C6_7  and  C7_8 
ROOT
HETATM    1  C7  UNL     1     -30.274  -7.606  13.995  1.00  0.00     0.205 A 
HETATM    2  N1  UNL     1     -30.201  -6.223  14.247  1.00  0.00    -0.351 N 
ATOM      3  H1  UNL     1     -30.876  -5.461  14.315  1.00  0.00     0.163 HD
HETATM    4  C8  UNL     1     -28.805  -6.336  14.367  1.00  0.00     0.151 A 
HETATM    5  C9  UNL     1     -27.477  -5.912  14.575  1.00  0.00     0.163 A 
HETATM    6  N2  UNL     1     -27.047  -4.589  14.853  1.00  0.00    -0.079 NA
HETATM    7  N3  UNL     1     -26.752  -7.035  14.450  1.00  0.00    -0.318 N 
ATOM      8  H3  UNL     1     -25.738  -7.085  14.543  1.00  0.00     0.169 HD
HETATM    9  C10 UNL     1     -27.548  -8.080  14.185  1.00  0.00     0.182 A 
HETATM   10  S1  UNL     1     -27.147  -9.637  13.950  1.00  0.00    -0.040 SA
HETATM   11  N4  UNL     1     -28.843  -7.638  14.132  1.00  0.00    -0.284 N 
ENDROOT
BRANCH   1  12
HETATM   12  C6  UNL     1     -30.996  -8.448  15.024  1.00  0.00     0.141 C 
BRANCH  12  13
HETATM   13  C5  UNL     1     -32.334  -8.760  14.509  1.00  0.00    -0.103 C 
HETATM   14  C4  UNL     1     -33.427  -8.996  14.095  1.00  0.00    -0.104 C 
BRANCH  14  15
HETATM   15  C3  UNL     1     -34.795  -9.270  13.584  1.00  0.00     0.120 C 
BRANCH  15  16
HETATM   16  C2  UNL     1     -34.742 -10.513  12.760  1.00  0.00     0.179 C 
BRANCH  16  17
HETATM   17  O1  UNL     1     -35.745 -11.397  13.067  1.00  0.00    -0.395 OA
HETATM   18  C1  UNL     1     -37.016 -11.010  12.732  1.00  0.00     0.201 C 
ENDBRANCH  16  17
ENDBRANCH  15  16
ENDBRANCH  14  15
ENDBRANCH  12  13
ENDBRANCH   1  12
TORSDOF 5
ENDMDL
MODEL 4
REMARK VINA RESULT: -5.613372986      1.743      2.446
REMARK  5 active torsions:
REMARK  status: ('A' for Active; 'I' for Inactive)
REMARK    1  A    between atoms: O1_2  and  C2_3 
REMARK    2  A    between atoms: C2_3  and  C3_4 
REMARK    3  A    between atoms: C3_4  and  C4_5 
REMARK    4  A    between atoms: C5_6  and  C6_7 
REMARK    5  A    between atoms: C6_7  and  C7_8 
ROOT
HETATM    1  C7  UNL     1     -31.593  -8.391  14.660  1.00  0.00     0.205 A 
HETATM    2  N1  UNL     1     -30.574  -8.358  15.631  1.00  0.00    -0.351 N 
ATOM      3  H1  UNL     1     -30.426  -8.791  16.543  1.00  0.00     0.163 HD
HETATM    4  C8  UNL     1     -29.845  -7.479  14.812  1.00  0.00     0.151 A 
HETATM    5  C9  UNL     1     -28.776  -6.646  14.421  1.00  0.00     0.163 A 
HETATM    6  N2  UNL     1     -27.593  -6.389  15.160  1.00  0.00    -0.079 NA
HETATM    7  N3  UNL     1     -29.149  -6.180  13.219  1.00  0.00    -0.318 N 
ATOM      8  H3  UNL     1     -28.597  -5.542  12.647  1.00  0.00     0.169 HD
HETATM    9  C10 UNL     1     -30.349  -6.671  12.876  1.00  0.00     0.182 A 
HETATM   10  S1  UNL     1     -31.215  -6.403  11.528  1.00  0.00    -0.040 SA
HETATM   11  N4  UNL     1     -30.787  -7.490  13.882  1.00  0.00    -0.284 N 
ENDROOT
BRANCH   1  12
HETATM   12  C6  UNL     1     -31.840  -9.718  13.978  1.00  0.00     0.141 C 
BRANCH  12  13
HETATM   13  C5  UNL     1     -33.141  -9.657  13.304  1.00  0.00    -0.103 C 
HETATM   14  C4  UNL     1     -34.190  -9.610  12.738  1.00  0.00    -0.104 C 
BRANCH  14  15
HETATM   15  C3  UNL     1     -35.486  -9.552  12.015  1.00  0.00     0.120 C 
BRANCH  15  16
HETATM   16  C2  UNL     1     -36.566  -9.303  13.015  1.00  0.00     0.179 C 
BRANCH  16  17
HETATM   17  O1  UNL     1     -37.797  -9.133  12.436  1.00  0.00    -0.395 OA
HETATM   18  C1  UNL     1     -37.920  -9.556  11.139  1.00  0.00     0.201 C 
ENDBRANCH  16  17
ENDBRANCH  15  16
ENDBRANCH  14  15
ENDBRANCH  12  13
ENDBRANCH   1  12
TORSDOF 5
ENDMDL
MODEL 5
REMARK VINA RESULT: -5.579505357      2.498      3.222
REMARK  5 active torsions:
REMARK  status: ('A' for Active; 'I' for Inactive)
REMARK    1  A    between atoms: O1_2  and  C2_3 
REMARK    2  A    between atoms: C2_3  and  C3_4 
REMARK    3  A    between atoms: C3_4  and  C4_5 
REMARK    4  A    between atoms: C5_6  and  C6_7 
REMARK    5  A    between atoms: C6_7  and  C7_8 
ROOT
HETATM    1  C7  UNL     1     -31.102  -9.713  14.531  1.00  0.00     0.205 A 
HETATM    2  N1  UNL     1     -30.863 -10.976  13.958  1.00  0.00    -0.351 N 
ATOM      3  H1  UNL     1     -31.440 -11.775  13.695  1.00  0.00     0.163 HD
HETATM    4  C8  UNL     1     -29.492 -10.671  13.900  1.00  0.00     0.151 A 
HETATM    5  C9  UNL     1     -28.123 -10.870  13.627  1.00  0.00     0.163 A 
HETATM    6  N2  UNL     1     -27.537 -12.026  13.051  1.00  0.00    -0.079 NA
HETATM    7  N3  UNL     1     -27.540  -9.731  14.033  1.00  0.00    -0.318 N 
ATOM      8  H3  UNL     1     -26.540  -9.538  13.978  1.00  0.00     0.169 HD
HETATM    9  C10 UNL     1     -28.456  -8.883  14.523  1.00  0.00     0.182 A 
HETATM   10  S1  UNL     1     -28.246  -7.392  15.131  1.00  0.00    -0.040 SA
HETATM   11  N4  UNL     1     -29.687  -9.477  14.438  1.00  0.00    -0.284 N 
ENDROOT
BRANCH   1  12
HETATM   12  C6  UNL     1     -31.929  -8.742  13.717  1.00  0.00     0.141 C 
BRANCH  12  13
HETATM   13  C5  UNL     1     -33.347  -9.034  13.949  1.00  0.00    -0.103 C 
HETATM   14  C4  UNL     1     -34.504  -9.252  14.143  1.00  0.00    -0.104 C 
BRANCH  14  15
HETATM   15  C3  UNL     1     -35.946  -9.504  14.392  1.00  0.00     0.120 C 
BRANCH  15  16
HETATM   16  C2  UNL     1     -36.534 -10.096  13.154  1.00  0.00     0.179 C 
BRANCH  16  17
HETATM   17  O1  UNL     1     -37.393  -9.241  12.513  1.00  0.00    -0.395 OA
HETATM   18  C1  UNL     1     -37.765  -9.597  11.242  1.00  0.00     0.201 C 
ENDBRANCH  16  17
ENDBRANCH  15  16
ENDBRANCH  14  15
ENDBRANCH  12  13
ENDBRANCH   1  12
TORSDOF 5
ENDMDL
