MODEL 1
REMARK VINA RESULT: -5.512417674      0.000      0.000
REMARK  6 active torsions:
REMARK  status: ('A' for Active; 'I' for Inactive)
REMARK    1  A    between atoms: C2_2  and  C4_4 
REMARK    2  A    between atoms: C4_4  and  O1_5 
REMARK    3  A    between atoms: C4_4  and  C5_7 
REMARK    4  A    between atoms: C6_9  and  N1_10 
REMARK    5  A    between atoms: N2_13  and  C7_14 
REMARK    6  A    between atoms: C10_17  and  O2_18 
ROOT
HETATM    1  C5  UNL     1     -34.842  -9.478  12.203  1.00  0.00     0.088 A 
HETATM    2  S1  UNL     1     -34.305  -8.817  10.691  1.00  0.00    -0.047 SA
HETATM    3  C6  UNL     1     -32.966  -7.916  11.293  1.00  0.00     0.147 A 
HETATM    4  N2  UNL     1     -32.996  -8.148  12.584  1.00  0.00    -0.303 N 
HETATM    5  C10 UNL     1     -33.937  -8.936  13.065  1.00  0.00     0.164 A 
ENDROOT
BRANCH   1   6
HETATM    6  C4  UNL     1     -35.852 -10.519  12.420  1.00  0.00     0.068 C 
BRANCH   6   7
HETATM    7  C2  UNL     1     -37.267 -10.103  12.430  1.00  0.00     0.035 C 
HETATM    8  C1  UNL     1     -37.854  -9.604  11.146  1.00  0.00     0.016 C 
HETATM    9  C3  UNL     1     -37.540  -9.204  13.615  1.00  0.00     0.016 C 
ENDBRANCH   6   7
BRANCH   6  10
HETATM   10  O1  UNL     1     -35.449 -11.605  13.141  1.00  0.00    -0.363 OA
ATOM     11  H1  UNL     1     -34.649 -12.063  12.911  1.00  0.00     0.217 HD
ENDBRANCH   6  10
ENDBRANCH   1   6
BRANCH   5  12
HETATM   12  O2  UNL     1     -34.083  -9.243  14.448  1.00  0.00    -0.345 OA
ATOM     13  H2  UNL     1     -33.289  -9.387  14.950  1.00  0.00     0.219 HD
ENDBRANCH   5  12
BRANCH   3  14
HETATM   14  N1  UNL     1     -32.142  -7.229  10.545  1.00  0.00    -0.379 N 
ATOM     15  H12 UNL     1     -32.104  -7.070   9.538  1.00  0.00     0.158 HD
ATOM     16  H11 UNL     1     -31.367  -6.671  10.903  1.00  0.00     0.158 HD
ENDBRANCH   3  14
BRANCH   4  17
HETATM   17  C7  UNL     1     -32.028  -7.429  13.467  1.00  0.00     0.086 C 
HETATM   18  C8  UNL     1     -32.075  -5.948  13.186  1.00  0.00     0.032 C 
HETATM   19  C9  UNL     1     -30.667  -8.015  13.236  1.00  0.00     0.032 C 
ENDBRANCH   4  17
TORSDOF 6
ENDMDL
MODEL 2
REMARK VINA RESULT: -5.364935489      1.153      1.808
REMARK  6 active torsions:
REMARK  status: ('A' for Active; 'I' for Inactive)
REMARK    1  A    between atoms: C2_2  and  C4_4 
REMARK    2  A    between atoms: C4_4  and  O1_5 
REMARK    3  A    between atoms: C4_4  and  C5_7 
REMARK    4  A    between atoms: C6_9  and  N1_10 
REMARK    5  A    between atoms: N2_13  and  C7_14 
REMARK    6  A    between atoms: C10_17  and  O2_18 
ROOT
HETATM    1  C5  UNL     1     -34.554  -9.914  12.205  1.00  0.00     0.088 A 
HETATM    2  S1  UNL     1     -33.816  -9.926  10.634  1.00  0.00    -0.047 SA
HETATM    3  C6  UNL     1     -32.223  -9.489  11.122  1.00  0.00     0.147 A 
HETATM    4  N2  UNL     1     -32.328  -9.350  12.422  1.00  0.00    -0.303 N 
HETATM    5  C10 UNL     1     -33.498  -9.560  12.990  1.00  0.00     0.164 A 
ENDROOT
BRANCH   1   6
HETATM    6  C4  UNL     1     -35.892 -10.390  12.572  1.00  0.00     0.068 C 
BRANCH   6   7
HETATM    7  C2  UNL     1     -37.006  -9.429  12.479  1.00  0.00     0.035 C 
HETATM    8  C1  UNL     1     -37.868  -9.243  13.689  1.00  0.00     0.016 C 
HETATM    9  C3  UNL     1     -37.787  -9.656  11.203  1.00  0.00     0.016 C 
ENDBRANCH   6   7
BRANCH   6  10
HETATM   10  O1  UNL     1     -35.938 -11.411  13.477  1.00  0.00    -0.363 OA
ATOM     11  H1  UNL     1     -35.890 -12.313  13.184  1.00  0.00     0.217 HD
ENDBRANCH   6  10
ENDBRANCH   1   6
BRANCH   5  12
HETATM   12  O2  UNL     1     -33.739  -9.419  14.387  1.00  0.00    -0.345 OA
ATOM     13  H2  UNL     1     -34.460  -8.861  14.652  1.00  0.00     0.219 HD
ENDBRANCH   5  12
BRANCH   3  14
HETATM   14  N1  UNL     1     -31.203  -9.391  10.310  1.00  0.00    -0.379 N 
ATOM     15  H12 UNL     1     -30.309  -8.907  10.390  1.00  0.00     0.158 HD
ATOM     16  H11 UNL     1     -31.138  -9.863   9.407  1.00  0.00     0.158 HD
ENDBRANCH   3  14
BRANCH   4  17
HETATM   17  C7  UNL     1     -31.144  -8.858  13.191  1.00  0.00     0.086 C 
HETATM   18  C8  UNL     1     -30.758  -9.864  14.245  1.00  0.00     0.032 C 
HETATM   19  C9  UNL     1     -31.494  -7.521  13.773  1.00  0.00     0.032 C 
ENDBRANCH   4  17
TORSDOF 6
ENDMDL
MODEL 3
REMARK VINA RESULT: -5.306671184      4.866      5.921
REMARK  6 active torsions:
REMARK  status: ('A' for Active; 'I' for Inactive)
REMARK    1  A    between atoms: C2_2  and  C4_4 
REMARK    2  A    between atoms: C4_4  and  O1_5 
REMARK    3  A    between atoms: C4_4  and  C5_7 
REMARK    4  A    between atoms: C6_9  and  N1_10 
REMARK    5  A    between atoms: N2_13  and  C7_14 
REMARK    6  A    between atoms: C10_17  and  O2_18 
ROOT
HETATM    1  C5  UNL     1     -30.576  -6.641  12.418  1.00  0.00     0.088 A 
HETATM    2  S1  UNL     1     -31.610  -7.481  13.531  1.00  0.00    -0.047 SA
HETATM    3  C6  UNL     1     -30.485  -7.627  14.828  1.00  0.00     0.147 A 
HETATM    4  N2  UNL     1     -29.403  -7.052  14.361  1.00  0.00    -0.303 N 
HETATM    5  C10 UNL     1     -29.427  -6.546  13.144  1.00  0.00     0.164 A 
ENDROOT
BRANCH   1   6
HETATM    6  C4  UNL     1     -30.949  -6.013  11.147  1.00  0.00     0.068 C 
BRANCH   6   7
HETATM    7  C2  UNL     1     -31.235  -6.903  10.006  1.00  0.00     0.035 C 
HETATM    8  C1  UNL     1     -30.644  -6.544   8.678  1.00  0.00     0.016 C 
HETATM    9  C3  UNL     1     -32.713  -7.222   9.948  1.00  0.00     0.016 C 
ENDBRANCH   6   7
BRANCH   6  10
HETATM   10  O1  UNL     1     -30.464  -4.756  10.933  1.00  0.00    -0.363 OA
ATOM     11  H1  UNL     1     -30.989  -3.995  11.155  1.00  0.00     0.217 HD
ENDBRANCH   6  10
ENDBRANCH   1   6
BRANCH   5  12
HETATM   12  O2  UNL     1     -28.310  -5.918  12.523  1.00  0.00    -0.345 OA
ATOM     13  H2  UNL     1     -28.149  -5.006  12.732  1.00  0.00     0.219 HD
ENDBRANCH   5  12
BRANCH   3  14
HETATM   14  N1  UNL     1     -30.762  -8.164  15.988  1.00  0.00    -0.379 N 
ATOM     15  H12 UNL     1     -31.396  -7.885  16.737  1.00  0.00     0.158 HD
ATOM     16  H11 UNL     1     -30.369  -9.043  16.324  1.00  0.00     0.158 HD
ENDBRANCH   3  14
BRANCH   4  17
HETATM   17  C7  UNL     1     -28.157  -7.086  15.186  1.00  0.00     0.086 C 
HETATM   18  C8  UNL     1     -27.422  -5.775  15.068  1.00  0.00     0.032 C 
HETATM   19  C9  UNL     1     -27.331  -8.251  14.729  1.00  0.00     0.032 C 
ENDBRANCH   4  17
TORSDOF 6
ENDMDL
MODEL 4
REMARK VINA RESULT: -5.284209261      2.112      2.786
REMARK  6 active torsions:
REMARK  status: ('A' for Active; 'I' for Inactive)
REMARK    1  A    between atoms: C2_2  and  C4_4 
REMARK    2  A    between atoms: C4_4  and  O1_5 
REMARK    3  A    between atoms: C4_4  and  C5_7 
REMARK    4  A    between atoms: C6_9  and  N1_10 
REMARK    5  A    between atoms: N2_13  and  C7_14 
REMARK    6  A    between atoms: C10_17  and  O2_18 
ROOT
HETATM    1  C5  UNL     1     -33.899  -9.724  12.825  1.00  0.00     0.088 A 
HETATM    2  S1  UNL     1     -33.382  -8.108  12.460  1.00  0.00    -0.047 SA
HETATM    3  C6  UNL     1     -31.729  -8.461  12.127  1.00  0.00     0.147 A 
HETATM    4  N2  UNL     1     -31.650  -9.757  12.313  1.00  0.00    -0.303 N 
HETATM    5  C10 UNL     1     -32.735 -10.415  12.666  1.00  0.00     0.164 A 
ENDROOT
BRANCH   1   6
HETATM    6  C4  UNL     1     -35.270 -10.206  13.015  1.00  0.00     0.068 C 
BRANCH   6   7
HETATM    7  C2  UNL     1     -36.171  -9.387  13.849  1.00  0.00     0.035 C 
HETATM    8  C1  UNL     1     -36.049  -9.514  15.335  1.00  0.00     0.016 C 
HETATM    9  C3  UNL     1     -37.592  -9.492  13.342  1.00  0.00     0.016 C 
ENDBRANCH   6   7
BRANCH   6  10
HETATM   10  O1  UNL     1     -35.449 -11.556  12.932  1.00  0.00    -0.363 OA
ATOM     11  H1  UNL     1     -35.987 -11.927  12.242  1.00  0.00     0.217 HD
ENDBRANCH   6  10
ENDBRANCH   1   6
BRANCH   5  12
HETATM   12  O2  UNL     1     -32.767 -11.817  12.917  1.00  0.00    -0.345 OA
ATOM     13  H2  UNL     1     -32.781 -12.396  12.164  1.00  0.00     0.219 HD
ENDBRANCH   5  12
BRANCH   3  14
HETATM   14  N1  UNL     1     -30.848  -7.576  11.740  1.00  0.00    -0.379 N 
ATOM     15  H12 UNL     1     -29.926  -7.669  11.314  1.00  0.00     0.158 HD
ATOM     16  H11 UNL     1     -30.990  -6.566  11.780  1.00  0.00     0.158 HD
ENDBRANCH   3  14
BRANCH   4  17
HETATM   17  C7  UNL     1     -30.312 -10.417  12.219  1.00  0.00     0.086 C 
HETATM   18  C8  UNL     1     -30.380 -11.593  11.279  1.00  0.00     0.032 C 
HETATM   19  C9  UNL     1     -29.892 -10.811  13.604  1.00  0.00     0.032 C 
ENDBRANCH   4  17
TORSDOF 6
ENDMDL
MODEL 5
REMARK VINA RESULT: -5.271137627      3.827      5.259
REMARK  6 active torsions:
REMARK  status: ('A' for Active; 'I' for Inactive)
REMARK    1  A    between atoms: C2_2  and  C4_4 
REMARK    2  A    between atoms: C4_4  and  O1_5 
REMARK    3  A    between atoms: C4_4  and  C5_7 
REMARK    4  A    between atoms: C6_9  and  N1_10 
REMARK    5  A    between atoms: N2_13  and  C7_14 
REMARK    6  A    between atoms: C10_17  and  O2_18 
ROOT
HETATM    1  C5  UNL     1     -30.949  -7.131  13.590  1.00  0.00     0.088 A 
HETATM    2  S1  UNL     1     -30.265  -7.909  14.983  1.00  0.00    -0.047 SA
HETATM    3  C6  UNL     1     -28.673  -7.263  14.853  1.00  0.00     0.147 A 
HETATM    4  N2  UNL     1     -28.735  -6.512  13.778  1.00  0.00    -0.303 N 
HETATM    5  C10 UNL     1     -29.876  -6.432  13.125  1.00  0.00     0.164 A 
ENDROOT
BRANCH   1   6
HETATM    6  C4  UNL     1     -32.359  -7.079  13.193  1.00  0.00     0.068 C 
BRANCH   6   7
HETATM    7  C2  UNL     1     -33.001  -8.345  12.793  1.00  0.00     0.035 C 
HETATM    8  C1  UNL     1     -33.774  -8.359  11.511  1.00  0.00     0.016 C 
HETATM    9  C3  UNL     1     -33.750  -8.945  13.962  1.00  0.00     0.016 C 
ENDBRANCH   6   7
BRANCH   6  10
HETATM   10  O1  UNL     1     -32.794  -5.894  12.674  1.00  0.00    -0.363 OA
ATOM     11  H1  UNL     1     -33.700  -5.629  12.778  1.00  0.00     0.217 HD
ENDBRANCH   6  10
ENDBRANCH   1   6
BRANCH   5  12
HETATM   12  O2  UNL     1     -30.057  -5.668  11.936  1.00  0.00    -0.345 OA
ATOM     13  H2  UNL     1     -30.092  -6.141  11.113  1.00  0.00     0.219 HD
ENDBRANCH   5  12
BRANCH   3  14
HETATM   14  N1  UNL     1     -27.711  -7.493  15.708  1.00  0.00    -0.379 N 
ATOM     15  H12 UNL     1     -26.720  -7.249  15.704  1.00  0.00     0.158 HD
ATOM     16  H11 UNL     1     -27.837  -7.964  16.603  1.00  0.00     0.158 HD
ENDBRANCH   3  14
BRANCH   4  17
HETATM   17  C7  UNL     1     -27.483  -5.864  13.282  1.00  0.00     0.086 C 
HETATM   18  C8  UNL     1     -26.493  -6.917  12.849  1.00  0.00     0.032 C 
HETATM   19  C9  UNL     1     -26.949  -4.989  14.376  1.00  0.00     0.032 C 
ENDBRANCH   4  17
TORSDOF 6
ENDMDL
