MODEL 1
REMARK VINA RESULT: -6.298202284      0.000      0.000
REMARK  7 active torsions:
REMARK  status: ('A' for Active; 'I' for Inactive)
REMARK    1  A    between atoms: C2_2  and  C3_3 
REMARK    2  A    between atoms: C3_3  and  C4_4 
REMARK    3  A    between atoms: C4_4  and  C9_18 
REMARK    4  A    between atoms: C5_5  and  O1_6 
REMARK    5  A    between atoms: C5_5  and  N1_8 
REMARK    6  A    between atoms: C6_11  and  O2_12 
REMARK    7  A    between atoms: C8_15  and  O3_16 
ROOT
HETATM    1  C4  UNL     1     -33.089  -8.836  11.522  1.00  0.00    -0.020 C 
HETATM    2  C5  UNL     1     -34.055  -9.901  11.545  1.00  0.00     0.167 C 
ENDROOT
BRANCH   2   3
HETATM    3  O1  UNL     1     -33.491 -11.099  11.368  1.00  0.00    -0.344 OA
ATOM      4  H1  UNL     1     -34.125 -11.763  11.123  1.00  0.00     0.219 HD
ENDBRANCH   2   3
BRANCH   2   5
HETATM    5  N1  UNL     1     -35.442  -9.983  11.708  1.00  0.00    -0.209 N 
HETATM    6  N2  UNL     1     -36.325  -9.367  10.869  1.00  0.00    -0.269 N 
HETATM    7  C6  UNL     1     -37.573  -9.601  11.244  1.00  0.00     0.159 A 
ATOM      8  H2  UNL     1     -36.060  -8.802  10.063  1.00  0.00     0.190 HD
HETATM    9  C7  UNL     1     -37.533 -10.391  12.358  1.00  0.00     0.115 A 
HETATM   10  C8  UNL     1     -36.164 -10.610  12.619  1.00  0.00     0.168 A 
BRANCH   7  11
HETATM   11  O2  UNL     1     -38.690  -9.109  10.589  1.00  0.00    -0.345 OA
ATOM     12  H2  UNL     1     -39.327  -9.650  10.138  1.00  0.00     0.219 HD
ENDBRANCH   7  11
BRANCH  10  13
HETATM   13  O3  UNL     1     -35.822 -11.390  13.711  1.00  0.00    -0.345 OA
ATOM     14  H3  UNL     1     -35.972 -11.290  14.643  1.00  0.00     0.219 HD
ENDBRANCH  10  13
ENDBRANCH   2   5
BRANCH   1  15
HETATM   15  C3  UNL     1     -33.266  -7.676  10.614  1.00  0.00     0.039 C 
BRANCH  15  16
HETATM   16  C2  UNL     1     -33.354  -8.187   9.165  1.00  0.00     0.000 C 
HETATM   17  C1  UNL     1     -33.038  -7.090   8.191  1.00  0.00     0.005 C 
ENDBRANCH  15  16
ENDBRANCH   1  15
BRANCH   1  18
HETATM   18  C9  UNL     1     -32.453  -8.490  12.862  1.00  0.00    -0.024 C 
HETATM   19  C10 UNL     1     -32.428  -6.951  12.932  1.00  0.00     0.019 C 
HETATM   20  C11 UNL     1     -33.176  -8.967  14.060  1.00  0.00     0.019 C 
HETATM   21  C12 UNL     1     -31.030  -8.941  12.884  1.00  0.00     0.019 C 
ENDBRANCH   1  18
TORSDOF 7
ENDMDL
MODEL 2
REMARK VINA RESULT: -6.216834729      1.111      1.450
REMARK  7 active torsions:
REMARK  status: ('A' for Active; 'I' for Inactive)
REMARK    1  A    between atoms: C2_2  and  C3_3 
REMARK    2  A    between atoms: C3_3  and  C4_4 
REMARK    3  A    between atoms: C4_4  and  C9_18 
REMARK    4  A    between atoms: C5_5  and  O1_6 
REMARK    5  A    between atoms: C5_5  and  N1_8 
REMARK    6  A    between atoms: C6_11  and  O2_12 
REMARK    7  A    between atoms: C8_15  and  O3_16 
ROOT
HETATM    1  C4  UNL     1     -33.301  -9.188  10.395  1.00  0.00    -0.020 C 
HETATM    2  C5  UNL     1     -34.198 -10.050  11.115  1.00  0.00     0.167 C 
ENDROOT
BRANCH   2   3
HETATM    3  O1  UNL     1     -33.593 -11.156  11.557  1.00  0.00    -0.344 OA
ATOM      4  H1  UNL     1     -32.649 -11.110  11.466  1.00  0.00     0.219 HD
ENDBRANCH   2   3
BRANCH   2   5
HETATM    5  N1  UNL     1     -35.553 -10.008  11.463  1.00  0.00    -0.209 N 
HETATM    6  N2  UNL     1     -36.503  -9.421  10.677  1.00  0.00    -0.269 N 
HETATM    7  C6  UNL     1     -37.700  -9.519  11.234  1.00  0.00     0.159 A 
ATOM      8  H2  UNL     1     -36.316  -8.969   9.783  1.00  0.00     0.190 HD
HETATM    9  C7  UNL     1     -37.557 -10.183  12.419  1.00  0.00     0.115 A 
HETATM   10  C8  UNL     1     -36.182 -10.475  12.526  1.00  0.00     0.168 A 
BRANCH   7  11
HETATM   11  O2  UNL     1     -38.864  -9.017  10.674  1.00  0.00    -0.345 OA
ATOM     12  H2  UNL     1     -39.478  -8.454  11.131  1.00  0.00     0.219 HD
ENDBRANCH   7  11
BRANCH  10  13
HETATM   13  O3  UNL     1     -35.742 -11.156  13.649  1.00  0.00    -0.345 OA
ATOM     14  H3  UNL     1     -35.630 -10.894  14.556  1.00  0.00     0.219 HD
ENDBRANCH  10  13
ENDBRANCH   2   5
BRANCH   1  15
HETATM   15  C3  UNL     1     -33.638  -8.717   9.029  1.00  0.00     0.039 C 
BRANCH  15  16
HETATM   16  C2  UNL     1     -33.806  -9.939   8.108  1.00  0.00     0.000 C 
HETATM   17  C1  UNL     1     -34.468  -9.550   6.819  1.00  0.00     0.005 C 
ENDBRANCH  15  16
ENDBRANCH   1  15
BRANCH   1  18
HETATM   18  C9  UNL     1     -32.542  -8.170  11.237  1.00  0.00    -0.024 C 
HETATM   19  C10 UNL     1     -32.329  -6.946  10.327  1.00  0.00     0.019 C 
HETATM   20  C11 UNL     1     -33.237  -7.693  12.451  1.00  0.00     0.019 C 
HETATM   21  C12 UNL     1     -31.184  -8.694  11.571  1.00  0.00     0.019 C 
ENDBRANCH   1  18
TORSDOF 7
ENDMDL
MODEL 3
REMARK VINA RESULT: -6.118802595      0.663      1.274
REMARK  7 active torsions:
REMARK  status: ('A' for Active; 'I' for Inactive)
REMARK    1  A    between atoms: C2_2  and  C3_3 
REMARK    2  A    between atoms: C3_3  and  C4_4 
REMARK    3  A    between atoms: C4_4  and  C9_18 
REMARK    4  A    between atoms: C5_5  and  O1_6 
REMARK    5  A    between atoms: C5_5  and  N1_8 
REMARK    6  A    between atoms: C6_11  and  O2_12 
REMARK    7  A    between atoms: C8_15  and  O3_16 
ROOT
HETATM    1  C4  UNL     1     -33.192  -8.898  11.111  1.00  0.00    -0.020 C 
HETATM    2  C5  UNL     1     -34.127  -9.927  11.474  1.00  0.00     0.167 C 
ENDROOT
BRANCH   2   3
HETATM    3  O1  UNL     1     -33.532 -11.109  11.660  1.00  0.00    -0.344 OA
ATOM      4  H1  UNL     1     -32.668 -11.143  11.267  1.00  0.00     0.219 HD
ENDBRANCH   2   3
BRANCH   2   5
HETATM    5  N1  UNL     1     -35.509  -9.988  11.679  1.00  0.00    -0.209 N 
HETATM    6  N2  UNL     1     -36.410  -9.389  10.846  1.00  0.00    -0.269 N 
HETATM    7  C6  UNL     1     -37.649  -9.598  11.263  1.00  0.00     0.159 A 
ATOM      8  H2  UNL     1     -36.163  -8.852  10.015  1.00  0.00     0.190 HD
HETATM    9  C7  UNL     1     -37.585 -10.353  12.400  1.00  0.00     0.115 A 
HETATM   10  C8  UNL     1     -36.212 -10.578  12.628  1.00  0.00     0.168 A 
BRANCH   7  11
HETATM   11  O2  UNL     1     -38.780  -9.114  10.625  1.00  0.00    -0.345 OA
ATOM     12  H2  UNL     1     -38.865  -8.233  10.281  1.00  0.00     0.219 HD
ENDBRANCH   7  11
BRANCH  10  13
HETATM   13  O3  UNL     1     -35.846 -11.328  13.734  1.00  0.00    -0.345 OA
ATOM     14  H3  UNL     1     -36.137 -11.321  14.639  1.00  0.00     0.219 HD
ENDBRANCH  10  13
ENDBRANCH   2   5
BRANCH   1  15
HETATM   15  C3  UNL     1     -33.409  -8.074   9.896  1.00  0.00     0.039 C 
BRANCH  15  16
HETATM   16  C2  UNL     1     -33.141  -8.939   8.652  1.00  0.00     0.000 C 
HETATM   17  C1  UNL     1     -34.393  -9.116   7.844  1.00  0.00     0.005 C 
ENDBRANCH  15  16
ENDBRANCH   1  15
BRANCH   1  18
HETATM   18  C9  UNL     1     -32.552  -8.144  12.271  1.00  0.00    -0.024 C 
HETATM   19  C10 UNL     1     -31.074  -8.576  12.290  1.00  0.00     0.019 C 
HETATM   20  C11 UNL     1     -32.573  -6.670  12.169  1.00  0.00     0.019 C 
HETATM   21  C12 UNL     1     -33.146  -8.598  13.564  1.00  0.00     0.019 C 
ENDBRANCH   1  18
TORSDOF 7
ENDMDL
MODEL 4
REMARK VINA RESULT: -5.827337540      1.313      1.606
REMARK  7 active torsions:
REMARK  status: ('A' for Active; 'I' for Inactive)
REMARK    1  A    between atoms: C2_2  and  C3_3 
REMARK    2  A    between atoms: C3_3  and  C4_4 
REMARK    3  A    between atoms: C4_4  and  C9_18 
REMARK    4  A    between atoms: C5_5  and  O1_6 
REMARK    5  A    between atoms: C5_5  and  N1_8 
REMARK    6  A    between atoms: C6_11  and  O2_12 
REMARK    7  A    between atoms: C8_15  and  O3_16 
ROOT
HETATM    1  C4  UNL     1     -33.094  -9.607  11.253  1.00  0.00    -0.020 C 
HETATM    2  C5  UNL     1     -34.164 -10.241  11.974  1.00  0.00     0.167 C 
ENDROOT
BRANCH   2   3
HETATM    3  O1  UNL     1     -33.756 -11.330  12.631  1.00  0.00    -0.344 OA
ATOM      4  H1  UNL     1     -33.020 -11.753  12.206  1.00  0.00     0.219 HD
ENDBRANCH   2   3
BRANCH   2   5
HETATM    5  N1  UNL     1     -35.529  -9.990  12.153  1.00  0.00    -0.209 N 
HETATM    6  N2  UNL     1     -36.369  -9.684  11.121  1.00  0.00    -0.269 N 
HETATM    7  C6  UNL     1     -37.603  -9.493  11.559  1.00  0.00     0.159 A 
ATOM      8  H2  UNL     1     -36.084  -9.612  10.145  1.00  0.00     0.190 HD
HETATM    9  C7  UNL     1     -37.598  -9.672  12.914  1.00  0.00     0.115 A 
HETATM   10  C8  UNL     1     -36.265  -9.985  13.250  1.00  0.00     0.168 A 
BRANCH   7  11
HETATM   11  O2  UNL     1     -38.678  -9.168  10.747  1.00  0.00    -0.345 OA
ATOM     12  H2  UNL     1     -39.520  -8.869  11.069  1.00  0.00     0.219 HD
ENDBRANCH   7  11
BRANCH  10  13
HETATM   13  O3  UNL     1     -35.963 -10.221  14.581  1.00  0.00    -0.345 OA
ATOM     14  H3  UNL     1     -36.503 -10.288  15.359  1.00  0.00     0.219 HD
ENDBRANCH  10  13
ENDBRANCH   2   5
BRANCH   1  15
HETATM   15  C3  UNL     1     -33.231  -9.312   9.805  1.00  0.00     0.039 C 
BRANCH  15  16
HETATM   16  C2  UNL     1     -33.394 -10.636   9.039  1.00  0.00     0.000 C 
HETATM   17  C1  UNL     1     -32.195 -11.518   9.234  1.00  0.00     0.005 C 
ENDBRANCH  15  16
ENDBRANCH   1  15
BRANCH   1  18
HETATM   18  C9  UNL     1     -32.294  -8.570  12.030  1.00  0.00    -0.024 C 
HETATM   19  C10 UNL     1     -32.189  -7.341  11.107  1.00  0.00     0.019 C 
HETATM   20  C11 UNL     1     -32.897  -8.110  13.298  1.00  0.00     0.019 C 
HETATM   21  C12 UNL     1     -30.900  -9.059  12.248  1.00  0.00     0.019 C 
ENDBRANCH   1  18
TORSDOF 7
ENDMDL
MODEL 5
REMARK VINA RESULT: -5.705275095      3.494      6.020
REMARK  7 active torsions:
REMARK  status: ('A' for Active; 'I' for Inactive)
REMARK    1  A    between atoms: C2_2  and  C3_3 
REMARK    2  A    between atoms: C3_3  and  C4_4 
REMARK    3  A    between atoms: C4_4  and  C9_18 
REMARK    4  A    between atoms: C5_5  and  O1_6 
REMARK    5  A    between atoms: C5_5  and  N1_8 
REMARK    6  A    between atoms: C6_11  and  O2_12 
REMARK    7  A    between atoms: C8_15  and  O3_16 
ROOT
HETATM    1  C4  UNL     1     -33.111  -9.505  12.772  1.00  0.00    -0.020 C 
HETATM    2  C5  UNL     1     -31.911  -9.535  13.562  1.00  0.00     0.167 C 
ENDROOT
BRANCH   2   3
HETATM    3  O1  UNL     1     -31.526 -10.781  13.851  1.00  0.00    -0.344 OA
ATOM      4  H1  UNL     1     -31.315 -11.283  13.072  1.00  0.00     0.219 HD
ENDBRANCH   2   3
BRANCH   2   5
HETATM    5  N1  UNL     1     -31.050  -8.573  14.101  1.00  0.00    -0.209 N 
HETATM    6  N2  UNL     1     -29.964  -8.893  14.865  1.00  0.00    -0.269 N 
HETATM    7  C6  UNL     1     -29.321  -7.802  15.248  1.00  0.00     0.159 A 
ATOM      8  H2  UNL     1     -29.686  -9.843  15.107  1.00  0.00     0.190 HD
HETATM    9  C7  UNL     1     -29.984  -6.723  14.735  1.00  0.00     0.115 A 
HETATM   10  C8  UNL     1     -31.073  -7.255  14.015  1.00  0.00     0.168 A 
BRANCH   7  11
HETATM   11  O2  UNL     1     -28.179  -7.804  16.034  1.00  0.00    -0.345 OA
ATOM     12  H2  UNL     1     -27.805  -8.581  16.432  1.00  0.00     0.219 HD
ENDBRANCH   7  11
BRANCH  10  13
HETATM   13  O3  UNL     1     -31.932  -6.374  13.379  1.00  0.00    -0.345 OA
ATOM     14  H3  UNL     1     -32.838  -6.134  13.537  1.00  0.00     0.219 HD
ENDBRANCH  10  13
ENDBRANCH   2   5
BRANCH   1  15
HETATM   15  C3  UNL     1     -34.280  -8.700  13.205  1.00  0.00     0.039 C 
BRANCH  15  16
HETATM   16  C2  UNL     1     -35.157  -9.556  14.137  1.00  0.00     0.000 C 
HETATM   17  C1  UNL     1     -35.987 -10.526  13.348  1.00  0.00     0.005 C 
ENDBRANCH  15  16
ENDBRANCH   1  15
BRANCH   1  18
HETATM   18  C9  UNL     1     -32.912  -9.557  11.263  1.00  0.00    -0.024 C 
HETATM   19  C10 UNL     1     -34.015  -8.666  10.661  1.00  0.00     0.019 C 
HETATM   20  C11 UNL     1     -31.619  -9.043  10.766  1.00  0.00     0.019 C 
HETATM   21  C12 UNL     1     -33.163 -10.942  10.762  1.00  0.00     0.019 C 
ENDBRANCH   1  18
TORSDOF 7
ENDMDL
