MODEL 1
REMARK VINA RESULT: -5.838221597      0.000      0.000
REMARK  6 active torsions:
REMARK  status: ('A' for Active; 'I' for Inactive)
REMARK    1  A    between atoms: O1_2  and  C2_3 
REMARK    2  A    between atoms: C2_3  and  C3_5 
REMARK    3  A    between atoms: C4_6  and  C5_7 
REMARK    4  A    between atoms: C8_11  and  C9_12 
REMARK    5  A    between atoms: C9_12  and  N2_16 
REMARK    6  A    between atoms: N2_16  and  O3_18 
ROOT
HETATM    1  C5  UNL     1     -34.669  -9.021  12.429  1.00  0.00     0.113 A 
HETATM    2  S1  UNL     1     -33.716  -9.113  13.859  1.00  0.00    -0.120 SA
HETATM    3  C6  UNL     1     -35.357  -9.330  14.314  1.00  0.00    -0.013 A 
HETATM    4  C7  UNL     1     -36.038  -9.571  15.690  1.00  0.00     0.056 C 
HETATM    5  C8  UNL     1     -35.880  -9.234  13.181  1.00  0.00     0.017 A 
ENDROOT
BRANCH   5   6
HETATM    6  C9  UNL     1     -37.311  -9.307  12.689  1.00  0.00     0.127 C 
HETATM    7  N1  UNL     1     -38.269  -8.865  13.413  1.00  0.00    -0.384 N 
ATOM      8  H12 UNL     1     -38.043  -8.465  14.324  1.00  0.00     0.157 HD
ATOM      9  H11 UNL     1     -39.232  -8.915  13.081  1.00  0.00     0.157 HD
BRANCH   6  10
HETATM   10  N2  UNL     1     -37.621  -9.859  11.436  1.00  0.00    -0.253 N 
ATOM     11  H2  UNL     1     -37.225 -10.769  11.201  1.00  0.00     0.196 HD
BRANCH  10  12
HETATM   12  O3  UNL     1     -38.402  -9.264  10.533  1.00  0.00    -0.288 OA
ATOM     13  H3  UNL     1     -38.180  -9.179   9.614  1.00  0.00     0.244 HD
ENDBRANCH  10  12
ENDBRANCH   6  10
ENDBRANCH   5   6
BRANCH   1  14
HETATM   14  C4  UNL     1     -34.348 -10.131  11.464  1.00  0.00    -0.000 C 
HETATM   15  C3  UNL     1     -34.398 -10.009  10.194  1.00  0.00     0.079 C 
BRANCH  15  16
HETATM   16  C2  UNL     1     -34.756  -8.839   9.456  1.00  0.00     0.282 C 
HETATM   17  O2  UNL     1     -35.922  -8.658   9.049  1.00  0.00    -0.260 OA
BRANCH  16  18
HETATM   18  O1  UNL     1     -33.831  -7.831   9.143  1.00  0.00    -0.323 OA
HETATM   19  C1  UNL     1     -33.187  -7.856   7.887  1.00  0.00     0.213 C 
ENDBRANCH  16  18
ENDBRANCH  15  16
ENDBRANCH   1  14
TORSDOF 6
ENDMDL
MODEL 2
REMARK VINA RESULT: -5.655142643      2.535      3.264
REMARK  6 active torsions:
REMARK  status: ('A' for Active; 'I' for Inactive)
REMARK    1  A    between atoms: O1_2  and  C2_3 
REMARK    2  A    between atoms: C2_3  and  C3_5 
REMARK    3  A    between atoms: C4_6  and  C5_7 
REMARK    4  A    between atoms: C8_11  and  C9_12 
REMARK    5  A    between atoms: C9_12  and  N2_16 
REMARK    6  A    between atoms: N2_16  and  O3_18 
ROOT
HETATM    1  C5  UNL     1     -33.354  -8.171  11.614  1.00  0.00     0.113 A 
HETATM    2  S1  UNL     1     -31.888  -7.333  11.946  1.00  0.00    -0.120 SA
HETATM    3  C6  UNL     1     -32.264  -8.285  13.324  1.00  0.00    -0.013 A 
HETATM    4  C7  UNL     1     -31.548  -8.478  14.690  1.00  0.00     0.056 C 
HETATM    5  C8  UNL     1     -33.325  -8.803  12.909  1.00  0.00     0.017 A 
ENDROOT
BRANCH   5   6
HETATM    6  C9  UNL     1     -34.309  -9.781  13.518  1.00  0.00     0.127 C 
HETATM    7  N1  UNL     1     -34.998  -9.454  14.545  1.00  0.00    -0.384 N 
ATOM      8  H12 UNL     1     -34.868  -8.522  14.940  1.00  0.00     0.157 HD
ATOM      9  H11 UNL     1     -35.660 -10.113  14.955  1.00  0.00     0.157 HD
BRANCH   6  10
HETATM   10  N2  UNL     1     -34.488 -11.064  12.975  1.00  0.00    -0.253 N 
ATOM     11  H2  UNL     1     -33.672 -11.540  12.590  1.00  0.00     0.196 HD
BRANCH  10  12
HETATM   12  O3  UNL     1     -35.661 -11.697  12.934  1.00  0.00    -0.288 OA
ATOM     13  H3  UNL     1     -35.757 -12.623  12.745  1.00  0.00     0.244 HD
ENDBRANCH  10  12
ENDBRANCH   6  10
ENDBRANCH   5   6
BRANCH   1  14
HETATM   14  C4  UNL     1     -33.207  -9.132  10.465  1.00  0.00    -0.000 C 
HETATM   15  C3  UNL     1     -34.185  -9.557   9.761  1.00  0.00     0.079 C 
BRANCH  15  16
HETATM   16  C2  UNL     1     -35.565  -9.221   9.915  1.00  0.00     0.282 C 
HETATM   17  O2  UNL     1     -36.179  -8.578   9.039  1.00  0.00    -0.260 OA
BRANCH  16  18
HETATM   18  O1  UNL     1     -36.310  -9.586  11.047  1.00  0.00    -0.323 OA
HETATM   19  C1  UNL     1     -37.719  -9.552  10.982  1.00  0.00     0.213 C 
ENDBRANCH  16  18
ENDBRANCH  15  16
ENDBRANCH   1  14
TORSDOF 6
ENDMDL
MODEL 3
REMARK VINA RESULT: -5.532713527      4.422      5.605
REMARK  6 active torsions:
REMARK  status: ('A' for Active; 'I' for Inactive)
REMARK    1  A    between atoms: O1_2  and  C2_3 
REMARK    2  A    between atoms: C2_3  and  C3_5 
REMARK    3  A    between atoms: C4_6  and  C5_7 
REMARK    4  A    between atoms: C8_11  and  C9_12 
REMARK    5  A    between atoms: C9_12  and  N2_16 
REMARK    6  A    between atoms: N2_16  and  O3_18 
ROOT
HETATM    1  C5  UNL     1     -32.212  -8.543  12.179  1.00  0.00     0.113 A 
HETATM    2  S1  UNL     1     -32.783  -7.361  11.066  1.00  0.00    -0.120 SA
HETATM    3  C6  UNL     1     -33.743  -8.770  10.864  1.00  0.00    -0.013 A 
HETATM    4  C7  UNL     1     -34.931  -9.100   9.918  1.00  0.00     0.056 C 
HETATM    5  C8  UNL     1     -33.197  -9.493  11.727  1.00  0.00     0.017 A 
ENDROOT
BRANCH   5   6
HETATM    6  C9  UNL     1     -33.440 -10.913  12.195  1.00  0.00     0.127 C 
HETATM    7  N1  UNL     1     -34.561 -11.242  12.716  1.00  0.00    -0.384 N 
ATOM      8  H12 UNL     1     -35.282 -10.526  12.806  1.00  0.00     0.157 HD
ATOM      9  H11 UNL     1     -34.725 -12.198  13.030  1.00  0.00     0.157 HD
BRANCH   6  10
HETATM   10  N2  UNL     1     -32.447 -11.899  12.070  1.00  0.00    -0.253 N 
ATOM     11  H2  UNL     1     -31.872 -11.897  11.228  1.00  0.00     0.196 HD
BRANCH  10  12
HETATM   12  O3  UNL     1     -32.213 -12.839  12.987  1.00  0.00    -0.288 OA
ATOM     13  H3  UNL     1     -32.553 -12.811  13.873  1.00  0.00     0.244 HD
ENDBRANCH  10  12
ENDBRANCH   6  10
ENDBRANCH   5   6
BRANCH   1  14
HETATM   14  C4  UNL     1     -32.394  -8.109  13.608  1.00  0.00    -0.000 C 
HETATM   15  C3  UNL     1     -31.657  -8.504  14.573  1.00  0.00     0.079 C 
BRANCH  15  16
HETATM   16  C2  UNL     1     -30.551  -9.405  14.497  1.00  0.00     0.282 C 
HETATM   17  O2  UNL     1     -30.721 -10.637  14.397  1.00  0.00    -0.260 OA
BRANCH  16  18
HETATM   18  O1  UNL     1     -29.218  -8.968  14.532  1.00  0.00    -0.323 OA
HETATM   19  C1  UNL     1     -28.904  -7.771  15.213  1.00  0.00     0.213 C 
ENDBRANCH  16  18
ENDBRANCH  15  16
ENDBRANCH   1  14
TORSDOF 6
ENDMDL
MODEL 4
REMARK VINA RESULT: -5.407348016      3.472      4.959
REMARK  6 active torsions:
REMARK  status: ('A' for Active; 'I' for Inactive)
REMARK    1  A    between atoms: O1_2  and  C2_3 
REMARK    2  A    between atoms: C2_3  and  C3_5 
REMARK    3  A    between atoms: C4_6  and  C5_7 
REMARK    4  A    between atoms: C8_11  and  C9_12 
REMARK    5  A    between atoms: C9_12  and  N2_16 
REMARK    6  A    between atoms: N2_16  and  O3_18 
ROOT
HETATM    1  C5  UNL     1     -32.641  -8.356  11.001  1.00  0.00     0.113 A 
HETATM    2  S1  UNL     1     -32.273  -7.760   9.430  1.00  0.00    -0.120 SA
HETATM    3  C6  UNL     1     -33.711  -8.690   9.308  1.00  0.00    -0.013 A 
HETATM    4  C7  UNL     1     -34.635  -9.038   8.107  1.00  0.00     0.056 C 
HETATM    5  C8  UNL     1     -33.816  -9.029  10.508  1.00  0.00     0.017 A 
ENDROOT
BRANCH   5   6
HETATM    6  C9  UNL     1     -34.823  -9.871  11.264  1.00  0.00     0.127 C 
HETATM    7  N1  UNL     1     -36.061  -9.548  11.275  1.00  0.00    -0.384 N 
ATOM      8  H12 UNL     1     -36.349  -8.713  10.764  1.00  0.00     0.157 HD
ATOM      9  H11 UNL     1     -36.739 -10.115  11.784  1.00  0.00     0.157 HD
BRANCH   6  10
HETATM   10  N2  UNL     1     -34.427 -11.021  11.967  1.00  0.00    -0.253 N 
ATOM     11  H2  UNL     1     -33.584 -11.504  11.660  1.00  0.00     0.196 HD
BRANCH  10  12
HETATM   12  O3  UNL     1     -35.089 -11.517  13.014  1.00  0.00    -0.288 OA
ATOM     13  H3  UNL     1     -35.835 -11.092  13.419  1.00  0.00     0.244 HD
ENDBRANCH  10  12
ENDBRANCH   6  10
ENDBRANCH   5   6
BRANCH   1  14
HETATM   14  C4  UNL     1     -32.937  -7.245  11.972  1.00  0.00    -0.000 C 
HETATM   15  C3  UNL     1     -32.879  -7.373  13.242  1.00  0.00     0.079 C 
BRANCH  15  16
HETATM   16  C2  UNL     1     -32.534  -8.550  13.972  1.00  0.00     0.282 C 
HETATM   17  O2  UNL     1     -33.393  -9.402  14.278  1.00  0.00    -0.260 OA
BRANCH  16  18
HETATM   18  O1  UNL     1     -31.222  -8.822  14.391  1.00  0.00    -0.323 OA
HETATM   19  C1  UNL     1     -30.637  -8.011  15.387  1.00  0.00     0.213 C 
ENDBRANCH  16  18
ENDBRANCH  15  16
ENDBRANCH   1  14
TORSDOF 6
ENDMDL
MODEL 5
REMARK VINA RESULT: -5.374338350      6.700      7.668
REMARK  6 active torsions:
REMARK  status: ('A' for Active; 'I' for Inactive)
REMARK    1  A    between atoms: O1_2  and  C2_3 
REMARK    2  A    between atoms: C2_3  and  C3_5 
REMARK    3  A    between atoms: C4_6  and  C5_7 
REMARK    4  A    between atoms: C8_11  and  C9_12 
REMARK    5  A    between atoms: C9_12  and  N2_16 
REMARK    6  A    between atoms: N2_16  and  O3_18 
ROOT
HETATM    1  C5  UNL     1     -30.274  -7.880  13.679  1.00  0.00     0.113 A 
HETATM    2  S1  UNL     1     -31.850  -7.279  13.337  1.00  0.00    -0.120 SA
HETATM    3  C6  UNL     1     -31.923  -8.993  13.273  1.00  0.00    -0.013 A 
HETATM    4  C7  UNL     1     -33.086  -9.981  12.978  1.00  0.00     0.056 C 
HETATM    5  C8  UNL     1     -30.725  -9.241  13.538  1.00  0.00     0.017 A 
ENDROOT
BRANCH   5   6
HETATM    6  C9  UNL     1     -29.939 -10.528  13.679  1.00  0.00     0.127 C 
HETATM    7  N1  UNL     1     -29.493 -11.133  12.643  1.00  0.00    -0.384 N 
ATOM      8  H12 UNL     1     -29.679 -10.726  11.727  1.00  0.00     0.157 HD
ATOM      9  H11 UNL     1     -28.964 -11.999  12.738  1.00  0.00     0.157 HD
BRANCH   6  10
HETATM   10  N2  UNL     1     -29.683 -11.089  14.941  1.00  0.00    -0.253 N 
ATOM     11  H2  UNL     1     -30.399 -10.998  15.661  1.00  0.00     0.196 HD
BRANCH  10  12
HETATM   12  O3  UNL     1     -28.558 -11.733  15.254  1.00  0.00    -0.288 OA
ATOM     13  H3  UNL     1     -27.940 -11.433  15.909  1.00  0.00     0.244 HD
ENDBRANCH  10  12
ENDBRANCH   6  10
ENDBRANCH   5   6
BRANCH   1  14
HETATM   14  C4  UNL     1     -29.826  -7.528  15.072  1.00  0.00    -0.000 C 
HETATM   15  C3  UNL     1     -28.617  -7.612  15.475  1.00  0.00     0.079 C 
BRANCH  15  16
HETATM   16  C2  UNL     1     -27.486  -8.039  14.716  1.00  0.00     0.282 C 
HETATM   17  O2  UNL     1     -27.050  -9.206  14.799  1.00  0.00    -0.260 OA
BRANCH  16  18
HETATM   18  O1  UNL     1     -26.798  -7.186  13.839  1.00  0.00    -0.323 OA
HETATM   19  C1  UNL     1     -26.847  -5.792  14.059  1.00  0.00     0.213 C 
ENDBRANCH  16  18
ENDBRANCH  15  16
ENDBRANCH   1  14
TORSDOF 6
ENDMDL
