MODEL 1
REMARK VINA RESULT: -5.478712054      0.000      0.000
REMARK  5 active torsions:
REMARK  status: ('A' for Active; 'I' for Inactive)
REMARK    1  A    between atoms: C2_2  and  O1_4 
REMARK    2  A    between atoms: C2_2  and  C4_6 
REMARK    3  A    between atoms: C4_6  and  O2_7 
REMARK    4  A    between atoms: O2_7  and  N1_8 
REMARK    5  A    between atoms: C11_16  and  O3_17 
ROOT
HETATM    1  N1  UNL     1     -33.523  -9.276  14.071  1.00  0.00    -0.272 N 
ATOM      2  H1  UNL     1     -33.257  -8.792  14.929  1.00  0.00     0.193 HD
HETATM    3  C5  UNL     1     -34.742  -9.676  13.929  1.00  0.00     0.038 C 
HETATM    4  C6  UNL     1     -35.582  -9.335  15.116  1.00  0.00     0.057 C 
HETATM    5  C7  UNL     1     -37.046  -9.554  14.859  1.00  0.00     0.006 C 
HETATM    6  C8  UNL     1     -37.459  -8.939  13.561  1.00  0.00     0.000 C 
HETATM    7  C9  UNL     1     -37.467  -9.939  12.431  1.00  0.00     0.003 C 
HETATM    8  C10 UNL     1     -36.369 -10.966  12.565  1.00  0.00     0.038 C 
HETATM    9  C11 UNL     1     -35.010 -10.359  12.662  1.00  0.00     0.165 C 
ENDROOT
BRANCH   1  10
HETATM   10  O2  UNL     1     -32.578  -9.484  13.103  1.00  0.00    -0.278 OA
BRANCH  10  11
HETATM   11  C4  UNL     1     -31.188  -9.448  13.373  1.00  0.00     0.238 C 
BRANCH  11  12
HETATM   12  C2  UNL     1     -30.584 -10.828  13.377  1.00  0.00     0.074 C 
HETATM   13  C1  UNL     1     -30.223 -11.189  11.953  1.00  0.00     0.047 C 
HETATM   14  C3  UNL     1     -29.308 -10.827  14.179  1.00  0.00     0.047 C 
BRANCH  12  15
HETATM   15  O1  UNL     1     -31.438 -11.785  13.869  1.00  0.00    -0.388 OA
ATOM     16  H1  UNL     1     -31.348 -11.816  14.814  1.00  0.00     0.210 HD
ENDBRANCH  12  15
ENDBRANCH  11  12
ENDBRANCH  10  11
ENDBRANCH   1  10
BRANCH   9  17
HETATM   17  O3  UNL     1     -34.069 -11.396  12.537  1.00  0.00    -0.390 OA
ATOM     18  H3  UNL     1     -34.154 -11.950  13.304  1.00  0.00     0.210 HD
ENDBRANCH   9  17
TORSDOF 5
ENDMDL
MODEL 2
REMARK VINA RESULT: -5.321219968      1.126      1.380
REMARK  5 active torsions:
REMARK  status: ('A' for Active; 'I' for Inactive)
REMARK    1  A    between atoms: C2_2  and  O1_4 
REMARK    2  A    between atoms: C2_2  and  C4_6 
REMARK    3  A    between atoms: C4_6  and  O2_7 
REMARK    4  A    between atoms: O2_7  and  N1_8 
REMARK    5  A    between atoms: C11_16  and  O3_17 
ROOT
HETATM    1  N1  UNL     1     -33.472  -9.040  14.137  1.00  0.00    -0.272 N 
ATOM      2  H1  UNL     1     -33.274  -8.512  14.987  1.00  0.00     0.193 HD
HETATM    3  C5  UNL     1     -34.653  -9.529  13.963  1.00  0.00     0.038 C 
HETATM    4  C6  UNL     1     -35.562  -9.209  15.104  1.00  0.00     0.057 C 
HETATM    5  C7  UNL     1     -36.996  -9.538  14.800  1.00  0.00     0.006 C 
HETATM    6  C8  UNL     1     -37.398  -8.994  13.467  1.00  0.00     0.000 C 
HETATM    7  C9  UNL     1     -37.292 -10.027  12.372  1.00  0.00     0.003 C 
HETATM    8  C10 UNL     1     -36.133 -10.971  12.583  1.00  0.00     0.038 C 
HETATM    9  C11 UNL     1     -34.823 -10.268  12.711  1.00  0.00     0.165 C 
ENDROOT
BRANCH   1  10
HETATM   10  O2  UNL     1     -32.477  -9.212  13.213  1.00  0.00    -0.278 OA
BRANCH  10  11
HETATM   11  C4  UNL     1     -31.226  -8.553  13.307  1.00  0.00     0.238 C 
BRANCH  11  12
HETATM   12  C2  UNL     1     -30.380  -9.117  14.419  1.00  0.00     0.074 C 
HETATM   13  C1  UNL     1     -30.363 -10.623  14.282  1.00  0.00     0.047 C 
HETATM   14  C3  UNL     1     -28.959  -8.635  14.277  1.00  0.00     0.047 C 
BRANCH  12  15
HETATM   15  O1  UNL     1     -30.854  -8.796  15.668  1.00  0.00    -0.388 OA
ATOM     16  H1  UNL     1     -30.849  -7.851  15.760  1.00  0.00     0.210 HD
ENDBRANCH  12  15
ENDBRANCH  11  12
ENDBRANCH  10  11
ENDBRANCH   1  10
BRANCH   9  17
HETATM   17  O3  UNL     1     -33.810 -11.241  12.657  1.00  0.00    -0.390 OA
ATOM     18  H3  UNL     1     -34.080 -11.963  13.213  1.00  0.00     0.210 HD
ENDBRANCH   9  17
TORSDOF 5
ENDMDL
MODEL 3
REMARK VINA RESULT: -5.296155696      1.752      5.402
REMARK  5 active torsions:
REMARK  status: ('A' for Active; 'I' for Inactive)
REMARK    1  A    between atoms: C2_2  and  O1_4 
REMARK    2  A    between atoms: C2_2  and  C4_6 
REMARK    3  A    between atoms: C4_6  and  O2_7 
REMARK    4  A    between atoms: O2_7  and  N1_8 
REMARK    5  A    between atoms: C11_16  and  O3_17 
ROOT
HETATM    1  N1  UNL     1     -32.762  -8.829  11.662  1.00  0.00    -0.272 N 
ATOM      2  H1  UNL     1     -32.710  -8.287  10.800  1.00  0.00     0.193 HD
HETATM    3  C5  UNL     1     -31.854  -8.663  12.563  1.00  0.00     0.038 C 
HETATM    4  C6  UNL     1     -30.839  -7.649  12.151  1.00  0.00     0.057 C 
HETATM    5  C7  UNL     1     -29.936  -7.254  13.285  1.00  0.00     0.006 C 
HETATM    6  C8  UNL     1     -30.727  -6.933  14.512  1.00  0.00     0.000 C 
HETATM    7  C9  UNL     1     -30.820  -8.107  15.455  1.00  0.00     0.003 C 
HETATM    8  C10 UNL     1     -30.895  -9.426  14.725  1.00  0.00     0.038 C 
HETATM    9  C11 UNL     1     -32.028  -9.493  13.756  1.00  0.00     0.165 C 
ENDROOT
BRANCH   1  10
HETATM   10  O2  UNL     1     -33.793  -9.714  11.831  1.00  0.00    -0.278 OA
BRANCH  10  11
HETATM   11  C4  UNL     1     -35.115  -9.298  12.127  1.00  0.00     0.238 C 
BRANCH  11  12
HETATM   12  C2  UNL     1     -35.812 -10.265  13.048  1.00  0.00     0.074 C 
HETATM   13  C1  UNL     1     -35.813  -9.673  14.440  1.00  0.00     0.047 C 
HETATM   14  C3  UNL     1     -37.250 -10.428  12.627  1.00  0.00     0.047 C 
BRANCH  12  15
HETATM   15  O1  UNL     1     -35.202 -11.495  13.095  1.00  0.00    -0.388 OA
ATOM     16  H1  UNL     1     -35.509 -11.957  13.866  1.00  0.00     0.210 HD
ENDBRANCH  12  15
ENDBRANCH  11  12
ENDBRANCH  10  11
ENDBRANCH   1  10
BRANCH   9  17
HETATM   17  O3  UNL     1     -32.143 -10.827  13.326  1.00  0.00    -0.390 OA
ATOM     18  H3  UNL     1     -33.067 -11.002  13.188  1.00  0.00     0.210 HD
ENDBRANCH   9  17
TORSDOF 5
ENDMDL
MODEL 4
REMARK VINA RESULT: -5.285307559      4.189      5.528
REMARK  5 active torsions:
REMARK  status: ('A' for Active; 'I' for Inactive)
REMARK    1  A    between atoms: C2_2  and  O1_4 
REMARK    2  A    between atoms: C2_2  and  C4_6 
REMARK    3  A    between atoms: C4_6  and  O2_7 
REMARK    4  A    between atoms: O2_7  and  N1_8 
REMARK    5  A    between atoms: C11_16  and  O3_17 
ROOT
HETATM    1  N1  UNL     1     -30.033  -6.188  14.285  1.00  0.00    -0.272 N 
ATOM      2  H1  UNL     1     -29.967  -5.244  13.902  1.00  0.00     0.193 HD
HETATM    3  C5  UNL     1     -31.076  -6.900  14.021  1.00  0.00     0.038 C 
HETATM    4  C6  UNL     1     -32.047  -6.167  13.155  1.00  0.00     0.057 C 
HETATM    5  C7  UNL     1     -33.129  -7.065  12.626  1.00  0.00     0.006 C 
HETATM    6  C8  UNL     1     -32.551  -8.319  12.053  1.00  0.00     0.000 C 
HETATM    7  C9  UNL     1     -32.568  -9.460  13.040  1.00  0.00     0.003 C 
HETATM    8  C10 UNL     1     -32.336  -8.996  14.458  1.00  0.00     0.038 C 
HETATM    9  C11 UNL     1     -31.064  -8.234  14.622  1.00  0.00     0.165 C 
ENDROOT
BRANCH   1  10
HETATM   10  O2  UNL     1     -29.013  -6.663  15.063  1.00  0.00    -0.278 OA
BRANCH  10  11
HETATM   11  C4  UNL     1     -27.755  -7.038  14.529  1.00  0.00     0.238 C 
BRANCH  11  12
HETATM   12  C2  UNL     1     -27.081  -5.887  13.827  1.00  0.00     0.074 C 
HETATM   13  C1  UNL     1     -26.851  -4.787  14.840  1.00  0.00     0.047 C 
HETATM   14  C3  UNL     1     -25.730  -6.319  13.317  1.00  0.00     0.047 C 
BRANCH  12  15
HETATM   15  O1  UNL     1     -27.826  -5.380  12.791  1.00  0.00    -0.388 OA
ATOM     16  H1  UNL     1     -27.514  -5.761  11.978  1.00  0.00     0.210 HD
ENDBRANCH  12  15
ENDBRANCH  11  12
ENDBRANCH  10  11
ENDBRANCH   1  10
BRANCH   9  17
HETATM   17  O3  UNL     1     -30.839  -8.072  16.001  1.00  0.00    -0.390 OA
ATOM     18  H3  UNL     1     -31.663  -7.806  16.393  1.00  0.00     0.210 HD
ENDBRANCH   9  17
TORSDOF 5
ENDMDL
MODEL 5
REMARK VINA RESULT: -5.268442985      1.854      5.465
REMARK  5 active torsions:
REMARK  status: ('A' for Active; 'I' for Inactive)
REMARK    1  A    between atoms: C2_2  and  O1_4 
REMARK    2  A    between atoms: C2_2  and  C4_6 
REMARK    3  A    between atoms: C4_6  and  O2_7 
REMARK    4  A    between atoms: O2_7  and  N1_8 
REMARK    5  A    between atoms: C11_16  and  O3_17 
ROOT
HETATM    1  N1  UNL     1     -33.641  -8.296  13.655  1.00  0.00    -0.272 N 
ATOM      2  H1  UNL     1     -34.196  -7.588  13.175  1.00  0.00     0.193 HD
HETATM    3  C5  UNL     1     -32.358  -8.169  13.690  1.00  0.00     0.038 C 
HETATM    4  C6  UNL     1     -31.900  -6.938  12.980  1.00  0.00     0.057 C 
HETATM    5  C7  UNL     1     -30.451  -6.638  13.236  1.00  0.00     0.006 C 
HETATM    6  C8  UNL     1     -30.139  -6.710  14.697  1.00  0.00     0.000 C 
HETATM    7  C9  UNL     1     -29.573  -8.051  15.096  1.00  0.00     0.003 C 
HETATM    8  C10 UNL     1     -30.176  -9.187  14.305  1.00  0.00     0.038 C 
HETATM    9  C11 UNL     1     -31.663  -9.242  14.404  1.00  0.00     0.165 C 
ENDROOT
BRANCH   1  10
HETATM   10  O2  UNL     1     -34.278  -9.355  14.245  1.00  0.00    -0.278 OA
BRANCH  10  11
HETATM   11  C4  UNL     1     -35.625  -9.689  13.961  1.00  0.00     0.238 C 
BRANCH  11  12
HETATM   12  C2  UNL     1     -35.739 -10.560  12.737  1.00  0.00     0.074 C 
HETATM   13  C1  UNL     1     -37.091 -11.238  12.765  1.00  0.00     0.047 C 
HETATM   14  C3  UNL     1     -35.688  -9.709  11.495  1.00  0.00     0.047 C 
BRANCH  12  15
HETATM   15  O1  UNL     1     -34.766 -11.527  12.675  1.00  0.00    -0.388 OA
ATOM     16  H1  UNL     1     -34.570 -11.818  13.558  1.00  0.00     0.210 HD
ENDBRANCH  12  15
ENDBRANCH  11  12
ENDBRANCH  10  11
ENDBRANCH   1  10
BRANCH   9  17
HETATM   17  O3  UNL     1     -32.083 -10.460  13.842  1.00  0.00    -0.390 OA
ATOM     18  H3  UNL     1     -32.763 -10.813  14.405  1.00  0.00     0.210 HD
ENDBRANCH   9  17
TORSDOF 5
ENDMDL
