MODEL 1
REMARK VINA RESULT: -5.738331207      0.000      0.000
REMARK  5 active torsions:
REMARK  status: ('A' for Active; 'I' for Inactive)
REMARK    1  A    between atoms: C2_2  and  C3_3 
REMARK    2  A    between atoms: C5_5  and  O1_6 
REMARK    3  A    between atoms: O1_6  and  O2_7 
REMARK    4  A    between atoms: C7_10  and  O3_11 
REMARK    5  A    between atoms: O3_11  and  C8_12 
REMARK       I    between atoms: C8_12  and  N1_14 
ROOT
HETATM    1  C3  UNL     1     -32.852  -8.841  13.390  1.00  0.00    -0.010 C 
HETATM    2  C4  UNL     1     -32.299 -10.053  12.728  1.00  0.00     0.039 C 
HETATM    3  C5  UNL     1     -31.194 -10.743  13.423  1.00  0.00     0.163 C 
HETATM    4  C6  UNL     1     -30.782 -10.087  14.725  1.00  0.00     0.067 C 
HETATM    5  C7  UNL     1     -30.536  -8.619  14.350  1.00  0.00     0.136 C 
HETATM    6  C9  UNL     1     -31.921  -8.037  14.197  1.00  0.00     0.037 C 
ENDROOT
BRANCH   5   7
HETATM    7  O3  UNL     1     -29.873  -7.933  15.364  1.00  0.00    -0.298 OA
BRANCH   7   8
HETATM    8  C8  UNL     1     -28.645  -7.350  15.101  1.00  0.00     0.371 C 
HETATM    9  O4  UNL     1     -27.617  -8.014  15.388  1.00  0.00    -0.238 OA
HETATM   10  N1  UNL     1     -28.558  -6.050  14.528  1.00  0.00    -0.266 N 
HETATM   11  S1  UNL     1     -26.981  -5.363  14.219  1.00  0.00     0.046 SA
ATOM     12  H1  UNL     1     -29.403  -5.526  14.302  1.00  0.00     0.180 HD
ENDBRANCH   7   8
ENDBRANCH   5   7
BRANCH   3  13
HETATM   13  O1  UNL     1     -31.492 -12.069  13.711  1.00  0.00    -0.238 OA
BRANCH  13  14
HETATM   14  O2  UNL     1     -32.259 -12.632  12.811  1.00  0.00    -0.250 OA
ATOM     15  H2  UNL     1     -33.181 -12.615  13.040  1.00  0.00     0.253 HD
ENDBRANCH  13  14
ENDBRANCH   3  13
BRANCH   1  16
HETATM   16  C2  UNL     1     -33.502  -7.913  12.353  1.00  0.00     0.000 C 
HETATM   17  C1  UNL     1     -32.850  -6.546  12.365  1.00  0.00     0.005 C 
ENDBRANCH   1  16
TORSDOF 5
ENDMDL
MODEL 2
REMARK VINA RESULT: -5.696502095      0.912      1.165
REMARK  5 active torsions:
REMARK  status: ('A' for Active; 'I' for Inactive)
REMARK    1  A    between atoms: C2_2  and  C3_3 
REMARK    2  A    between atoms: C5_5  and  O1_6 
REMARK    3  A    between atoms: O1_6  and  O2_7 
REMARK    4  A    between atoms: C7_10  and  O3_11 
REMARK    5  A    between atoms: O3_11  and  C8_12 
REMARK       I    between atoms: C8_12  and  N1_14 
ROOT
HETATM    1  C3  UNL     1     -33.333  -9.089  13.024  1.00  0.00    -0.010 C 
HETATM    2  C4  UNL     1     -32.541 -10.254  12.549  1.00  0.00     0.039 C 
HETATM    3  C5  UNL     1     -31.360 -10.627  13.352  1.00  0.00     0.163 C 
HETATM    4  C6  UNL     1     -31.130  -9.737  14.557  1.00  0.00     0.067 C 
HETATM    5  C7  UNL     1     -31.140  -8.312  13.983  1.00  0.00     0.136 C 
HETATM    6  C9  UNL     1     -32.599  -8.024  13.727  1.00  0.00     0.037 C 
ENDROOT
BRANCH   5   7
HETATM    7  O3  UNL     1     -30.656  -7.385  14.902  1.00  0.00    -0.298 OA
BRANCH   7   8
HETATM    8  C8  UNL     1     -29.319  -7.024  14.866  1.00  0.00     0.371 C 
HETATM    9  O4  UNL     1     -28.552  -7.571  15.697  1.00  0.00    -0.238 OA
HETATM   10  N1  UNL     1     -28.842  -6.071  13.923  1.00  0.00    -0.266 N 
HETATM   11  S1  UNL     1     -27.146  -5.653  13.924  1.00  0.00     0.046 SA
ATOM     12  H1  UNL     1     -29.481  -5.638  13.256  1.00  0.00     0.180 HD
ENDBRANCH   7   8
ENDBRANCH   5   7
BRANCH   3  13
HETATM   13  O1  UNL     1     -31.423 -11.933  13.818  1.00  0.00    -0.238 OA
BRANCH  13  14
HETATM   14  O2  UNL     1     -32.181 -12.708  13.081  1.00  0.00    -0.250 OA
ATOM     15  H2  UNL     1     -32.671 -13.345  13.588  1.00  0.00     0.253 HD
ENDBRANCH  13  14
ENDBRANCH   3  13
BRANCH   1  16
HETATM   16  C2  UNL     1     -34.096  -8.446  11.857  1.00  0.00     0.000 C 
HETATM   17  C1  UNL     1     -34.482  -9.483  10.824  1.00  0.00     0.005 C 
ENDBRANCH   1  16
TORSDOF 5
ENDMDL
MODEL 3
REMARK VINA RESULT: -5.647720976      1.816      2.168
REMARK  5 active torsions:
REMARK  status: ('A' for Active; 'I' for Inactive)
REMARK    1  A    between atoms: C2_2  and  C3_3 
REMARK    2  A    between atoms: C5_5  and  O1_6 
REMARK    3  A    between atoms: O1_6  and  O2_7 
REMARK    4  A    between atoms: C7_10  and  O3_11 
REMARK    5  A    between atoms: O3_11  and  C8_12 
REMARK       I    between atoms: C8_12  and  N1_14 
ROOT
HETATM    1  C3  UNL     1     -34.174  -9.942  13.145  1.00  0.00    -0.010 C 
HETATM    2  C4  UNL     1     -33.322 -10.532  12.077  1.00  0.00     0.039 C 
HETATM    3  C5  UNL     1     -31.924 -10.838  12.437  1.00  0.00     0.163 C 
HETATM    4  C6  UNL     1     -31.565 -10.485  13.865  1.00  0.00     0.067 C 
HETATM    5  C7  UNL     1     -32.000  -9.020  14.016  1.00  0.00     0.136 C 
HETATM    6  C9  UNL     1     -33.503  -9.089  14.139  1.00  0.00     0.037 C 
ENDROOT
BRANCH   5   7
HETATM    7  O3  UNL     1     -31.483  -8.447  15.174  1.00  0.00    -0.298 OA
BRANCH   7   8
HETATM    8  C8  UNL     1     -30.377  -7.617  15.088  1.00  0.00     0.371 C 
HETATM    9  O4  UNL     1     -30.587  -6.395  14.889  1.00  0.00    -0.238 OA
HETATM   10  N1  UNL     1     -29.059  -8.137  15.220  1.00  0.00    -0.266 N 
HETATM   11  S1  UNL     1     -27.701  -7.044  15.102  1.00  0.00     0.046 SA
ATOM     12  H1  UNL     1     -28.909  -9.132  15.382  1.00  0.00     0.180 HD
ENDBRANCH   7   8
ENDBRANCH   5   7
BRANCH   3  13
HETATM   13  O1  UNL     1     -31.609 -12.178  12.256  1.00  0.00    -0.238 OA
BRANCH  13  14
HETATM   14  O2  UNL     1     -32.286 -12.978  13.042  1.00  0.00    -0.250 OA
ATOM     15  H2  UNL     1     -33.095 -12.594  13.361  1.00  0.00     0.253 HD
ENDBRANCH  13  14
ENDBRANCH   3  13
BRANCH   1  16
HETATM   16  C2  UNL     1     -35.325  -9.134  12.528  1.00  0.00     0.000 C 
HETATM   17  C1  UNL     1     -36.605  -9.327  13.314  1.00  0.00     0.005 C 
ENDBRANCH   1  16
TORSDOF 5
ENDMDL
MODEL 4
REMARK VINA RESULT: -5.580642868      2.176      2.572
REMARK  5 active torsions:
REMARK  status: ('A' for Active; 'I' for Inactive)
REMARK    1  A    between atoms: C2_2  and  C3_3 
REMARK    2  A    between atoms: C5_5  and  O1_6 
REMARK    3  A    between atoms: O1_6  and  O2_7 
REMARK    4  A    between atoms: C7_10  and  O3_11 
REMARK    5  A    between atoms: O3_11  and  C8_12 
REMARK       I    between atoms: C8_12  and  N1_14 
ROOT
HETATM    1  C3  UNL     1     -33.287  -7.706  11.871  1.00  0.00    -0.010 C 
HETATM    2  C4  UNL     1     -33.763  -9.111  11.764  1.00  0.00     0.039 C 
HETATM    3  C5  UNL     1     -33.862  -9.876  13.022  1.00  0.00     0.163 C 
HETATM    4  C6  UNL     1     -33.444  -9.095  14.251  1.00  0.00     0.067 C 
HETATM    5  C7  UNL     1     -32.054  -8.547  13.897  1.00  0.00     0.136 C 
HETATM    6  C9  UNL     1     -32.334  -7.404  12.951  1.00  0.00     0.037 C 
ENDROOT
BRANCH   5   7
HETATM    7  O3  UNL     1     -31.398  -8.048  15.019  1.00  0.00    -0.298 OA
BRANCH   7   8
HETATM    8  C8  UNL     1     -30.051  -7.734  14.936  1.00  0.00     0.371 C 
HETATM    9  O4  UNL     1     -29.740  -6.517  14.952  1.00  0.00    -0.238 OA
HETATM   10  N1  UNL     1     -29.065  -8.756  14.838  1.00  0.00    -0.266 N 
HETATM   11  S1  UNL     1     -27.381  -8.302  14.736  1.00  0.00     0.046 SA
ATOM     12  H1  UNL     1     -29.337  -9.739  14.826  1.00  0.00     0.180 HD
ENDBRANCH   7   8
ENDBRANCH   5   7
BRANCH   3  13
HETATM   13  O1  UNL     1     -35.147 -10.349  13.258  1.00  0.00    -0.238 OA
BRANCH  13  14
HETATM   14  O2  UNL     1     -35.299 -11.610  12.936  1.00  0.00    -0.250 OA
ATOM     15  H2  UNL     1     -35.622 -11.734  12.050  1.00  0.00     0.253 HD
ENDBRANCH  13  14
ENDBRANCH   3  13
BRANCH   1  16
HETATM   16  C2  UNL     1     -32.658  -7.249  10.546  1.00  0.00     0.000 C 
HETATM   17  C1  UNL     1     -33.381  -7.859   9.364  1.00  0.00     0.005 C 
ENDBRANCH   1  16
TORSDOF 5
ENDMDL
MODEL 5
REMARK VINA RESULT: -5.529336623      1.146      1.534
REMARK  5 active torsions:
REMARK  status: ('A' for Active; 'I' for Inactive)
REMARK    1  A    between atoms: C2_2  and  C3_3 
REMARK    2  A    between atoms: C5_5  and  O1_6 
REMARK    3  A    between atoms: O1_6  and  O2_7 
REMARK    4  A    between atoms: C7_10  and  O3_11 
REMARK    5  A    between atoms: O3_11  and  C8_12 
REMARK       I    between atoms: C8_12  and  N1_14 
ROOT
HETATM    1  C3  UNL     1     -33.216  -9.105  13.482  1.00  0.00    -0.010 C 
HETATM    2  C4  UNL     1     -32.380 -10.239  13.003  1.00  0.00     0.039 C 
HETATM    3  C5  UNL     1     -31.060 -10.406  13.641  1.00  0.00     0.163 C 
HETATM    4  C6  UNL     1     -30.753  -9.367  14.701  1.00  0.00     0.067 C 
HETATM    5  C7  UNL     1     -31.003  -8.024  13.999  1.00  0.00     0.136 C 
HETATM    6  C9  UNL     1     -32.507  -7.904  13.950  1.00  0.00     0.037 C 
ENDROOT
BRANCH   5   7
HETATM    7  O3  UNL     1     -30.493  -6.958  14.734  1.00  0.00    -0.298 OA
BRANCH   7   8
HETATM    8  C8  UNL     1     -29.133  -6.698  14.703  1.00  0.00     0.371 C 
HETATM    9  O4  UNL     1     -28.426  -7.214  15.604  1.00  0.00    -0.238 OA
HETATM   10  N1  UNL     1     -28.566  -5.878  13.687  1.00  0.00    -0.266 N 
HETATM   11  S1  UNL     1     -26.844  -5.583  13.697  1.00  0.00     0.046 SA
ATOM     12  H1  UNL     1     -29.156  -5.468  12.963  1.00  0.00     0.180 HD
ENDBRANCH   7   8
ENDBRANCH   5   7
BRANCH   3  13
HETATM   13  O1  UNL     1     -30.910 -11.651  14.237  1.00  0.00    -0.238 OA
BRANCH  13  14
HETATM   14  O2  UNL     1     -29.875 -11.720  15.037  1.00  0.00    -0.250 OA
ATOM     15  H2  UNL     1     -29.227 -12.358  14.758  1.00  0.00     0.253 HD
ENDBRANCH  13  14
ENDBRANCH   3  13
BRANCH   1  16
HETATM   16  C2  UNL     1     -34.208  -8.673  12.393  1.00  0.00     0.000 C 
HETATM   17  C1  UNL     1     -35.585  -9.247  12.655  1.00  0.00     0.005 C 
ENDBRANCH   1  16
TORSDOF 5
ENDMDL
