MODEL 1
REMARK VINA RESULT: -6.332198025      0.000      0.000
REMARK  5 active torsions:
REMARK  status: ('A' for Active; 'I' for Inactive)
REMARK    1  A    between atoms: C4_4  and  C5_5 
REMARK    2  A    between atoms: C5_5  and  C6_6 
REMARK    3  A    between atoms: C8_14  and  C9_15 
REMARK    4  A    between atoms: C9_15  and  O2_16 
REMARK    5  A    between atoms: N3_18  and  O3_20 
ROOT
HETATM    1  C6  UNL     1     -33.300 -10.015  13.025  1.00  0.00     0.015 C 
HETATM    2  N1  UNL     1     -32.582 -11.050  12.847  1.00  0.00    -0.267 N 
ATOM      3  H1  UNL     1     -32.969 -11.835  12.323  1.00  0.00     0.194 HD
HETATM    4  O1  UNL     1     -31.324 -11.143  13.328  1.00  0.00    -0.224 OA
HETATM    5  C7  UNL     1     -30.747 -10.127  14.039  1.00  0.00     0.152 C 
HETATM    6  N2  UNL     1     -29.748 -10.308  14.843  1.00  0.00    -0.381 N 
ATOM      7  H21 UNL     1     -29.318  -9.551  15.373  1.00  0.00     0.158 HD
ATOM      8  H22 UNL     1     -29.365 -11.246  14.962  1.00  0.00     0.158 HD
HETATM    9  C8  UNL     1     -31.304  -8.764  13.866  1.00  0.00     0.144 C 
HETATM   10  C10 UNL     1     -32.789  -8.856  13.775  1.00  0.00     0.076 C 
ENDROOT
BRANCH   9  11
HETATM   11  C9  UNL     1     -30.887  -7.922  15.009  1.00  0.00     0.147 C 
HETATM   12  N3  UNL     1     -30.320  -6.796  14.773  1.00  0.00    -0.250 N 
ATOM     13  H3  UNL     1     -30.036  -6.222  15.567  1.00  0.00     0.196 HD
BRANCH  11  14
HETATM   14  O2  UNL     1     -31.107  -8.343  16.286  1.00  0.00    -0.347 OA
ATOM     15  H2  UNL     1     -30.373  -8.521  16.863  1.00  0.00     0.219 HD
ENDBRANCH  11  14
BRANCH  12  16
HETATM   16  O3  UNL     1     -30.079  -6.331  13.522  1.00  0.00    -0.288 OA
ATOM     17  H3  UNL     1     -29.592  -5.534  13.346  1.00  0.00     0.244 HD
ENDBRANCH  12  16
ENDBRANCH   9  11
BRANCH   1  18
HETATM   18  C5  UNL     1     -34.665  -9.970  12.475  1.00  0.00     0.081 C 
BRANCH  18  19
HETATM   19  C4  UNL     1     -35.655  -9.468  13.470  1.00  0.00    -0.019 C 
HETATM   20  C2  UNL     1     -36.905  -9.413  13.107  1.00  0.00    -0.091 C 
HETATM   21  C1  UNL     1     -37.333  -9.831  11.764  1.00  0.00     0.042 C 
HETATM   22  C3  UNL     1     -37.917  -8.920  14.062  1.00  0.00     0.042 C 
ENDBRANCH  18  19
ENDBRANCH   1  18
TORSDOF 5
ENDMDL
MODEL 2
REMARK VINA RESULT: -6.238229052      0.748      1.203
REMARK  5 active torsions:
REMARK  status: ('A' for Active; 'I' for Inactive)
REMARK    1  A    between atoms: C4_4  and  C5_5 
REMARK    2  A    between atoms: C5_5  and  C6_6 
REMARK    3  A    between atoms: C8_14  and  C9_15 
REMARK    4  A    between atoms: C9_15  and  O2_16 
REMARK    5  A    between atoms: N3_18  and  O3_20 
ROOT
HETATM    1  C6  UNL     1     -33.772  -9.549  13.836  1.00  0.00     0.015 C 
HETATM    2  N1  UNL     1     -33.210 -10.577  13.341  1.00  0.00    -0.267 N 
ATOM      3  H1  UNL     1     -33.793 -11.332  12.979  1.00  0.00     0.194 HD
HETATM    4  O1  UNL     1     -31.868 -10.702  13.280  1.00  0.00    -0.224 OA
HETATM    5  C7  UNL     1     -31.031  -9.727  13.749  1.00  0.00     0.152 C 
HETATM    6  N2  UNL     1     -29.800  -9.956  14.083  1.00  0.00    -0.381 N 
ATOM      7  H21 UNL     1     -29.176  -9.229  14.433  1.00  0.00     0.158 HD
ATOM      8  H22 UNL     1     -29.426 -10.901  13.997  1.00  0.00     0.158 HD
HETATM    9  C8  UNL     1     -31.575  -8.354  13.873  1.00  0.00     0.144 C 
HETATM   10  C10 UNL     1     -32.977  -8.433  14.374  1.00  0.00     0.076 C 
ENDROOT
BRANCH   9  11
HETATM   11  C9  UNL     1     -30.719  -7.575  14.795  1.00  0.00     0.147 C 
HETATM   12  N3  UNL     1     -30.195  -6.482  14.376  1.00  0.00    -0.250 N 
ATOM     13  H3  UNL     1     -29.606  -5.951  15.018  1.00  0.00     0.196 HD
BRANCH  11  14
HETATM   14  O2  UNL     1     -30.497  -8.019  16.064  1.00  0.00    -0.347 OA
ATOM     15  H2  UNL     1     -31.206  -8.030  16.696  1.00  0.00     0.219 HD
ENDBRANCH  11  14
BRANCH  12  16
HETATM   16  O3  UNL     1     -30.384  -5.997  13.123  1.00  0.00    -0.288 OA
ATOM     17  H3  UNL     1     -29.739  -6.076  12.430  1.00  0.00     0.244 HD
ENDBRANCH  12  16
ENDBRANCH   9  11
BRANCH   1  18
HETATM   18  C5  UNL     1     -35.242  -9.467  13.875  1.00  0.00     0.081 C 
BRANCH  18  19
HETATM   19  C4  UNL     1     -35.849  -9.611  12.521  1.00  0.00    -0.019 C 
HETATM   20  C2  UNL     1     -37.142  -9.485  12.420  1.00  0.00    -0.091 C 
HETATM   21  C1  UNL     1     -37.981  -9.209  13.596  1.00  0.00     0.042 C 
HETATM   22  C3  UNL     1     -37.783  -9.621  11.097  1.00  0.00     0.042 C 
ENDBRANCH  18  19
ENDBRANCH   1  18
TORSDOF 5
ENDMDL
MODEL 3
REMARK VINA RESULT: -6.106930758      4.288      5.861
REMARK  5 active torsions:
REMARK  status: ('A' for Active; 'I' for Inactive)
REMARK    1  A    between atoms: C4_4  and  C5_5 
REMARK    2  A    between atoms: C5_5  and  C6_6 
REMARK    3  A    between atoms: C8_14  and  C9_15 
REMARK    4  A    between atoms: C9_15  and  O2_16 
REMARK    5  A    between atoms: N3_18  and  O3_20 
ROOT
HETATM    1  C6  UNL     1     -33.948  -8.465  10.327  1.00  0.00     0.015 C 
HETATM    2  N1  UNL     1     -33.145  -7.914  11.145  1.00  0.00    -0.267 N 
ATOM      3  H1  UNL     1     -32.413  -7.303  10.782  1.00  0.00     0.194 HD
HETATM    4  O1  UNL     1     -33.228  -8.112  12.477  1.00  0.00    -0.224 OA
HETATM    5  C7  UNL     1     -34.184  -8.919  13.028  1.00  0.00     0.152 C 
HETATM    6  N2  UNL     1     -34.065  -9.453  14.202  1.00  0.00    -0.381 N 
ATOM      7  H21 UNL     1     -34.778 -10.056  14.613  1.00  0.00     0.158 HD
ATOM      8  H22 UNL     1     -33.225  -9.272  14.751  1.00  0.00     0.158 HD
HETATM    9  C8  UNL     1     -35.405  -9.183  12.229  1.00  0.00     0.144 C 
HETATM   10  C10 UNL     1     -35.020  -9.356  10.800  1.00  0.00     0.076 C 
ENDROOT
BRANCH   9  11
HETATM   11  C9  UNL     1     -36.076 -10.393  12.755  1.00  0.00     0.147 C 
HETATM   12  N3  UNL     1     -37.316 -10.322  13.072  1.00  0.00    -0.250 N 
ATOM     13  H3  UNL     1     -37.771 -11.160  13.434  1.00  0.00     0.196 HD
BRANCH  11  14
HETATM   14  O2  UNL     1     -35.380 -11.555  12.896  1.00  0.00    -0.347 OA
ATOM     15  H2  UNL     1     -34.712 -11.633  13.567  1.00  0.00     0.219 HD
ENDBRANCH  11  14
BRANCH  12  16
HETATM   16  O3  UNL     1     -38.054  -9.190  12.951  1.00  0.00    -0.288 OA
ATOM     17  H3  UNL     1     -37.774  -8.346  13.286  1.00  0.00     0.244 HD
ENDBRANCH  12  16
ENDBRANCH   9  11
BRANCH   1  18
HETATM   18  C5  UNL     1     -33.810  -8.211   8.883  1.00  0.00     0.081 C 
BRANCH  18  19
HETATM   19  C4  UNL     1     -34.206  -9.392   8.064  1.00  0.00    -0.019 C 
HETATM   20  C2  UNL     1     -33.819  -9.425   6.821  1.00  0.00    -0.091 C 
HETATM   21  C1  UNL     1     -33.018  -8.339   6.237  1.00  0.00     0.042 C 
HETATM   22  C3  UNL     1     -34.193 -10.576   5.975  1.00  0.00     0.042 C 
ENDBRANCH  18  19
ENDBRANCH   1  18
TORSDOF 5
ENDMDL
MODEL 4
REMARK VINA RESULT: -6.096394970      4.181      6.191
REMARK  5 active torsions:
REMARK  status: ('A' for Active; 'I' for Inactive)
REMARK    1  A    between atoms: C4_4  and  C5_5 
REMARK    2  A    between atoms: C5_5  and  C6_6 
REMARK    3  A    between atoms: C8_14  and  C9_15 
REMARK    4  A    between atoms: C9_15  and  O2_16 
REMARK    5  A    between atoms: N3_18  and  O3_20 
ROOT
HETATM    1  C6  UNL     1     -33.974 -10.014  11.523  1.00  0.00     0.015 C 
HETATM    2  N1  UNL     1     -33.854 -11.002  12.316  1.00  0.00    -0.267 N 
ATOM      3  H1  UNL     1     -32.928 -11.400  12.471  1.00  0.00     0.194 HD
HETATM    4  O1  UNL     1     -34.912 -11.540  12.957  1.00  0.00    -0.224 OA
HETATM    5  C7  UNL     1     -36.179 -11.054  12.792  1.00  0.00     0.152 C 
HETATM    6  N2  UNL     1     -37.241 -11.753  13.042  1.00  0.00    -0.381 N 
ATOM      7  H21 UNL     1     -38.186 -11.391  12.919  1.00  0.00     0.158 HD
ATOM      8  H22 UNL     1     -37.141 -12.711  13.378  1.00  0.00     0.158 HD
HETATM    9  C8  UNL     1     -36.324  -9.661  12.304  1.00  0.00     0.144 C 
HETATM   10  C10 UNL     1     -35.288  -9.404  11.263  1.00  0.00     0.076 C 
ENDROOT
BRANCH   9  11
HETATM   11  C9  UNL     1     -37.688  -9.477  11.760  1.00  0.00     0.147 C 
HETATM   12  N3  UNL     1     -38.602  -9.014  12.530  1.00  0.00    -0.250 N 
ATOM     13  H3  UNL     1     -39.540  -8.891  12.148  1.00  0.00     0.196 HD
BRANCH  11  14
HETATM   14  O2  UNL     1     -37.957  -9.797  10.464  1.00  0.00    -0.347 OA
ATOM     15  H2  UNL     1     -38.525  -9.241   9.943  1.00  0.00     0.219 HD
ENDBRANCH  11  14
BRANCH  12  16
HETATM   16  O3  UNL     1     -38.387  -8.681  13.828  1.00  0.00    -0.288 OA
ATOM     17  H3  UNL     1     -39.078  -8.406  14.418  1.00  0.00     0.244 HD
ENDBRANCH  12  16
ENDBRANCH   9  11
BRANCH   1  18
HETATM   18  C5  UNL     1     -32.783  -9.467  10.852  1.00  0.00     0.081 C 
BRANCH  18  19
HETATM   19  C4  UNL     1     -33.116  -8.829   9.547  1.00  0.00    -0.019 C 
HETATM   20  C2  UNL     1     -32.750  -7.592   9.366  1.00  0.00    -0.091 C 
HETATM   21  C1  UNL     1     -32.030  -6.844  10.407  1.00  0.00     0.042 C 
HETATM   22  C3  UNL     1     -33.062  -6.922   8.087  1.00  0.00     0.042 C 
ENDBRANCH  18  19
ENDBRANCH   1  18
TORSDOF 5
ENDMDL
MODEL 5
REMARK VINA RESULT: -6.070992936      1.631      2.185
REMARK  5 active torsions:
REMARK  status: ('A' for Active; 'I' for Inactive)
REMARK    1  A    between atoms: C4_4  and  C5_5 
REMARK    2  A    between atoms: C5_5  and  C6_6 
REMARK    3  A    between atoms: C8_14  and  C9_15 
REMARK    4  A    between atoms: C9_15  and  O2_16 
REMARK    5  A    between atoms: N3_18  and  O3_20 
ROOT
HETATM    1  C6  UNL     1     -31.954  -9.044  14.267  1.00  0.00     0.015 C 
HETATM    2  N1  UNL     1     -31.515 -10.188  13.927  1.00  0.00    -0.267 N 
ATOM      3  H1  UNL     1     -32.184 -10.925  13.701  1.00  0.00     0.194 HD
HETATM    4  O1  UNL     1     -30.195 -10.459  13.854  1.00  0.00    -0.224 OA
HETATM    5  C7  UNL     1     -29.249  -9.516  14.144  1.00  0.00     0.152 C 
HETATM    6  N2  UNL     1     -28.034  -9.817  14.480  1.00  0.00    -0.381 N 
ATOM      7  H21 UNL     1     -27.328  -9.114  14.696  1.00  0.00     0.158 HD
ATOM      8  H22 UNL     1     -27.758 -10.797  14.534  1.00  0.00     0.158 HD
HETATM    9  C8  UNL     1     -29.650  -8.091  14.065  1.00  0.00     0.144 C 
HETATM   10  C10 UNL     1     -31.032  -7.947  14.605  1.00  0.00     0.076 C 
ENDROOT
BRANCH   9  11
HETATM   11  C9  UNL     1     -28.686  -7.272  14.832  1.00  0.00     0.147 C 
HETATM   12  N3  UNL     1     -28.257  -6.179  14.318  1.00  0.00    -0.250 N 
ATOM     13  H3  UNL     1     -27.592  -5.621  14.853  1.00  0.00     0.196 HD
BRANCH  11  14
HETATM   14  O2  UNL     1     -28.266  -7.682  16.062  1.00  0.00    -0.347 OA
ATOM     15  H2  UNL     1     -27.446  -8.152  16.155  1.00  0.00     0.219 HD
ENDBRANCH  11  14
BRANCH  12  16
HETATM   16  O3  UNL     1     -28.642  -5.727  13.098  1.00  0.00    -0.288 OA
ATOM     17  H3  UNL     1     -28.287  -4.943  12.695  1.00  0.00     0.244 HD
ENDBRANCH  12  16
ENDBRANCH   9  11
BRANCH   1  18
HETATM   18  C5  UNL     1     -33.406  -8.806  14.329  1.00  0.00     0.081 C 
BRANCH  18  19
HETATM   19  C4  UNL     1     -34.158  -9.671  13.375  1.00  0.00    -0.019 C 
HETATM   20  C2  UNL     1     -35.384  -9.989  13.683  1.00  0.00    -0.091 C 
HETATM   21  C1  UNL     1     -36.011  -9.515  14.925  1.00  0.00     0.042 C 
HETATM   22  C3  UNL     1     -36.162 -10.845  12.765  1.00  0.00     0.042 C 
ENDBRANCH  18  19
ENDBRANCH   1  18
TORSDOF 5
ENDMDL
