MODEL 1
REMARK VINA RESULT: -4.881795312      0.000      0.000
REMARK  5 active torsions:
REMARK  status: ('A' for Active; 'I' for Inactive)
REMARK    1  A    between atoms: C2_2  and  C4_4 
REMARK    2  A    between atoms: C5_7  and  C6_8 
REMARK       I    between atoms: C6_8  and  N1_10 
REMARK    3  A    between atoms: N1_10  and  C7_12 
REMARK    4  A    between atoms: C7_12  and  N2_13 
REMARK    5  A    between atoms: C7_12  and  O2_17 
ROOT
HETATM    1  C6  UNL     1     -34.083  -9.023  13.374  1.00  0.00     0.263 C 
HETATM    2  O1  UNL     1     -34.420  -9.476  14.512  1.00  0.00    -0.267 OA
HETATM    3  N1  UNL     1     -34.832  -9.458  12.279  1.00  0.00    -0.308 N 
ATOM      4  H1  UNL     1     -34.597  -9.125  11.343  1.00  0.00     0.167 HD
ENDROOT
BRANCH   1   5
HETATM    5  C5  UNL     1     -32.967  -8.103  13.257  1.00  0.00     0.093 A 
HETATM    6  C4  UNL     1     -31.741  -7.930  13.874  1.00  0.00     0.016 A 
HETATM    7  S1  UNL     1     -31.123  -6.545  13.047  1.00  0.00    -0.055 SA
HETATM    8  S2  UNL     1     -32.879  -6.773  12.147  1.00  0.00    -0.046 SA
BRANCH   6   9
HETATM    9  C2  UNL     1     -31.015  -8.674  14.939  1.00  0.00     0.019 C 
HETATM   10  C1  UNL     1     -29.732  -7.920  15.309  1.00  0.00     0.015 C 
HETATM   11  C3  UNL     1     -30.531 -10.033  14.389  1.00  0.00     0.015 C 
ENDBRANCH   6   9
ENDBRANCH   1   5
BRANCH   3  12
HETATM   12  C7  UNL     1     -35.942 -10.378  12.455  1.00  0.00     0.426 C 
BRANCH  12  13
HETATM   13  N2  UNL     1     -37.021  -9.705  13.157  1.00  0.00    -0.035 N 
ATOM     14  H23 UNL     1     -36.786  -8.740  13.388  1.00  0.00     0.279 HD
ATOM     15  H22 UNL     1     -37.819  -9.520  12.550  1.00  0.00     0.279 HD
ATOM     16  H21 UNL     1     -37.279 -10.248  13.981  1.00  0.00     0.279 HD
ENDBRANCH  12  13
BRANCH  12  17
HETATM   17  O2  UNL     1     -35.587 -11.561  13.068  1.00  0.00    -0.355 OA
ATOM     18  H2  UNL     1     -36.297 -11.967  13.550  1.00  0.00     0.213 HD
ENDBRANCH  12  17
ENDBRANCH   3  12
TORSDOF 5
ENDMDL
MODEL 2
REMARK VINA RESULT: -4.715162528      4.957      6.306
REMARK  5 active torsions:
REMARK  status: ('A' for Active; 'I' for Inactive)
REMARK    1  A    between atoms: C2_2  and  C4_4 
REMARK    2  A    between atoms: C5_7  and  C6_8 
REMARK       I    between atoms: C6_8  and  N1_10 
REMARK    3  A    between atoms: N1_10  and  C7_12 
REMARK    4  A    between atoms: C7_12  and  N2_13 
REMARK    5  A    between atoms: C7_12  and  O2_17 
ROOT
HETATM    1  C6  UNL     1     -27.987 -10.052  14.257  1.00  0.00     0.263 C 
HETATM    2  O1  UNL     1     -26.954  -9.881  13.538  1.00  0.00    -0.267 OA
HETATM    3  N1  UNL     1     -28.172 -11.326  14.797  1.00  0.00    -0.308 N 
ATOM      4  H1  UNL     1     -28.989 -11.514  15.378  1.00  0.00     0.167 HD
ENDROOT
BRANCH   1   5
HETATM    5  C5  UNL     1     -28.909  -8.954  14.482  1.00  0.00     0.093 A 
HETATM    6  C4  UNL     1     -30.275  -8.754  14.384  1.00  0.00     0.016 A 
HETATM    7  S1  UNL     1     -30.424  -7.100  14.855  1.00  0.00    -0.055 SA
HETATM    8  S2  UNL     1     -28.461  -7.363  15.005  1.00  0.00    -0.046 SA
BRANCH   6   9
HETATM    9  C2  UNL     1     -31.416  -9.637  14.020  1.00  0.00     0.019 C 
HETATM   10  C1  UNL     1     -31.348  -9.977  12.526  1.00  0.00     0.015 C 
HETATM   11  C3  UNL     1     -32.744  -8.869  14.191  1.00  0.00     0.015 C 
ENDBRANCH   6   9
ENDBRANCH   1   5
BRANCH   3  12
HETATM   12  C7  UNL     1     -27.214 -12.389  14.542  1.00  0.00     0.426 C 
BRANCH  12  13
HETATM   13  N2  UNL     1     -25.931 -12.030  15.119  1.00  0.00    -0.035 N 
ATOM     14  H23 UNL     1     -25.859 -11.030  15.309  1.00  0.00     0.279 HD
ATOM     15  H22 UNL     1     -25.830 -12.367  16.076  1.00  0.00     0.279 HD
ATOM     16  H21 UNL     1     -25.181 -12.361  14.512  1.00  0.00     0.279 HD
ENDBRANCH  12  13
BRANCH  12  17
HETATM   17  O2  UNL     1     -27.104 -12.725  13.210  1.00  0.00    -0.355 OA
ATOM     18  H2  UNL     1     -26.670 -13.556  13.062  1.00  0.00     0.213 HD
ENDBRANCH  12  17
ENDBRANCH   3  12
TORSDOF 5
ENDMDL
MODEL 3
REMARK VINA RESULT: -4.695067185      1.417      1.419
REMARK  5 active torsions:
REMARK  status: ('A' for Active; 'I' for Inactive)
REMARK    1  A    between atoms: C2_2  and  C4_4 
REMARK    2  A    between atoms: C5_7  and  C6_8 
REMARK       I    between atoms: C6_8  and  N1_10 
REMARK    3  A    between atoms: N1_10  and  C7_12 
REMARK    4  A    between atoms: C7_12  and  N2_13 
REMARK    5  A    between atoms: C7_12  and  O2_17 
ROOT
HETATM    1  C6  UNL     1     -34.195  -8.948  12.741  1.00  0.00     0.263 C 
HETATM    2  O1  UNL     1     -34.809  -9.166  11.650  1.00  0.00    -0.267 OA
HETATM    3  N1  UNL     1     -34.758  -9.494  13.897  1.00  0.00    -0.308 N 
ATOM      4  H1  UNL     1     -34.303  -9.342  14.798  1.00  0.00     0.167 HD
ENDROOT
BRANCH   1   5
HETATM    5  C5  UNL     1     -32.974  -8.164  12.746  1.00  0.00     0.093 A 
HETATM    6  C4  UNL     1     -31.842  -8.076  13.537  1.00  0.00     0.016 A 
HETATM    7  S1  UNL     1     -30.949  -6.835  12.736  1.00  0.00    -0.055 SA
HETATM    8  S2  UNL     1     -32.564  -6.944  11.585  1.00  0.00    -0.046 SA
BRANCH   6   9
HETATM    9  C2  UNL     1     -31.377  -8.808  14.747  1.00  0.00     0.019 C 
HETATM   10  C1  UNL     1     -30.397  -7.929  15.534  1.00  0.00     0.015 C 
HETATM   11  C3  UNL     1     -30.551 -10.042  14.325  1.00  0.00     0.015 C 
ENDBRANCH   6   9
ENDBRANCH   1   5
BRANCH   3  12
HETATM   12  C7  UNL     1     -35.981 -10.274  13.832  1.00  0.00     0.426 C 
BRANCH  12  13
HETATM   13  N2  UNL     1     -35.739 -11.490  13.076  1.00  0.00    -0.035 N 
ATOM     14  H23 UNL     1     -35.209 -12.178  13.611  1.00  0.00     0.279 HD
ATOM     15  H22 UNL     1     -36.589 -12.035  12.940  1.00  0.00     0.279 HD
ATOM     16  H21 UNL     1     -35.284 -11.255  12.193  1.00  0.00     0.279 HD
ENDBRANCH  12  13
BRANCH  12  17
HETATM   17  O2  UNL     1     -37.060  -9.570  13.343  1.00  0.00    -0.355 OA
ATOM     18  H2  UNL     1     -36.963  -8.628  13.416  1.00  0.00     0.213 HD
ENDBRANCH  12  17
ENDBRANCH   3  12
TORSDOF 5
ENDMDL
MODEL 4
REMARK VINA RESULT: -4.681580043      2.690      3.986
REMARK  5 active torsions:
REMARK  status: ('A' for Active; 'I' for Inactive)
REMARK    1  A    between atoms: C2_2  and  C4_4 
REMARK    2  A    between atoms: C5_7  and  C6_8 
REMARK       I    between atoms: C6_8  and  N1_10 
REMARK    3  A    between atoms: N1_10  and  C7_12 
REMARK    4  A    between atoms: C7_12  and  N2_13 
REMARK    5  A    between atoms: C7_12  and  O2_17 
ROOT
HETATM    1  C6  UNL     1     -34.021  -9.376  12.403  1.00  0.00     0.263 C 
HETATM    2  O1  UNL     1     -33.396 -10.248  13.085  1.00  0.00    -0.267 OA
HETATM    3  N1  UNL     1     -35.410  -9.349  12.543  1.00  0.00    -0.308 N 
ATOM      4  H1  UNL     1     -35.956  -8.669  12.013  1.00  0.00     0.167 HD
ENDROOT
BRANCH   1   5
HETATM    5  C5  UNL     1     -33.293  -8.472  11.533  1.00  0.00     0.093 A 
HETATM    6  C4  UNL     1     -33.148  -8.293  10.168  1.00  0.00     0.016 A 
HETATM    7  S1  UNL     1     -32.057  -6.956  10.102  1.00  0.00    -0.055 SA
HETATM    8  S2  UNL     1     -32.251  -7.192  12.065  1.00  0.00    -0.046 SA
BRANCH   6   9
HETATM    9  C2  UNL     1     -33.733  -8.968   8.978  1.00  0.00     0.019 C 
HETATM   10  C1  UNL     1     -33.223  -8.290   7.701  1.00  0.00     0.015 C 
HETATM   11  C3  UNL     1     -35.262  -8.753   8.956  1.00  0.00     0.015 C 
ENDBRANCH   6   9
ENDBRANCH   1   5
BRANCH   3  12
HETATM   12  C7  UNL     1     -36.087 -10.276  13.433  1.00  0.00     0.426 C 
BRANCH  12  13
HETATM   13  N2  UNL     1     -35.794  -9.923  14.811  1.00  0.00    -0.035 N 
ATOM     14  H23 UNL     1     -35.599 -10.743  15.386  1.00  0.00     0.279 HD
ATOM     15  H22 UNL     1     -34.890  -9.461  14.906  1.00  0.00     0.279 HD
ATOM     16  H21 UNL     1     -36.557  -9.361  15.187  1.00  0.00     0.279 HD
ENDBRANCH  12  13
BRANCH  12  17
HETATM   17  O2  UNL     1     -35.807 -11.599  13.169  1.00  0.00    -0.355 OA
ATOM     18  H2  UNL     1     -35.565 -12.098  13.940  1.00  0.00     0.213 HD
ENDBRANCH  12  17
ENDBRANCH   3  12
TORSDOF 5
ENDMDL
MODEL 5
REMARK VINA RESULT: -4.678148766      5.744      6.576
REMARK  5 active torsions:
REMARK  status: ('A' for Active; 'I' for Inactive)
REMARK    1  A    between atoms: C2_2  and  C4_4 
REMARK    2  A    between atoms: C5_7  and  C6_8 
REMARK       I    between atoms: C6_8  and  N1_10 
REMARK    3  A    between atoms: N1_10  and  C7_12 
REMARK    4  A    between atoms: C7_12  and  N2_13 
REMARK    5  A    between atoms: C7_12  and  O2_17 
ROOT
HETATM    1  C6  UNL     1     -27.768  -9.814  14.133  1.00  0.00     0.263 C 
HETATM    2  O1  UNL     1     -26.724  -9.807  13.408  1.00  0.00    -0.267 OA
HETATM    3  N1  UNL     1     -28.108 -11.028  14.731  1.00  0.00    -0.308 N 
ATOM      4  H1  UNL     1     -28.941 -11.084  15.320  1.00  0.00     0.167 HD
ENDROOT
BRANCH   1   5
HETATM    5  C5  UNL     1     -28.542  -8.599  14.305  1.00  0.00     0.093 A 
HETATM    6  C4  UNL     1     -28.296  -7.238  14.263  1.00  0.00     0.016 A 
HETATM    7  S1  UNL     1     -29.857  -6.586  14.607  1.00  0.00    -0.055 SA
HETATM    8  S2  UNL     1     -30.236  -8.535  14.673  1.00  0.00    -0.046 SA
BRANCH   6   9
HETATM    9  C2  UNL     1     -27.083  -6.424  13.978  1.00  0.00     0.019 C 
HETATM   10  C1  UNL     1     -27.138  -5.120  14.783  1.00  0.00     0.015 C 
HETATM   11  C3  UNL     1     -27.090  -5.977  12.500  1.00  0.00     0.015 C 
ENDBRANCH   6   9
ENDBRANCH   1   5
BRANCH   3  12
HETATM   12  C7  UNL     1     -27.294 -12.213  14.527  1.00  0.00     0.426 C 
BRANCH  12  13
HETATM   13  N2  UNL     1     -25.987 -12.009  15.125  1.00  0.00    -0.035 N 
ATOM     14  H23 UNL     1     -26.029 -11.407  15.948  1.00  0.00     0.279 HD
ATOM     15  H22 UNL     1     -25.635 -12.851  15.579  1.00  0.00     0.279 HD
ATOM     16  H21 UNL     1     -25.342 -11.652  14.419  1.00  0.00     0.279 HD
ENDBRANCH  12  13
BRANCH  12  17
HETATM   17  O2  UNL     1     -27.202 -12.599  13.207  1.00  0.00    -0.355 OA
ATOM     18  H2  UNL     1     -26.599 -12.071  12.698  1.00  0.00     0.213 HD
ENDBRANCH  12  17
ENDBRANCH   3  12
TORSDOF 5
ENDMDL
