MODEL 1
REMARK VINA RESULT: -7.519110989      0.000      0.000
REMARK  3 active torsions:
REMARK  status: ('A' for Active; 'I' for Inactive)
REMARK       I    between atoms: C1_2  and  N1_3 
REMARK    1  A    between atoms: C1_2  and  C9_12 
REMARK    2  A    between atoms: N1_3  and  C2_5 
REMARK    3  A    between atoms: N2_16  and  C13_17 
ROOT
HETATM    1  C9  UNL     1     -17.458 -10.660 -60.893  1.00  0.00     0.095 C 
HETATM    2  C10 UNL     1     -18.727 -10.223 -60.224  1.00  0.00     0.017 C 
HETATM    3  C11 UNL     1     -18.837 -10.786 -58.805  1.00  0.00     0.020 C 
HETATM    4  C12 UNL     1     -17.736 -10.248 -57.936  1.00  0.00     0.117 C 
HETATM    5  N2  UNL     1     -16.682  -9.812 -58.794  1.00  0.00    -0.407 N 
HETATM    6  C18 UNL     1     -16.358 -10.690 -59.858  1.00  0.00     0.131 C 
ENDROOT
BRANCH   1   7
HETATM    7  C1  UNL     1     -17.079  -9.776 -62.022  1.00  0.00     0.223 C 
HETATM    8  O1  UNL     1     -16.384 -10.222 -62.971  1.00  0.00    -0.273 OA
HETATM    9  N1  UNL     1     -17.481  -8.426 -62.065  1.00  0.00    -0.356 N 
ATOM     10  H1  UNL     1     -18.044  -8.067 -61.294  1.00  0.00     0.162 HD
BRANCH   9  11
HETATM   11  C2  UNL     1     -17.142  -7.516 -63.142  1.00  0.00     0.084 C 
HETATM   12  C3  UNL     1     -18.188  -7.600 -64.191  1.00  0.00     0.025 C 
HETATM   13  C4  UNL     1     -18.438  -6.393 -65.000  1.00  0.00     0.002 C 
HETATM   14  C5  UNL     1     -17.321  -5.406 -65.076  1.00  0.00     0.000 C 
HETATM   15  C6  UNL     1     -17.583  -4.353 -64.006  1.00  0.00     0.000 C 
HETATM   16  C7  UNL     1     -17.869  -5.143 -62.728  1.00  0.00     0.002 C 
HETATM   17  C8  UNL     1     -16.825  -6.186 -62.600  1.00  0.00     0.025 C 
ENDBRANCH   9  11
ENDBRANCH   1   7
BRANCH   5  18
HETATM   18  C13 UNL     1     -15.620  -9.118 -58.195  1.00  0.00     0.079 C 
HETATM   19  C14 UNL     1     -15.537  -9.249 -56.701  1.00  0.00     0.025 C 
HETATM   20  C15 UNL     1     -14.243  -8.473 -56.423  1.00  0.00     0.002 C 
HETATM   21  C16 UNL     1     -13.330  -9.065 -57.485  1.00  0.00     0.002 C 
HETATM   22  C17 UNL     1     -14.239  -9.505 -58.626  1.00  0.00     0.025 C 
ENDBRANCH   5  18
TORSDOF 3
ENDMDL
MODEL 2
REMARK VINA RESULT: -7.428706233      3.378      5.658
REMARK  3 active torsions:
REMARK  status: ('A' for Active; 'I' for Inactive)
REMARK       I    between atoms: C1_2  and  N1_3 
REMARK    1  A    between atoms: C1_2  and  C9_12 
REMARK    2  A    between atoms: N1_3  and  C2_5 
REMARK    3  A    between atoms: N2_16  and  C13_17 
ROOT
HETATM    1  C9  UNL     1     -16.917 -11.454 -62.640  1.00  0.00     0.095 C 
HETATM    2  C10 UNL     1     -16.618 -11.936 -64.027  1.00  0.00     0.017 C 
HETATM    3  C11 UNL     1     -16.323 -13.438 -64.048  1.00  0.00     0.020 C 
HETATM    4  C12 UNL     1     -17.531 -14.221 -63.618  1.00  0.00     0.117 C 
HETATM    5  N2  UNL     1     -18.367 -13.344 -62.862  1.00  0.00    -0.407 N 
HETATM    6  C18 UNL     1     -17.699 -12.526 -61.918  1.00  0.00     0.131 C 
ENDROOT
BRANCH   1   7
HETATM    7  C1  UNL     1     -17.669 -10.176 -62.633  1.00  0.00     0.223 C 
HETATM    8  O1  UNL     1     -18.921 -10.176 -62.519  1.00  0.00    -0.273 OA
HETATM    9  N1  UNL     1     -17.009  -8.935 -62.754  1.00  0.00    -0.356 N 
ATOM     10  H1  UNL     1     -15.994  -8.938 -62.847  1.00  0.00     0.162 HD
BRANCH   9  11
HETATM   11  C2  UNL     1     -17.691  -7.656 -62.754  1.00  0.00     0.084 C 
HETATM   12  C3  UNL     1     -17.057  -6.773 -61.744  1.00  0.00     0.025 C 
HETATM   13  C4  UNL     1     -17.094  -5.320 -61.991  1.00  0.00     0.002 C 
HETATM   14  C5  UNL     1     -18.171  -4.831 -62.902  1.00  0.00     0.000 C 
HETATM   15  C6  UNL     1     -17.565  -4.731 -64.296  1.00  0.00     0.000 C 
HETATM   16  C7  UNL     1     -16.867  -6.072 -64.528  1.00  0.00     0.002 C 
HETATM   17  C8  UNL     1     -17.807  -7.145 -64.129  1.00  0.00     0.025 C 
ENDBRANCH   9  11
ENDBRANCH   1   7
BRANCH   5  18
HETATM   18  C13 UNL     1     -19.635 -13.827 -62.504  1.00  0.00     0.079 C 
HETATM   19  C14 UNL     1     -20.282 -14.727 -63.516  1.00  0.00     0.025 C 
HETATM   20  C15 UNL     1     -21.557 -15.127 -62.762  1.00  0.00     0.002 C 
HETATM   21  C16 UNL     1     -20.975 -15.482 -61.402  1.00  0.00     0.002 C 
HETATM   22  C17 UNL     1     -19.709 -14.647 -61.253  1.00  0.00     0.025 C 
ENDBRANCH   5  18
TORSDOF 3
ENDMDL
MODEL 3
REMARK VINA RESULT: -7.333415973      0.899      1.157
REMARK  3 active torsions:
REMARK  status: ('A' for Active; 'I' for Inactive)
REMARK       I    between atoms: C1_2  and  N1_3 
REMARK    1  A    between atoms: C1_2  and  C9_12 
REMARK    2  A    between atoms: N1_3  and  C2_5 
REMARK    3  A    between atoms: N2_16  and  C13_17 
ROOT
HETATM    1  C9  UNL     1     -17.975 -10.987 -61.449  1.00  0.00     0.095 C 
HETATM    2  C10 UNL     1     -19.273 -10.553 -60.837  1.00  0.00     0.017 C 
HETATM    3  C11 UNL     1     -19.564 -11.313 -59.540  1.00  0.00     0.020 C 
HETATM    4  C12 UNL     1     -18.524 -11.005 -58.502  1.00  0.00     0.117 C 
HETATM    5  N2  UNL     1     -17.361 -10.532 -59.181  1.00  0.00    -0.407 N 
HETATM    6  C18 UNL     1     -16.990 -11.262 -60.337  1.00  0.00     0.131 C 
ENDROOT
BRANCH   1   7
HETATM    7  C1  UNL     1     -17.425  -9.976 -62.385  1.00  0.00     0.223 C 
HETATM    8  O1  UNL     1     -16.580 -10.310 -63.255  1.00  0.00    -0.273 OA
HETATM    9  N1  UNL     1     -17.828  -8.626 -62.329  1.00  0.00    -0.356 N 
ATOM     10  H1  UNL     1     -18.512  -8.358 -61.623  1.00  0.00     0.162 HD
BRANCH   9  11
HETATM   11  C2  UNL     1     -17.325  -7.597 -63.217  1.00  0.00     0.084 C 
HETATM   12  C3  UNL     1     -18.220  -7.501 -64.398  1.00  0.00     0.025 C 
HETATM   13  C4  UNL     1     -18.332  -6.189 -65.062  1.00  0.00     0.002 C 
HETATM   14  C5  UNL     1     -17.195  -5.244 -64.853  1.00  0.00     0.000 C 
HETATM   15  C6  UNL     1     -17.580  -4.332 -63.694  1.00  0.00     0.000 C 
HETATM   16  C7  UNL     1     -18.054  -5.273 -62.585  1.00  0.00     0.002 C 
HETATM   17  C8  UNL     1     -17.059  -6.363 -62.462  1.00  0.00     0.025 C 
ENDBRANCH   9  11
ENDBRANCH   1   7
BRANCH   5  18
HETATM   18  C13 UNL     1     -16.322 -10.026 -58.386  1.00  0.00     0.079 C 
HETATM   19  C14 UNL     1     -16.316  -8.533 -58.223  1.00  0.00     0.025 C 
HETATM   20  C15 UNL     1     -15.146  -8.363 -57.243  1.00  0.00     0.002 C 
HETATM   21  C16 UNL     1     -15.485  -9.434 -56.218  1.00  0.00     0.002 C 
HETATM   22  C17 UNL     1     -16.272 -10.503 -56.967  1.00  0.00     0.025 C 
ENDBRANCH   5  18
TORSDOF 3
ENDMDL
MODEL 4
REMARK VINA RESULT: -7.327714446      2.949      4.171
REMARK  3 active torsions:
REMARK  status: ('A' for Active; 'I' for Inactive)
REMARK       I    between atoms: C1_2  and  N1_3 
REMARK    1  A    between atoms: C1_2  and  C9_12 
REMARK    2  A    between atoms: N1_3  and  C2_5 
REMARK    3  A    between atoms: N2_16  and  C13_17 
ROOT
HETATM    1  C9  UNL     1     -16.747 -11.313 -62.910  1.00  0.00     0.095 C 
HETATM    2  C10 UNL     1     -17.306 -12.279 -63.911  1.00  0.00     0.017 C 
HETATM    3  C11 UNL     1     -16.857 -13.713 -63.619  1.00  0.00     0.020 C 
HETATM    4  C12 UNL     1     -17.393 -14.175 -62.294  1.00  0.00     0.117 C 
HETATM    5  N2  UNL     1     -17.702 -13.013 -61.524  1.00  0.00    -0.407 N 
HETATM    6  C18 UNL     1     -16.730 -11.983 -61.556  1.00  0.00     0.131 C 
ENDROOT
BRANCH   1   7
HETATM    7  C1  UNL     1     -17.521 -10.049 -62.849  1.00  0.00     0.223 C 
HETATM    8  O1  UNL     1     -18.775 -10.076 -62.763  1.00  0.00    -0.273 OA
HETATM    9  N1  UNL     1     -16.881  -8.793 -62.886  1.00  0.00    -0.356 N 
ATOM     10  H1  UNL     1     -15.863  -8.775 -62.956  1.00  0.00     0.162 HD
BRANCH   9  11
HETATM   11  C2  UNL     1     -17.584  -7.527 -62.829  1.00  0.00     0.084 C 
HETATM   12  C3  UNL     1     -16.932  -6.660 -61.816  1.00  0.00     0.025 C 
HETATM   13  C4  UNL     1     -17.002  -5.201 -62.023  1.00  0.00     0.002 C 
HETATM   14  C5  UNL     1     -18.117  -4.709 -62.885  1.00  0.00     0.000 C 
HETATM   15  C6  UNL     1     -17.558  -4.560 -64.295  1.00  0.00     0.000 C 
HETATM   16  C7  UNL     1     -16.845  -5.882 -64.585  1.00  0.00     0.002 C 
HETATM   17  C8  UNL     1     -17.753  -6.982 -64.185  1.00  0.00     0.025 C 
ENDBRANCH   9  11
ENDBRANCH   1   7
BRANCH   5  18
HETATM   18  C13 UNL     1     -18.375 -13.217 -60.310  1.00  0.00     0.079 C 
HETATM   19  C14 UNL     1     -17.941 -12.323 -59.184  1.00  0.00     0.025 C 
HETATM   20  C15 UNL     1     -18.932 -12.746 -58.091  1.00  0.00     0.002 C 
HETATM   21  C16 UNL     1     -20.235 -12.729 -58.876  1.00  0.00     0.002 C 
HETATM   22  C17 UNL     1     -19.859 -13.013 -60.326  1.00  0.00     0.025 C 
ENDBRANCH   5  18
TORSDOF 3
ENDMDL
MODEL 5
REMARK VINA RESULT: -7.311491415      2.170      4.400
REMARK  3 active torsions:
REMARK  status: ('A' for Active; 'I' for Inactive)
REMARK       I    between atoms: C1_2  and  N1_3 
REMARK    1  A    between atoms: C1_2  and  C9_12 
REMARK    2  A    between atoms: N1_3  and  C2_5 
REMARK    3  A    between atoms: N2_16  and  C13_17 
ROOT
HETATM    1  C9  UNL     1     -17.811  -9.610 -59.655  1.00  0.00     0.095 C 
HETATM    2  C10 UNL     1     -16.964 -10.747 -59.171  1.00  0.00     0.017 C 
HETATM    3  C11 UNL     1     -17.804 -11.808 -58.455  1.00  0.00     0.020 C 
HETATM    4  C12 UNL     1     -18.787 -12.433 -59.404  1.00  0.00     0.117 C 
HETATM    5  N2  UNL     1     -18.978 -11.525 -60.488  1.00  0.00    -0.407 N 
HETATM    6  C18 UNL     1     -19.135 -10.164 -60.125  1.00  0.00     0.131 C 
ENDROOT
BRANCH   1   7
HETATM    7  C1  UNL     1     -17.159  -8.840 -60.743  1.00  0.00     0.223 C 
HETATM    8  O1  UNL     1     -15.905  -8.802 -60.831  1.00  0.00    -0.273 OA
HETATM    9  N1  UNL     1     -17.918  -8.136 -61.701  1.00  0.00    -0.356 N 
ATOM     10  H1  UNL     1     -18.934  -8.169 -61.627  1.00  0.00     0.162 HD
BRANCH   9  11
HETATM   11  C2  UNL     1     -17.337  -7.369 -62.785  1.00  0.00     0.084 C 
HETATM   12  C3  UNL     1     -18.145  -7.581 -64.012  1.00  0.00     0.025 C 
HETATM   13  C4  UNL     1     -18.188  -6.483 -64.996  1.00  0.00     0.002 C 
HETATM   14  C5  UNL     1     -17.052  -5.515 -64.955  1.00  0.00     0.000 C 
HETATM   15  C6  UNL     1     -17.500  -4.337 -64.100  1.00  0.00     0.000 C 
HETATM   16  C7  UNL     1     -18.067  -4.961 -62.823  1.00  0.00     0.002 C 
HETATM   17  C8  UNL     1     -17.102  -5.982 -62.354  1.00  0.00     0.025 C 
ENDBRANCH   9  11
ENDBRANCH   1   7
BRANCH   5  18
HETATM   18  C13 UNL     1     -19.733 -11.985 -61.577  1.00  0.00     0.079 C 
HETATM   19  C14 UNL     1     -19.136 -11.711 -62.927  1.00  0.00     0.025 C 
HETATM   20  C15 UNL     1     -20.149 -12.424 -63.833  1.00  0.00     0.002 C 
HETATM   21  C16 UNL     1     -20.289 -13.751 -63.102  1.00  0.00     0.002 C 
HETATM   22  C17 UNL     1     -19.992 -13.459 -61.636  1.00  0.00     0.025 C 
ENDBRANCH   5  18
TORSDOF 3
ENDMDL
