MODEL 1
REMARK VINA RESULT: -6.882719946      0.000      0.000
REMARK  4 active torsions:
REMARK  status: ('A' for Active; 'I' for Inactive)
REMARK    1  A    between atoms: C1_2  and  C2_3 
REMARK       I    between atoms: C1_2  and  N2_9 
REMARK    2  A    between atoms: C2_3  and  N1_4 
REMARK    3  A    between atoms: C7_11  and  O2_12 
REMARK    4  A    between atoms: C7_11  and  C8_14 
ROOT
HETATM    1  O1  UNL     1     -18.421  -9.357 -61.889  1.00  0.00    -0.271 OA
HETATM    2  C1  UNL     1     -17.430  -8.660 -61.559  1.00  0.00     0.251 C 
HETATM    3  N2  UNL     1     -16.879  -8.879 -60.269  1.00  0.00    -0.309 N 
ATOM      4  H2  UNL     1     -17.420  -8.629 -59.442  1.00  0.00     0.170 HD
HETATM    5  C7  UNL     1     -15.703  -9.391 -60.128  1.00  0.00     0.127 C 
ENDROOT
BRANCH   5   6
HETATM    6  O2  UNL     1     -14.939  -9.744 -61.229  1.00  0.00    -0.349 OA
ATOM      7  H2  UNL     1     -15.017 -10.604 -61.626  1.00  0.00     0.219 HD
ENDBRANCH   5   6
BRANCH   5   8
HETATM    8  C8  UNL     1     -15.115  -9.626 -58.789  1.00  0.00     0.026 C 
HETATM    9  C9  UNL     1     -15.661 -10.908 -58.168  1.00  0.00     0.022 C 
HETATM   10  C10 UNL     1     -15.059 -11.078 -56.813  1.00  0.00    -0.013 C 
HETATM   11  C11 UNL     1     -13.556 -11.126 -56.830  1.00  0.00     0.009 C 
HETATM   12  C15 UNL     1     -15.494  -9.941 -55.932  1.00  0.00     0.009 C 
HETATM   13  C12 UNL     1     -13.050  -9.856 -57.475  1.00  0.00    -0.013 C 
HETATM   14  C13 UNL     1     -13.446  -8.678 -56.633  1.00  0.00     0.009 C 
HETATM   15  C17 UNL     1     -13.615  -9.779 -58.864  1.00  0.00     0.022 C 
HETATM   16  C14 UNL     1     -14.958  -8.654 -56.514  1.00  0.00    -0.013 C 
HETATM   17  C16 UNL     1     -15.522  -8.492 -57.889  1.00  0.00     0.022 C 
ENDBRANCH   5   8
BRANCH   2  18
HETATM   18  C2  UNL     1     -16.823  -7.646 -62.422  1.00  0.00     0.374 C 
BRANCH  18  19
HETATM   19  N1  UNL     1     -17.762  -6.704 -62.965  1.00  0.00     0.097 N 
HETATM   20  C3  UNL     1     -17.399  -5.385 -62.493  1.00  0.00     0.273 C 
HETATM   21  C4  UNL     1     -17.779  -4.452 -63.618  1.00  0.00     0.032 C 
HETATM   22  C5  UNL     1     -17.392  -5.280 -64.831  1.00  0.00     0.032 C 
HETATM   23  C6  UNL     1     -17.804  -6.670 -64.391  1.00  0.00     0.273 C 
ENDBRANCH  18  19
ENDBRANCH   2  18
TORSDOF 4
ENDMDL
MODEL 2
REMARK VINA RESULT: -6.882421031      1.384      2.494
REMARK  4 active torsions:
REMARK  status: ('A' for Active; 'I' for Inactive)
REMARK    1  A    between atoms: C1_2  and  C2_3 
REMARK       I    between atoms: C1_2  and  N2_9 
REMARK    2  A    between atoms: C2_3  and  N1_4 
REMARK    3  A    between atoms: C7_11  and  O2_12 
REMARK    4  A    between atoms: C7_11  and  C8_14 
ROOT
HETATM    1  O1  UNL     1     -17.367  -9.829 -63.344  1.00  0.00    -0.271 OA
HETATM    2  C1  UNL     1     -17.120  -9.020 -62.416  1.00  0.00     0.251 C 
HETATM    3  N2  UNL     1     -17.325  -9.474 -61.086  1.00  0.00    -0.309 N 
ATOM      4  H2  UNL     1     -18.272  -9.667 -60.760  1.00  0.00     0.170 HD
HETATM    5  C7  UNL     1     -16.330  -9.644 -60.282  1.00  0.00     0.127 C 
ENDROOT
BRANCH   5   6
HETATM    6  O2  UNL     1     -15.029  -9.392 -60.689  1.00  0.00    -0.349 OA
ATOM      7  H2  UNL     1     -14.288  -9.666 -60.162  1.00  0.00     0.219 HD
ENDBRANCH   5   6
BRANCH   5   8
HETATM    8  C8  UNL     1     -16.528 -10.116 -58.893  1.00  0.00     0.026 C 
HETATM    9  C9  UNL     1     -16.074  -9.063 -57.886  1.00  0.00     0.022 C 
HETATM   10  C10 UNL     1     -16.268  -9.602 -56.508  1.00  0.00    -0.013 C 
HETATM   11  C11 UNL     1     -17.689  -9.996 -56.217  1.00  0.00     0.009 C 
HETATM   12  C15 UNL     1     -15.386 -10.804 -56.318  1.00  0.00     0.009 C 
HETATM   13  C12 UNL     1     -18.116 -11.018 -57.246  1.00  0.00    -0.013 C 
HETATM   14  C13 UNL     1     -17.274 -12.253 -57.101  1.00  0.00     0.009 C 
HETATM   15  C17 UNL     1     -17.984 -10.396 -58.606  1.00  0.00     0.022 C 
HETATM   16  C14 UNL     1     -15.819 -11.872 -57.293  1.00  0.00    -0.013 C 
HETATM   17  C16 UNL     1     -15.668 -11.331 -58.678  1.00  0.00     0.022 C 
ENDBRANCH   5   8
BRANCH   2  18
HETATM   18  C2  UNL     1     -16.640  -7.655 -62.630  1.00  0.00     0.374 C 
BRANCH  18  19
HETATM   19  N1  UNL     1     -17.667  -6.729 -63.018  1.00  0.00     0.097 N 
HETATM   20  C3  UNL     1     -17.339  -5.434 -62.463  1.00  0.00     0.273 C 
HETATM   21  C4  UNL     1     -17.855  -4.437 -63.473  1.00  0.00     0.032 C 
HETATM   22  C5  UNL     1     -17.521  -5.138 -64.777  1.00  0.00     0.032 C 
HETATM   23  C6  UNL     1     -17.822  -6.581 -64.430  1.00  0.00     0.273 C 
ENDBRANCH  18  19
ENDBRANCH   2  18
TORSDOF 4
ENDMDL
MODEL 3
REMARK VINA RESULT: -6.841140300      4.416      7.107
REMARK  4 active torsions:
REMARK  status: ('A' for Active; 'I' for Inactive)
REMARK    1  A    between atoms: C1_2  and  C2_3 
REMARK       I    between atoms: C1_2  and  N2_9 
REMARK    2  A    between atoms: C2_3  and  N1_4 
REMARK    3  A    between atoms: C7_11  and  O2_12 
REMARK    4  A    between atoms: C7_11  and  C8_14 
ROOT
HETATM    1  O1  UNL     1     -18.855 -11.010 -60.609  1.00  0.00    -0.271 OA
HETATM    2  C1  UNL     1     -18.731 -10.722 -61.825  1.00  0.00     0.251 C 
HETATM    3  N2  UNL     1     -18.587  -9.350 -62.159  1.00  0.00    -0.309 N 
ATOM      4  H2  UNL     1     -19.370  -8.712 -62.016  1.00  0.00     0.170 HD
HETATM    5  C7  UNL     1     -17.480  -8.896 -62.641  1.00  0.00     0.127 C 
ENDROOT
BRANCH   5   6
HETATM    6  O2  UNL     1     -16.393  -9.732 -62.849  1.00  0.00    -0.349 OA
ATOM      7  H2  UNL     1     -15.682  -9.478 -63.426  1.00  0.00     0.219 HD
ENDBRANCH   5   6
BRANCH   5   8
HETATM    8  C8  UNL     1     -17.315  -7.467 -62.994  1.00  0.00     0.026 C 
HETATM    9  C9  UNL     1     -15.847  -7.127 -63.234  1.00  0.00     0.022 C 
HETATM   10  C10 UNL     1     -15.739  -5.674 -63.556  1.00  0.00    -0.013 C 
HETATM   11  C11 UNL     1     -16.552  -5.266 -64.753  1.00  0.00     0.009 C 
HETATM   12  C15 UNL     1     -16.190  -4.869 -62.370  1.00  0.00     0.009 C 
HETATM   13  C12 UNL     1     -17.994  -5.640 -64.494  1.00  0.00    -0.013 C 
HETATM   14  C13 UNL     1     -18.509  -4.859 -63.320  1.00  0.00     0.009 C 
HETATM   15  C17 UNL     1     -18.058  -7.122 -64.263  1.00  0.00     0.022 C 
HETATM   16  C14 UNL     1     -17.647  -5.174 -62.113  1.00  0.00    -0.013 C 
HETATM   17  C16 UNL     1     -17.776  -6.636 -61.829  1.00  0.00     0.022 C 
ENDBRANCH   5   8
BRANCH   2  18
HETATM   18  C2  UNL     1     -18.727 -11.714 -62.901  1.00  0.00     0.374 C 
BRANCH  18  19
HETATM   19  N1  UNL     1     -19.322 -12.970 -62.539  1.00  0.00     0.097 N 
HETATM   20  C3  UNL     1     -20.357 -13.272 -63.502  1.00  0.00     0.273 C 
HETATM   21  C4  UNL     1     -20.352 -14.778 -63.619  1.00  0.00     0.032 C 
HETATM   22  C5  UNL     1     -18.865 -15.074 -63.543  1.00  0.00     0.032 C 
HETATM   23  C6  UNL     1     -18.409 -14.067 -62.509  1.00  0.00     0.273 C 
ENDBRANCH  18  19
ENDBRANCH   2  18
TORSDOF 4
ENDMDL
MODEL 4
REMARK VINA RESULT: -6.836031163      1.398      1.902
REMARK  4 active torsions:
REMARK  status: ('A' for Active; 'I' for Inactive)
REMARK    1  A    between atoms: C1_2  and  C2_3 
REMARK       I    between atoms: C1_2  and  N2_9 
REMARK    2  A    between atoms: C2_3  and  N1_4 
REMARK    3  A    between atoms: C7_11  and  O2_12 
REMARK    4  A    between atoms: C7_11  and  C8_14 
ROOT
HETATM    1  O1  UNL     1     -17.373  -9.828 -63.385  1.00  0.00    -0.271 OA
HETATM    2  C1  UNL     1     -17.127  -9.045 -62.435  1.00  0.00     0.251 C 
HETATM    3  N2  UNL     1     -17.322  -9.537 -61.118  1.00  0.00    -0.309 N 
ATOM      4  H2  UNL     1     -18.266  -9.746 -60.793  1.00  0.00     0.170 HD
HETATM    5  C7  UNL     1     -16.322  -9.724 -60.324  1.00  0.00     0.127 C 
ENDROOT
BRANCH   5   6
HETATM    6  O2  UNL     1     -15.025  -9.451 -60.730  1.00  0.00    -0.349 OA
ATOM      7  H2  UNL     1     -14.751  -8.565 -60.938  1.00  0.00     0.219 HD
ENDBRANCH   5   6
BRANCH   5   8
HETATM    8  C8  UNL     1     -16.509 -10.236 -58.948  1.00  0.00     0.026 C 
HETATM    9  C9  UNL     1     -17.977 -10.553 -58.675  1.00  0.00     0.022 C 
HETATM   10  C10 UNL     1     -18.110 -11.035 -57.270  1.00  0.00    -0.013 C 
HETATM   11  C11 UNL     1     -17.270 -12.246 -56.973  1.00  0.00     0.009 C 
HETATM   12  C15 UNL     1     -17.715  -9.932 -56.329  1.00  0.00     0.009 C 
HETATM   13  C12 UNL     1     -15.829 -11.907 -57.277  1.00  0.00    -0.013 C 
HETATM   14  C13 UNL     1     -15.369 -10.812 -56.359  1.00  0.00     0.009 C 
HETATM   15  C17 UNL     1     -15.736 -11.513 -58.723  1.00  0.00     0.022 C 
HETATM   16  C14 UNL     1     -16.260  -9.602 -56.564  1.00  0.00    -0.013 C 
HETATM   17  C16 UNL     1     -16.105  -9.156 -57.982  1.00  0.00     0.022 C 
ENDBRANCH   5   8
BRANCH   2  18
HETATM   18  C2  UNL     1     -16.657  -7.671 -62.613  1.00  0.00     0.374 C 
BRANCH  18  19
HETATM   19  N1  UNL     1     -17.683  -6.751 -63.018  1.00  0.00     0.097 N 
HETATM   20  C3  UNL     1     -17.385  -5.460 -62.437  1.00  0.00     0.273 C 
HETATM   21  C4  UNL     1     -17.883  -4.454 -63.447  1.00  0.00     0.032 C 
HETATM   22  C5  UNL     1     -17.505  -5.134 -64.751  1.00  0.00     0.032 C 
HETATM   23  C6  UNL     1     -17.800  -6.585 -64.431  1.00  0.00     0.273 C 
ENDBRANCH  18  19
ENDBRANCH   2  18
TORSDOF 4
ENDMDL
MODEL 5
REMARK VINA RESULT: -6.813980487      1.399      2.071
REMARK  4 active torsions:
REMARK  status: ('A' for Active; 'I' for Inactive)
REMARK    1  A    between atoms: C1_2  and  C2_3 
REMARK       I    between atoms: C1_2  and  N2_9 
REMARK    2  A    between atoms: C2_3  and  N1_4 
REMARK    3  A    between atoms: C7_11  and  O2_12 
REMARK    4  A    between atoms: C7_11  and  C8_14 
ROOT
HETATM    1  O1  UNL     1     -17.408  -9.819 -63.340  1.00  0.00    -0.271 OA
HETATM    2  C1  UNL     1     -17.127  -9.028 -62.407  1.00  0.00     0.251 C 
HETATM    3  N2  UNL     1     -17.294  -9.501 -61.078  1.00  0.00    -0.309 N 
ATOM      4  H2  UNL     1     -18.232  -9.693 -60.727  1.00  0.00     0.170 HD
HETATM    5  C7  UNL     1     -16.276  -9.690 -60.309  1.00  0.00     0.127 C 
ENDROOT
BRANCH   5   6
HETATM    6  O2  UNL     1     -14.986  -9.440 -60.751  1.00  0.00    -0.349 OA
ATOM      7  H2  UNL     1     -14.309  -9.151 -60.151  1.00  0.00     0.219 HD
ENDBRANCH   5   6
BRANCH   5   8
HETATM    8  C8  UNL     1     -16.435 -10.183 -58.921  1.00  0.00     0.026 C 
HETATM    9  C9  UNL     1     -15.609 -11.445 -58.689  1.00  0.00     0.022 C 
HETATM   10  C10 UNL     1     -15.830 -11.911 -57.289  1.00  0.00    -0.013 C 
HETATM   11  C11 UNL     1     -15.474 -10.880 -56.254  1.00  0.00     0.009 C 
HETATM   12  C15 UNL     1     -17.274 -12.290 -57.115  1.00  0.00     0.009 C 
HETATM   13  C12 UNL     1     -16.289  -9.636 -56.528  1.00  0.00    -0.013 C 
HETATM   14  C13 UNL     1     -17.747  -9.948 -56.360  1.00  0.00     0.009 C 
HETATM   15  C17 UNL     1     -15.964  -9.160 -57.914  1.00  0.00     0.022 C 
HETATM   16  C14 UNL     1     -18.119 -11.056 -57.326  1.00  0.00    -0.013 C 
HETATM   17  C16 UNL     1     -17.877 -10.554 -58.713  1.00  0.00     0.022 C 
ENDBRANCH   5   8
BRANCH   2  18
HETATM   18  C2  UNL     1     -16.644  -7.662 -62.614  1.00  0.00     0.374 C 
BRANCH  18  19
HETATM   19  N1  UNL     1     -17.668  -6.733 -63.001  1.00  0.00     0.097 N 
HETATM   20  C3  UNL     1     -17.344  -5.443 -62.432  1.00  0.00     0.273 C 
HETATM   21  C4  UNL     1     -17.854  -4.437 -63.435  1.00  0.00     0.032 C 
HETATM   22  C5  UNL     1     -17.512  -5.126 -64.744  1.00  0.00     0.032 C 
HETATM   23  C6  UNL     1     -17.815  -6.572 -64.411  1.00  0.00     0.273 C 
ENDBRANCH  18  19
ENDBRANCH   2  18
TORSDOF 4
ENDMDL
