MODEL 1
REMARK VINA RESULT: -7.321644253      0.000      0.000
REMARK  3 active torsions:
REMARK  status: ('A' for Active; 'I' for Inactive)
REMARK       I    between atoms: C1_2  and  N1_3 
REMARK    1  A    between atoms: C1_2  and  C8_11 
REMARK    2  A    between atoms: N1_3  and  C2_5 
REMARK    3  A    between atoms: N2_14  and  C11_15 
ROOT
HETATM    1  C8  UNL     1     -18.320 -11.365 -63.227  1.00  0.00     0.107 C 
HETATM    2  C9  UNL     1     -17.084 -12.043 -62.703  1.00  0.00     0.046 C 
HETATM    3  C10 UNL     1     -17.533 -13.497 -62.698  1.00  0.00     0.273 C 
HETATM    4  N2  UNL     1     -18.943 -13.520 -62.481  1.00  0.00     0.093 N 
HETATM    5  C17 UNL     1     -19.447 -12.159 -62.601  1.00  0.00     0.287 C 
ENDROOT
BRANCH   1   6
HETATM    6  C1  UNL     1     -18.394  -9.914 -62.870  1.00  0.00     0.223 C 
HETATM    7  O1  UNL     1     -19.064  -9.641 -61.848  1.00  0.00    -0.273 OA
HETATM    8  N1  UNL     1     -17.768  -8.916 -63.614  1.00  0.00    -0.356 N 
ATOM      9  H1  UNL     1     -17.233  -9.246 -64.417  1.00  0.00     0.162 HD
BRANCH   8  10
HETATM   10  C2  UNL     1     -17.763  -7.494 -63.421  1.00  0.00     0.084 C 
HETATM   11  C3  UNL     1     -18.132  -6.768 -64.670  1.00  0.00     0.025 C 
HETATM   12  C4  UNL     1     -17.938  -5.299 -64.658  1.00  0.00     0.002 C 
HETATM   13  C5  UNL     1     -17.276  -4.772 -63.408  1.00  0.00     0.000 C 
HETATM   14  C6  UNL     1     -16.042  -5.671 -63.218  1.00  0.00     0.002 C 
HETATM   15  C7  UNL     1     -16.606  -6.974 -62.679  1.00  0.00     0.025 C 
ENDBRANCH   8  10
ENDBRANCH   1   6
BRANCH   4  16
HETATM   16  C11 UNL     1     -19.710 -14.349 -63.346  1.00  0.00     0.223 C 
HETATM   17  C12 UNL     1     -21.078 -14.578 -62.684  1.00  0.00     0.036 C 
HETATM   18  C13 UNL     1     -20.794 -15.288 -61.378  1.00  0.00     0.002 C 
HETATM   19  C14 UNL     1     -20.362 -16.711 -61.721  1.00  0.00     0.000 C 
HETATM   20  C15 UNL     1     -19.043 -16.606 -62.458  1.00  0.00     0.002 C 
HETATM   21  C16 UNL     1     -19.153 -15.692 -63.658  1.00  0.00     0.036 C 
ENDBRANCH   4  16
TORSDOF 3
ENDMDL
MODEL 2
REMARK VINA RESULT: -7.078555054      1.258      2.101
REMARK  3 active torsions:
REMARK  status: ('A' for Active; 'I' for Inactive)
REMARK       I    between atoms: C1_2  and  N1_3 
REMARK    1  A    between atoms: C1_2  and  C8_11 
REMARK    2  A    between atoms: N1_3  and  C2_5 
REMARK    3  A    between atoms: N2_14  and  C11_15 
ROOT
HETATM    1  C8  UNL     1     -18.936 -11.285 -62.810  1.00  0.00     0.107 C 
HETATM    2  C9  UNL     1     -19.560 -11.898 -64.034  1.00  0.00     0.046 C 
HETATM    3  C10 UNL     1     -19.984 -13.255 -63.493  1.00  0.00     0.273 C 
HETATM    4  N2  UNL     1     -19.071 -13.620 -62.459  1.00  0.00     0.093 N 
HETATM    5  C17 UNL     1     -18.249 -12.459 -62.144  1.00  0.00     0.287 C 
ENDROOT
BRANCH   1   6
HETATM    6  C1  UNL     1     -17.975 -10.183 -63.126  1.00  0.00     0.223 C 
HETATM    7  O1  UNL     1     -16.803 -10.542 -63.383  1.00  0.00    -0.273 OA
HETATM    8  N1  UNL     1     -18.339  -8.839 -63.138  1.00  0.00    -0.356 N 
ATOM      9  H1  UNL     1     -19.322  -8.655 -62.933  1.00  0.00     0.162 HD
BRANCH   8  10
HETATM   10  C2  UNL     1     -17.541  -7.673 -63.393  1.00  0.00     0.084 C 
HETATM   11  C3  UNL     1     -17.189  -6.960 -62.131  1.00  0.00     0.025 C 
HETATM   12  C4  UNL     1     -16.567  -5.624 -62.283  1.00  0.00     0.002 C 
HETATM   13  C5  UNL     1     -16.493  -5.135 -63.710  1.00  0.00     0.000 C 
HETATM   14  C6  UNL     1     -17.914  -5.342 -64.262  1.00  0.00     0.002 C 
HETATM   15  C7  UNL     1     -18.005  -6.838 -64.509  1.00  0.00     0.025 C 
ENDBRANCH   8  10
ENDBRANCH   1   6
BRANCH   4  16
HETATM   16  C11 UNL     1     -19.638 -14.098 -61.245  1.00  0.00     0.223 C 
HETATM   17  C12 UNL     1     -18.512 -14.750 -60.428  1.00  0.00     0.036 C 
HETATM   18  C13 UNL     1     -18.002 -15.901 -61.268  1.00  0.00     0.002 C 
HETATM   19  C14 UNL     1     -19.078 -16.984 -61.253  1.00  0.00     0.000 C 
HETATM   20  C15 UNL     1     -20.284 -16.417 -61.973  1.00  0.00     0.002 C 
HETATM   21  C16 UNL     1     -20.725 -15.106 -61.362  1.00  0.00     0.036 C 
ENDBRANCH   4  16
TORSDOF 3
ENDMDL
MODEL 3
REMARK VINA RESULT: -7.039289548      4.946      6.571
REMARK  3 active torsions:
REMARK  status: ('A' for Active; 'I' for Inactive)
REMARK       I    between atoms: C1_2  and  N1_3 
REMARK    1  A    between atoms: C1_2  and  C8_11 
REMARK    2  A    between atoms: N1_3  and  C2_5 
REMARK    3  A    between atoms: N2_14  and  C11_15 
ROOT
HETATM    1  C8  UNL     1     -16.825  -8.560 -59.346  1.00  0.00     0.107 C 
HETATM    2  C9  UNL     1     -17.727  -9.754 -59.198  1.00  0.00     0.046 C 
HETATM    3  C10 UNL     1     -17.318 -10.255 -57.821  1.00  0.00     0.273 C 
HETATM    4  N2  UNL     1     -15.946  -9.916 -57.620  1.00  0.00     0.093 N 
HETATM    5  C17 UNL     1     -15.539  -9.008 -58.684  1.00  0.00     0.287 C 
ENDROOT
BRANCH   1   6
HETATM    6  C1  UNL     1     -16.607  -8.157 -60.771  1.00  0.00     0.223 C 
HETATM    7  O1  UNL     1     -15.810  -8.872 -61.421  1.00  0.00    -0.273 OA
HETATM    8  N1  UNL     1     -17.239  -7.062 -61.355  1.00  0.00    -0.356 N 
ATOM      9  H1  UNL     1     -17.883  -6.557 -60.745  1.00  0.00     0.162 HD
BRANCH   8  10
HETATM   10  C2  UNL     1     -17.120  -6.535 -62.684  1.00  0.00     0.084 C 
HETATM   11  C3  UNL     1     -17.487  -5.090 -62.739  1.00  0.00     0.025 C 
HETATM   12  C4  UNL     1     -17.626  -4.498 -64.090  1.00  0.00     0.002 C 
HETATM   13  C5  UNL     1     -17.488  -5.491 -65.218  1.00  0.00     0.000 C 
HETATM   14  C6  UNL     1     -18.427  -6.647 -64.831  1.00  0.00     0.002 C 
HETATM   15  C7  UNL     1     -17.676  -7.391 -63.741  1.00  0.00     0.025 C 
ENDBRANCH   8  10
ENDBRANCH   1   6
BRANCH   4  16
HETATM   16  C11 UNL     1     -15.613  -9.310 -56.376  1.00  0.00     0.223 C 
HETATM   17  C12 UNL     1     -14.101  -9.035 -56.381  1.00  0.00     0.036 C 
HETATM   18  C13 UNL     1     -13.432 -10.386 -56.513  1.00  0.00     0.002 C 
HETATM   19  C14 UNL     1     -13.621 -11.116 -55.186  1.00  0.00     0.000 C 
HETATM   20  C15 UNL     1     -15.106 -11.375 -55.032  1.00  0.00     0.002 C 
HETATM   21  C16 UNL     1     -15.903 -10.095 -55.147  1.00  0.00     0.036 C 
ENDBRANCH   4  16
TORSDOF 3
ENDMDL
MODEL 4
REMARK VINA RESULT: -6.895665463      4.371      8.078
REMARK  3 active torsions:
REMARK  status: ('A' for Active; 'I' for Inactive)
REMARK       I    between atoms: C1_2  and  N1_3 
REMARK    1  A    between atoms: C1_2  and  C8_11 
REMARK    2  A    between atoms: N1_3  and  C2_5 
REMARK    3  A    between atoms: N2_14  and  C11_15 
ROOT
HETATM    1  C8  UNL     1     -16.425  -9.487 -61.296  1.00  0.00     0.107 C 
HETATM    2  C9  UNL     1     -17.627  -9.925 -62.088  1.00  0.00     0.046 C 
HETATM    3  C10 UNL     1     -17.801  -8.741 -63.028  1.00  0.00     0.273 C 
HETATM    4  N2  UNL     1     -17.326  -7.575 -62.357  1.00  0.00     0.093 N 
HETATM    5  C17 UNL     1     -16.630  -7.994 -61.147  1.00  0.00     0.287 C 
ENDROOT
BRANCH   1   6
HETATM    6  C1  UNL     1     -16.311 -10.169 -59.970  1.00  0.00     0.223 C 
HETATM    7  O1  UNL     1     -16.712 -11.355 -59.933  1.00  0.00    -0.273 OA
HETATM    8  N1  UNL     1     -15.797  -9.543 -58.836  1.00  0.00    -0.356 N 
ATOM      9  H1  UNL     1     -15.482  -8.583 -58.977  1.00  0.00     0.162 HD
BRANCH   8  10
HETATM   10  C2  UNL     1     -15.645 -10.045 -57.500  1.00  0.00     0.084 C 
HETATM   11  C3  UNL     1     -16.914  -9.936 -56.723  1.00  0.00     0.025 C 
HETATM   12  C4  UNL     1     -16.820 -10.206 -55.270  1.00  0.00     0.002 C 
HETATM   13  C5  UNL     1     -15.413 -10.437 -54.773  1.00  0.00     0.000 C 
HETATM   14  C6  UNL     1     -14.603  -9.262 -55.349  1.00  0.00     0.002 C 
HETATM   15  C7  UNL     1     -14.419  -9.616 -56.814  1.00  0.00     0.025 C 
ENDBRANCH   8  10
ENDBRANCH   1   6
BRANCH   4  16
HETATM   16  C11 UNL     1     -16.453  -6.725 -63.092  1.00  0.00     0.223 C 
HETATM   17  C12 UNL     1     -16.272  -5.430 -62.285  1.00  0.00     0.036 C 
HETATM   18  C13 UNL     1     -17.649  -4.813 -62.174  1.00  0.00     0.002 C 
HETATM   19  C14 UNL     1     -18.019  -4.281 -63.556  1.00  0.00     0.000 C 
HETATM   20  C15 UNL     1     -18.150  -5.481 -64.471  1.00  0.00     0.002 C 
HETATM   21  C16 UNL     1     -16.895  -6.325 -64.455  1.00  0.00     0.036 C 
ENDBRANCH   4  16
TORSDOF 3
ENDMDL
MODEL 5
REMARK VINA RESULT: -6.753617649      1.379      2.421
REMARK  3 active torsions:
REMARK  status: ('A' for Active; 'I' for Inactive)
REMARK       I    between atoms: C1_2  and  N1_3 
REMARK    1  A    between atoms: C1_2  and  C8_11 
REMARK    2  A    between atoms: N1_3  and  C2_5 
REMARK    3  A    between atoms: N2_14  and  C11_15 
ROOT
HETATM    1  C8  UNL     1     -18.494 -11.153 -62.145  1.00  0.00     0.107 C 
HETATM    2  C9  UNL     1     -19.668 -11.632 -62.956  1.00  0.00     0.046 C 
HETATM    3  C10 UNL     1     -19.239 -13.057 -63.271  1.00  0.00     0.273 C 
HETATM    4  N2  UNL     1     -17.813 -13.084 -63.328  1.00  0.00     0.093 N 
HETATM    5  C17 UNL     1     -17.311 -11.815 -62.819  1.00  0.00     0.287 C 
ENDROOT
BRANCH   1   6
HETATM    6  C1  UNL     1     -18.361  -9.664 -62.121  1.00  0.00     0.223 C 
HETATM    7  O1  UNL     1     -18.607  -9.114 -61.023  1.00  0.00    -0.273 OA
HETATM    8  N1  UNL     1     -17.990  -8.917 -63.237  1.00  0.00    -0.356 N 
ATOM      9  H1  UNL     1     -17.794  -9.461 -64.077  1.00  0.00     0.162 HD
BRANCH   8  10
HETATM   10  C2  UNL     1     -17.843  -7.497 -63.383  1.00  0.00     0.084 C 
HETATM   11  C3  UNL     1     -18.255  -7.038 -64.741  1.00  0.00     0.025 C 
HETATM   12  C4  UNL     1     -17.932  -5.634 -65.087  1.00  0.00     0.002 C 
HETATM   13  C5  UNL     1     -17.119  -4.910 -64.040  1.00  0.00     0.000 C 
HETATM   14  C6  UNL     1     -15.957  -5.868 -63.726  1.00  0.00     0.002 C 
HETATM   15  C7  UNL     1     -16.584  -6.947 -62.861  1.00  0.00     0.025 C 
ENDBRANCH   8  10
ENDBRANCH   1   6
BRANCH   4  16
HETATM   16  C11 UNL     1     -17.164 -14.130 -62.615  1.00  0.00     0.223 C 
HETATM   17  C12 UNL     1     -15.821 -14.406 -63.310  1.00  0.00     0.036 C 
HETATM   18  C13 UNL     1     -16.163 -14.850 -64.715  1.00  0.00     0.002 C 
HETATM   19  C14 UNL     1     -16.765 -16.249 -64.614  1.00  0.00     0.000 C 
HETATM   20  C15 UNL     1     -18.075 -16.113 -63.867  1.00  0.00     0.002 C 
HETATM   21  C16 UNL     1     -17.880 -15.431 -62.531  1.00  0.00     0.036 C 
ENDBRANCH   4  16
TORSDOF 3
ENDMDL
