MODEL 1
REMARK VINA RESULT: -7.132454257      0.000      0.000
REMARK  3 active torsions:
REMARK  status: ('A' for Active; 'I' for Inactive)
REMARK    1  A    between atoms: O1_2  and  C2_3 
REMARK    2  A    between atoms: C4_5  and  N1_6 
REMARK       I    between atoms: N1_6  and  C5_8 
REMARK    3  A    between atoms: C5_8  and  C6_10 
ROOT
HETATM    1  C2  UNL     1     -18.997 -11.948 -63.351  1.00  0.00     0.128 C 
HETATM    2  C3  UNL     1     -18.537 -10.536 -63.362  1.00  0.00     0.063 C 
HETATM    3  C4  UNL     1     -17.110 -10.469 -62.722  1.00  0.00     0.039 C 
HETATM    4  C12 UNL     1     -16.285 -11.450 -63.515  1.00  0.00     0.036 C 
HETATM    5  C13 UNL     1     -16.667 -12.881 -63.218  1.00  0.00    -0.005 C 
HETATM    6  C14 UNL     1     -16.263 -13.197 -61.768  1.00  0.00     0.010 C 
HETATM    7  C15 UNL     1     -17.521 -12.457 -61.378  1.00  0.00    -0.001 C 
HETATM    8  C16 UNL     1     -18.071 -12.906 -62.711  1.00  0.00     0.023 C 
HETATM    9  C17 UNL     1     -17.314 -10.938 -61.352  1.00  0.00     0.014 C 
HETATM   10  C18 UNL     1     -16.334 -10.642 -60.289  1.00  0.00     0.013 C 
ENDROOT
BRANCH   3  11
HETATM   11  N1  UNL     1     -16.623  -9.163 -62.974  1.00  0.00    -0.351 N 
HETATM   12  C5  UNL     1     -16.993  -7.923 -62.465  1.00  0.00     0.222 C 
HETATM   13  O2  UNL     1     -17.901  -7.812 -61.624  1.00  0.00    -0.273 OA
ATOM     14  H1  UNL     1     -15.861  -9.125 -63.651  1.00  0.00     0.163 HD
BRANCH  12  15
HETATM   15  C6  UNL     1     -16.321  -6.679 -62.907  1.00  0.00     0.078 C 
HETATM   16  C7  UNL     1     -16.670  -6.326 -64.335  1.00  0.00     0.014 C 
HETATM   17  C8  UNL     1     -18.019  -5.707 -64.476  1.00  0.00     0.001 C 
HETATM   18  C9  UNL     1     -17.993  -4.392 -63.687  1.00  0.00     0.000 C 
HETATM   19  C10 UNL     1     -17.803  -4.759 -62.247  1.00  0.00     0.001 C 
HETATM   20  C11 UNL     1     -16.547  -5.520 -61.968  1.00  0.00     0.014 C 
ENDBRANCH  12  15
ENDBRANCH   3  11
BRANCH   1  21
HETATM   21  O1  UNL     1     -20.256 -12.120 -62.789  1.00  0.00    -0.390 OA
HETATM   22  C1  UNL     1     -20.756 -13.382 -63.016  1.00  0.00     0.202 C 
ENDBRANCH   1  21
TORSDOF 3
ENDMDL
MODEL 2
REMARK VINA RESULT: -7.092339377      1.428      1.830
REMARK  3 active torsions:
REMARK  status: ('A' for Active; 'I' for Inactive)
REMARK    1  A    between atoms: O1_2  and  C2_3 
REMARK    2  A    between atoms: C4_5  and  N1_6 
REMARK       I    between atoms: N1_6  and  C5_8 
REMARK    3  A    between atoms: C5_8  and  C6_10 
ROOT
HETATM    1  C2  UNL     1     -19.567 -10.871 -60.991  1.00  0.00     0.128 C 
HETATM    2  C3  UNL     1     -18.812  -9.650 -61.370  1.00  0.00     0.063 C 
HETATM    3  C4  UNL     1     -17.798 -10.019 -62.504  1.00  0.00     0.039 C 
HETATM    4  C12 UNL     1     -18.641 -10.650 -63.584  1.00  0.00     0.036 C 
HETATM    5  C13 UNL     1     -19.138 -12.020 -63.185  1.00  0.00    -0.005 C 
HETATM    6  C14 UNL     1     -17.930 -12.968 -63.104  1.00  0.00     0.010 C 
HETATM    7  C15 UNL     1     -17.668 -12.333 -61.758  1.00  0.00    -0.001 C 
HETATM    8  C16 UNL     1     -19.160 -12.105 -61.695  1.00  0.00     0.023 C 
HETATM    9  C17 UNL     1     -16.914 -11.004 -61.883  1.00  0.00     0.014 C 
HETATM   10  C18 UNL     1     -15.583 -11.301 -62.447  1.00  0.00     0.013 C 
ENDROOT
BRANCH   3  11
HETATM   11  N1  UNL     1     -17.284  -8.793 -62.992  1.00  0.00    -0.351 N 
HETATM   12  C5  UNL     1     -16.609  -7.755 -62.359  1.00  0.00     0.222 C 
HETATM   13  O2  UNL     1     -16.346  -7.798 -61.146  1.00  0.00    -0.273 OA
ATOM     14  H1  UNL     1     -17.435  -8.644 -63.990  1.00  0.00     0.163 HD
BRANCH  12  15
HETATM   15  C6  UNL     1     -16.179  -6.551 -63.106  1.00  0.00     0.078 C 
HETATM   16  C7  UNL     1     -16.973  -6.361 -64.378  1.00  0.00     0.014 C 
HETATM   17  C8  UNL     1     -18.332  -5.793 -64.146  1.00  0.00     0.001 C 
HETATM   18  C9  UNL     1     -18.136  -4.401 -63.533  1.00  0.00     0.000 C 
HETATM   19  C10 UNL     1     -17.488  -4.606 -62.198  1.00  0.00     0.001 C 
HETATM   20  C11 UNL     1     -16.166  -5.303 -62.258  1.00  0.00     0.014 C 
ENDBRANCH  12  15
ENDBRANCH   3  11
BRANCH   1  21
HETATM   21  O1  UNL     1     -19.561 -11.129 -59.625  1.00  0.00    -0.390 OA
HETATM   22  C1  UNL     1     -20.271 -12.266 -59.311  1.00  0.00     0.202 C 
ENDBRANCH   1  21
TORSDOF 3
ENDMDL
MODEL 3
REMARK VINA RESULT: -7.067697682      2.302      2.704
REMARK  3 active torsions:
REMARK  status: ('A' for Active; 'I' for Inactive)
REMARK    1  A    between atoms: O1_2  and  C2_3 
REMARK    2  A    between atoms: C4_5  and  N1_6 
REMARK       I    between atoms: N1_6  and  C5_8 
REMARK    3  A    between atoms: C5_8  and  C6_10 
ROOT
HETATM    1  C2  UNL     1     -18.704 -10.829 -60.257  1.00  0.00     0.128 C 
HETATM    2  C3  UNL     1     -18.394  -9.506 -60.855  1.00  0.00     0.063 C 
HETATM    3  C4  UNL     1     -16.991  -9.039 -60.342  1.00  0.00     0.039 C 
HETATM    4  C12 UNL     1     -16.057 -10.170 -60.691  1.00  0.00     0.036 C 
HETATM    5  C13 UNL     1     -16.291 -11.385 -59.825  1.00  0.00    -0.005 C 
HETATM    6  C14 UNL     1     -15.877 -11.040 -58.385  1.00  0.00     0.010 C 
HETATM    7  C15 UNL     1     -17.211 -10.336 -58.293  1.00  0.00    -0.001 C 
HETATM    8  C16 UNL     1     -17.692 -11.343 -59.311  1.00  0.00     0.023 C 
HETATM    9  C17 UNL     1     -17.164  -8.926 -58.894  1.00  0.00     0.014 C 
HETATM   10  C18 UNL     1     -16.235  -8.125 -58.072  1.00  0.00     0.013 C 
ENDROOT
BRANCH   3  11
HETATM   11  N1  UNL     1     -16.640  -7.907 -61.117  1.00  0.00    -0.351 N 
HETATM   12  C5  UNL     1     -16.550  -7.718 -62.492  1.00  0.00     0.222 C 
HETATM   13  O2  UNL     1     -16.808  -8.635 -63.290  1.00  0.00    -0.273 OA
ATOM     14  H1  UNL     1     -16.411  -7.079 -60.567  1.00  0.00     0.163 HD
BRANCH  12  15
HETATM   15  C6  UNL     1     -16.142  -6.415 -63.063  1.00  0.00     0.078 C 
HETATM   16  C7  UNL     1     -16.789  -6.157 -64.404  1.00  0.00     0.014 C 
HETATM   17  C8  UNL     1     -18.212  -5.723 -64.298  1.00  0.00     0.001 C 
HETATM   18  C9  UNL     1     -18.217  -4.390 -63.540  1.00  0.00     0.000 C 
HETATM   19  C10 UNL     1     -17.720  -4.680 -62.157  1.00  0.00     0.001 C 
HETATM   20  C11 UNL     1     -16.343  -5.263 -62.109  1.00  0.00     0.014 C 
ENDBRANCH  12  15
ENDBRANCH   3  11
BRANCH   1  21
HETATM   21  O1  UNL     1     -19.946 -10.883 -59.636  1.00  0.00    -0.390 OA
HETATM   22  C1  UNL     1     -20.259 -12.156 -59.215  1.00  0.00     0.202 C 
ENDBRANCH   1  21
TORSDOF 3
ENDMDL
MODEL 4
REMARK VINA RESULT: -7.033219028      2.172      3.618
REMARK  3 active torsions:
REMARK  status: ('A' for Active; 'I' for Inactive)
REMARK    1  A    between atoms: O1_2  and  C2_3 
REMARK    2  A    between atoms: C4_5  and  N1_6 
REMARK       I    between atoms: N1_6  and  C5_8 
REMARK    3  A    between atoms: C5_8  and  C6_10 
ROOT
HETATM    1  C2  UNL     1     -17.761  -9.584 -57.992  1.00  0.00     0.128 C 
HETATM    2  C3  UNL     1     -17.082  -8.589 -58.859  1.00  0.00     0.063 C 
HETATM    3  C4  UNL     1     -17.125  -9.100 -60.338  1.00  0.00     0.039 C 
HETATM    4  C12 UNL     1     -18.585  -9.348 -60.618  1.00  0.00     0.036 C 
HETATM    5  C13 UNL     1     -19.105 -10.559 -59.879  1.00  0.00    -0.005 C 
HETATM    6  C14 UNL     1     -18.433 -11.810 -60.469  1.00  0.00     0.010 C 
HETATM    7  C15 UNL     1     -17.240 -11.425 -59.625  1.00  0.00    -0.001 C 
HETATM    8  C16 UNL     1     -18.242 -10.797 -58.685  1.00  0.00     0.023 C 
HETATM    9  C17 UNL     1     -16.375 -10.355 -60.301  1.00  0.00     0.014 C 
HETATM   10  C18 UNL     1     -15.816 -10.948 -61.531  1.00  0.00     0.013 C 
ENDROOT
BRANCH   3  11
HETATM   11  N1  UNL     1     -16.688  -8.020 -61.144  1.00  0.00    -0.351 N 
HETATM   12  C5  UNL     1     -16.784  -7.788 -62.512  1.00  0.00     0.222 C 
HETATM   13  O2  UNL     1     -17.341  -8.600 -63.269  1.00  0.00    -0.273 OA
ATOM     14  H1  UNL     1     -16.216  -7.278 -60.628  1.00  0.00     0.163 HD
BRANCH  12  15
HETATM   15  C6  UNL     1     -16.225  -6.561 -63.124  1.00  0.00     0.078 C 
HETATM   16  C7  UNL     1     -16.866  -6.251 -64.457  1.00  0.00     0.014 C 
HETATM   17  C8  UNL     1     -18.217  -5.634 -64.332  1.00  0.00     0.001 C 
HETATM   18  C9  UNL     1     -18.033  -4.295 -63.607  1.00  0.00     0.000 C 
HETATM   19  C10 UNL     1     -17.544  -4.617 -62.228  1.00  0.00     0.001 C 
HETATM   20  C11 UNL     1     -16.253  -5.372 -62.195  1.00  0.00     0.014 C 
ENDBRANCH  12  15
ENDBRANCH   3  11
BRANCH   1  21
HETATM   21  O1  UNL     1     -17.003  -9.981 -56.897  1.00  0.00    -0.390 OA
HETATM   22  C1  UNL     1     -17.787 -10.442 -55.864  1.00  0.00     0.202 C 
ENDBRANCH   1  21
TORSDOF 3
ENDMDL
MODEL 5
REMARK VINA RESULT: -7.023610195      2.499      6.949
REMARK  3 active torsions:
REMARK  status: ('A' for Active; 'I' for Inactive)
REMARK    1  A    between atoms: O1_2  and  C2_3 
REMARK    2  A    between atoms: C4_5  and  N1_6 
REMARK       I    between atoms: N1_6  and  C5_8 
REMARK    3  A    between atoms: C5_8  and  C6_10 
ROOT
HETATM    1  C2  UNL     1     -18.293  -9.435 -62.720  1.00  0.00     0.128 C 
HETATM    2  C3  UNL     1     -18.571 -10.824 -63.167  1.00  0.00     0.063 C 
HETATM    3  C4  UNL     1     -18.935 -11.690 -61.915  1.00  0.00     0.039 C 
HETATM    4  C12 UNL     1     -20.075 -10.956 -61.256  1.00  0.00     0.036 C 
HETATM    5  C13 UNL     1     -19.617  -9.676 -60.597  1.00  0.00    -0.005 C 
HETATM    6  C14 UNL     1     -18.719 -10.040 -59.404  1.00  0.00     0.010 C 
HETATM    7  C15 UNL     1     -17.635 -10.259 -60.435  1.00  0.00    -0.001 C 
HETATM    8  C16 UNL     1     -18.359  -9.220 -61.259  1.00  0.00     0.023 C 
HETATM    9  C17 UNL     1     -17.729 -11.643 -61.088  1.00  0.00     0.014 C 
HETATM   10  C18 UNL     1     -17.483 -12.647 -60.036  1.00  0.00     0.013 C 
ENDROOT
BRANCH   3  11
HETATM   11  N1  UNL     1     -19.420 -12.924 -62.413  1.00  0.00    -0.351 N 
HETATM   12  C5  UNL     1     -18.798 -13.947 -63.120  1.00  0.00     0.222 C 
HETATM   13  O2  UNL     1     -17.595 -13.885 -63.424  1.00  0.00    -0.273 OA
ATOM     14  H1  UNL     1     -20.408 -13.094 -62.217  1.00  0.00     0.163 HD
BRANCH  12  15
HETATM   15  C6  UNL     1     -19.544 -15.153 -63.543  1.00  0.00     0.078 C 
HETATM   16  C7  UNL     1     -18.851 -16.426 -63.113  1.00  0.00     0.014 C 
HETATM   17  C8  UNL     1     -19.049 -16.747 -61.671  1.00  0.00     0.001 C 
HETATM   18  C9  UNL     1     -20.552 -16.969 -61.463  1.00  0.00     0.000 C 
HETATM   19  C10 UNL     1     -21.222 -15.658 -61.740  1.00  0.00     0.001 C 
HETATM   20  C11 UNL     1     -20.993 -15.130 -63.120  1.00  0.00     0.014 C 
ENDBRANCH  12  15
ENDBRANCH   3  11
BRANCH   1  21
HETATM   21  O1  UNL     1     -17.080  -8.934 -63.177  1.00  0.00    -0.390 OA
HETATM   22  C1  UNL     1     -16.906  -7.611 -62.838  1.00  0.00     0.202 C 
ENDBRANCH   1  21
TORSDOF 3
ENDMDL
