MODEL 1
REMARK VINA RESULT: -7.324362927      0.000      0.000
REMARK  3 active torsions:
REMARK  status: ('A' for Active; 'I' for Inactive)
REMARK       I    between atoms: C1_2  and  N1_3 
REMARK    1  A    between atoms: C1_2  and  C14_18 
REMARK    2  A    between atoms: N1_3  and  C2_5 
REMARK    3  A    between atoms: N2_8  and  C5_9 
ROOT
HETATM    1  C2  UNL     1     -18.155 -10.250 -62.856  1.00  0.00     0.087 C 
HETATM    2  C3  UNL     1     -19.142 -10.473 -61.740  1.00  0.00     0.055 C 
HETATM    3  C4  UNL     1     -19.397 -11.952 -61.515  1.00  0.00     0.276 C 
HETATM    4  N2  UNL     1     -18.330 -12.678 -62.092  1.00  0.00     0.103 N 
HETATM    5  C12 UNL     1     -18.226 -12.571 -63.531  1.00  0.00     0.276 C 
HETATM    6  C13 UNL     1     -18.563 -11.190 -63.981  1.00  0.00     0.055 C 
ENDROOT
BRANCH   1   7
HETATM    7  N1  UNL     1     -18.125  -8.922 -63.353  1.00  0.00    -0.356 N 
HETATM    8  C1  UNL     1     -17.144  -8.006 -62.904  1.00  0.00     0.222 C 
HETATM    9  O1  UNL     1     -16.272  -8.357 -62.046  1.00  0.00    -0.273 OA
ATOM     10  H1  UNL     1     -18.817  -8.624 -64.041  1.00  0.00     0.162 HD
BRANCH   8  11
HETATM   11  C14 UNL     1     -17.056  -6.614 -63.378  1.00  0.00     0.078 C 
HETATM   12  C15 UNL     1     -17.844  -6.417 -64.679  1.00  0.00     0.014 C 
HETATM   13  C16 UNL     1     -17.767  -4.890 -64.787  1.00  0.00     0.001 C 
HETATM   14  C17 UNL     1     -17.800  -4.386 -63.355  1.00  0.00     0.001 C 
HETATM   15  C18 UNL     1     -17.766  -5.634 -62.474  1.00  0.00     0.014 C 
ENDBRANCH   8  11
ENDBRANCH   1   7
BRANCH   4  16
HETATM   16  C5  UNL     1     -18.336 -14.116 -61.822  1.00  0.00     0.288 C 
HETATM   17  C6  UNL     1     -19.399 -14.894 -62.314  1.00  0.00    -0.148 C 
HETATM   18  C7  UNL     1     -20.513 -15.660 -62.696  1.00  0.00     0.082 C 
HETATM   19  C8  UNL     1     -21.148 -16.222 -61.382  1.00  0.00     0.011 C 
HETATM   20  C9  UNL     1     -20.149 -16.171 -60.216  1.00  0.00     0.001 C 
HETATM   21  C10 UNL     1     -19.586 -14.930 -59.758  1.00  0.00     0.003 C 
HETATM   22  C11 UNL     1     -18.276 -14.368 -60.278  1.00  0.00     0.048 C 
ENDBRANCH   4  16
TORSDOF 3
ENDMDL
MODEL 2
REMARK VINA RESULT: -7.223689894      0.948      1.001
REMARK  3 active torsions:
REMARK  status: ('A' for Active; 'I' for Inactive)
REMARK       I    between atoms: C1_2  and  N1_3 
REMARK    1  A    between atoms: C1_2  and  C14_18 
REMARK    2  A    between atoms: N1_3  and  C2_5 
REMARK    3  A    between atoms: N2_8  and  C5_9 
ROOT
HETATM    1  C2  UNL     1     -17.885 -10.423 -62.707  1.00  0.00     0.087 C 
HETATM    2  C3  UNL     1     -19.194 -11.141 -62.908  1.00  0.00     0.055 C 
HETATM    3  C4  UNL     1     -19.078 -12.611 -62.550  1.00  0.00     0.276 C 
HETATM    4  N2  UNL     1     -17.938 -12.779 -61.732  1.00  0.00     0.103 N 
HETATM    5  C12 UNL     1     -16.675 -12.490 -62.375  1.00  0.00     0.276 C 
HETATM    6  C13 UNL     1     -16.809 -11.324 -63.296  1.00  0.00     0.055 C 
ENDROOT
BRANCH   1   7
HETATM    7  N1  UNL     1     -17.814  -9.152 -63.333  1.00  0.00    -0.356 N 
HETATM    8  C1  UNL     1     -17.157  -8.071 -62.699  1.00  0.00     0.222 C 
HETATM    9  O1  UNL     1     -16.618  -8.220 -61.556  1.00  0.00    -0.273 OA
ATOM     10  H1  UNL     1     -18.241  -9.016 -64.250  1.00  0.00     0.162 HD
BRANCH   8  11
HETATM   11  C14 UNL     1     -17.046  -6.728 -63.291  1.00  0.00     0.078 C 
HETATM   12  C15 UNL     1     -17.862  -6.620 -64.586  1.00  0.00     0.014 C 
HETATM   13  C16 UNL     1     -17.750  -5.110 -64.825  1.00  0.00     0.001 C 
HETATM   14  C17 UNL     1     -17.734  -4.486 -63.441  1.00  0.00     0.001 C 
HETATM   15  C18 UNL     1     -17.708  -5.655 -62.458  1.00  0.00     0.014 C 
ENDBRANCH   8  11
ENDBRANCH   1   7
BRANCH   4  16
HETATM   16  C5  UNL     1     -17.771 -14.117 -61.161  1.00  0.00     0.288 C 
HETATM   17  C6  UNL     1     -18.201 -15.229 -61.906  1.00  0.00    -0.148 C 
HETATM   18  C7  UNL     1     -18.734 -16.337 -62.586  1.00  0.00     0.082 C 
HETATM   19  C8  UNL     1     -19.834 -16.951 -61.659  1.00  0.00     0.011 C 
HETATM   20  C9  UNL     1     -19.658 -16.486 -60.206  1.00  0.00     0.001 C 
HETATM   21  C10 UNL     1     -19.719 -15.096 -59.845  1.00  0.00     0.003 C 
HETATM   22  C11 UNL     1     -18.497 -14.199 -59.777  1.00  0.00     0.048 C 
ENDBRANCH   4  16
TORSDOF 3
ENDMDL
MODEL 3
REMARK VINA RESULT: -7.181447282      0.908      1.212
REMARK  3 active torsions:
REMARK  status: ('A' for Active; 'I' for Inactive)
REMARK       I    between atoms: C1_2  and  N1_3 
REMARK    1  A    between atoms: C1_2  and  C14_18 
REMARK    2  A    between atoms: N1_3  and  C2_5 
REMARK    3  A    between atoms: N2_8  and  C5_9 
ROOT
HETATM    1  C2  UNL     1     -18.282 -10.158 -62.378  1.00  0.00     0.087 C 
HETATM    2  C3  UNL     1     -19.324 -10.139 -61.291  1.00  0.00     0.055 C 
HETATM    3  C4  UNL     1     -19.619 -11.539 -60.784  1.00  0.00     0.276 C 
HETATM    4  N2  UNL     1     -18.542 -12.378 -61.149  1.00  0.00     0.103 N 
HETATM    5  C12 UNL     1     -18.370 -12.567 -62.573  1.00  0.00     0.276 C 
HETATM    6  C13 UNL     1     -18.657 -11.302 -63.309  1.00  0.00     0.055 C 
ENDROOT
BRANCH   1   7
HETATM    7  N1  UNL     1     -18.202  -8.959 -63.132  1.00  0.00    -0.356 N 
HETATM    8  C1  UNL     1     -17.262  -7.956 -62.794  1.00  0.00     0.222 C 
HETATM    9  O1  UNL     1     -16.472  -8.112 -61.809  1.00  0.00    -0.273 OA
ATOM     10  H1  UNL     1     -18.828  -8.818 -63.925  1.00  0.00     0.162 HD
BRANCH   8  11
HETATM   11  C14 UNL     1     -17.126  -6.689 -63.533  1.00  0.00     0.078 C 
HETATM   12  C15 UNL     1     -18.047  -6.657 -64.759  1.00  0.00     0.014 C 
HETATM   13  C16 UNL     1     -17.868  -5.190 -65.166  1.00  0.00     0.001 C 
HETATM   14  C17 UNL     1     -17.690  -4.433 -63.861  1.00  0.00     0.001 C 
HETATM   15  C18 UNL     1     -17.645  -5.496 -62.766  1.00  0.00     0.014 C 
ENDBRANCH   8  11
ENDBRANCH   1   7
BRANCH   4  16
HETATM   16  C5  UNL     1     -18.590 -13.731 -60.594  1.00  0.00     0.288 C 
HETATM   17  C6  UNL     1     -18.092 -14.797 -61.364  1.00  0.00    -0.148 C 
HETATM   18  C7  UNL     1     -17.710 -15.883 -62.169  1.00  0.00     0.082 C 
HETATM   19  C8  UNL     1     -18.979 -16.777 -62.356  1.00  0.00     0.011 C 
HETATM   20  C9  UNL     1     -20.034 -16.474 -61.281  1.00  0.00     0.001 C 
HETATM   21  C10 UNL     1     -20.619 -15.168 -61.143  1.00  0.00     0.003 C 
HETATM   22  C11 UNL     1     -20.063 -14.101 -60.219  1.00  0.00     0.048 C 
ENDBRANCH   4  16
TORSDOF 3
ENDMDL
MODEL 4
REMARK VINA RESULT: -7.128742018      4.853      6.075
REMARK  3 active torsions:
REMARK  status: ('A' for Active; 'I' for Inactive)
REMARK       I    between atoms: C1_2  and  N1_3 
REMARK    1  A    between atoms: C1_2  and  C14_18 
REMARK    2  A    between atoms: N1_3  and  C2_5 
REMARK    3  A    between atoms: N2_8  and  C5_9 
ROOT
HETATM    1  C2  UNL     1     -16.833  -8.276 -59.590  1.00  0.00     0.087 C 
HETATM    2  C3  UNL     1     -17.900  -9.328 -59.443  1.00  0.00     0.055 C 
HETATM    3  C4  UNL     1     -17.673 -10.176 -58.204  1.00  0.00     0.276 C 
HETATM    4  N2  UNL     1     -16.812  -9.468 -57.335  1.00  0.00     0.103 N 
HETATM    5  C12 UNL     1     -15.475  -9.250 -57.842  1.00  0.00     0.276 C 
HETATM    6  C13 UNL     1     -15.508  -8.969 -59.307  1.00  0.00     0.055 C 
ENDROOT
BRANCH   1   7
HETATM    7  N1  UNL     1     -16.774  -7.680 -60.876  1.00  0.00    -0.356 N 
HETATM    8  C1  UNL     1     -16.743  -6.271 -61.017  1.00  0.00     0.222 C 
HETATM    9  O1  UNL     1     -16.766  -5.516 -59.993  1.00  0.00    -0.273 OA
ATOM     10  H1  UNL     1     -16.755  -8.271 -61.707  1.00  0.00     0.162 HD
BRANCH   8  11
HETATM   11  C14 UNL     1     -16.682  -5.588 -62.319  1.00  0.00     0.078 C 
HETATM   12  C15 UNL     1     -16.553  -6.592 -63.472  1.00  0.00     0.014 C 
HETATM   13  C16 UNL     1     -16.749  -5.639 -64.656  1.00  0.00     0.001 C 
HETATM   14  C17 UNL     1     -17.737  -4.594 -64.168  1.00  0.00     0.001 C 
HETATM   15  C18 UNL     1     -17.977  -4.905 -62.692  1.00  0.00     0.014 C 
ENDBRANCH   8  11
ENDBRANCH   1   7
BRANCH   4  16
HETATM   16  C5  UNL     1     -16.620 -10.074 -56.017  1.00  0.00     0.288 C 
HETATM   17  C6  UNL     1     -15.492  -9.709 -55.261  1.00  0.00    -0.148 C 
HETATM   18  C7  UNL     1     -14.310  -9.442 -54.549  1.00  0.00     0.082 C 
HETATM   19  C8  UNL     1     -13.555 -10.804 -54.401  1.00  0.00     0.011 C 
HETATM   20  C9  UNL     1     -14.502 -11.992 -54.630  1.00  0.00     0.001 C 
HETATM   21  C10 UNL     1     -15.192 -12.179 -55.877  1.00  0.00     0.003 C 
HETATM   22  C11 UNL     1     -16.582 -11.633 -56.149  1.00  0.00     0.048 C 
ENDBRANCH   4  16
TORSDOF 3
ENDMDL
MODEL 5
REMARK VINA RESULT: -7.107999479      4.930      6.125
REMARK  3 active torsions:
REMARK  status: ('A' for Active; 'I' for Inactive)
REMARK       I    between atoms: C1_2  and  N1_3 
REMARK    1  A    between atoms: C1_2  and  C14_18 
REMARK    2  A    between atoms: N1_3  and  C2_5 
REMARK    3  A    between atoms: N2_8  and  C5_9 
ROOT
HETATM    1  C2  UNL     1     -16.504  -8.776 -60.457  1.00  0.00     0.087 C 
HETATM    2  C3  UNL     1     -17.565  -9.513 -59.683  1.00  0.00     0.055 C 
HETATM    3  C4  UNL     1     -16.953 -10.409 -58.622  1.00  0.00     0.276 C 
HETATM    4  N2  UNL     1     -15.634  -9.966 -58.375  1.00  0.00     0.103 N 
HETATM    5  C12 UNL     1     -14.724 -10.099 -59.492  1.00  0.00     0.276 C 
HETATM    6  C13 UNL     1     -15.421  -9.798 -60.776  1.00  0.00     0.055 C 
ENDROOT
BRANCH   1   7
HETATM    7  N1  UNL     1     -16.960  -8.197 -61.668  1.00  0.00    -0.356 N 
HETATM    8  C1  UNL     1     -17.067  -6.791 -61.800  1.00  0.00     0.222 C 
HETATM    9  O1  UNL     1     -16.755  -6.023 -60.835  1.00  0.00    -0.273 OA
ATOM     10  H1  UNL     1     -17.214  -8.799 -62.452  1.00  0.00     0.162 HD
BRANCH   8  11
HETATM   11  C14 UNL     1     -17.533  -6.125 -63.028  1.00  0.00     0.078 C 
HETATM   12  C15 UNL     1     -16.359  -5.555 -63.834  1.00  0.00     0.014 C 
HETATM   13  C16 UNL     1     -17.105  -5.156 -65.112  1.00  0.00     0.001 C 
HETATM   14  C17 UNL     1     -18.195  -6.200 -65.281  1.00  0.00     0.001 C 
HETATM   15  C18 UNL     1     -18.121  -7.083 -64.037  1.00  0.00     0.014 C 
ENDBRANCH   8  11
ENDBRANCH   1   7
BRANCH   4  16
HETATM   16  C5  UNL     1     -14.954 -10.621 -57.257  1.00  0.00     0.288 C 
HETATM   17  C6  UNL     1     -15.452 -10.430 -55.955  1.00  0.00    -0.148 C 
HETATM   18  C7  UNL     1     -15.867 -10.153 -54.642  1.00  0.00     0.082 C 
HETATM   19  C8  UNL     1     -14.662  -9.460 -53.925  1.00  0.00     0.011 C 
HETATM   20  C9  UNL     1     -13.345  -9.725 -54.669  1.00  0.00     0.001 C 
HETATM   21  C10 UNL     1     -13.149  -9.308 -56.031  1.00  0.00     0.003 C 
HETATM   22  C11 UNL     1     -13.448 -10.195 -57.225  1.00  0.00     0.048 C 
ENDBRANCH   4  16
TORSDOF 3
ENDMDL
