MODEL 1
REMARK VINA RESULT: -7.422100374      0.000      0.000
REMARK  3 active torsions:
REMARK  status: ('A' for Active; 'I' for Inactive)
REMARK    1  A    between atoms: C1_2  and  C2_3 
REMARK       I    between atoms: C1_2  and  N1_9 
REMARK    2  A    between atoms: N1_9  and  C8_10 
REMARK    3  A    between atoms: N1_9  and  C14_16 
ROOT
HETATM    1  O1  UNL     1     -18.168  -7.992 -64.036  1.00  0.00    -0.273 OA
HETATM    2  C1  UNL     1     -17.501  -8.168 -62.953  1.00  0.00     0.224 C 
HETATM    3  N1  UNL     1     -17.769  -9.346 -62.211  1.00  0.00    -0.342 N 
ENDROOT
BRANCH   3   4
HETATM    4  C8  UNL     1     -18.814 -10.273 -62.691  1.00  0.00     0.087 C 
HETATM    5  C9  UNL     1     -19.714 -10.592 -61.552  1.00  0.00     0.025 C 
HETATM    6  C10 UNL     1     -20.145 -12.046 -61.543  1.00  0.00     0.002 C 
HETATM    7  C11 UNL     1     -20.576 -12.363 -62.956  1.00  0.00     0.000 C 
HETATM    8  C12 UNL     1     -19.406 -12.327 -63.873  1.00  0.00     0.002 C 
HETATM    9  C13 UNL     1     -18.275 -11.434 -63.437  1.00  0.00     0.025 C 
ENDBRANCH   3   4
BRANCH   3  10
HETATM   10  C14 UNL     1     -17.072  -9.761 -61.015  1.00  0.00     0.090 C 
HETATM   11  C15 UNL     1     -17.315  -8.932 -59.794  1.00  0.00     0.053 C 
HETATM   12  C16 UNL     1     -16.898  -9.839 -58.611  1.00  0.00     0.234 C 
HETATM   13  N2  UNL     1     -15.523 -10.245 -58.774  1.00  0.00    -0.075 N 
HETATM   14  C17 UNL     1     -14.869  -9.636 -59.903  1.00  0.00     0.234 C 
ATOM     15  H22 UNL     1     -14.995 -10.077 -57.919  1.00  0.00     0.277 HD
ATOM     16  H21 UNL     1     -15.451 -11.262 -58.823  1.00  0.00     0.277 HD
HETATM   17  C18 UNL     1     -15.586  -9.971 -61.213  1.00  0.00     0.053 C 
ENDBRANCH   3  10
BRANCH   2  18
HETATM   18  C2  UNL     1     -16.549  -7.101 -62.640  1.00  0.00     0.078 C 
HETATM   19  C3  UNL     1     -16.213  -6.206 -63.805  1.00  0.00     0.014 C 
HETATM   20  C4  UNL     1     -17.277  -5.294 -64.281  1.00  0.00     0.001 C 
HETATM   21  C5  UNL     1     -18.032  -4.585 -63.154  1.00  0.00     0.000 C 
HETATM   22  C6  UNL     1     -17.151  -4.778 -61.928  1.00  0.00     0.001 C 
HETATM   23  C7  UNL     1     -17.181  -6.220 -61.554  1.00  0.00     0.014 C 
ENDBRANCH   2  18
TORSDOF 3
ENDMDL
MODEL 2
REMARK VINA RESULT: -7.286132201      1.833      5.298
REMARK  3 active torsions:
REMARK  status: ('A' for Active; 'I' for Inactive)
REMARK    1  A    between atoms: C1_2  and  C2_3 
REMARK       I    between atoms: C1_2  and  N1_9 
REMARK    2  A    between atoms: N1_9  and  C8_10 
REMARK    3  A    between atoms: N1_9  and  C14_16 
ROOT
HETATM    1  O1  UNL     1     -16.713  -7.225 -59.814  1.00  0.00    -0.273 OA
HETATM    2  C1  UNL     1     -16.939  -8.362 -60.367  1.00  0.00     0.224 C 
HETATM    3  N1  UNL     1     -17.206  -8.364 -61.760  1.00  0.00    -0.342 N 
ENDROOT
BRANCH   3   4
HETATM    4  C8  UNL     1     -17.252  -7.076 -62.483  1.00  0.00     0.087 C 
HETATM    5  C9  UNL     1     -18.311  -7.162 -63.523  1.00  0.00     0.025 C 
HETATM    6  C10 UNL     1     -17.909  -6.481 -64.816  1.00  0.00     0.002 C 
HETATM    7  C11 UNL     1     -17.346  -5.134 -64.422  1.00  0.00     0.000 C 
HETATM    8  C12 UNL     1     -16.070  -5.305 -63.679  1.00  0.00     0.002 C 
HETATM    9  C13 UNL     1     -15.923  -6.612 -62.945  1.00  0.00     0.025 C 
ENDBRANCH   3   4
BRANCH   3  10
HETATM   10  C14 UNL     1     -17.406  -9.541 -62.575  1.00  0.00     0.090 C 
HETATM   11  C15 UNL     1     -18.567 -10.406 -62.201  1.00  0.00     0.053 C 
HETATM   12  C16 UNL     1     -18.852 -11.252 -63.467  1.00  0.00     0.234 C 
HETATM   13  N2  UNL     1     -17.668 -11.991 -63.831  1.00  0.00    -0.075 N 
HETATM   14  C17 UNL     1     -16.585 -11.849 -62.895  1.00  0.00     0.234 C 
ATOM     15  H22 UNL     1     -17.890 -12.976 -63.977  1.00  0.00     0.277 HD
ATOM     16  H21 UNL     1     -17.364 -11.742 -64.773  1.00  0.00     0.277 HD
HETATM   17  C18 UNL     1     -16.162 -10.386 -62.746  1.00  0.00     0.053 C 
ENDBRANCH   3  10
BRANCH   2  18
HETATM   18  C2  UNL     1     -16.891  -9.506 -59.456  1.00  0.00     0.078 C 
HETATM   19  C3  UNL     1     -15.537 -10.161 -59.352  1.00  0.00     0.014 C 
HETATM   20  C4  UNL     1     -14.474  -9.399 -58.659  1.00  0.00     0.001 C 
HETATM   21  C5  UNL     1     -14.939  -8.729 -57.364  1.00  0.00     0.000 C 
HETATM   22  C6  UNL     1     -16.259  -9.413 -57.036  1.00  0.00     0.001 C 
HETATM   23  C7  UNL     1     -17.263  -9.001 -58.056  1.00  0.00     0.014 C 
ENDBRANCH   2  18
TORSDOF 3
ENDMDL
MODEL 3
REMARK VINA RESULT: -7.174726126      0.880      1.722
REMARK  3 active torsions:
REMARK  status: ('A' for Active; 'I' for Inactive)
REMARK    1  A    between atoms: C1_2  and  C2_3 
REMARK       I    between atoms: C1_2  and  N1_9 
REMARK    2  A    between atoms: N1_9  and  C8_10 
REMARK    3  A    between atoms: N1_9  and  C14_16 
ROOT
HETATM    1  O1  UNL     1     -18.021  -8.260 -63.698  1.00  0.00    -0.273 OA
HETATM    2  C1  UNL     1     -17.136  -8.077 -62.786  1.00  0.00     0.224 C 
HETATM    3  N1  UNL     1     -16.998  -9.089 -61.802  1.00  0.00    -0.342 N 
ENDROOT
BRANCH   3   4
HETATM    4  C8  UNL     1     -17.894 -10.263 -61.852  1.00  0.00     0.087 C 
HETATM    5  C9  UNL     1     -17.689 -10.953 -63.152  1.00  0.00     0.025 C 
HETATM    6  C10 UNL     1     -18.986 -11.466 -63.747  1.00  0.00     0.002 C 
HETATM    7  C11 UNL     1     -19.709 -12.174 -62.624  1.00  0.00     0.000 C 
HETATM    8  C12 UNL     1     -20.135 -11.197 -61.587  1.00  0.00     0.002 C 
HETATM    9  C13 UNL     1     -19.297  -9.949 -61.497  1.00  0.00     0.025 C 
ENDBRANCH   3   4
BRANCH   3  10
HETATM   10  C14 UNL     1     -16.011  -9.106 -60.747  1.00  0.00     0.090 C 
HETATM   11  C15 UNL     1     -15.342 -10.420 -60.496  1.00  0.00     0.053 C 
HETATM   12  C16 UNL     1     -14.045 -10.062 -59.730  1.00  0.00     0.234 C 
HETATM   13  N2  UNL     1     -14.378  -9.340 -58.526  1.00  0.00    -0.075 N 
HETATM   14  C17 UNL     1     -15.793  -9.231 -58.288  1.00  0.00     0.234 C 
ATOM     15  H22 UNL     1     -13.909  -9.751 -57.719  1.00  0.00     0.277 HD
ATOM     16  H21 UNL     1     -13.941  -8.418 -58.527  1.00  0.00     0.277 HD
HETATM   17  C18 UNL     1     -16.501  -8.515 -59.441  1.00  0.00     0.053 C 
ENDBRANCH   3  10
BRANCH   2  18
HETATM   18  C2  UNL     1     -16.391  -6.822 -62.899  1.00  0.00     0.078 C 
HETATM   19  C3  UNL     1     -16.566  -6.113 -64.218  1.00  0.00     0.014 C 
HETATM   20  C4  UNL     1     -17.888  -5.503 -64.482  1.00  0.00     0.001 C 
HETATM   21  C5  UNL     1     -18.466  -4.740 -63.287  1.00  0.00     0.000 C 
HETATM   22  C6  UNL     1     -17.282  -4.548 -62.351  1.00  0.00     0.001 C 
HETATM   23  C7  UNL     1     -16.902  -5.879 -61.801  1.00  0.00     0.014 C 
ENDBRANCH   2  18
TORSDOF 3
ENDMDL
MODEL 4
REMARK VINA RESULT: -6.981422173      1.787      3.931
REMARK  3 active torsions:
REMARK  status: ('A' for Active; 'I' for Inactive)
REMARK    1  A    between atoms: C1_2  and  C2_3 
REMARK       I    between atoms: C1_2  and  N1_9 
REMARK    2  A    between atoms: N1_9  and  C8_10 
REMARK    3  A    between atoms: N1_9  and  C14_16 
ROOT
HETATM    1  O1  UNL     1     -15.612  -7.782 -62.969  1.00  0.00    -0.273 OA
HETATM    2  C1  UNL     1     -16.777  -8.251 -62.701  1.00  0.00     0.224 C 
HETATM    3  N1  UNL     1     -16.844  -9.579 -62.210  1.00  0.00    -0.342 N 
ENDROOT
BRANCH   3   4
HETATM    4  C8  UNL     1     -15.596 -10.357 -62.074  1.00  0.00     0.087 C 
HETATM    5  C9  UNL     1     -15.800 -11.683 -62.714  1.00  0.00     0.025 C 
HETATM    6  C10 UNL     1     -15.149 -12.810 -61.935  1.00  0.00     0.002 C 
HETATM    7  C11 UNL     1     -13.751 -12.338 -61.607  1.00  0.00     0.000 C 
HETATM    8  C12 UNL     1     -13.800 -11.202 -60.649  1.00  0.00     0.002 C 
HETATM    9  C13 UNL     1     -15.060 -10.378 -60.693  1.00  0.00     0.025 C 
ENDBRANCH   3   4
BRANCH   3  10
HETATM   10  C14 UNL     1     -18.046 -10.256 -61.779  1.00  0.00     0.090 C 
HETATM   11  C15 UNL     1     -19.017 -10.617 -62.858  1.00  0.00     0.053 C 
HETATM   12  C16 UNL     1     -19.904 -11.723 -62.236  1.00  0.00     0.234 C 
HETATM   13  N2  UNL     1     -20.529 -11.223 -61.035  1.00  0.00    -0.075 N 
HETATM   14  C17 UNL     1     -20.267  -9.831 -60.782  1.00  0.00     0.234 C 
ATOM     15  H22 UNL     1     -21.532 -11.404 -61.051  1.00  0.00     0.277 HD
ATOM     16  H21 UNL     1     -20.265 -11.791 -60.230  1.00  0.00     0.277 HD
HETATM   17  C18 UNL     1     -18.767  -9.560 -60.644  1.00  0.00     0.053 C 
ENDBRANCH   3  10
BRANCH   2  18
HETATM   18  C2  UNL     1     -17.882  -7.325 -62.953  1.00  0.00     0.078 C 
HETATM   19  C3  UNL     1     -17.551  -5.877 -62.695  1.00  0.00     0.014 C 
HETATM   20  C4  UNL     1     -16.618  -5.223 -63.638  1.00  0.00     0.001 C 
HETATM   21  C5  UNL     1     -16.902  -5.541 -65.109  1.00  0.00     0.000 C 
HETATM   22  C6  UNL     1     -18.309  -6.122 -65.105  1.00  0.00     0.001 C 
HETATM   23  C7  UNL     1     -18.264  -7.450 -64.434  1.00  0.00     0.014 C 
ENDBRANCH   2  18
TORSDOF 3
ENDMDL
MODEL 5
REMARK VINA RESULT: -6.953851677      1.796      5.746
REMARK  3 active torsions:
REMARK  status: ('A' for Active; 'I' for Inactive)
REMARK    1  A    between atoms: C1_2  and  C2_3 
REMARK       I    between atoms: C1_2  and  N1_9 
REMARK    2  A    between atoms: N1_9  and  C8_10 
REMARK    3  A    between atoms: N1_9  and  C14_16 
ROOT
HETATM    1  O1  UNL     1     -17.785 -10.701 -60.147  1.00  0.00    -0.273 OA
HETATM    2  C1  UNL     1     -18.011  -9.734 -60.962  1.00  0.00     0.224 C 
HETATM    3  N1  UNL     1     -17.210  -8.572 -60.828  1.00  0.00    -0.342 N 
ENDROOT
BRANCH   3   4
HETATM    4  C8  UNL     1     -16.202  -8.517 -59.750  1.00  0.00     0.087 C 
HETATM    5  C9  UNL     1     -15.117  -9.481 -60.074  1.00  0.00     0.025 C 
HETATM    6  C10 UNL     1     -14.609 -10.215 -58.848  1.00  0.00     0.002 C 
HETATM    7  C11 UNL     1     -14.388  -9.159 -57.790  1.00  0.00     0.000 C 
HETATM    8  C12 UNL     1     -15.687  -8.575 -57.362  1.00  0.00     0.002 C 
HETATM    9  C13 UNL     1     -16.785  -8.627 -58.392  1.00  0.00     0.025 C 
ENDBRANCH   3   4
BRANCH   3  10
HETATM   10  C14 UNL     1     -17.256  -7.416 -61.694  1.00  0.00     0.090 C 
HETATM   11  C15 UNL     1     -16.432  -7.497 -62.940  1.00  0.00     0.053 C 
HETATM   12  C16 UNL     1     -17.032  -6.424 -63.881  1.00  0.00     0.234 C 
HETATM   13  N2  UNL     1     -16.986  -5.135 -63.235  1.00  0.00    -0.075 N 
HETATM   14  C17 UNL     1     -16.314  -5.147 -61.963  1.00  0.00     0.234 C 
ATOM     15  H22 UNL     1     -16.571  -4.438 -63.854  1.00  0.00     0.277 HD
ATOM     16  H21 UNL     1     -17.924  -4.745 -63.143  1.00  0.00     0.277 HD
HETATM   17  C18 UNL     1     -16.992  -6.107 -60.982  1.00  0.00     0.053 C 
ENDBRANCH   3  10
BRANCH   2  18
HETATM   18  C2  UNL     1     -19.088  -9.982 -61.922  1.00  0.00     0.078 C 
HETATM   19  C3  UNL     1     -18.615 -10.379 -63.297  1.00  0.00     0.014 C 
HETATM   20  C4  UNL     1     -18.006 -11.720 -63.437  1.00  0.00     0.001 C 
HETATM   21  C5  UNL     1     -18.770 -12.825 -62.702  1.00  0.00     0.000 C 
HETATM   22  C6  UNL     1     -20.127 -12.208 -62.398  1.00  0.00     0.001 C 
HETATM   23  C7  UNL     1     -19.937 -11.139 -61.379  1.00  0.00     0.014 C 
ENDBRANCH   2  18
TORSDOF 3
ENDMDL
