MODEL 1
REMARK VINA RESULT: -6.133152583      0.000      0.000
REMARK  1 active torsions:
REMARK  status: ('A' for Active; 'I' for Inactive)
REMARK    1  A    between atoms: C4_4  and  N1_5 
ROOT
HETATM    1  N1  UNL     1      -8.099   9.364  11.019  1.00  0.00    -0.400 N 
HETATM    2  C5  UNL     1      -7.268   9.470  12.138  1.00  0.00     0.080 C 
HETATM    3  C6  UNL     1      -7.062  10.936  12.554  1.00  0.00     0.029 C 
HETATM    4  C7  UNL     1      -6.604  11.698  11.337  1.00  0.00    -0.010 C 
HETATM    5  C8  UNL     1      -5.278  11.209  10.862  1.00  0.00     0.009 C 
HETATM    6  C9  UNL     1      -5.435   9.736  10.497  1.00  0.00    -0.010 C 
HETATM    7  C10 UNL     1      -5.871   8.999  11.737  1.00  0.00     0.029 C 
HETATM    8  C11 UNL     1      -6.415   9.659   9.372  1.00  0.00     0.029 C 
HETATM    9  C12 UNL     1      -7.780  10.141   9.882  1.00  0.00     0.080 C 
HETATM   10  C13 UNL     1      -7.667  11.596  10.280  1.00  0.00     0.029 C 
ENDROOT
BRANCH   1  11
HETATM   11  C4  UNL     1      -9.271   8.625  11.027  1.00  0.00     0.080 C 
HETATM   12  C3  UNL     1     -10.391   9.394  11.662  1.00  0.00     0.025 C 
HETATM   13  C2  UNL     1     -11.741   9.128  11.068  1.00  0.00     0.002 C 
HETATM   14  C1  UNL     1     -11.982   7.714  10.648  1.00  0.00     0.000 C 
HETATM   15  C15 UNL     1     -10.790   7.015  10.069  1.00  0.00     0.002 C 
HETATM   16  C14 UNL     1      -9.763   8.081   9.713  1.00  0.00     0.025 C 
ENDBRANCH   1  11
TORSDOF 1
ENDMDL
MODEL 2
REMARK VINA RESULT: -6.096775612      0.108      2.123
REMARK  1 active torsions:
REMARK  status: ('A' for Active; 'I' for Inactive)
REMARK    1  A    between atoms: C4_4  and  N1_5 
ROOT
HETATM    1  N1  UNL     1      -8.161   9.408  11.024  1.00  0.00    -0.400 N 
HETATM    2  C5  UNL     1      -7.767  10.105   9.878  1.00  0.00     0.080 C 
HETATM    3  C6  UNL     1      -6.363   9.683   9.414  1.00  0.00     0.029 C 
HETATM    4  C7  UNL     1      -5.433   9.803  10.593  1.00  0.00    -0.010 C 
HETATM    5  C8  UNL     1      -5.315  11.220  11.044  1.00  0.00     0.009 C 
HETATM    6  C9  UNL     1      -6.706  11.689  11.457  1.00  0.00    -0.010 C 
HETATM    7  C10 UNL     1      -7.605  11.578  10.252  1.00  0.00     0.029 C 
HETATM    8  C11 UNL     1      -7.136  10.845  12.612  1.00  0.00     0.029 C 
HETATM    9  C12 UNL     1      -7.278   9.395  12.128  1.00  0.00     0.080 C 
HETATM   10  C13 UNL     1      -5.922   8.892  11.684  1.00  0.00     0.029 C 
ENDROOT
BRANCH   1  11
HETATM   11  C4  UNL     1      -9.316   8.645  11.072  1.00  0.00     0.080 C 
HETATM   12  C3  UNL     1     -10.448   9.413  11.688  1.00  0.00     0.025 C 
HETATM   13  C2  UNL     1     -11.797   9.094  11.118  1.00  0.00     0.002 C 
HETATM   14  C1  UNL     1     -12.010   7.661  10.756  1.00  0.00     0.000 C 
HETATM   15  C15 UNL     1     -10.808   6.966  10.193  1.00  0.00     0.002 C 
HETATM   16  C14 UNL     1      -9.809   8.040   9.785  1.00  0.00     0.025 C 
ENDBRANCH   1  11
TORSDOF 1
ENDMDL
MODEL 3
REMARK VINA RESULT: -6.065192884      1.872      4.938
REMARK  1 active torsions:
REMARK  status: ('A' for Active; 'I' for Inactive)
REMARK    1  A    between atoms: C4_4  and  N1_5 
ROOT
HETATM    1  N1  UNL     1      -8.970   9.318   9.495  1.00  0.00    -0.400 N 
HETATM    2  C5  UNL     1      -8.885   9.866   8.212  1.00  0.00     0.080 C 
HETATM    3  C6  UNL     1     -10.081  10.784   7.908  1.00  0.00     0.029 C 
HETATM    4  C7  UNL     1     -11.341  10.009   8.196  1.00  0.00    -0.010 C 
HETATM    5  C8  UNL     1     -11.472   8.837   7.284  1.00  0.00     0.009 C 
HETATM    6  C9  UNL     1     -10.267   7.933   7.519  1.00  0.00    -0.010 C 
HETATM    7  C10 UNL     1      -9.027   8.729   7.202  1.00  0.00     0.029 C 
HETATM    8  C11 UNL     1     -10.335   7.459   8.934  1.00  0.00     0.029 C 
HETATM    9  C12 UNL     1     -10.172   8.671   9.861  1.00  0.00     0.080 C 
HETATM   10  C13 UNL     1     -11.338   9.612   9.646  1.00  0.00     0.029 C 
ENDROOT
BRANCH   1  11
HETATM   11  C4  UNL     1      -7.976   9.487  10.445  1.00  0.00     0.080 C 
HETATM   12  C3  UNL     1      -6.947  10.475   9.983  1.00  0.00     0.025 C 
HETATM   13  C2  UNL     1      -6.349  11.308  11.077  1.00  0.00     0.002 C 
HETATM   14  C1  UNL     1      -6.135  10.593  12.372  1.00  0.00     0.000 C 
HETATM   15  C15 UNL     1      -7.192   9.592  12.724  1.00  0.00     0.002 C 
HETATM   16  C14 UNL     1      -8.398   9.870  11.838  1.00  0.00     0.025 C 
ENDBRANCH   1  11
TORSDOF 1
ENDMDL
MODEL 4
REMARK VINA RESULT: -6.059189628      1.790      4.911
REMARK  1 active torsions:
REMARK  status: ('A' for Active; 'I' for Inactive)
REMARK    1  A    between atoms: C4_4  and  N1_5 
ROOT
HETATM    1  N1  UNL     1      -9.248   9.948   9.793  1.00  0.00    -0.400 N 
HETATM    2  C5  UNL     1      -9.252  10.309   8.443  1.00  0.00     0.080 C 
HETATM    3  C6  UNL     1     -10.618  10.869   8.011  1.00  0.00     0.029 C 
HETATM    4  C7  UNL     1     -11.672   9.869   8.413  1.00  0.00    -0.010 C 
HETATM    5  C8  UNL     1     -11.499   8.580   7.684  1.00  0.00     0.009 C 
HETATM    6  C9  UNL     1     -10.125   8.028   8.047  1.00  0.00    -0.010 C 
HETATM    7  C10 UNL     1      -9.093   9.038   7.612  1.00  0.00     0.029 C 
HETATM    8  C11 UNL     1     -10.126   7.760   9.516  1.00  0.00     0.029 C 
HETATM    9  C12 UNL     1     -10.279   9.096  10.254  1.00  0.00     0.080 C 
HETATM   10  C13 UNL     1     -11.623   9.697   9.906  1.00  0.00     0.029 C 
ENDROOT
BRANCH   1  11
HETATM   11  C4  UNL     1      -8.352  10.480  10.706  1.00  0.00     0.080 C 
HETATM   12  C3  UNL     1      -8.487   9.820  12.046  1.00  0.00     0.025 C 
HETATM   13  C2  UNL     1      -7.201   9.687  12.805  1.00  0.00     0.002 C 
HETATM   14  C1  UNL     1      -6.256  10.835  12.656  1.00  0.00     0.000 C 
HETATM   15  C15 UNL     1      -6.227  11.458  11.294  1.00  0.00     0.002 C 
HETATM   16  C14 UNL     1      -6.894  10.485  10.332  1.00  0.00     0.025 C 
ENDBRANCH   1  11
TORSDOF 1
ENDMDL
MODEL 5
REMARK VINA RESULT: -6.050434580      1.449      4.919
REMARK  1 active torsions:
REMARK  status: ('A' for Active; 'I' for Inactive)
REMARK    1  A    between atoms: C4_4  and  N1_5 
ROOT
HETATM    1  N1  UNL     1      -9.227   9.809  10.484  1.00  0.00    -0.400 N 
HETATM    2  C5  UNL     1     -10.069   8.883  11.106  1.00  0.00     0.080 C 
HETATM    3  C6  UNL     1     -10.410   7.710  10.172  1.00  0.00     0.029 C 
HETATM    4  C7  UNL     1     -10.931   8.287   8.881  1.00  0.00    -0.010 C 
HETATM    5  C8  UNL     1     -12.204   9.033   9.098  1.00  0.00     0.009 C 
HETATM    6  C9  UNL     1     -11.911  10.171  10.070  1.00  0.00    -0.010 C 
HETATM    7  C10 UNL     1     -11.415   9.561  11.356  1.00  0.00     0.029 C 
HETATM    8  C11 UNL     1     -10.923  11.076   9.410  1.00  0.00     0.029 C 
HETATM    9  C12 UNL     1      -9.611  10.305   9.216  1.00  0.00     0.080 C 
HETATM   10  C13 UNL     1      -9.857   9.147   8.274  1.00  0.00     0.029 C 
ENDROOT
BRANCH   1  11
HETATM   11  C4  UNL     1      -7.992  10.162  11.003  1.00  0.00     0.080 C 
HETATM   12  C3  UNL     1      -7.992  10.084  12.501  1.00  0.00     0.025 C 
HETATM   13  C2  UNL     1      -6.686   9.659  13.100  1.00  0.00     0.002 C 
HETATM   14  C1  UNL     1      -5.470  10.177  12.404  1.00  0.00     0.000 C 
HETATM   15  C15 UNL     1      -5.584  10.263  10.913  1.00  0.00     0.002 C 
HETATM   16  C14 UNL     1      -6.783   9.423  10.497  1.00  0.00     0.025 C 
ENDBRANCH   1  11
TORSDOF 1
ENDMDL
