MODEL 1
REMARK VINA RESULT: -6.370152980      0.000      0.000
REMARK  1 active torsions:
REMARK  status: ('A' for Active; 'I' for Inactive)
REMARK    1  A    between atoms: C3_3  and  N1_4 
ROOT
HETATM    1  N1  UNL     1      -8.534  10.130   9.971  1.00  0.00     0.098 N 
HETATM    2  C4  UNL     1      -7.761  11.266   9.649  1.00  0.00     0.278 C 
HETATM    3  C5  UNL     1      -6.422  11.336  10.393  1.00  0.00     0.019 C 
HETATM    4  C6  UNL     1      -6.554  11.829  11.783  1.00  0.00     0.011 C 
HETATM    5  C7  UNL     1      -7.035  10.862  12.790  1.00  0.00    -0.012 C 
HETATM    6  C8  UNL     1      -6.028   9.820  13.190  1.00  0.00     0.010 C 
HETATM    7  C9  UNL     1      -5.709   8.941  12.037  1.00  0.00    -0.007 C 
HETATM    8  C10 UNL     1      -4.677   9.688  11.181  1.00  0.00     0.010 C 
HETATM    9  C11 UNL     1      -5.774  10.002  10.231  1.00  0.00    -0.002 C 
HETATM   10  C12 UNL     1      -6.633   8.962  10.898  1.00  0.00     0.027 C 
HETATM   11  C13 UNL     1      -8.026   9.386  11.136  1.00  0.00     0.228 C 
HETATM   12  C14 UNL     1      -8.285  10.121  12.400  1.00  0.00     0.041 C 
ENDROOT
BRANCH   1  13
HETATM   13  C3  UNL     1      -8.754   9.190   8.925  1.00  0.00     0.223 C 
HETATM   14  C2  UNL     1      -8.282   9.490   7.552  1.00  0.00     0.036 C 
HETATM   15  C1  UNL     1      -9.508   8.699   7.053  1.00  0.00     0.004 C 
HETATM   16  C15 UNL     1     -10.172   9.206   8.346  1.00  0.00     0.036 C 
ENDBRANCH   1  13
TORSDOF 1
ENDMDL
MODEL 2
REMARK VINA RESULT: -6.220643710      1.552      4.967
REMARK  1 active torsions:
REMARK  status: ('A' for Active; 'I' for Inactive)
REMARK    1  A    between atoms: C3_3  and  N1_4 
ROOT
HETATM    1  N1  UNL     1      -8.181   9.230  10.853  1.00  0.00     0.098 N 
HETATM    2  C4  UNL     1      -7.716   9.739   9.622  1.00  0.00     0.278 C 
HETATM    3  C5  UNL     1      -8.835  10.103   8.639  1.00  0.00     0.019 C 
HETATM    4  C6  UNL     1      -9.394   8.927   7.934  1.00  0.00     0.011 C 
HETATM    5  C7  UNL     1     -10.356   8.095   8.683  1.00  0.00    -0.012 C 
HETATM    6  C8  UNL     1     -11.715   8.713   8.859  1.00  0.00     0.010 C 
HETATM    7  C9  UNL     1     -11.624   9.929   9.706  1.00  0.00    -0.007 C 
HETATM    8  C10 UNL     1     -11.163  11.073   8.792  1.00  0.00     0.010 C 
HETATM    9  C11 UNL     1      -9.813  10.938   9.397  1.00  0.00    -0.002 C 
HETATM   10  C12 UNL     1     -10.405  10.106  10.502  1.00  0.00     0.027 C 
HETATM   11  C13 UNL     1      -9.618   8.907  10.850  1.00  0.00     0.228 C 
HETATM   12  C14 UNL     1      -9.893   7.684  10.055  1.00  0.00     0.041 C 
ENDROOT
BRANCH   1  13
HETATM   13  C3  UNL     1      -7.922  10.020  12.009  1.00  0.00     0.223 C 
HETATM   14  C2  UNL     1      -7.045  11.210  11.909  1.00  0.00     0.036 C 
HETATM   15  C1  UNL     1      -6.603  10.896  13.352  1.00  0.00     0.004 C 
HETATM   16  C15 UNL     1      -6.869   9.433  12.955  1.00  0.00     0.036 C 
ENDBRANCH   1  13
TORSDOF 1
ENDMDL
MODEL 3
REMARK VINA RESULT: -5.974372312      1.513      4.781
REMARK  1 active torsions:
REMARK  status: ('A' for Active; 'I' for Inactive)
REMARK    1  A    between atoms: C3_3  and  N1_4 
ROOT
HETATM    1  N1  UNL     1      -8.195  10.141  10.879  1.00  0.00     0.098 N 
HETATM    2  C4  UNL     1      -9.072   9.590  11.837  1.00  0.00     0.278 C 
HETATM    3  C5  UNL     1     -10.287   8.879  11.229  1.00  0.00     0.019 C 
HETATM    4  C6  UNL     1     -11.352   9.812  10.800  1.00  0.00     0.011 C 
HETATM    5  C7  UNL     1     -11.149  10.512   9.516  1.00  0.00    -0.012 C 
HETATM    6  C8  UNL     1     -11.329   9.649   8.298  1.00  0.00     0.010 C 
HETATM    7  C9  UNL     1     -10.284   8.596   8.251  1.00  0.00    -0.007 C 
HETATM    8  C10 UNL     1     -10.748   7.469   9.184  1.00  0.00     0.010 C 
HETATM    9  C11 UNL     1      -9.760   7.959  10.178  1.00  0.00    -0.002 C 
HETATM   10  C12 UNL     1      -9.104   8.780   9.101  1.00  0.00     0.027 C 
HETATM   11  C13 UNL     1      -8.747  10.151   9.515  1.00  0.00     0.228 C 
HETATM   12  C14 UNL     1      -9.809  11.180   9.372  1.00  0.00     0.041 C 
ENDROOT
BRANCH   1  13
HETATM   13  C3  UNL     1      -6.890   9.575  10.808  1.00  0.00     0.223 C 
HETATM   14  C2  UNL     1      -6.198   9.157  12.050  1.00  0.00     0.036 C 
HETATM   15  C1  UNL     1      -4.885   9.559  11.349  1.00  0.00     0.004 C 
HETATM   16  C15 UNL     1      -5.763  10.598  10.630  1.00  0.00     0.036 C 
ENDBRANCH   1  13
TORSDOF 1
ENDMDL
MODEL 4
REMARK VINA RESULT: -5.738328604      5.309      7.070
REMARK  1 active torsions:
REMARK  status: ('A' for Active; 'I' for Inactive)
REMARK    1  A    between atoms: C3_3  and  N1_4 
ROOT
HETATM    1  N1  UNL     1     -14.749   7.796  11.761  1.00  0.00     0.098 N 
HETATM    2  C4  UNL     1     -14.925   9.046  11.132  1.00  0.00     0.278 C 
HETATM    3  C5  UNL     1     -13.671   9.561  10.415  1.00  0.00     0.019 C 
HETATM    4  C6  UNL     1     -12.684  10.170  11.335  1.00  0.00     0.011 C 
HETATM    5  C7  UNL     1     -11.832   9.244  12.107  1.00  0.00    -0.012 C 
HETATM    6  C8  UNL     1     -10.757   8.564  11.304  1.00  0.00     0.010 C 
HETATM    7  C9  UNL     1     -11.362   7.665  10.289  1.00  0.00    -0.007 C 
HETATM    8  C10 UNL     1     -11.767   8.547   9.100  1.00  0.00     0.010 C 
HETATM    9  C11 UNL     1     -13.172   8.437   9.570  1.00  0.00    -0.002 C 
HETATM   10  C12 UNL     1     -12.770   7.298  10.467  1.00  0.00     0.027 C 
HETATM   11  C13 UNL     1     -13.343   7.363  11.825  1.00  0.00     0.228 C 
HETATM   12  C14 UNL     1     -12.582   8.155  12.825  1.00  0.00     0.041 C 
ENDROOT
BRANCH   1  13
HETATM   13  C3  UNL     1     -15.508   6.708  11.242  1.00  0.00     0.223 C 
HETATM   14  C2  UNL     1     -16.902   6.929  10.791  1.00  0.00     0.036 C 
HETATM   15  C1  UNL     1     -17.191   5.492  11.268  1.00  0.00     0.004 C 
HETATM   16  C15 UNL     1     -16.094   5.778  12.309  1.00  0.00     0.036 C 
ENDBRANCH   1  13
TORSDOF 1
ENDMDL
MODEL 5
REMARK VINA RESULT: -5.704529313      1.123      4.953
REMARK  1 active torsions:
REMARK  status: ('A' for Active; 'I' for Inactive)
REMARK    1  A    between atoms: C3_3  and  N1_4 
ROOT
HETATM    1  N1  UNL     1      -8.010  10.437   9.981  1.00  0.00     0.098 N 
HETATM    2  C4  UNL     1      -9.080  11.347   9.851  1.00  0.00     0.278 C 
HETATM    3  C5  UNL     1     -10.318  10.756   9.167  1.00  0.00     0.019 C 
HETATM    4  C6  UNL     1     -10.197  10.700   7.693  1.00  0.00     0.011 C 
HETATM    5  C7  UNL     1      -9.390   9.597   7.132  1.00  0.00    -0.012 C 
HETATM    6  C8  UNL     1     -10.048   8.247   7.191  1.00  0.00     0.010 C 
HETATM    7  C9  UNL     1     -10.226   7.820   8.602  1.00  0.00    -0.007 C 
HETATM    8  C10 UNL     1     -11.491   8.519   9.121  1.00  0.00     0.010 C 
HETATM    9  C11 UNL     1     -10.604   9.460   9.851  1.00  0.00    -0.002 C 
HETATM   10  C12 UNL     1      -9.446   8.527   9.623  1.00  0.00     0.027 C 
HETATM   11  C13 UNL     1      -8.198   9.197   9.210  1.00  0.00     0.228 C 
HETATM   12  C14 UNL     1      -8.029   9.438   7.754  1.00  0.00     0.041 C 
ENDROOT
BRANCH   1  13
HETATM   13  C3  UNL     1      -7.645  10.065  11.306  1.00  0.00     0.223 C 
HETATM   14  C2  UNL     1      -7.066  11.075  12.223  1.00  0.00     0.036 C 
HETATM   15  C1  UNL     1      -6.242   9.923  12.831  1.00  0.00     0.004 C 
HETATM   16  C15 UNL     1      -6.303   9.331  11.412  1.00  0.00     0.036 C 
ENDBRANCH   1  13
TORSDOF 1
ENDMDL
