MODEL 1
REMARK VINA RESULT: -6.483943326      0.000      0.000
REMARK  1 active torsions:
REMARK  status: ('A' for Active; 'I' for Inactive)
REMARK    1  A    between atoms: C5_6  and  C6_7 
ROOT
HETATM    1  C6  UNL     1      -8.225  10.024  10.724  1.00  0.00    -0.008 C 
HETATM    2  C7  UNL     1      -7.203   9.071  10.174  1.00  0.00     0.016 C 
HETATM    3  C8  UNL     1      -5.869   9.354  10.841  1.00  0.00    -0.013 C 
HETATM    4  C9  UNL     1      -5.944   9.155  12.330  1.00  0.00     0.009 C 
HETATM    5  C10 UNL     1      -6.974  10.076  12.904  1.00  0.00    -0.013 C 
HETATM    6  C11 UNL     1      -6.599  11.517  12.651  1.00  0.00     0.009 C 
HETATM    7  C12 UNL     1      -6.438  11.703  11.170  1.00  0.00    -0.013 C 
HETATM    8  C13 UNL     1      -5.444  10.777  10.555  1.00  0.00     0.009 C 
HETATM    9  C14 UNL     1      -7.796  11.440  10.532  1.00  0.00     0.016 C 
HETATM   10  C15 UNL     1      -8.298   9.781  12.235  1.00  0.00     0.016 C 
ENDROOT
BRANCH   1  11
HETATM   11  C5  UNL     1      -9.597   9.789  10.178  1.00  0.00     0.231 C 
HETATM   12  N1  UNL     1     -10.078  10.801   9.293  1.00  0.00     0.089 N 
HETATM   13  C1  UNL     1      -9.709  10.475   7.925  1.00  0.00     0.310 C 
HETATM   14  C2  UNL     1     -11.527  10.792   9.348  1.00  0.00     0.272 C 
HETATM   15  C3  UNL     1     -11.914   9.700  10.340  1.00  0.00     0.032 C 
HETATM   16  C4  UNL     1     -10.669   9.725  11.243  1.00  0.00     0.038 C 
ENDBRANCH   1  11
TORSDOF 1
ENDMDL
MODEL 2
REMARK VINA RESULT: -6.344264577      0.147      1.818
REMARK  1 active torsions:
REMARK  status: ('A' for Active; 'I' for Inactive)
REMARK    1  A    between atoms: C5_6  and  C6_7 
ROOT
HETATM    1  C6  UNL     1      -8.271  10.082  10.847  1.00  0.00    -0.008 C 
HETATM    2  C7  UNL     1      -7.820  11.464  10.467  1.00  0.00     0.016 C 
HETATM    3  C8  UNL     1      -6.442  11.701  11.056  1.00  0.00    -0.013 C 
HETATM    4  C9  UNL     1      -5.437  10.716  10.525  1.00  0.00     0.009 C 
HETATM    5  C10 UNL     1      -5.873   9.327  10.868  1.00  0.00    -0.013 C 
HETATM    6  C11 UNL     1      -5.946   9.146  12.366  1.00  0.00     0.009 C 
HETATM    7  C12 UNL     1      -6.883  10.183  12.914  1.00  0.00    -0.013 C 
HETATM    8  C13 UNL     1      -6.500  11.581  12.563  1.00  0.00     0.009 C 
HETATM    9  C14 UNL     1      -8.260   9.902  12.328  1.00  0.00     0.016 C 
HETATM   10  C15 UNL     1      -7.245   9.101  10.271  1.00  0.00     0.016 C 
ENDROOT
BRANCH   1  11
HETATM   11  C5  UNL     1      -9.598   9.718  10.261  1.00  0.00     0.231 C 
HETATM   12  N1  UNL     1     -10.134  10.669   9.340  1.00  0.00     0.089 N 
HETATM   13  C1  UNL     1      -9.690  10.353   7.992  1.00  0.00     0.310 C 
HETATM   14  C2  UNL     1     -11.577  10.533   9.346  1.00  0.00     0.272 C 
HETATM   15  C3  UNL     1     -11.903   9.429  10.347  1.00  0.00     0.032 C 
HETATM   16  C4  UNL     1     -10.697   9.579  11.290  1.00  0.00     0.038 C 
ENDBRANCH   1  11
TORSDOF 1
ENDMDL
MODEL 3
REMARK VINA RESULT: -6.334807077      1.228      2.645
REMARK  1 active torsions:
REMARK  status: ('A' for Active; 'I' for Inactive)
REMARK    1  A    between atoms: C5_6  and  C6_7 
ROOT
HETATM    1  C6  UNL     1      -8.126   9.895  10.641  1.00  0.00    -0.008 C 
HETATM    2  C7  UNL     1      -8.490   9.938  12.098  1.00  0.00     0.016 C 
HETATM    3  C8  UNL     1      -7.247  10.284  12.897  1.00  0.00    -0.013 C 
HETATM    4  C9  UNL     1      -6.698  11.629  12.509  1.00  0.00     0.009 C 
HETATM    5  C10 UNL     1      -6.348  11.624  11.055  1.00  0.00    -0.013 C 
HETATM    6  C11 UNL     1      -5.282  10.593  10.768  1.00  0.00     0.009 C 
HETATM    7  C12 UNL     1      -5.790   9.259  11.231  1.00  0.00    -0.013 C 
HETATM    8  C13 UNL     1      -6.182   9.234  12.669  1.00  0.00     0.009 C 
HETATM    9  C14 UNL     1      -7.017   8.926  10.394  1.00  0.00     0.016 C 
HETATM   10  C15 UNL     1      -7.596  11.283  10.270  1.00  0.00     0.016 C 
ENDROOT
BRANCH   1  11
HETATM   11  C5  UNL     1      -9.298   9.624   9.753  1.00  0.00     0.231 C 
HETATM   12  N1  UNL     1      -9.608   8.243   9.564  1.00  0.00     0.089 N 
HETATM   13  C1  UNL     1     -10.548   7.805  10.582  1.00  0.00     0.310 C 
HETATM   14  C2  UNL     1     -10.282   8.106   8.287  1.00  0.00     0.272 C 
HETATM   15  C3  UNL     1     -10.363   9.507   7.690  1.00  0.00     0.032 C 
HETATM   16  C4  UNL     1      -9.117  10.132   8.340  1.00  0.00     0.038 C 
ENDBRANCH   1  11
TORSDOF 1
ENDMDL
MODEL 4
REMARK VINA RESULT: -6.314791068      1.547      4.717
REMARK  1 active torsions:
REMARK  status: ('A' for Active; 'I' for Inactive)
REMARK    1  A    between atoms: C5_6  and  C6_7 
ROOT
HETATM    1  C6  UNL     1      -9.061   9.783  10.581  1.00  0.00    -0.008 C 
HETATM    2  C7  UNL     1      -9.696  10.876   9.768  1.00  0.00     0.016 C 
HETATM    3  C8  UNL     1     -11.048  10.391   9.280  1.00  0.00    -0.013 C 
HETATM    4  C9  UNL     1     -11.965  10.065  10.426  1.00  0.00     0.009 C 
HETATM    5  C10 UNL     1     -11.347   8.995  11.269  1.00  0.00    -0.013 C 
HETATM    6  C11 UNL     1     -11.150   7.731  10.465  1.00  0.00     0.009 C 
HETATM    7  C12 UNL     1     -10.306   8.068   9.271  1.00  0.00    -0.013 C 
HETATM    8  C13 UNL     1     -10.873   9.156   8.424  1.00  0.00     0.009 C 
HETATM    9  C14 UNL     1      -8.949   8.522   9.791  1.00  0.00     0.016 C 
HETATM   10  C15 UNL     1     -10.003   9.492  11.754  1.00  0.00     0.016 C 
ENDROOT
BRANCH   1  11
HETATM   11  C5  UNL     1      -7.745  10.180  11.168  1.00  0.00     0.231 C 
HETATM   12  N1  UNL     1      -6.619   9.447  10.683  1.00  0.00     0.089 N 
HETATM   13  C1  UNL     1      -6.061  10.115   9.518  1.00  0.00     0.310 C 
HETATM   14  C2  UNL     1      -5.594   9.470  11.708  1.00  0.00     0.272 C 
HETATM   15  C3  UNL     1      -6.168  10.268  12.874  1.00  0.00     0.032 C 
HETATM   16  C4  UNL     1      -7.664   9.982  12.665  1.00  0.00     0.038 C 
ENDBRANCH   1  11
TORSDOF 1
ENDMDL
MODEL 5
REMARK VINA RESULT: -6.226292542      1.211      2.514
REMARK  1 active torsions:
REMARK  status: ('A' for Active; 'I' for Inactive)
REMARK    1  A    between atoms: C5_6  and  C6_7 
ROOT
HETATM    1  C6  UNL     1      -8.092  10.043  10.607  1.00  0.00    -0.008 C 
HETATM    2  C7  UNL     1      -7.459  11.358  10.250  1.00  0.00     0.016 C 
HETATM    3  C8  UNL     1      -6.256  11.576  11.150  1.00  0.00    -0.013 C 
HETATM    4  C9  UNL     1      -5.228  10.494  10.968  1.00  0.00     0.009 C 
HETATM    5  C10 UNL     1      -5.838   9.167  11.293  1.00  0.00    -0.013 C 
HETATM    6  C11 UNL     1      -6.293   9.130  12.733  1.00  0.00     0.009 C 
HETATM    7  C12 UNL     1      -7.256  10.261  12.945  1.00  0.00    -0.013 C 
HETATM    8  C13 UNL     1      -6.695  11.598  12.597  1.00  0.00     0.009 C 
HETATM    9  C14 UNL     1      -8.462  10.001  12.053  1.00  0.00     0.016 C 
HETATM   10  C15 UNL     1      -7.031   8.960  10.387  1.00  0.00     0.016 C 
ENDROOT
BRANCH   1  11
HETATM   11  C5  UNL     1      -9.255   9.698   9.734  1.00  0.00     0.231 C 
HETATM   12  N1  UNL     1      -9.598   8.312   9.703  1.00  0.00     0.089 N 
HETATM   13  C1  UNL     1     -10.567   8.020  10.746  1.00  0.00     0.310 C 
HETATM   14  C2  UNL     1     -10.252   8.041   8.437  1.00  0.00     0.272 C 
HETATM   15  C3  UNL     1     -10.286   9.363   7.677  1.00  0.00     0.032 C 
HETATM   16  C4  UNL     1      -9.036  10.031   8.275  1.00  0.00     0.038 C 
ENDBRANCH   1  11
TORSDOF 1
ENDMDL
