MODEL 1
REMARK VINA RESULT: -6.923273456      0.000      0.000
REMARK  1 active torsions:
REMARK  status: ('A' for Active; 'I' for Inactive)
REMARK    1  A    between atoms: C4_5  and  C5_6 
ROOT
HETATM    1  C5  UNL     1      -7.891  10.415  10.747  1.00  0.00    -0.033 C 
HETATM    2  C6  UNL     1      -8.313   9.860  12.112  1.00  0.00     0.010 C 
HETATM    3  C7  UNL     1      -7.153   9.310  12.886  1.00  0.00     0.005 C 
HETATM    4  C8  UNL     1      -5.979  10.252  12.719  1.00  0.00    -0.014 C 
HETATM    5  C9  UNL     1      -5.066   9.656  11.699  1.00  0.00     0.009 C 
HETATM    6  C10 UNL     1      -5.585   9.832  10.286  1.00  0.00    -0.013 C 
HETATM    7  C11 UNL     1      -5.743  11.327  10.081  1.00  0.00     0.010 C 
HETATM    8  C12 UNL     1      -6.998  11.591  10.887  1.00  0.00    -0.005 C 
HETATM    9  C13 UNL     1      -6.512  11.609  12.347  1.00  0.00     0.010 C 
HETATM   10  C14 UNL     1      -7.008   9.352  10.130  1.00  0.00     0.015 C 
ENDROOT
BRANCH   1  11
HETATM   11  C4  UNL     1      -9.114  10.599   9.925  1.00  0.00    -0.002 C 
HETATM   12  C3  UNL     1      -8.967  10.140   8.501  1.00  0.00     0.036 C 
HETATM   13  C2  UNL     1     -10.102  10.724   7.664  1.00  0.00     0.272 C 
HETATM   14  N1  UNL     1     -11.365  10.677   8.334  1.00  0.00     0.084 N 
HETATM   15  C1  UNL     1     -12.399  10.346   7.394  1.00  0.00     0.309 C 
HETATM   16  C16 UNL     1     -11.423   9.765   9.431  1.00  0.00     0.272 C 
HETATM   17  C15 UNL     1     -10.366  10.018  10.480  1.00  0.00     0.036 C 
ENDBRANCH   1  11
TORSDOF 1
ENDMDL
MODEL 2
REMARK VINA RESULT: -6.651224782      1.842      2.959
REMARK  1 active torsions:
REMARK  status: ('A' for Active; 'I' for Inactive)
REMARK    1  A    between atoms: C4_5  and  C5_6 
ROOT
HETATM    1  C5  UNL     1      -7.908   9.463  11.044  1.00  0.00    -0.033 C 
HETATM    2  C6  UNL     1      -7.175   9.145   9.736  1.00  0.00     0.010 C 
HETATM    3  C7  UNL     1      -5.996  10.043   9.512  1.00  0.00     0.005 C 
HETATM    4  C8  UNL     1      -5.270  10.214  10.829  1.00  0.00    -0.014 C 
HETATM    5  C9  UNL     1      -5.665  11.539  11.391  1.00  0.00     0.009 C 
HETATM    6  C10 UNL     1      -7.053  11.517  12.001  1.00  0.00    -0.013 C 
HETATM    7  C11 UNL     1      -7.020  10.447  13.077  1.00  0.00     0.010 C 
HETATM    8  C12 UNL     1      -7.056   9.194  12.228  1.00  0.00    -0.005 C 
HETATM    9  C13 UNL     1      -5.613   9.045  11.713  1.00  0.00     0.010 C 
HETATM   10  C14 UNL     1      -8.091  10.965  11.055  1.00  0.00     0.015 C 
ENDROOT
BRANCH   1  11
HETATM   11  C4  UNL     1      -9.232   8.790  11.007  1.00  0.00    -0.002 C 
HETATM   12  C3  UNL     1     -10.358   9.631  11.542  1.00  0.00     0.036 C 
HETATM   13  C2  UNL     1     -11.562   8.737  11.828  1.00  0.00     0.272 C 
HETATM   14  N1  UNL     1     -11.782   7.761  10.805  1.00  0.00     0.084 N 
HETATM   15  C1  UNL     1     -13.192   7.610  10.577  1.00  0.00     0.309 C 
HETATM   16  C16 UNL     1     -11.138   8.044   9.564  1.00  0.00     0.272 C 
HETATM   17  C15 UNL     1      -9.644   8.234   9.691  1.00  0.00     0.036 C 
ENDBRANCH   1  11
TORSDOF 1
ENDMDL
MODEL 3
REMARK VINA RESULT: -6.621489746      1.772      2.969
REMARK  1 active torsions:
REMARK  status: ('A' for Active; 'I' for Inactive)
REMARK    1  A    between atoms: C4_5  and  C5_6 
ROOT
HETATM    1  C5  UNL     1      -7.860   9.576  10.618  1.00  0.00    -0.033 C 
HETATM    2  C6  UNL     1      -7.546  10.565   9.489  1.00  0.00     0.010 C 
HETATM    3  C7  UNL     1      -6.794  11.766   9.978  1.00  0.00     0.005 C 
HETATM    4  C8  UNL     1      -5.746  11.302  10.968  1.00  0.00    -0.014 C 
HETATM    5  C9  UNL     1      -6.272  11.572  12.338  1.00  0.00     0.009 C 
HETATM    6  C10 UNL     1      -7.320  10.562  12.764  1.00  0.00    -0.013 C 
HETATM    7  C11 UNL     1      -6.647   9.203  12.687  1.00  0.00     0.010 C 
HETATM    8  C12 UNL     1      -6.625   8.986  11.188  1.00  0.00    -0.005 C 
HETATM    9  C13 UNL     1      -5.451   9.851  10.697  1.00  0.00     0.010 C 
HETATM   10  C14 UNL     1      -8.424  10.412  11.746  1.00  0.00     0.015 C 
ENDROOT
BRANCH   1  11
HETATM   11  C4  UNL     1      -8.890   8.626  10.126  1.00  0.00    -0.002 C 
HETATM   12  C3  UNL     1     -10.122   8.562  10.987  1.00  0.00     0.036 C 
HETATM   13  C2  UNL     1     -10.917   7.307  10.636  1.00  0.00     0.272 C 
HETATM   14  N1  UNL     1     -10.980   7.068   9.227  1.00  0.00     0.084 N 
HETATM   15  C1  UNL     1     -12.287   6.586   8.877  1.00  0.00     0.309 C 
HETATM   16  C16 UNL     1     -10.671   8.201   8.417  1.00  0.00     0.272 C 
HETATM   17  C15 UNL     1      -9.314   8.799   8.711  1.00  0.00     0.036 C 
ENDBRANCH   1  11
TORSDOF 1
ENDMDL
MODEL 4
REMARK VINA RESULT: -6.512361188      0.984      1.451
REMARK  1 active torsions:
REMARK  status: ('A' for Active; 'I' for Inactive)
REMARK    1  A    between atoms: C4_5  and  C5_6 
ROOT
HETATM    1  C5  UNL     1      -8.028  10.036  10.994  1.00  0.00    -0.033 C 
HETATM    2  C6  UNL     1      -8.197   9.704  12.481  1.00  0.00     0.010 C 
HETATM    3  C7  UNL     1      -6.884   9.466  13.163  1.00  0.00     0.005 C 
HETATM    4  C8  UNL     1      -5.895  10.502  12.669  1.00  0.00    -0.014 C 
HETATM    5  C9  UNL     1      -5.028   9.842  11.647  1.00  0.00     0.009 C 
HETATM    6  C10 UNL     1      -5.731   9.675  10.314  1.00  0.00    -0.013 C 
HETATM    7  C11 UNL     1      -6.138  11.071   9.878  1.00  0.00     0.010 C 
HETATM    8  C12 UNL     1      -7.315  11.321  10.798  1.00  0.00    -0.005 C 
HETATM    9  C13 UNL     1      -6.669  11.682  12.148  1.00  0.00     0.010 C 
HETATM   10  C14 UNL     1      -7.072   8.996  10.450  1.00  0.00     0.015 C 
ENDROOT
BRANCH   1  11
HETATM   11  C4  UNL     1      -9.353   9.900  10.337  1.00  0.00    -0.002 C 
HETATM   12  C3  UNL     1     -10.474   9.577  11.287  1.00  0.00     0.036 C 
HETATM   13  C2  UNL     1     -11.677   9.074  10.493  1.00  0.00     0.272 C 
HETATM   14  N1  UNL     1     -11.907   9.830   9.299  1.00  0.00     0.084 N 
HETATM   15  C1  UNL     1     -13.318  10.005   9.102  1.00  0.00     0.309 C 
HETATM   16  C16 UNL     1     -11.271  11.107   9.271  1.00  0.00     0.272 C 
HETATM   17  C15 UNL     1      -9.776  11.039   9.481  1.00  0.00     0.036 C 
ENDBRANCH   1  11
TORSDOF 1
ENDMDL
MODEL 5
REMARK VINA RESULT: -6.463105508      1.556      2.521
REMARK  1 active torsions:
REMARK  status: ('A' for Active; 'I' for Inactive)
REMARK    1  A    between atoms: C4_5  and  C5_6 
ROOT
HETATM    1  C5  UNL     1      -7.916   9.860  10.807  1.00  0.00    -0.033 C 
HETATM    2  C6  UNL     1      -7.105   9.369   9.603  1.00  0.00     0.010 C 
HETATM    3  C7  UNL     1      -5.712   9.922   9.592  1.00  0.00     0.005 C 
HETATM    4  C8  UNL     1      -5.172   9.884  11.006  1.00  0.00    -0.014 C 
HETATM    5  C9  UNL     1      -5.286  11.262  11.568  1.00  0.00     0.009 C 
HETATM    6  C10 UNL     1      -6.706  11.606  11.972  1.00  0.00    -0.013 C 
HETATM    7  C11 UNL     1      -7.117  10.557  12.990  1.00  0.00     0.010 C 
HETATM    8  C12 UNL     1      -7.352   9.365  12.085  1.00  0.00    -0.005 C 
HETATM    9  C13 UNL     1      -5.938   8.842  11.775  1.00  0.00     0.010 C 
HETATM   10  C14 UNL     1      -7.699  11.357  10.862  1.00  0.00     0.015 C 
ENDROOT
BRANCH   1  11
HETATM   11  C4  UNL     1      -9.349   9.565  10.549  1.00  0.00    -0.002 C 
HETATM   12  C3  UNL     1      -9.575   8.411   9.611  1.00  0.00     0.036 C 
HETATM   13  C2  UNL     1     -11.016   8.445   9.110  1.00  0.00     0.272 C 
HETATM   14  N1  UNL     1     -11.954   8.759  10.143  1.00  0.00     0.084 N 
HETATM   15  C1  UNL     1     -13.141   7.968   9.976  1.00  0.00     0.309 C 
HETATM   16  C16 UNL     1     -11.460   8.582  11.471  1.00  0.00     0.272 C 
HETATM   17  C15 UNL     1     -10.200   9.367  11.752  1.00  0.00     0.036 C 
ENDBRANCH   1  11
TORSDOF 1
ENDMDL
