MODEL 1
REMARK VINA RESULT: -6.188186405      0.000      0.000
REMARK  2 active torsions:
REMARK  status: ('A' for Active; 'I' for Inactive)
REMARK    1  A    between atoms: C1_2  and  N1_3 
REMARK    2  A    between atoms: N1_3  and  C2_5 
ROOT
HETATM    1  C2  UNL     1      20.215 -19.368  23.271  1.00  0.00     0.703 A 
HETATM    2  N2  UNL     1      20.866 -20.538  23.369  1.00  0.00    -0.128 N 
ATOM      3  H2  UNL     1      20.615 -21.397  22.880  1.00  0.00     0.205 HD
HETATM    4  N3  UNL     1      21.880 -20.400  24.195  1.00  0.00    -0.237 N 
ATOM      5  H3  UNL     1      22.537 -21.137  24.447  1.00  0.00     0.192 HD
HETATM    6  C3  UNL     1      21.916 -19.145  24.655  1.00  0.00     0.353 A 
HETATM    7  O2  UNL     1      22.748 -18.677  25.455  1.00  0.00    -0.245 OA
HETATM    8  N4  UNL     1      20.886 -18.513  24.081  1.00  0.00    -0.139 N 
ATOM      9  H4  UNL     1      20.642 -17.535  24.231  1.00  0.00     0.189 HD
ENDROOT
BRANCH   1  10
HETATM   10  N1  UNL     1      19.152 -19.124  22.539  1.00  0.00    -0.166 N 
ATOM     11  H1  UNL     1      18.807 -19.791  21.849  1.00  0.00     0.186 HD
BRANCH  10  12
HETATM   12  C1  UNL     1      18.521 -17.890  22.764  1.00  0.00     0.368 C 
HETATM   13  O1  UNL     1      18.240 -17.545  23.924  1.00  0.00    -0.283 OA
ENDBRANCH  10  12
ENDBRANCH   1  10
TORSDOF 2
ENDMDL
MODEL 2
REMARK VINA RESULT: -6.100603332      1.799      1.855
REMARK  2 active torsions:
REMARK  status: ('A' for Active; 'I' for Inactive)
REMARK    1  A    between atoms: C1_2  and  N1_3 
REMARK    2  A    between atoms: N1_3  and  C2_5 
ROOT
HETATM    1  C2  UNL     1      20.485 -19.402  23.340  1.00  0.00     0.703 A 
HETATM    2  N2  UNL     1      21.243 -20.484  23.576  1.00  0.00    -0.128 N 
ATOM      3  H2  UNL     1      21.167 -21.377  23.089  1.00  0.00     0.205 HD
HETATM    4  N3  UNL     1      22.099 -20.210  24.536  1.00  0.00    -0.237 N 
ATOM      5  H3  UNL     1      22.792 -20.859  24.910  1.00  0.00     0.192 HD
HETATM    6  C3  UNL     1      21.924 -18.950  24.948  1.00  0.00     0.353 A 
HETATM    7  O2  UNL     1      22.568 -18.370  25.843  1.00  0.00    -0.245 OA
HETATM    8  N4  UNL     1      20.926 -18.456  24.207  1.00  0.00    -0.139 N 
ATOM      9  H4  UNL     1      20.552 -17.511  24.282  1.00  0.00     0.189 HD
ENDROOT
BRANCH   1  10
HETATM   10  N1  UNL     1      19.523 -19.300  22.452  1.00  0.00    -0.166 N 
ATOM     11  H1  UNL     1      18.740 -18.658  22.575  1.00  0.00     0.186 HD
BRANCH  10  12
HETATM   12  C1  UNL     1      19.638 -20.128  21.323  1.00  0.00     0.368 C 
HETATM   13  O1  UNL     1      19.232 -21.300  21.376  1.00  0.00    -0.283 OA
ENDBRANCH  10  12
ENDBRANCH   1  10
TORSDOF 2
ENDMDL
MODEL 3
REMARK VINA RESULT: -5.932948725      1.259      1.279
REMARK  2 active torsions:
REMARK  status: ('A' for Active; 'I' for Inactive)
REMARK    1  A    between atoms: C1_2  and  N1_3 
REMARK    2  A    between atoms: N1_3  and  C2_5 
ROOT
HETATM    1  C2  UNL     1      19.619 -18.859  23.558  1.00  0.00     0.703 A 
HETATM    2  N2  UNL     1      19.943 -20.136  23.299  1.00  0.00    -0.128 N 
ATOM      3  H2  UNL     1      19.348 -20.812  22.820  1.00  0.00     0.205 HD
HETATM    4  N3  UNL     1      21.151 -20.377  23.761  1.00  0.00    -0.237 N 
ATOM      5  H3  UNL     1      21.638 -21.271  23.696  1.00  0.00     0.192 HD
HETATM    6  C3  UNL     1      21.643 -19.271  24.329  1.00  0.00     0.353 A 
HETATM    7  O2  UNL     1      22.761 -19.153  24.864  1.00  0.00    -0.245 OA
HETATM    8  N4  UNL     1      20.693 -18.338  24.201  1.00  0.00    -0.139 N 
ATOM      9  H4  UNL     1      20.766 -17.378  24.536  1.00  0.00     0.189 HD
ENDROOT
BRANCH   1  10
HETATM   10  N1  UNL     1      18.494 -18.260  23.246  1.00  0.00    -0.166 N 
ATOM     11  H1  UNL     1      17.768 -18.078  23.939  1.00  0.00     0.186 HD
BRANCH  10  12
HETATM   12  C1  UNL     1      18.350 -17.884  21.900  1.00  0.00     0.368 C 
HETATM   13  O1  UNL     1      19.344 -17.863  21.157  1.00  0.00    -0.283 OA
ENDBRANCH  10  12
ENDBRANCH   1  10
TORSDOF 2
ENDMDL
MODEL 4
REMARK VINA RESULT: -5.720734823      1.492      1.711
REMARK  2 active torsions:
REMARK  status: ('A' for Active; 'I' for Inactive)
REMARK    1  A    between atoms: C1_2  and  N1_3 
REMARK    2  A    between atoms: N1_3  and  C2_5 
ROOT
HETATM    1  C2  UNL     1      20.651 -19.349  23.282  1.00  0.00     0.703 A 
HETATM    2  N2  UNL     1      19.733 -19.089  24.226  1.00  0.00    -0.128 N 
ATOM      3  H2  UNL     1      18.723 -19.182  24.111  1.00  0.00     0.205 HD
HETATM    4  N3  UNL     1      20.342 -18.694  25.323  1.00  0.00    -0.237 N 
ATOM      5  H3  UNL     1      19.877 -18.433  26.193  1.00  0.00     0.192 HD
HETATM    6  C3  UNL     1      21.664 -18.687  25.125  1.00  0.00     0.353 A 
HETATM    7  O2  UNL     1      22.533 -18.366  25.957  1.00  0.00    -0.245 OA
HETATM    8  N4  UNL     1      21.849 -19.092  23.863  1.00  0.00    -0.139 N 
ATOM      9  H4  UNL     1      22.755 -19.192  23.407  1.00  0.00     0.189 HD
ENDROOT
BRANCH   1  10
HETATM   10  N1  UNL     1      20.417 -19.764  22.058  1.00  0.00    -0.166 N 
ATOM     11  H1  UNL     1      20.881 -20.584  21.668  1.00  0.00     0.186 HD
BRANCH  10  12
HETATM   12  C1  UNL     1      19.490 -19.010  21.319  1.00  0.00     0.368 C 
HETATM   13  O1  UNL     1      19.334 -17.805  21.575  1.00  0.00    -0.283 OA
ENDBRANCH  10  12
ENDBRANCH   1  10
TORSDOF 2
ENDMDL
MODEL 5
REMARK VINA RESULT: -5.708690624      1.299      3.977
REMARK  2 active torsions:
REMARK  status: ('A' for Active; 'I' for Inactive)
REMARK    1  A    between atoms: C1_2  and  N1_3 
REMARK    2  A    between atoms: N1_3  and  C2_5 
ROOT
HETATM    1  C2  UNL     1      20.462 -18.577  23.554  1.00  0.00     0.703 A 
HETATM    2  N2  UNL     1      19.947 -17.479  24.129  1.00  0.00    -0.128 N 
ATOM      3  H2  UNL     1      20.352 -16.982  24.923  1.00  0.00     0.205 HD
HETATM    4  N3  UNL     1      18.837 -17.146  23.506  1.00  0.00    -0.237 N 
ATOM      5  H3  UNL     1      18.247 -16.349  23.743  1.00  0.00     0.192 HD
HETATM    6  C3  UNL     1      18.602 -18.012  22.515  1.00  0.00     0.353 A 
HETATM    7  O2  UNL     1      17.636 -17.987  21.729  1.00  0.00    -0.245 OA
HETATM    8  N4  UNL     1      19.608 -18.893  22.549  1.00  0.00    -0.139 N 
ATOM      9  H4  UNL     1      19.716 -19.684  21.915  1.00  0.00     0.189 HD
ENDROOT
BRANCH   1  10
HETATM   10  N1  UNL     1      21.564 -19.200  23.905  1.00  0.00    -0.166 N 
ATOM     11  H1  UNL     1      22.090 -19.778  23.250  1.00  0.00     0.186 HD
BRANCH  10  12
HETATM   12  C1  UNL     1      21.974 -19.021  25.236  1.00  0.00     0.368 C 
HETATM   13  O1  UNL     1      22.616 -18.006  25.551  1.00  0.00    -0.283 OA
ENDBRANCH  10  12
ENDBRANCH   1  10
TORSDOF 2
ENDMDL
