MODEL 1
REMARK VINA RESULT: -5.758179452      0.000      0.000
REMARK  5 active torsions:
REMARK  status: ('A' for Active; 'I' for Inactive)
REMARK    1  A    between atoms: N1_1  and  N2_4 
REMARK    2  A    between atoms: N2_4  and  C1_6 
REMARK    3  A    between atoms: C1_6  and  O1_7 
REMARK    4  A    between atoms: C1_6  and  N3_9 
REMARK       I    between atoms: N3_9  and  C2_11 
REMARK    5  A    between atoms: C2_11  and  C3_13 
ROOT
HETATM    1  C1  UNL     1      19.689 -20.223  22.139  1.00  0.00     0.238 C 
ENDROOT
BRANCH   1   2
HETATM    2  N2  UNL     1      19.572 -21.215  21.152  1.00  0.00    -0.272 N 
ATOM      3  H2  UNL     1      18.652 -21.405  20.754  1.00  0.00     0.190 HD
BRANCH   2   4
HETATM    4  N1  UNL     1      20.658 -21.947  20.695  1.00  0.00    -0.342 N 
ATOM      5  H12 UNL     1      21.138 -22.547  21.365  1.00  0.00     0.176 HD
ATOM      6  H11 UNL     1      20.983 -21.903  19.730  1.00  0.00     0.176 HD
ENDBRANCH   2   4
ENDBRANCH   1   2
BRANCH   1   7
HETATM    7  O1  UNL     1      18.709 -19.368  22.116  1.00  0.00    -0.331 OA
ATOM      8  H1  UNL     1      18.273 -19.282  22.956  1.00  0.00     0.221 HD
ENDBRANCH   1   7
BRANCH   1   9
HETATM    9  N3  UNL     1      20.701 -20.073  23.097  1.00  0.00    -0.284 N 
HETATM   10  C2  UNL     1      20.941 -19.002  23.964  1.00  0.00     0.313 C 
HETATM   11  O2  UNL     1      20.214 -17.992  23.967  1.00  0.00    -0.262 OA
ATOM     12  H3  UNL     1      21.354 -20.853  23.171  1.00  0.00     0.172 HD
BRANCH  10  13
HETATM   13  C3  UNL     1      22.078 -19.051  24.906  1.00  0.00     0.322 C 
HETATM   14  N4  UNL     1      22.419 -17.936  25.714  1.00  0.00    -0.053 NA
HETATM   15  O3  UNL     1      22.776 -20.087  25.016  1.00  0.00    -0.266 OA
ENDBRANCH  10  13
ENDBRANCH   1   9
TORSDOF 5
ENDMDL
MODEL 2
REMARK VINA RESULT: -5.647602394      2.561      4.407
REMARK  5 active torsions:
REMARK  status: ('A' for Active; 'I' for Inactive)
REMARK    1  A    between atoms: N1_1  and  N2_4 
REMARK    2  A    between atoms: N2_4  and  C1_6 
REMARK    3  A    between atoms: C1_6  and  O1_7 
REMARK    4  A    between atoms: C1_6  and  N3_9 
REMARK       I    between atoms: N3_9  and  C2_11 
REMARK    5  A    between atoms: C2_11  and  C3_13 
ROOT
HETATM    1  C1  UNL     1      20.791 -18.189  24.563  1.00  0.00     0.238 C 
ENDROOT
BRANCH   1   2
HETATM    2  N2  UNL     1      21.306 -19.336  25.189  1.00  0.00    -0.272 N 
ATOM      3  H2  UNL     1      20.989 -19.563  26.132  1.00  0.00     0.190 HD
BRANCH   2   4
HETATM    4  N1  UNL     1      22.226 -20.173  24.577  1.00  0.00    -0.342 N 
ATOM      5  H12 UNL     1      23.030 -20.475  25.127  1.00  0.00     0.176 HD
ATOM      6  H11 UNL     1      22.126 -20.489  23.612  1.00  0.00     0.176 HD
ENDBRANCH   2   4
ENDBRANCH   1   2
BRANCH   1   7
HETATM    7  O1  UNL     1      21.260 -17.085  25.066  1.00  0.00    -0.331 OA
ATOM      8  H1  UNL     1      20.735 -16.754  25.785  1.00  0.00     0.221 HD
ENDBRANCH   1   7
BRANCH   1   9
HETATM    9  N3  UNL     1      19.873 -18.121  23.506  1.00  0.00    -0.284 N 
HETATM   10  C2  UNL     1      19.406 -19.147  22.678  1.00  0.00     0.313 C 
HETATM   11  O2  UNL     1      19.797 -20.320  22.813  1.00  0.00    -0.262 OA
ATOM     12  H3  UNL     1      19.492 -17.194  23.314  1.00  0.00     0.172 HD
BRANCH  10  13
HETATM   13  C3  UNL     1      18.426 -18.852  21.612  1.00  0.00     0.322 C 
HETATM   14  N4  UNL     1      18.096 -17.518  21.259  1.00  0.00    -0.053 NA
HETATM   15  O3  UNL     1      17.858 -19.779  20.989  1.00  0.00    -0.266 OA
ENDBRANCH  10  13
ENDBRANCH   1   9
TORSDOF 5
ENDMDL
MODEL 3
REMARK VINA RESULT: -5.625905211      1.389      4.489
REMARK  5 active torsions:
REMARK  status: ('A' for Active; 'I' for Inactive)
REMARK    1  A    between atoms: N1_1  and  N2_4 
REMARK    2  A    between atoms: N2_4  and  C1_6 
REMARK    3  A    between atoms: C1_6  and  O1_7 
REMARK    4  A    between atoms: C1_6  and  N3_9 
REMARK       I    between atoms: N3_9  and  C2_11 
REMARK    5  A    between atoms: C2_11  and  C3_13 
ROOT
HETATM    1  C1  UNL     1      21.809 -19.028  24.633  1.00  0.00     0.238 C 
ENDROOT
BRANCH   1   2
HETATM    2  N2  UNL     1      21.520 -17.771  25.192  1.00  0.00    -0.272 N 
ATOM      3  H2  UNL     1      22.250 -17.058  25.196  1.00  0.00     0.190 HD
BRANCH   2   4
HETATM    4  N1  UNL     1      20.284 -17.462  25.738  1.00  0.00    -0.342 N 
ATOM      5  H12 UNL     1      19.686 -16.818  25.220  1.00  0.00     0.176 HD
ATOM      6  H11 UNL     1      19.962 -17.852  26.624  1.00  0.00     0.176 HD
ENDBRANCH   2   4
ENDBRANCH   1   2
BRANCH   1   7
HETATM    7  O1  UNL     1      22.540 -19.771  25.411  1.00  0.00    -0.331 OA
ATOM      8  H1  UNL     1      22.591 -20.674  25.118  1.00  0.00     0.221 HD
ENDBRANCH   1   7
BRANCH   1   9
HETATM    9  N3  UNL     1      21.408 -19.531  23.388  1.00  0.00    -0.284 N 
HETATM   10  C2  UNL     1      20.132 -19.549  22.815  1.00  0.00     0.313 C 
HETATM   11  O2  UNL     1      19.146 -19.079  23.411  1.00  0.00    -0.262 OA
ATOM     12  H3  UNL     1      22.150 -19.942  22.821  1.00  0.00     0.172 HD
BRANCH  10  13
HETATM   13  C3  UNL     1      19.930 -20.135  21.475  1.00  0.00     0.322 C 
HETATM   14  N4  UNL     1      20.500 -19.548  20.316  1.00  0.00    -0.053 NA
HETATM   15  O3  UNL     1      19.244 -21.174  21.325  1.00  0.00    -0.266 OA
ENDBRANCH  10  13
ENDBRANCH   1   9
TORSDOF 5
ENDMDL
MODEL 4
REMARK VINA RESULT: -5.613237874      2.225      4.514
REMARK  5 active torsions:
REMARK  status: ('A' for Active; 'I' for Inactive)
REMARK    1  A    between atoms: N1_1  and  N2_4 
REMARK    2  A    between atoms: N2_4  and  C1_6 
REMARK    3  A    between atoms: C1_6  and  O1_7 
REMARK    4  A    between atoms: C1_6  and  N3_9 
REMARK       I    between atoms: N3_9  and  C2_11 
REMARK    5  A    between atoms: C2_11  and  C3_13 
ROOT
HETATM    1  C1  UNL     1      20.890 -18.181  24.632  1.00  0.00     0.238 C 
ENDROOT
BRANCH   1   2
HETATM    2  N2  UNL     1      21.347 -19.374  25.216  1.00  0.00    -0.272 N 
ATOM      3  H2  UNL     1      21.000 -19.631  26.140  1.00  0.00     0.190 HD
BRANCH   2   4
HETATM    4  N1  UNL     1      22.251 -20.216  24.587  1.00  0.00    -0.342 N 
ATOM      5  H12 UNL     1      21.955 -20.666  23.721  1.00  0.00     0.176 HD
ATOM      6  H11 UNL     1      23.185 -20.396  24.957  1.00  0.00     0.176 HD
ENDBRANCH   2   4
ENDBRANCH   1   2
BRANCH   1   7
HETATM    7  O1  UNL     1      21.426 -17.121  25.162  1.00  0.00    -0.331 OA
ATOM      8  H1  UNL     1      22.363 -17.067  25.014  1.00  0.00     0.221 HD
ENDBRANCH   1   7
BRANCH   1   9
HETATM    9  N3  UNL     1      19.965 -18.029  23.590  1.00  0.00    -0.284 N 
HETATM   10  C2  UNL     1      19.468 -18.993  22.706  1.00  0.00     0.313 C 
HETATM   11  O2  UNL     1      19.834 -20.180  22.767  1.00  0.00    -0.262 OA
ATOM     12  H3  UNL     1      19.604 -17.084  23.458  1.00  0.00     0.172 HD
BRANCH  10  13
HETATM   13  C3  UNL     1      18.486 -18.612  21.670  1.00  0.00     0.322 C 
HETATM   14  N4  UNL     1      17.809 -19.591  20.898  1.00  0.00    -0.053 NA
HETATM   15  O3  UNL     1      18.225 -17.407  21.445  1.00  0.00    -0.266 OA
ENDBRANCH  10  13
ENDBRANCH   1   9
TORSDOF 5
ENDMDL
MODEL 5
REMARK VINA RESULT: -5.604736974      1.409      1.674
REMARK  5 active torsions:
REMARK  status: ('A' for Active; 'I' for Inactive)
REMARK    1  A    between atoms: N1_1  and  N2_4 
REMARK    2  A    between atoms: N2_4  and  C1_6 
REMARK    3  A    between atoms: C1_6  and  O1_7 
REMARK    4  A    between atoms: C1_6  and  N3_9 
REMARK       I    between atoms: N3_9  and  C2_11 
REMARK    5  A    between atoms: C2_11  and  C3_13 
ROOT
HETATM    1  C1  UNL     1      19.731 -20.282  22.050  1.00  0.00     0.238 C 
ENDROOT
BRANCH   1   2
HETATM    2  N2  UNL     1      18.625 -19.448  21.815  1.00  0.00    -0.272 N 
ATOM      3  H2  UNL     1      17.702 -19.761  22.118  1.00  0.00     0.190 HD
BRANCH   2   4
HETATM    4  N1  UNL     1      18.737 -18.216  21.188  1.00  0.00    -0.342 N 
ATOM      5  H12 UNL     1      17.900 -17.635  21.135  1.00  0.00     0.176 HD
ATOM      6  H11 UNL     1      19.613 -17.881  20.787  1.00  0.00     0.176 HD
ENDBRANCH   2   4
ENDBRANCH   1   2
BRANCH   1   7
HETATM    7  O1  UNL     1      19.784 -21.294  21.235  1.00  0.00    -0.331 OA
ATOM      8  H1  UNL     1      20.335 -21.131  20.479  1.00  0.00     0.221 HD
ENDBRANCH   1   7
BRANCH   1   9
HETATM    9  N3  UNL     1      20.729 -20.137  23.023  1.00  0.00    -0.284 N 
HETATM   10  C2  UNL     1      20.957 -19.071  23.900  1.00  0.00     0.313 C 
HETATM   11  O2  UNL     1      20.231 -18.061  23.897  1.00  0.00    -0.262 OA
ATOM     12  H3  UNL     1      21.381 -20.919  23.103  1.00  0.00     0.172 HD
BRANCH  10  13
HETATM   13  C3  UNL     1      22.080 -19.126  24.858  1.00  0.00     0.322 C 
HETATM   14  N4  UNL     1      22.411 -18.014  25.675  1.00  0.00    -0.053 NA
HETATM   15  O3  UNL     1      22.775 -20.163  24.974  1.00  0.00    -0.266 OA
ENDBRANCH  10  13
ENDBRANCH   1   9
TORSDOF 5
ENDMDL
