MODEL 1
REMARK VINA RESULT: -7.362460410      0.000      0.000
REMARK  2 active torsions:
REMARK  status: ('A' for Active; 'I' for Inactive)
REMARK       I    between atoms: N3_4  and  C2_6 
REMARK    1  A    between atoms: N5_8  and  N6_10 
REMARK    2  A    between atoms: N6_10  and  C3_12 
ROOT
HETATM    1  N6  UNL     1     -21.079 -19.454 -23.012  1.00  0.00    -0.127 N 
ATOM      2  H6  UNL     1     -22.016 -19.234 -22.675  1.00  0.00     0.206 HD
ENDROOT
BRANCH   1   3
HETATM    3  N5  UNL     1     -20.349 -20.491 -22.466  1.00  0.00    -0.259 N 
HETATM    4  C2  UNL     1     -20.096 -20.533 -21.219  1.00  0.00     0.209 C 
HETATM    5  N3  UNL     1     -20.558 -19.515 -20.370  1.00  0.00    -0.306 N 
HETATM    6  N4  UNL     1     -19.351 -21.601 -20.686  1.00  0.00    -0.062 NA
HETATM    7  C1  UNL     1     -19.745 -19.036 -19.491  1.00  0.00     0.203 C 
ATOM      8  H3  UNL     1     -21.513 -19.164 -20.446  1.00  0.00     0.170 HD
HETATM    9  N1  UNL     1     -18.416 -19.520 -19.380  1.00  0.00    -0.066 NA
HETATM   10  N2  UNL     1     -20.121 -18.003 -18.586  1.00  0.00    -0.066 NA
ATOM     11  H5  UNL     1     -20.007 -21.237 -23.072  1.00  0.00     0.190 HD
ENDBRANCH   1   3
BRANCH   1  12
HETATM   12  C3  UNL     1     -20.534 -18.767 -23.969  1.00  0.00     0.728 A 
HETATM   13  N7  UNL     1     -19.365 -19.079 -24.550  1.00  0.00    -0.114 N 
HETATM   14  N8  UNL     1     -19.151 -18.158 -25.462  1.00  0.00    -0.213 N 
ATOM     15  H7  UNL     1     -18.764 -19.871 -24.327  1.00  0.00     0.207 HD
HETATM   16  N9  UNL     1     -20.130 -17.285 -25.480  1.00  0.00    -0.213 N 
ATOM     17  H8  UNL     1     -18.334 -18.126 -26.072  1.00  0.00     0.210 HD
HETATM   18  N10 UNL     1     -20.998 -17.652 -24.555  1.00  0.00    -0.114 N 
ATOM     19  H9  UNL     1     -20.206 -16.474 -26.093  1.00  0.00     0.210 HD
ATOM     20  H10 UNL     1     -21.869 -17.171 -24.325  1.00  0.00     0.207 HD
ENDBRANCH   1  12
TORSDOF 2
ENDMDL
MODEL 2
REMARK VINA RESULT: -7.256800762      1.376      1.820
REMARK  2 active torsions:
REMARK  status: ('A' for Active; 'I' for Inactive)
REMARK       I    between atoms: N3_4  and  C2_6 
REMARK    1  A    between atoms: N5_8  and  N6_10 
REMARK    2  A    between atoms: N6_10  and  C3_12 
ROOT
HETATM    1  N6  UNL     1     -20.521 -20.701 -22.409  1.00  0.00    -0.127 N 
ATOM      2  H6  UNL     1     -21.197 -21.177 -21.811  1.00  0.00     0.206 HD
ENDROOT
BRANCH   1   3
HETATM    3  N5  UNL     1     -19.179 -20.669 -22.083  1.00  0.00    -0.259 N 
HETATM    4  C2  UNL     1     -18.782 -20.175 -20.979  1.00  0.00     0.209 C 
HETATM    5  N3  UNL     1     -19.708 -19.649 -20.066  1.00  0.00    -0.306 N 
HETATM    6  N4  UNL     1     -17.409 -20.154 -20.669  1.00  0.00    -0.062 NA
HETATM    7  C1  UNL     1     -19.442 -18.517 -19.507  1.00  0.00     0.203 C 
ATOM      8  H3  UNL     1     -20.571 -20.149 -19.849  1.00  0.00     0.170 HD
HETATM    9  N1  UNL     1     -18.244 -17.817 -19.804  1.00  0.00    -0.066 NA
HETATM   10  N2  UNL     1     -20.319 -17.903 -18.568  1.00  0.00    -0.066 NA
ATOM     11  H5  UNL     1     -18.495 -21.048 -22.737  1.00  0.00     0.190 HD
ENDBRANCH   1   3
BRANCH   1  12
HETATM   12  C3  UNL     1     -20.895 -20.106 -23.500  1.00  0.00     0.728 A 
HETATM   13  N7  UNL     1     -21.968 -20.463 -24.223  1.00  0.00    -0.114 N 
HETATM   14  N8  UNL     1     -22.016 -19.635 -25.241  1.00  0.00    -0.213 N 
ATOM     15  H7  UNL     1     -22.616 -21.224 -24.022  1.00  0.00     0.207 HD
HETATM   16  N9  UNL     1     -21.024 -18.778 -25.191  1.00  0.00    -0.213 N 
ATOM     17  H8  UNL     1     -22.727 -19.656 -25.973  1.00  0.00     0.210 HD
HETATM   18  N10 UNL     1     -20.318 -19.060 -24.111  1.00  0.00    -0.114 N 
ATOM     19  H9  UNL     1     -20.834 -18.032 -25.860  1.00  0.00     0.210 HD
ATOM     20  H10 UNL     1     -19.480 -18.570 -23.797  1.00  0.00     0.207 HD
ENDBRANCH   1  12
TORSDOF 2
ENDMDL
MODEL 3
REMARK VINA RESULT: -7.172516631      1.771      3.146
REMARK  2 active torsions:
REMARK  status: ('A' for Active; 'I' for Inactive)
REMARK       I    between atoms: N3_4  and  C2_6 
REMARK    1  A    between atoms: N5_8  and  N6_10 
REMARK    2  A    between atoms: N6_10  and  C3_12 
ROOT
HETATM    1  N6  UNL     1     -20.471 -20.443 -22.422  1.00  0.00    -0.127 N 
ATOM      2  H6  UNL     1     -20.314 -21.375 -22.807  1.00  0.00     0.206 HD
ENDROOT
BRANCH   1   3
HETATM    3  N5  UNL     1     -20.402 -20.213 -21.062  1.00  0.00    -0.259 N 
HETATM    4  C2  UNL     1     -20.012 -21.120 -20.259  1.00  0.00     0.209 C 
HETATM    5  N3  UNL     1     -19.643 -22.384 -20.746  1.00  0.00    -0.306 N 
HETATM    6  N4  UNL     1     -19.951 -20.861 -18.877  1.00  0.00    -0.062 NA
HETATM    7  C1  UNL     1     -20.072 -23.429 -20.123  1.00  0.00     0.203 C 
ATOM      8  H3  UNL     1     -19.051 -22.473 -21.572  1.00  0.00     0.170 HD
HETATM    9  N1  UNL     1     -20.897 -23.311 -18.975  1.00  0.00    -0.066 NA
HETATM   10  N2  UNL     1     -19.752 -24.752 -20.541  1.00  0.00    -0.066 NA
ATOM     11  H5  UNL     1     -20.668 -19.299 -20.694  1.00  0.00     0.190 HD
ENDBRANCH   1   3
BRANCH   1  12
HETATM   12  C3  UNL     1     -20.741 -19.436 -23.195  1.00  0.00     0.728 A 
HETATM   13  N7  UNL     1     -21.886 -19.301 -23.883  1.00  0.00    -0.114 N 
HETATM   14  N8  UNL     1     -21.786 -18.169 -24.541  1.00  0.00    -0.213 N 
ATOM     15  H7  UNL     1     -22.674 -19.947 -23.892  1.00  0.00     0.207 HD
HETATM   16  N9  UNL     1     -20.634 -17.590 -24.299  1.00  0.00    -0.213 N 
ATOM     17  H8  UNL     1     -22.507 -17.792 -25.158  1.00  0.00     0.210 HD
HETATM   18  N10 UNL     1     -19.973 -18.369 -23.463  1.00  0.00    -0.114 N 
ATOM     19  H9  UNL     1     -20.310 -16.703 -24.684  1.00  0.00     0.210 HD
ATOM     20  H10 UNL     1     -19.042 -18.190 -23.086  1.00  0.00     0.207 HD
ENDBRANCH   1  12
TORSDOF 2
ENDMDL
MODEL 4
REMARK VINA RESULT: -7.084666076      1.365      1.884
REMARK  2 active torsions:
REMARK  status: ('A' for Active; 'I' for Inactive)
REMARK       I    between atoms: N3_4  and  C2_6 
REMARK    1  A    between atoms: N5_8  and  N6_10 
REMARK    2  A    between atoms: N6_10  and  C3_12 
ROOT
HETATM    1  N6  UNL     1     -19.685 -20.303 -22.388  1.00  0.00    -0.127 N 
ATOM      2  H6  UNL     1     -18.795 -19.814 -22.287  1.00  0.00     0.206 HD
ENDROOT
BRANCH   1   3
HETATM    3  N5  UNL     1     -20.073 -21.272 -21.483  1.00  0.00    -0.259 N 
HETATM    4  C2  UNL     1     -20.449 -20.961 -20.307  1.00  0.00     0.209 C 
HETATM    5  N3  UNL     1     -20.476 -19.617 -19.906  1.00  0.00    -0.306 N 
HETATM    6  N4  UNL     1     -20.840 -21.966 -19.403  1.00  0.00    -0.062 NA
HETATM    7  C1  UNL     1     -20.004 -19.315 -18.744  1.00  0.00     0.203 C 
ATOM      8  H3  UNL     1     -20.860 -18.896 -20.518  1.00  0.00     0.170 HD
HETATM    9  N1  UNL     1     -19.468 -20.313 -17.889  1.00  0.00    -0.066 NA
HETATM   10  N2  UNL     1     -19.987 -17.980 -18.249  1.00  0.00    -0.066 NA
ATOM     11  H5  UNL     1     -20.057 -22.253 -21.761  1.00  0.00     0.190 HD
ENDBRANCH   1   3
BRANCH   1  12
HETATM   12  C3  UNL     1     -20.488 -20.035 -23.371  1.00  0.00     0.728 A 
HETATM   13  N7  UNL     1     -20.327 -19.005 -24.216  1.00  0.00    -0.114 N 
HETATM   14  N8  UNL     1     -21.330 -19.064 -25.063  1.00  0.00    -0.213 N 
ATOM     15  H7  UNL     1     -19.577 -18.315 -24.204  1.00  0.00     0.207 HD
HETATM   16  N9  UNL     1     -22.111 -20.082 -24.788  1.00  0.00    -0.213 N 
ATOM     17  H8  UNL     1     -21.480 -18.408 -25.830  1.00  0.00     0.210 HD
HETATM   18  N10 UNL     1     -21.599 -20.694 -23.736  1.00  0.00    -0.114 N 
ATOM     19  H9  UNL     1     -22.956 -20.350 -25.292  1.00  0.00     0.210 HD
ATOM     20  H10 UNL     1     -21.981 -21.524 -23.280  1.00  0.00     0.207 HD
ENDBRANCH   1  12
TORSDOF 2
ENDMDL
MODEL 5
REMARK VINA RESULT: -7.072745267      1.915      2.865
REMARK  2 active torsions:
REMARK  status: ('A' for Active; 'I' for Inactive)
REMARK       I    between atoms: N3_4  and  C2_6 
REMARK    1  A    between atoms: N5_8  and  N6_10 
REMARK    2  A    between atoms: N6_10  and  C3_12 
ROOT
HETATM    1  N6  UNL     1     -18.957 -19.422 -22.627  1.00  0.00    -0.127 N 
ATOM      2  H6  UNL     1     -18.409 -20.264 -22.454  1.00  0.00     0.206 HD
ENDROOT
BRANCH   1   3
HETATM    3  N5  UNL     1     -18.491 -18.178 -22.249  1.00  0.00    -0.259 N 
HETATM    4  C2  UNL     1     -17.932 -17.999 -21.119  1.00  0.00     0.209 C 
HETATM    5  N3  UNL     1     -17.779 -19.074 -20.230  1.00  0.00    -0.306 N 
HETATM    6  N4  UNL     1     -17.465 -16.723 -20.757  1.00  0.00    -0.062 NA
HETATM    7  C1  UNL     1     -18.062 -18.883 -18.986  1.00  0.00     0.203 C 
ATOM      8  H3  UNL     1     -17.452 -19.983 -20.558  1.00  0.00     0.170 HD
HETATM    9  N1  UNL     1     -18.517 -17.621 -18.522  1.00  0.00    -0.066 NA
HETATM   10  N2  UNL     1     -17.938 -19.911 -18.008  1.00  0.00    -0.066 NA
ATOM     11  H5  UNL     1     -18.597 -17.388 -22.886  1.00  0.00     0.190 HD
ENDBRANCH   1   3
BRANCH   1  12
HETATM   12  C3  UNL     1     -20.115 -19.485 -23.210  1.00  0.00     0.728 A 
HETATM   13  N7  UNL     1     -20.816 -20.618 -23.372  1.00  0.00    -0.114 N 
HETATM   14  N8  UNL     1     -21.921 -20.280 -23.997  1.00  0.00    -0.213 N 
ATOM     15  H7  UNL     1     -20.546 -21.553 -23.070  1.00  0.00     0.207 HD
HETATM   16  N9  UNL     1     -21.944 -18.989 -24.234  1.00  0.00    -0.213 N 
ATOM     17  H8  UNL     1     -22.659 -20.932 -24.263  1.00  0.00     0.210 HD
HETATM   18  N10 UNL     1     -20.826 -18.482 -23.750  1.00  0.00    -0.114 N 
ATOM     19  H9  UNL     1     -22.688 -18.475 -24.706  1.00  0.00     0.210 HD
ATOM     20  H10 UNL     1     -20.549 -17.500 -23.781  1.00  0.00     0.207 HD
ENDBRANCH   1  12
TORSDOF 2
ENDMDL
