MODEL 1
REMARK VINA RESULT: -6.477295661      0.000      0.000
REMARK  3 active torsions:
REMARK  status: ('A' for Active; 'I' for Inactive)
REMARK    1  A    between atoms: N1_1  and  S1_4 
REMARK    2  A    between atoms: S1_4  and  N2_6 
REMARK    3  A    between atoms: N2_6  and  C1_8 
ROOT
HETATM    1  C1  UNL     1     -20.431 -19.345 -22.801  1.00  0.00     0.710 A 
HETATM    2  N3  UNL     1     -20.710 -20.642 -23.005  1.00  0.00    -0.127 N 
ATOM      3  H3  UNL     1     -20.316 -21.422 -22.479  1.00  0.00     0.205 HD
HETATM    4  N4  UNL     1     -21.588 -20.747 -24.009  1.00  0.00    -0.237 N 
ATOM      5  H4  UNL     1     -21.978 -21.614 -24.379  1.00  0.00     0.192 HD
HETATM    6  C2  UNL     1     -21.863 -19.506 -24.440  1.00  0.00     0.353 A 
HETATM    7  O2  UNL     1     -22.652 -19.240 -25.375  1.00  0.00    -0.245 OA
HETATM    8  N5  UNL     1     -21.151 -18.649 -23.696  1.00  0.00    -0.138 N 
ATOM      9  H5  UNL     1     -21.154 -17.634 -23.794  1.00  0.00     0.189 HD
ENDROOT
BRANCH   1  10
HETATM   10  N2  UNL     1     -19.610 -18.953 -21.889  1.00  0.00    -0.120 N 
ATOM     11  H2  UNL     1     -19.787 -19.158 -20.906  1.00  0.00     0.196 HD
BRANCH  10  12
HETATM   12  S1  UNL     1     -18.202 -18.073 -22.364  1.00  0.00     0.229 S 
HETATM   13  O1  UNL     1     -17.796 -16.948 -21.179  1.00  0.00    -0.212 OA
BRANCH  12  14
HETATM   14  N1  UNL     1     -18.551 -17.201 -23.807  1.00  0.00    -0.332 NA
ATOM     15  H12 UNL     1     -17.740 -16.634 -24.054  1.00  0.00     0.168 HD
ATOM     16  H11 UNL     1     -18.737 -17.885 -24.541  1.00  0.00     0.168 HD
ENDBRANCH  12  14
ENDBRANCH  10  12
ENDBRANCH   1  10
TORSDOF 3
ENDMDL
MODEL 2
REMARK VINA RESULT: -6.360617627      2.023      2.429
REMARK  3 active torsions:
REMARK  status: ('A' for Active; 'I' for Inactive)
REMARK    1  A    between atoms: N1_1  and  S1_4 
REMARK    2  A    between atoms: S1_4  and  N2_6 
REMARK    3  A    between atoms: N2_6  and  C1_8 
ROOT
HETATM    1  C1  UNL     1     -20.218 -19.360 -23.253  1.00  0.00     0.710 A 
HETATM    2  N3  UNL     1     -20.913 -20.502 -23.387  1.00  0.00    -0.127 N 
ATOM      3  H3  UNL     1     -20.719 -21.373 -22.894  1.00  0.00     0.205 HD
HETATM    4  N4  UNL     1     -21.899 -20.312 -24.270  1.00  0.00    -0.237 N 
ATOM      5  H4  UNL     1     -22.584 -21.007 -24.567  1.00  0.00     0.192 HD
HETATM    6  C2  UNL     1     -21.824 -19.042 -24.697  1.00  0.00     0.353 A 
HETATM    7  O2  UNL     1     -22.602 -18.528 -25.533  1.00  0.00    -0.245 OA
HETATM    8  N5  UNL     1     -20.791 -18.462 -24.070  1.00  0.00    -0.138 N 
ATOM      9  H5  UNL     1     -20.489 -17.495 -24.193  1.00  0.00     0.189 HD
ENDROOT
BRANCH   1  10
HETATM   10  N2  UNL     1     -19.207 -19.259 -22.461  1.00  0.00    -0.120 N 
ATOM     11  H2  UNL     1     -18.391 -18.707 -22.727  1.00  0.00     0.196 HD
BRANCH  10  12
HETATM   12  S1  UNL     1     -19.260 -20.075 -20.941  1.00  0.00     0.229 S 
HETATM   13  O1  UNL     1     -19.152 -21.739 -21.173  1.00  0.00    -0.212 OA
BRANCH  12  14
HETATM   14  N1  UNL     1     -20.775 -19.754 -20.189  1.00  0.00    -0.332 NA
ATOM     15  H12 UNL     1     -20.739 -20.078 -19.222  1.00  0.00     0.168 HD
ATOM     16  H11 UNL     1     -20.922 -18.745 -20.214  1.00  0.00     0.168 HD
ENDBRANCH  12  14
ENDBRANCH  10  12
ENDBRANCH   1  10
TORSDOF 3
ENDMDL
MODEL 3
REMARK VINA RESULT: -6.190602444      1.648      1.767
REMARK  3 active torsions:
REMARK  status: ('A' for Active; 'I' for Inactive)
REMARK    1  A    between atoms: N1_1  and  S1_4 
REMARK    2  A    between atoms: S1_4  and  N2_6 
REMARK    3  A    between atoms: N2_6  and  C1_8 
ROOT
HETATM    1  C1  UNL     1     -20.668 -19.296 -22.936  1.00  0.00     0.710 A 
HETATM    2  N3  UNL     1     -19.715 -19.192 -23.876  1.00  0.00    -0.127 N 
ATOM      3  H3  UNL     1     -18.717 -19.342 -23.726  1.00  0.00     0.205 HD
HETATM    4  N4  UNL     1     -20.283 -18.860 -25.040  1.00  0.00    -0.237 N 
ATOM      5  H4  UNL     1     -19.801 -18.715 -25.926  1.00  0.00     0.192 HD
HETATM    6  C2  UNL     1     -21.605 -18.753 -24.831  1.00  0.00     0.353 A 
HETATM    7  O2  UNL     1     -22.440 -18.455 -25.715  1.00  0.00    -0.245 OA
HETATM    8  N5  UNL     1     -21.836 -19.021 -23.538  1.00  0.00    -0.138 N 
ATOM      9  H5  UNL     1     -22.750 -19.017 -23.086  1.00  0.00     0.189 HD
ENDROOT
BRANCH   1  10
HETATM   10  N2  UNL     1     -20.399 -19.605 -21.715  1.00  0.00    -0.120 N 
ATOM     11  H2  UNL     1     -20.799 -20.442 -21.290  1.00  0.00     0.196 HD
BRANCH  10  12
HETATM   12  S1  UNL     1     -19.349 -18.575 -20.810  1.00  0.00     0.229 S 
HETATM   13  O1  UNL     1     -20.156 -17.965 -19.464  1.00  0.00    -0.212 OA
BRANCH  12  14
HETATM   14  N1  UNL     1     -18.899 -17.237 -21.794  1.00  0.00    -0.332 NA
ATOM     15  H12 UNL     1     -19.649 -16.545 -21.775  1.00  0.00     0.168 HD
ATOM     16  H11 UNL     1     -18.046 -16.840 -21.399  1.00  0.00     0.168 HD
ENDBRANCH  12  14
ENDBRANCH  10  12
ENDBRANCH   1  10
TORSDOF 3
ENDMDL
MODEL 4
REMARK VINA RESULT: -6.078257580      2.275      3.905
REMARK  3 active torsions:
REMARK  status: ('A' for Active; 'I' for Inactive)
REMARK    1  A    between atoms: N1_1  and  S1_4 
REMARK    2  A    between atoms: S1_4  and  N2_6 
REMARK    3  A    between atoms: N2_6  and  C1_8 
ROOT
HETATM    1  C1  UNL     1     -20.109 -19.370 -23.366  1.00  0.00     0.710 A 
HETATM    2  N3  UNL     1     -20.477 -20.630 -23.081  1.00  0.00    -0.127 N 
ATOM      3  H3  UNL     1     -20.748 -21.336 -23.766  1.00  0.00     0.205 HD
HETATM    4  N4  UNL     1     -20.430 -20.811 -21.757  1.00  0.00    -0.237 N 
ATOM      5  H4  UNL     1     -20.657 -21.671 -21.258  1.00  0.00     0.192 HD
HETATM    6  C2  UNL     1     -20.031 -19.656 -21.203  1.00  0.00     0.353 A 
HETATM    7  O2  UNL     1     -19.879 -19.475 -19.973  1.00  0.00    -0.245 OA
HETATM    8  N5  UNL     1     -19.835 -18.775 -22.194  1.00  0.00    -0.138 N 
ATOM      9  H5  UNL     1     -19.528 -17.809 -22.077  1.00  0.00     0.189 HD
ENDROOT
BRANCH   1  10
HETATM   10  N2  UNL     1     -20.064 -18.922 -24.572  1.00  0.00    -0.120 N 
ATOM     11  H2  UNL     1     -19.176 -18.644 -24.991  1.00  0.00     0.196 HD
BRANCH  10  12
HETATM   12  S1  UNL     1     -21.536 -18.801 -25.467  1.00  0.00     0.229 S 
HETATM   13  O1  UNL     1     -22.401 -17.443 -24.976  1.00  0.00    -0.212 OA
BRANCH  12  14
HETATM   14  N1  UNL     1     -22.507 -20.182 -25.132  1.00  0.00    -0.332 NA
ATOM     15  H12 UNL     1     -23.458 -20.003 -25.454  1.00  0.00     0.168 HD
ATOM     16  H11 UNL     1     -22.106 -20.969 -25.642  1.00  0.00     0.168 HD
ENDBRANCH  12  14
ENDBRANCH  10  12
ENDBRANCH   1  10
TORSDOF 3
ENDMDL
MODEL 5
REMARK VINA RESULT: -6.067867438      1.922      4.536
REMARK  3 active torsions:
REMARK  status: ('A' for Active; 'I' for Inactive)
REMARK    1  A    between atoms: N1_1  and  S1_4 
REMARK    2  A    between atoms: S1_4  and  N2_6 
REMARK    3  A    between atoms: N2_6  and  C1_8 
ROOT
HETATM    1  C1  UNL     1     -20.079 -18.603 -22.649  1.00  0.00     0.710 A 
HETATM    2  N3  UNL     1     -19.583 -17.517 -23.263  1.00  0.00    -0.127 N 
ATOM      3  H3  UNL     1     -19.988 -17.064 -24.082  1.00  0.00     0.205 HD
HETATM    4  N4  UNL     1     -18.472 -17.125 -22.629  1.00  0.00    -0.237 N 
ATOM      5  H4  UNL     1     -17.887 -16.328 -22.876  1.00  0.00     0.192 HD
HETATM    6  C2  UNL     1     -18.267 -17.972 -21.608  1.00  0.00     0.353 A 
HETATM    7  O2  UNL     1     -17.309 -17.894 -20.805  1.00  0.00    -0.245 OA
HETATM    8  N5  UNL     1     -19.255 -18.877 -21.624  1.00  0.00    -0.138 N 
ATOM      9  H5  UNL     1     -19.364 -19.648 -20.965  1.00  0.00     0.189 HD
ENDROOT
BRANCH   1  10
HETATM   10  N2  UNL     1     -21.150 -19.193 -23.052  1.00  0.00    -0.120 N 
ATOM     11  H2  UNL     1     -21.733 -19.717 -22.399  1.00  0.00     0.196 HD
BRANCH  10  12
HETATM   12  S1  UNL     1     -21.581 -19.081 -24.720  1.00  0.00     0.229 S 
HETATM   13  O1  UNL     1     -22.416 -17.648 -25.007  1.00  0.00    -0.212 OA
BRANCH  12  14
HETATM   14  N1  UNL     1     -22.636 -20.383 -25.112  1.00  0.00    -0.332 NA
ATOM     15  H12 UNL     1     -22.303 -20.832 -25.966  1.00  0.00     0.168 HD
ATOM     16  H11 UNL     1     -22.610 -21.043 -24.335  1.00  0.00     0.168 HD
ENDBRANCH  12  14
ENDBRANCH  10  12
ENDBRANCH   1  10
TORSDOF 3
ENDMDL
