MODEL 1
REMARK VINA RESULT: -6.905837122      0.000      0.000
REMARK  3 active torsions:
REMARK  status: ('A' for Active; 'I' for Inactive)
REMARK    1  A    between atoms: N3_4  and  N4_6 
REMARK    2  A    between atoms: N4_6  and  C2_8 
REMARK    3  A    between atoms: N6_13  and  N7_14 
ROOT
HETATM    1  C2  UNL     1     -20.433 -20.105 -22.677  1.00  0.00     0.717 A 
HETATM    2  N5  UNL     1     -21.378 -20.588 -23.467  1.00  0.00    -0.136 N 
ATOM      3  H5  UNL     1     -21.779 -21.525 -23.440  1.00  0.00     0.189 HD
HETATM    4  C3  UNL     1     -21.704 -19.588 -24.319  1.00  0.00     0.375 A 
HETATM    5  O1  UNL     1     -22.568 -19.673 -25.216  1.00  0.00    -0.243 OA
HETATM    6  N6  UNL     1     -20.935 -18.520 -24.011  1.00  0.00    -0.134 N 
HETATM    7  N8  UNL     1     -20.147 -18.820 -23.005  1.00  0.00    -0.105 N 
ATOM      8  H8  UNL     1     -19.460 -18.211 -22.560  1.00  0.00     0.208 HD
ENDROOT
BRANCH   1   9
HETATM    9  N4  UNL     1     -19.848 -20.724 -21.734  1.00  0.00    -0.128 N 
ATOM     10  H4  UNL     1     -18.915 -20.430 -21.444  1.00  0.00     0.205 HD
BRANCH   9  11
HETATM   11  N3  UNL     1     -20.459 -21.797 -21.089  1.00  0.00    -0.262 N 
HETATM   12  C1  UNL     1     -20.467 -21.831 -19.814  1.00  0.00     0.216 C 
HETATM   13  N1  UNL     1     -19.864 -20.794 -19.074  1.00  0.00    -0.065 NA
HETATM   14  N2  UNL     1     -21.078 -22.904 -19.130  1.00  0.00    -0.065 NA
ATOM     15  H3  UNL     1     -20.894 -22.546 -21.629  1.00  0.00     0.190 HD
ENDBRANCH   9  11
ENDBRANCH   1   9
BRANCH   6  16
HETATM   16  N7  UNL     1     -21.007 -17.309 -24.690  1.00  0.00    -0.319 N 
ATOM     17  H72 UNL     1     -21.768 -16.629 -24.661  1.00  0.00     0.179 HD
ATOM     18  H71 UNL     1     -20.271 -16.972 -25.311  1.00  0.00     0.179 HD
ENDBRANCH   6  16
TORSDOF 3
ENDMDL
MODEL 2
REMARK VINA RESULT: -6.905326757      1.102      1.443
REMARK  3 active torsions:
REMARK  status: ('A' for Active; 'I' for Inactive)
REMARK    1  A    between atoms: N3_4  and  N4_6 
REMARK    2  A    between atoms: N4_6  and  C2_8 
REMARK    3  A    between atoms: N6_13  and  N7_14 
ROOT
HETATM    1  C2  UNL     1     -20.726 -19.858 -23.315  1.00  0.00     0.717 A 
HETATM    2  N5  UNL     1     -21.900 -19.514 -23.819  1.00  0.00    -0.136 N 
ATOM      3  H5  UNL     1     -22.809 -19.907 -23.576  1.00  0.00     0.189 HD
HETATM    4  C3  UNL     1     -21.651 -18.538 -24.723  1.00  0.00     0.375 A 
HETATM    5  O1  UNL     1     -22.523 -17.962 -25.404  1.00  0.00    -0.243 OA
HETATM    6  N6  UNL     1     -20.316 -18.322 -24.735  1.00  0.00    -0.134 N 
HETATM    7  N8  UNL     1     -19.732 -19.125 -23.876  1.00  0.00    -0.105 N 
ATOM      8  H8  UNL     1     -18.734 -19.186 -23.672  1.00  0.00     0.208 HD
ENDROOT
BRANCH   1   9
HETATM    9  N4  UNL     1     -20.515 -20.746 -22.431  1.00  0.00    -0.128 N 
ATOM     10  H4  UNL     1     -20.505 -21.730 -22.700  1.00  0.00     0.205 HD
BRANCH   9  11
HETATM   11  N3  UNL     1     -20.295 -20.398 -21.099  1.00  0.00    -0.262 N 
HETATM   12  C1  UNL     1     -20.306 -21.313 -20.210  1.00  0.00     0.216 C 
HETATM   13  N1  UNL     1     -20.536 -22.654 -20.576  1.00  0.00    -0.065 NA
HETATM   14  N2  UNL     1     -20.088 -20.995 -18.853  1.00  0.00    -0.065 NA
ATOM     15  H3  UNL     1     -20.129 -19.426 -20.839  1.00  0.00     0.190 HD
ENDBRANCH   9  11
ENDBRANCH   1   9
BRANCH   6  16
HETATM   16  N7  UNL     1     -19.705 -17.378 -25.553  1.00  0.00    -0.319 N 
ATOM     17  H72 UNL     1     -19.478 -16.412 -25.318  1.00  0.00     0.179 HD
ATOM     18  H71 UNL     1     -19.415 -17.574 -26.511  1.00  0.00     0.179 HD
ENDBRANCH   6  16
TORSDOF 3
ENDMDL
MODEL 3
REMARK VINA RESULT: -6.881954670      2.662      5.215
REMARK  3 active torsions:
REMARK  status: ('A' for Active; 'I' for Inactive)
REMARK    1  A    between atoms: N3_4  and  N4_6 
REMARK    2  A    between atoms: N4_6  and  C2_8 
REMARK    3  A    between atoms: N6_13  and  N7_14 
ROOT
HETATM    1  C2  UNL     1     -20.240 -19.606 -22.114  1.00  0.00     0.717 A 
HETATM    2  N5  UNL     1     -19.193 -18.933 -21.663  1.00  0.00    -0.136 N 
ATOM      3  H5  UNL     1     -19.042 -17.926 -21.721  1.00  0.00     0.189 HD
HETATM    4  C3  UNL     1     -18.365 -19.849 -21.112  1.00  0.00     0.375 A 
HETATM    5  O1  UNL     1     -17.268 -19.584 -20.578  1.00  0.00    -0.243 OA
HETATM    6  N6  UNL     1     -18.946 -21.063 -21.250  1.00  0.00    -0.134 N 
HETATM    7  N8  UNL     1     -20.098 -20.931 -21.864  1.00  0.00    -0.105 N 
ATOM      8  H8  UNL     1     -20.754 -21.675 -22.105  1.00  0.00     0.208 HD
ENDROOT
BRANCH   1   9
HETATM    9  N4  UNL     1     -21.254 -19.119 -22.706  1.00  0.00    -0.128 N 
ATOM     10  H4  UNL     1     -22.173 -19.196 -22.271  1.00  0.00     0.205 HD
BRANCH   9  11
HETATM   11  N3  UNL     1     -21.130 -18.481 -23.939  1.00  0.00    -0.262 N 
HETATM   12  C1  UNL     1     -21.778 -18.937 -24.939  1.00  0.00     0.216 C 
HETATM   13  N1  UNL     1     -22.603 -20.069 -24.793  1.00  0.00    -0.065 NA
HETATM   14  N2  UNL     1     -21.675 -18.315 -26.202  1.00  0.00    -0.065 NA
ATOM     15  H3  UNL     1     -20.531 -17.662 -24.040  1.00  0.00     0.190 HD
ENDBRANCH   9  11
ENDBRANCH   1   9
BRANCH   6  16
HETATM   16  N7  UNL     1     -18.366 -22.240 -20.791  1.00  0.00    -0.319 N 
ATOM     17  H72 UNL     1     -18.844 -23.102 -20.527  1.00  0.00     0.179 HD
ATOM     18  H71 UNL     1     -17.360 -22.357 -20.669  1.00  0.00     0.179 HD
ENDBRANCH   6  16
TORSDOF 3
ENDMDL
MODEL 4
REMARK VINA RESULT: -6.859493987      1.949      2.273
REMARK  3 active torsions:
REMARK  status: ('A' for Active; 'I' for Inactive)
REMARK    1  A    between atoms: N3_4  and  N4_6 
REMARK    2  A    between atoms: N4_6  and  C2_8 
REMARK    3  A    between atoms: N6_13  and  N7_14 
ROOT
HETATM    1  C2  UNL     1     -20.611 -19.272 -22.953  1.00  0.00     0.717 A 
HETATM    2  N5  UNL     1     -21.737 -19.346 -23.644  1.00  0.00    -0.136 N 
ATOM      3  H5  UNL     1     -22.574 -19.873 -23.395  1.00  0.00     0.189 HD
HETATM    4  C3  UNL     1     -21.554 -18.583 -24.746  1.00  0.00     0.375 A 
HETATM    5  O1  UNL     1     -22.409 -18.410 -25.639  1.00  0.00    -0.243 OA
HETATM    6  N6  UNL     1     -20.306 -18.067 -24.685  1.00  0.00    -0.134 N 
HETATM    7  N8  UNL     1     -19.712 -18.480 -23.590  1.00  0.00    -0.105 N 
ATOM      8  H8  UNL     1     -18.767 -18.253 -23.280  1.00  0.00     0.208 HD
ENDROOT
BRANCH   1   9
HETATM    9  N4  UNL     1     -20.364 -19.847 -21.847  1.00  0.00    -0.128 N 
ATOM     10  H4  UNL     1     -19.886 -20.749 -21.846  1.00  0.00     0.205 HD
BRANCH   9  11
HETATM   11  N3  UNL     1     -20.734 -19.267 -20.636  1.00  0.00    -0.262 N 
HETATM   12  C1  UNL     1     -19.864 -18.613 -19.971  1.00  0.00     0.216 C 
HETATM   13  N1  UNL     1     -18.549 -18.482 -20.460  1.00  0.00    -0.065 NA
HETATM   14  N2  UNL     1     -20.206 -18.013 -18.740  1.00  0.00    -0.065 NA
ATOM     15  H3  UNL     1     -21.687 -19.364 -20.285  1.00  0.00     0.190 HD
ENDBRANCH   9  11
ENDBRANCH   1   9
BRANCH   6  16
HETATM   16  N7  UNL     1     -19.781 -17.228 -25.662  1.00  0.00    -0.319 N 
ATOM     17  H72 UNL     1     -20.168 -17.039 -26.587  1.00  0.00     0.179 HD
ATOM     18  H71 UNL     1     -18.917 -16.700 -25.539  1.00  0.00     0.179 HD
ENDBRANCH   6  16
TORSDOF 3
ENDMDL
MODEL 5
REMARK VINA RESULT: -6.855454432      2.770      3.534
REMARK  3 active torsions:
REMARK  status: ('A' for Active; 'I' for Inactive)
REMARK    1  A    between atoms: N3_4  and  N4_6 
REMARK    2  A    between atoms: N4_6  and  C2_8 
REMARK    3  A    between atoms: N6_13  and  N7_14 
ROOT
HETATM    1  C2  UNL     1     -19.633 -18.258 -23.802  1.00  0.00     0.717 A 
HETATM    2  N5  UNL     1     -20.498 -17.520 -24.479  1.00  0.00    -0.136 N 
ATOM      3  H5  UNL     1     -20.389 -16.543 -24.749  1.00  0.00     0.189 HD
HETATM    4  C3  UNL     1     -21.555 -18.324 -24.741  1.00  0.00     0.375 A 
HETATM    5  O1  UNL     1     -22.574 -17.973 -25.369  1.00  0.00    -0.243 OA
HETATM    6  N6  UNL     1     -21.290 -19.537 -24.206  1.00  0.00    -0.134 N 
HETATM    7  N8  UNL     1     -20.114 -19.514 -23.624  1.00  0.00    -0.105 N 
ATOM      8  H8  UNL     1     -19.654 -20.284 -23.138  1.00  0.00     0.208 HD
ENDROOT
BRANCH   1   9
HETATM    9  N4  UNL     1     -18.502 -17.882 -23.360  1.00  0.00    -0.128 N 
ATOM     10  H4  UNL     1     -17.664 -18.056 -23.915  1.00  0.00     0.205 HD
BRANCH   9  11
HETATM   11  N3  UNL     1     -18.389 -17.235 -22.131  1.00  0.00    -0.262 N 
HETATM   12  C1  UNL     1     -18.069 -17.916 -21.100  1.00  0.00     0.216 C 
HETATM   13  N1  UNL     1     -17.836 -19.302 -21.211  1.00  0.00    -0.065 NA
HETATM   14  N2  UNL     1     -17.946 -17.293 -19.840  1.00  0.00    -0.065 NA
ATOM     15  H3  UNL     1     -18.558 -16.232 -22.056  1.00  0.00     0.190 HD
ENDBRANCH   9  11
ENDBRANCH   1   9
BRANCH   6  16
HETATM   16  N7  UNL     1     -22.167 -20.613 -24.288  1.00  0.00    -0.319 N 
ATOM     17  H72 UNL     1     -22.264 -21.273 -25.060  1.00  0.00     0.179 HD
ATOM     18  H71 UNL     1     -22.827 -20.853 -23.548  1.00  0.00     0.179 HD
ENDBRANCH   6  16
TORSDOF 3
ENDMDL
