MODEL 1
REMARK VINA RESULT: -6.327845161      0.000      0.000
REMARK  4 active torsions:
REMARK  status: ('A' for Active; 'I' for Inactive)
REMARK    1  A    between atoms: N1_1  and  N2_4 
REMARK       I    between atoms: N2_4  and  C1_5 
REMARK    2  A    between atoms: C1_5  and  C2_7 
REMARK    3  A    between atoms: C2_7  and  N3_8 
REMARK    4  A    between atoms: C2_7  and  C3_12 
REMARK       I    between atoms: C3_12  and  N4_14 
ROOT
HETATM    1  C2  UNL     1     -19.850 -17.695 -23.741  1.00  0.00     0.382 C 
ENDROOT
BRANCH   1   2
HETATM    2  C1  UNL     1     -20.767 -18.326 -24.807  1.00  0.00     0.351 C 
HETATM    3  N2  UNL     1     -21.455 -19.476 -24.536  1.00  0.00    -0.291 NA
HETATM    4  O1  UNL     1     -20.763 -17.661 -25.874  1.00  0.00    -0.252 OA
BRANCH   3   5
HETATM    5  N1  UNL     1     -22.112 -20.571 -24.278  1.00  0.00    -0.277 N 
ATOM      6  H12 UNL     1     -21.612 -19.705 -24.479  1.00  0.00     0.191 HD
ATOM      7  H11 UNL     1     -22.625 -21.429 -24.076  1.00  0.00     0.191 HD
ENDBRANCH   3   5
ENDBRANCH   1   2
BRANCH   1   8
HETATM    8  N3  UNL     1     -18.695 -17.209 -24.449  1.00  0.00    -0.056 N 
ATOM      9  H33 UNL     1     -18.006 -17.934 -24.650  1.00  0.00     0.275 HD
ATOM     10  H32 UNL     1     -18.890 -16.951 -25.416  1.00  0.00     0.275 HD
ATOM     11  H31 UNL     1     -18.326 -16.441 -23.889  1.00  0.00     0.275 HD
ENDBRANCH   1   8
BRANCH   1  12
HETATM   12  C3  UNL     1     -19.515 -18.680 -22.727  1.00  0.00     0.265 C 
HETATM   13  O2  UNL     1     -19.105 -19.821 -23.163  1.00  0.00    -0.270 OA
HETATM   14  N4  UNL     1     -19.567 -18.571 -21.331  1.00  0.00    -0.301 N 
HETATM   15  C4  UNL     1     -18.581 -18.116 -20.641  1.00  0.00     0.203 C 
ATOM     16  H4  UNL     1     -20.416 -18.861 -20.845  1.00  0.00     0.171 HD
HETATM   17  N5  UNL     1     -18.572 -17.981 -19.230  1.00  0.00    -0.066 NA
HETATM   18  N6  UNL     1     -17.409 -17.711 -21.346  1.00  0.00    -0.066 NA
ENDBRANCH   1  12
TORSDOF 4
ENDMDL
MODEL 2
REMARK VINA RESULT: -6.202584853      1.356      2.546
REMARK  4 active torsions:
REMARK  status: ('A' for Active; 'I' for Inactive)
REMARK    1  A    between atoms: N1_1  and  N2_4 
REMARK       I    between atoms: N2_4  and  C1_5 
REMARK    2  A    between atoms: C1_5  and  C2_7 
REMARK    3  A    between atoms: C2_7  and  N3_8 
REMARK    4  A    between atoms: C2_7  and  C3_12 
REMARK       I    between atoms: C3_12  and  N4_14 
ROOT
HETATM    1  C2  UNL     1     -21.007 -19.359 -23.994  1.00  0.00     0.382 C 
ENDROOT
BRANCH   1   2
HETATM    2  C1  UNL     1     -20.598 -17.937 -24.428  1.00  0.00     0.351 C 
HETATM    3  N2  UNL     1     -19.325 -17.487 -24.215  1.00  0.00    -0.291 NA
HETATM    4  O1  UNL     1     -21.558 -17.320 -24.955  1.00  0.00    -0.252 OA
BRANCH   3   5
HETATM    5  N1  UNL     1     -18.111 -17.058 -24.014  1.00  0.00    -0.277 N 
ATOM      6  H12 UNL     1     -19.066 -17.386 -24.158  1.00  0.00     0.191 HD
ATOM      7  H11 UNL     1     -17.162 -16.723 -23.857  1.00  0.00     0.191 HD
ENDBRANCH   3   5
ENDBRANCH   1   2
BRANCH   1   8
HETATM    8  N3  UNL     1     -22.373 -19.261 -23.553  1.00  0.00    -0.056 N 
ATOM      9  H33 UNL     1     -22.524 -18.535 -22.852  1.00  0.00     0.275 HD
ATOM     10  H32 UNL     1     -23.004 -18.883 -24.260  1.00  0.00     0.275 HD
ATOM     11  H31 UNL     1     -22.633 -20.195 -23.234  1.00  0.00     0.275 HD
ENDBRANCH   1   8
BRANCH   1  12
HETATM   12  C3  UNL     1     -20.113 -19.838 -22.955  1.00  0.00     0.265 C 
HETATM   13  O2  UNL     1     -18.950 -20.229 -23.348  1.00  0.00    -0.270 OA
HETATM   14  N4  UNL     1     -20.327 -19.935 -21.573  1.00  0.00    -0.301 N 
HETATM   15  C4  UNL     1     -20.084 -18.958 -20.772  1.00  0.00     0.203 C 
ATOM     16  H4  UNL     1     -20.688 -20.809 -21.190  1.00  0.00     0.171 HD
HETATM   17  N5  UNL     1     -20.280 -18.992 -19.368  1.00  0.00    -0.066 NA
HETATM   18  N6  UNL     1     -19.588 -17.745 -21.335  1.00  0.00    -0.066 NA
ENDBRANCH   1  12
TORSDOF 4
ENDMDL
MODEL 3
REMARK VINA RESULT: -6.071178605      2.002      4.497
REMARK  4 active torsions:
REMARK  status: ('A' for Active; 'I' for Inactive)
REMARK    1  A    between atoms: N1_1  and  N2_4 
REMARK       I    between atoms: N2_4  and  C1_5 
REMARK    2  A    between atoms: C1_5  and  C2_7 
REMARK    3  A    between atoms: C2_7  and  N3_8 
REMARK    4  A    between atoms: C2_7  and  C3_12 
REMARK       I    between atoms: C3_12  and  N4_14 
ROOT
HETATM    1  C2  UNL     1     -18.823 -18.608 -23.027  1.00  0.00     0.382 C 
ENDROOT
BRANCH   1   2
HETATM    2  C1  UNL     1     -18.072 -18.259 -21.727  1.00  0.00     0.351 C 
HETATM    3  N2  UNL     1     -17.722 -19.242 -20.844  1.00  0.00    -0.291 NA
HETATM    4  O1  UNL     1     -17.865 -17.023 -21.628  1.00  0.00    -0.252 OA
BRANCH   3   5
HETATM    5  N1  UNL     1     -17.388 -20.180 -20.003  1.00  0.00    -0.277 N 
ATOM      6  H12 UNL     1     -17.639 -19.453 -20.672  1.00  0.00     0.191 HD
ATOM      7  H11 UNL     1     -17.128 -20.914 -19.344  1.00  0.00     0.191 HD
ENDBRANCH   3   5
ENDBRANCH   1   2
BRANCH   1   8
HETATM    8  N3  UNL     1     -18.923 -17.378 -23.768  1.00  0.00    -0.056 N 
ATOM      9  H33 UNL     1     -19.511 -16.677 -23.317  1.00  0.00     0.275 HD
ATOM     10  H32 UNL     1     -18.061 -16.833 -23.771  1.00  0.00     0.275 HD
ATOM     11  H31 UNL     1     -19.243 -17.638 -24.701  1.00  0.00     0.275 HD
ENDBRANCH   1   8
BRANCH   1  12
HETATM   12  C3  UNL     1     -20.119 -19.183 -22.714  1.00  0.00     0.265 C 
HETATM   13  O2  UNL     1     -20.596 -18.899 -21.552  1.00  0.00    -0.270 OA
HETATM   14  N4  UNL     1     -20.938 -20.006 -23.498  1.00  0.00    -0.301 N 
HETATM   15  C4  UNL     1     -21.800 -19.528 -24.326  1.00  0.00     0.203 C 
ATOM     16  H4  UNL     1     -20.848 -21.019 -23.411  1.00  0.00     0.171 HD
HETATM   17  N5  UNL     1     -22.656 -20.305 -25.146  1.00  0.00    -0.066 NA
HETATM   18  N6  UNL     1     -21.899 -18.109 -24.434  1.00  0.00    -0.066 NA
ENDBRANCH   1  12
TORSDOF 4
ENDMDL
MODEL 4
REMARK VINA RESULT: -6.036789909      1.806      4.846
REMARK  4 active torsions:
REMARK  status: ('A' for Active; 'I' for Inactive)
REMARK    1  A    between atoms: N1_1  and  N2_4 
REMARK       I    between atoms: N2_4  and  C1_5 
REMARK    2  A    between atoms: C1_5  and  C2_7 
REMARK    3  A    between atoms: C2_7  and  N3_8 
REMARK    4  A    between atoms: C2_7  and  C3_12 
REMARK       I    between atoms: C3_12  and  N4_14 
ROOT
HETATM    1  C2  UNL     1     -20.173 -18.790 -21.706  1.00  0.00     0.382 C 
ENDROOT
BRANCH   1   2
HETATM    2  C1  UNL     1     -18.817 -18.190 -21.281  1.00  0.00     0.351 C 
HETATM    3  N2  UNL     1     -18.517 -18.025 -19.958  1.00  0.00    -0.291 NA
HETATM    4  O1  UNL     1     -18.106 -17.901 -22.276  1.00  0.00    -0.252 OA
BRANCH   3   5
HETATM    5  N1  UNL     1     -18.230 -17.868 -18.696  1.00  0.00    -0.277 N 
ATOM      6  H12 UNL     1     -18.449 -18.007 -19.682  1.00  0.00     0.191 HD
ATOM      7  H11 UNL     1     -18.007 -17.745 -17.709  1.00  0.00     0.191 HD
ENDBRANCH   3   5
ENDBRANCH   1   2
BRANCH   1   8
HETATM    8  N3  UNL     1     -20.530 -19.730 -20.677  1.00  0.00    -0.056 N 
ATOM      9  H33 UNL     1     -19.987 -20.594 -20.708  1.00  0.00     0.275 HD
ATOM     10  H32 UNL     1     -20.244 -19.439 -19.742  1.00  0.00     0.275 HD
ATOM     11  H31 UNL     1     -21.535 -19.877 -20.767  1.00  0.00     0.275 HD
ENDBRANCH   1   8
BRANCH   1  12
HETATM   12  C3  UNL     1     -20.055 -19.407 -23.016  1.00  0.00     0.265 C 
HETATM   13  O2  UNL     1     -19.747 -20.658 -23.024  1.00  0.00    -0.270 OA
HETATM   14  N4  UNL     1     -20.232 -18.839 -24.284  1.00  0.00    -0.301 N 
HETATM   15  C4  UNL     1     -21.383 -18.786 -24.857  1.00  0.00     0.203 C 
ATOM     16  H4  UNL     1     -19.422 -18.453 -24.770  1.00  0.00     0.171 HD
HETATM   17  N5  UNL     1     -21.629 -18.226 -26.136  1.00  0.00    -0.066 NA
HETATM   18  N6  UNL     1     -22.500 -19.325 -24.153  1.00  0.00    -0.066 NA
ENDBRANCH   1  12
TORSDOF 4
ENDMDL
MODEL 5
REMARK VINA RESULT: -6.036441631      1.778      4.866
REMARK  4 active torsions:
REMARK  status: ('A' for Active; 'I' for Inactive)
REMARK    1  A    between atoms: N1_1  and  N2_4 
REMARK       I    between atoms: N2_4  and  C1_5 
REMARK    2  A    between atoms: C1_5  and  C2_7 
REMARK    3  A    between atoms: C2_7  and  N3_8 
REMARK    4  A    between atoms: C2_7  and  C3_12 
REMARK       I    between atoms: C3_12  and  N4_14 
ROOT
HETATM    1  C2  UNL     1     -20.538 -19.457 -21.408  1.00  0.00     0.382 C 
ENDROOT
BRANCH   1   2
HETATM    2  C1  UNL     1     -19.739 -18.400 -20.620  1.00  0.00     0.351 C 
HETATM    3  N2  UNL     1     -18.694 -17.743 -21.206  1.00  0.00    -0.291 NA
HETATM    4  O1  UNL     1     -20.175 -18.269 -19.448  1.00  0.00    -0.252 OA
BRANCH   3   5
HETATM    5  N1  UNL     1     -17.697 -17.116 -21.765  1.00  0.00    -0.277 N 
ATOM      6  H12 UNL     1     -18.486 -17.603 -21.341  1.00  0.00     0.191 HD
ATOM      7  H11 UNL     1     -16.917 -16.625 -22.201  1.00  0.00     0.191 HD
ENDBRANCH   3   5
ENDBRANCH   1   2
BRANCH   1   8
HETATM    8  N3  UNL     1     -20.205 -20.727 -20.818  1.00  0.00    -0.056 N 
ATOM      9  H33 UNL     1     -19.701 -20.646 -19.935  1.00  0.00     0.275 HD
ATOM     10  H32 UNL     1     -21.014 -21.231 -20.454  1.00  0.00     0.275 HD
ATOM     11  H31 UNL     1     -19.693 -21.242 -21.534  1.00  0.00     0.275 HD
ENDBRANCH   1   8
BRANCH   1  12
HETATM   12  C3  UNL     1     -20.200 -19.385 -22.819  1.00  0.00     0.265 C 
HETATM   13  O2  UNL     1     -19.283 -20.197 -23.220  1.00  0.00    -0.270 OA
HETATM   14  N4  UNL     1     -20.731 -18.561 -23.819  1.00  0.00    -0.301 N 
HETATM   15  C4  UNL     1     -21.773 -18.890 -24.498  1.00  0.00     0.203 C 
ATOM     16  H4  UNL     1     -20.277 -17.668 -24.015  1.00  0.00     0.171 HD
HETATM   17  N5  UNL     1     -22.359 -18.102 -25.521  1.00  0.00    -0.066 NA
HETATM   18  N6  UNL     1     -22.393 -20.139 -24.198  1.00  0.00    -0.066 NA
ENDBRANCH   1  12
TORSDOF 4
ENDMDL
