MODEL 1
REMARK VINA RESULT: -6.786046527      0.000      0.000
REMARK  3 active torsions:
REMARK  status: ('A' for Active; 'I' for Inactive)
REMARK    1  A    between atoms: N1_1  and  C1_4 
REMARK    2  A    between atoms: C3_10  and  N4_11 
REMARK    3  A    between atoms: N4_11  and  N5_13 
ROOT
HETATM    1  C1  UNL     1     -17.894 -18.590 -21.265  1.00  0.00     0.691 A 
HETATM    2  N2  UNL     1     -17.646 -19.602 -20.434  1.00  0.00    -0.187 N 
ATOM      3  H2  UNL     1     -17.005 -19.468 -19.653  1.00  0.00     0.185 HD
HETATM    4  C2  UNL     1     -18.233 -20.795 -20.615  1.00  0.00     0.215 A 
HETATM    5  N3  UNL     1     -19.076 -20.952 -21.652  1.00  0.00    -0.185 N 
ATOM      6  H3  UNL     1     -19.521 -21.859 -21.789  1.00  0.00     0.185 HD
HETATM    7  C3  UNL     1     -19.353 -19.962 -22.511  1.00  0.00     0.712 A 
HETATM    8  N8  UNL     1     -18.737 -18.772 -22.289  1.00  0.00    -0.021 N 
ATOM      9  H8  UNL     1     -18.923 -17.995 -22.921  1.00  0.00     0.203 HD
ENDROOT
BRANCH   7  10
HETATM   10  N4  UNL     1     -20.167 -20.158 -23.490  1.00  0.00    -0.129 N 
ATOM     11  H4  UNL     1     -20.430 -21.104 -23.761  1.00  0.00     0.205 HD
BRANCH  10  12
HETATM   12  N5  UNL     1     -20.685 -19.054 -24.175  1.00  0.00    -0.262 N 
HETATM   13  C4  UNL     1     -21.825 -19.128 -24.743  1.00  0.00     0.216 C 
HETATM   14  N6  UNL     1     -22.605 -20.317 -24.702  1.00  0.00    -0.065 NA
HETATM   15  N7  UNL     1     -22.310 -17.990 -25.424  1.00  0.00    -0.065 NA
ATOM     16  H5  UNL     1     -20.149 -18.187 -24.222  1.00  0.00     0.190 HD
ENDBRANCH  10  12
ENDBRANCH   7  10
BRANCH   1  17
HETATM   17  N1  UNL     1     -17.337 -17.431 -21.105  1.00  0.00    -0.234 N 
ATOM     18  H12 UNL     1     -16.517 -17.193 -21.663  1.00  0.00     0.174 HD
ATOM     19  H11 UNL     1     -17.701 -16.753 -20.435  1.00  0.00     0.174 HD
ENDBRANCH   1  17
TORSDOF 3
ENDMDL
MODEL 2
REMARK VINA RESULT: -6.784287785      1.023      2.091
REMARK  3 active torsions:
REMARK  status: ('A' for Active; 'I' for Inactive)
REMARK    1  A    between atoms: N1_1  and  C1_4 
REMARK    2  A    between atoms: C3_10  and  N4_11 
REMARK    3  A    between atoms: N4_11  and  N5_13 
ROOT
HETATM    1  C1  UNL     1     -18.620 -21.066 -21.063  1.00  0.00     0.691 A 
HETATM    2  N2  UNL     1     -17.803 -20.071 -20.718  1.00  0.00    -0.187 N 
ATOM      3  H2  UNL     1     -16.935 -20.279 -20.225  1.00  0.00     0.185 HD
HETATM    4  C2  UNL     1     -18.110 -18.798 -21.015  1.00  0.00     0.215 A 
HETATM    5  N3  UNL     1     -19.259 -18.545 -21.666  1.00  0.00    -0.185 N 
ATOM      6  H3  UNL     1     -19.492 -17.577 -21.890  1.00  0.00     0.185 HD
HETATM    7  C3  UNL     1     -20.110 -19.513 -22.031  1.00  0.00     0.712 A 
HETATM    8  N8  UNL     1     -19.758 -20.785 -21.711  1.00  0.00    -0.021 N 
ATOM      9  H8  UNL     1     -20.380 -21.549 -21.972  1.00  0.00     0.203 HD
ENDROOT
BRANCH   7  10
HETATM   10  N4  UNL     1     -21.199 -19.223 -22.653  1.00  0.00    -0.129 N 
ATOM     11  H4  UNL     1     -22.104 -19.472 -22.254  1.00  0.00     0.205 HD
BRANCH  10  12
HETATM   12  N5  UNL     1     -21.126 -18.563 -23.884  1.00  0.00    -0.262 N 
HETATM   13  C4  UNL     1     -21.788 -18.995 -24.885  1.00  0.00     0.216 C 
HETATM   14  N6  UNL     1     -22.616 -20.148 -24.792  1.00  0.00    -0.065 NA
HETATM   15  N7  UNL     1     -21.685 -18.298 -26.109  1.00  0.00    -0.065 NA
ATOM     16  H5  UNL     1     -20.541 -17.732 -23.981  1.00  0.00     0.190 HD
ENDBRANCH  10  12
ENDBRANCH   7  10
BRANCH   1  17
HETATM   17  N1  UNL     1     -18.340 -22.299 -20.786  1.00  0.00    -0.234 N 
ATOM     18  H12 UNL     1     -17.673 -22.801 -21.372  1.00  0.00     0.174 HD
ATOM     19  H11 UNL     1     -18.770 -22.779 -19.995  1.00  0.00     0.174 HD
ENDBRANCH   1  17
TORSDOF 3
ENDMDL
MODEL 3
REMARK VINA RESULT: -6.655988805      1.928      1.974
REMARK  3 active torsions:
REMARK  status: ('A' for Active; 'I' for Inactive)
REMARK    1  A    between atoms: N1_1  and  C1_4 
REMARK    2  A    between atoms: C3_10  and  N4_11 
REMARK    3  A    between atoms: N4_11  and  N5_13 
ROOT
HETATM    1  C1  UNL     1     -20.222 -19.486 -19.691  1.00  0.00     0.691 A 
HETATM    2  N2  UNL     1     -20.167 -20.684 -19.109  1.00  0.00    -0.187 N 
ATOM      3  H2  UNL     1     -20.081 -20.749 -18.096  1.00  0.00     0.185 HD
HETATM    4  C2  UNL     1     -20.225 -21.805 -19.845  1.00  0.00     0.215 A 
HETATM    5  N3  UNL     1     -20.339 -21.698 -21.181  1.00  0.00    -0.185 N 
ATOM      6  H3  UNL     1     -20.382 -22.550 -21.740  1.00  0.00     0.185 HD
HETATM    7  C3  UNL     1     -20.397 -20.515 -21.807  1.00  0.00     0.712 A 
HETATM    8  N8  UNL     1     -20.336 -19.407 -21.023  1.00  0.00    -0.021 N 
ATOM      9  H8  UNL     1     -20.378 -18.489 -21.462  1.00  0.00     0.203 HD
ENDROOT
BRANCH   7  10
HETATM   10  N4  UNL     1     -20.506 -20.460 -23.089  1.00  0.00    -0.129 N 
ATOM     11  H4  UNL     1     -20.410 -21.305 -23.652  1.00  0.00     0.205 HD
BRANCH  10  12
HETATM   12  N5  UNL     1     -20.759 -19.228 -23.698  1.00  0.00    -0.262 N 
HETATM   13  C4  UNL     1     -21.745 -19.096 -24.498  1.00  0.00     0.216 C 
HETATM   14  N6  UNL     1     -22.615 -20.182 -24.797  1.00  0.00    -0.065 NA
HETATM   15  N7  UNL     1     -21.965 -17.834 -25.092  1.00  0.00    -0.065 NA
ATOM     16  H5  UNL     1     -20.154 -18.430 -23.503  1.00  0.00     0.190 HD
ENDBRANCH  10  12
ENDBRANCH   7  10
BRANCH   1  17
HETATM   17  N1  UNL     1     -20.168 -18.394 -18.997  1.00  0.00    -0.234 N 
ATOM     18  H12 UNL     1     -20.970 -18.128 -18.425  1.00  0.00     0.174 HD
ATOM     19  H11 UNL     1     -19.342 -17.795 -19.008  1.00  0.00     0.174 HD
ENDBRANCH   1  17
TORSDOF 3
ENDMDL
MODEL 4
REMARK VINA RESULT: -6.642584396      1.849      2.743
REMARK  3 active torsions:
REMARK  status: ('A' for Active; 'I' for Inactive)
REMARK    1  A    between atoms: N1_1  and  C1_4 
REMARK    2  A    between atoms: C3_10  and  N4_11 
REMARK    3  A    between atoms: N4_11  and  N5_13 
ROOT
HETATM    1  C1  UNL     1     -20.356 -21.513 -19.904  1.00  0.00     0.691 A 
HETATM    2  N2  UNL     1     -20.322 -20.346 -19.261  1.00  0.00    -0.187 N 
ATOM      3  H2  UNL     1     -20.314 -20.331 -18.242  1.00  0.00     0.185 HD
HETATM    4  C2  UNL     1     -20.296 -19.190 -19.943  1.00  0.00     0.215 A 
HETATM    5  N3  UNL     1     -20.306 -19.231 -21.288  1.00  0.00    -0.185 N 
ATOM      6  H3  UNL     1     -20.288 -18.352 -21.805  1.00  0.00     0.185 HD
HETATM    7  C3  UNL     1     -20.341 -20.381 -21.973  1.00  0.00     0.712 A 
HETATM    8  N8  UNL     1     -20.365 -21.525 -21.243  1.00  0.00    -0.021 N 
ATOM      9  H8  UNL     1     -20.391 -22.421 -21.729  1.00  0.00     0.203 HD
ENDROOT
BRANCH   7  10
HETATM   10  N4  UNL     1     -20.349 -20.372 -23.261  1.00  0.00    -0.129 N 
ATOM     11  H4  UNL     1     -20.052 -21.195 -23.785  1.00  0.00     0.205 HD
BRANCH  10  12
HETATM   12  N5  UNL     1     -20.771 -19.220 -23.932  1.00  0.00    -0.262 N 
HETATM   13  C4  UNL     1     -21.836 -19.238 -24.634  1.00  0.00     0.216 C 
HETATM   14  N6  UNL     1     -22.628 -20.414 -24.759  1.00  0.00    -0.065 NA
HETATM   15  N7  UNL     1     -22.226 -18.053 -25.294  1.00  0.00    -0.065 NA
ATOM     16  H5  UNL     1     -20.225 -18.361 -23.860  1.00  0.00     0.190 HD
ENDBRANCH  10  12
ENDBRANCH   7  10
BRANCH   1  17
HETATM   17  N1  UNL     1     -20.380 -22.638 -19.262  1.00  0.00    -0.234 N 
ATOM     18  H12 UNL     1     -19.530 -22.970 -18.808  1.00  0.00     0.174 HD
ATOM     19  H11 UNL     1     -21.231 -23.198 -19.200  1.00  0.00     0.174 HD
ENDBRANCH   1  17
TORSDOF 3
ENDMDL
MODEL 5
REMARK VINA RESULT: -6.580759545      1.922      2.961
REMARK  3 active torsions:
REMARK  status: ('A' for Active; 'I' for Inactive)
REMARK    1  A    between atoms: N1_1  and  C1_4 
REMARK    2  A    between atoms: C3_10  and  N4_11 
REMARK    3  A    between atoms: N4_11  and  N5_13 
ROOT
HETATM    1  C1  UNL     1     -20.342 -21.431 -19.562  1.00  0.00     0.691 A 
HETATM    2  N2  UNL     1     -20.226 -20.249 -18.956  1.00  0.00    -0.187 N 
ATOM      3  H2  UNL     1     -20.323 -20.190 -17.943  1.00  0.00     0.185 HD
HETATM    4  C2  UNL     1     -19.982 -19.137 -19.667  1.00  0.00     0.215 A 
HETATM    5  N3  UNL     1     -19.858 -19.236 -21.003  1.00  0.00    -0.185 N 
ATOM      6  H3  UNL     1     -19.674 -18.390 -21.542  1.00  0.00     0.185 HD
HETATM    7  C3  UNL     1     -19.968 -20.402 -21.652  1.00  0.00     0.712 A 
HETATM    8  N8  UNL     1     -20.214 -21.502 -20.893  1.00  0.00    -0.021 N 
ATOM      9  H8  UNL     1     -20.303 -22.408 -21.350  1.00  0.00     0.203 HD
ENDROOT
BRANCH   7  10
HETATM   10  N4  UNL     1     -19.841 -20.450 -22.932  1.00  0.00    -0.129 N 
ATOM     11  H4  UNL     1     -18.915 -20.487 -23.359  1.00  0.00     0.205 HD
BRANCH  10  12
HETATM   12  N5  UNL     1     -20.989 -20.452 -23.731  1.00  0.00    -0.262 N 
HETATM   13  C4  UNL     1     -21.418 -19.364 -24.241  1.00  0.00     0.216 C 
HETATM   14  N6  UNL     1     -20.756 -18.124 -24.023  1.00  0.00    -0.065 NA
HETATM   15  N7  UNL     1     -22.581 -19.411 -25.041  1.00  0.00    -0.065 NA
ATOM     16  H5  UNL     1     -21.485 -21.326 -23.906  1.00  0.00     0.190 HD
ENDBRANCH  10  12
ENDBRANCH   7  10
BRANCH   1  17
HETATM   17  N1  UNL     1     -20.577 -22.514 -18.892  1.00  0.00    -0.234 N 
ATOM     18  H12 UNL     1     -21.305 -22.510 -18.178  1.00  0.00     0.174 HD
ATOM     19  H11 UNL     1     -20.049 -23.371 -19.062  1.00  0.00     0.174 HD
ENDBRANCH   1  17
TORSDOF 3
ENDMDL
