MODEL 1
REMARK VINA RESULT: -7.154975517      0.000      0.000
REMARK  3 active torsions:
REMARK  status: ('A' for Active; 'I' for Inactive)
REMARK       I    between atoms: C1_2  and  N2_4 
REMARK    1  A    between atoms: N2_4  and  N3_5 
REMARK    2  A    between atoms: N2_4  and  N4_8 
REMARK    3  A    between atoms: N4_8  and  C2_10 
ROOT
HETATM    1  C2  UNL     1     -20.436 -19.687 -22.991  1.00  0.00     0.717 A 
HETATM    2  N5  UNL     1     -21.152 -20.726 -23.477  1.00  0.00    -0.127 N 
ATOM      3  H5  UNL     1     -21.052 -21.694 -23.169  1.00  0.00     0.206 HD
HETATM    4  N6  UNL     1     -21.997 -20.320 -24.402  1.00  0.00    -0.237 N 
ATOM      5  H6  UNL     1     -22.651 -20.903 -24.925  1.00  0.00     0.192 HD
HETATM    6  C3  UNL     1     -21.831 -18.990 -24.525  1.00  0.00     0.353 A 
HETATM    7  O2  UNL     1     -22.483 -18.265 -25.326  1.00  0.00    -0.245 OA
HETATM    8  N7  UNL     1     -20.873 -18.609 -23.657  1.00  0.00    -0.137 N 
ATOM      9  H7  UNL     1     -20.535 -17.655 -23.527  1.00  0.00     0.189 HD
ENDROOT
BRANCH   1  10
HETATM   10  N4  UNL     1     -19.529 -19.778 -22.074  1.00  0.00    -0.106 N 
ATOM     11  H4  UNL     1     -18.592 -20.113 -22.301  1.00  0.00     0.208 HD
BRANCH  10  12
HETATM   12  N2  UNL     1     -19.853 -19.413 -20.773  1.00  0.00    -0.137 N 
HETATM   13  C1  UNL     1     -19.296 -18.263 -20.179  1.00  0.00     0.369 C 
HETATM   14  N1  UNL     1     -18.381 -17.459 -20.933  1.00  0.00    -0.037 NA
HETATM   15  O1  UNL     1     -19.546 -17.883 -19.018  1.00  0.00    -0.247 OA
BRANCH  12  16
HETATM   16  N3  UNL     1     -20.751 -20.228 -20.073  1.00  0.00    -0.320 N 
ATOM     17  H32 UNL     1     -20.411 -21.130 -19.739  1.00  0.00     0.179 HD
ATOM     18  H31 UNL     1     -21.711 -19.930 -19.903  1.00  0.00     0.179 HD
ENDBRANCH  12  16
ENDBRANCH  10  12
ENDBRANCH   1  10
TORSDOF 3
ENDMDL
MODEL 2
REMARK VINA RESULT: -6.886123191      0.553      1.581
REMARK  3 active torsions:
REMARK  status: ('A' for Active; 'I' for Inactive)
REMARK       I    between atoms: C1_2  and  N2_4 
REMARK    1  A    between atoms: N2_4  and  N3_5 
REMARK    2  A    between atoms: N2_4  and  N4_8 
REMARK    3  A    between atoms: N4_8  and  C2_10 
ROOT
HETATM    1  C2  UNL     1     -20.323 -19.560 -23.200  1.00  0.00     0.717 A 
HETATM    2  N5  UNL     1     -21.116 -20.625 -23.458  1.00  0.00    -0.127 N 
ATOM      3  H5  UNL     1     -21.020 -21.539 -23.015  1.00  0.00     0.206 HD
HETATM    4  N6  UNL     1     -22.029 -20.322 -24.357  1.00  0.00    -0.237 N 
ATOM      5  H6  UNL     1     -22.748 -20.944 -24.726  1.00  0.00     0.192 HD
HETATM    6  C3  UNL     1     -21.831 -19.035 -24.696  1.00  0.00     0.353 A 
HETATM    7  O2  UNL     1     -22.529 -18.407 -25.540  1.00  0.00    -0.245 OA
HETATM    8  N7  UNL     1     -20.784 -18.574 -23.982  1.00  0.00    -0.137 N 
ATOM      9  H7  UNL     1     -20.404 -17.628 -24.030  1.00  0.00     0.189 HD
ENDROOT
BRANCH   1  10
HETATM   10  N4  UNL     1     -19.339 -19.556 -22.361  1.00  0.00    -0.106 N 
ATOM     11  H4  UNL     1     -18.630 -20.289 -22.390  1.00  0.00     0.208 HD
BRANCH  10  12
HETATM   12  N2  UNL     1     -19.264 -18.536 -21.421  1.00  0.00    -0.137 N 
HETATM   13  C1  UNL     1     -19.800 -18.695 -20.128  1.00  0.00     0.369 C 
HETATM   14  N1  UNL     1     -20.434 -19.933 -19.781  1.00  0.00    -0.037 NA
HETATM   15  O1  UNL     1     -19.765 -17.819 -19.242  1.00  0.00    -0.247 OA
BRANCH  12  16
HETATM   16  N3  UNL     1     -18.636 -17.345 -21.804  1.00  0.00    -0.320 N 
ATOM     17  H32 UNL     1     -18.263 -16.748 -21.066  1.00  0.00     0.179 HD
ATOM     18  H31 UNL     1     -18.555 -17.082 -22.786  1.00  0.00     0.179 HD
ENDBRANCH  12  16
ENDBRANCH  10  12
ENDBRANCH   1  10
TORSDOF 3
ENDMDL
MODEL 3
REMARK VINA RESULT: -6.853230929      1.075      4.716
REMARK  3 active torsions:
REMARK  status: ('A' for Active; 'I' for Inactive)
REMARK       I    between atoms: C1_2  and  N2_4 
REMARK    1  A    between atoms: N2_4  and  N3_5 
REMARK    2  A    between atoms: N2_4  and  N4_8 
REMARK    3  A    between atoms: N4_8  and  C2_10 
ROOT
HETATM    1  C2  UNL     1     -19.870 -19.208 -22.502  1.00  0.00     0.717 A 
HETATM    2  N5  UNL     1     -20.580 -20.038 -21.706  1.00  0.00    -0.127 N 
ATOM      3  H5  UNL     1     -21.077 -20.868 -22.031  1.00  0.00     0.206 HD
HETATM    4  N6  UNL     1     -20.544 -19.631 -20.454  1.00  0.00    -0.237 N 
ATOM      5  H6  UNL     1     -20.996 -20.078 -19.656  1.00  0.00     0.192 HD
HETATM    6  C3  UNL     1     -19.797 -18.512 -20.429  1.00  0.00     0.353 A 
HETATM    7  O2  UNL     1     -19.547 -17.848 -19.386  1.00  0.00    -0.245 OA
HETATM    8  N7  UNL     1     -19.386 -18.259 -21.689  1.00  0.00    -0.137 N 
ATOM      9  H7  UNL     1     -18.802 -17.473 -21.976  1.00  0.00     0.189 HD
ENDROOT
BRANCH   1  10
HETATM   10  N4  UNL     1     -19.725 -19.352 -23.779  1.00  0.00    -0.106 N 
ATOM     11  H4  UNL     1     -19.089 -20.057 -24.153  1.00  0.00     0.208 HD
BRANCH  10  12
HETATM   12  N2  UNL     1     -20.449 -18.530 -24.634  1.00  0.00    -0.137 N 
HETATM   13  C1  UNL     1     -21.775 -18.842 -24.996  1.00  0.00     0.369 C 
HETATM   14  N1  UNL     1     -22.382 -20.030 -24.472  1.00  0.00    -0.037 NA
HETATM   15  O1  UNL     1     -22.475 -18.147 -25.757  1.00  0.00    -0.247 OA
BRANCH  12  16
HETATM   16  N3  UNL     1     -19.816 -17.381 -25.121  1.00  0.00    -0.320 N 
ATOM     17  H32 UNL     1     -19.798 -17.243 -26.132  1.00  0.00     0.179 HD
ATOM     18  H31 UNL     1     -19.388 -16.705 -24.489  1.00  0.00     0.179 HD
ENDBRANCH  12  16
ENDBRANCH  10  12
ENDBRANCH   1  10
TORSDOF 3
ENDMDL
MODEL 4
REMARK VINA RESULT: -6.850250431      1.202      1.706
REMARK  3 active torsions:
REMARK  status: ('A' for Active; 'I' for Inactive)
REMARK       I    between atoms: C1_2  and  N2_4 
REMARK    1  A    between atoms: N2_4  and  N3_5 
REMARK    2  A    between atoms: N2_4  and  N4_8 
REMARK    3  A    between atoms: N4_8  and  C2_10 
ROOT
HETATM    1  C2  UNL     1     -20.041 -18.917 -23.477  1.00  0.00     0.717 A 
HETATM    2  N5  UNL     1     -20.065 -17.573 -23.627  1.00  0.00    -0.127 N 
ATOM      3  H5  UNL     1     -19.487 -16.920 -23.097  1.00  0.00     0.206 HD
HETATM    4  N6  UNL     1     -20.936 -17.221 -24.549  1.00  0.00    -0.237 N 
ATOM      5  H6  UNL     1     -21.148 -16.270 -24.854  1.00  0.00     0.192 HD
HETATM    6  C3  UNL     1     -21.494 -18.355 -25.013  1.00  0.00     0.353 A 
HETATM    7  O2  UNL     1     -22.377 -18.395 -25.913  1.00  0.00    -0.245 OA
HETATM    8  N7  UNL     1     -20.939 -19.391 -24.351  1.00  0.00    -0.137 N 
ATOM      9  H7  UNL     1     -21.167 -20.375 -24.493  1.00  0.00     0.189 HD
ENDROOT
BRANCH   1  10
HETATM   10  N4  UNL     1     -19.284 -19.554 -22.644  1.00  0.00    -0.106 N 
ATOM     11  H4  UNL     1     -18.305 -19.733 -22.865  1.00  0.00     0.208 HD
BRANCH  10  12
HETATM   12  N2  UNL     1     -19.829 -19.992 -21.443  1.00  0.00    -0.137 N 
HETATM   13  C1  UNL     1     -19.824 -19.170 -20.298  1.00  0.00     0.369 C 
HETATM   14  N1  UNL     1     -19.244 -17.862 -20.378  1.00  0.00    -0.037 NA
HETATM   15  O1  UNL     1     -20.295 -19.505 -19.193  1.00  0.00    -0.247 OA
BRANCH  12  16
HETATM   16  N3  UNL     1     -20.383 -21.276 -21.410  1.00  0.00    -0.320 N 
ATOM     17  H32 UNL     1     -19.951 -21.964 -20.794  1.00  0.00     0.179 HD
ATOM     18  H31 UNL     1     -21.192 -21.517 -21.984  1.00  0.00     0.179 HD
ENDBRANCH  12  16
ENDBRANCH  10  12
ENDBRANCH   1  10
TORSDOF 3
ENDMDL
MODEL 5
REMARK VINA RESULT: -6.832181035      1.649      1.967
REMARK  3 active torsions:
REMARK  status: ('A' for Active; 'I' for Inactive)
REMARK       I    between atoms: C1_2  and  N2_4 
REMARK    1  A    between atoms: N2_4  and  N3_5 
REMARK    2  A    between atoms: N2_4  and  N4_8 
REMARK    3  A    between atoms: N4_8  and  C2_10 
ROOT
HETATM    1  C2  UNL     1     -20.431 -19.674 -22.980  1.00  0.00     0.717 A 
HETATM    2  N5  UNL     1     -21.151 -20.722 -23.443  1.00  0.00    -0.127 N 
ATOM      3  H5  UNL     1     -21.054 -21.682 -23.112  1.00  0.00     0.206 HD
HETATM    4  N6  UNL     1     -21.993 -20.335 -24.378  1.00  0.00    -0.237 N 
ATOM      5  H6  UNL     1     -22.649 -20.927 -24.888  1.00  0.00     0.192 HD
HETATM    6  C3  UNL     1     -21.823 -19.009 -24.532  1.00  0.00     0.353 A 
HETATM    7  O2  UNL     1     -22.470 -18.300 -25.351  1.00  0.00    -0.245 OA
HETATM    8  N7  UNL     1     -20.864 -18.610 -23.671  1.00  0.00    -0.137 N 
ATOM      9  H7  UNL     1     -20.523 -17.654 -23.563  1.00  0.00     0.189 HD
ENDROOT
BRANCH   1  10
HETATM   10  N4  UNL     1     -19.526 -19.747 -22.059  1.00  0.00    -0.106 N 
ATOM     11  H4  UNL     1     -18.549 -19.548 -22.275  1.00  0.00     0.208 HD
BRANCH  10  12
HETATM   12  N2  UNL     1     -19.908 -20.103 -20.771  1.00  0.00    -0.137 N 
HETATM   13  C1  UNL     1     -19.417 -21.275 -20.163  1.00  0.00     0.369 C 
HETATM   14  N1  UNL     1     -18.510 -22.114 -20.890  1.00  0.00    -0.037 NA
HETATM   15  O1  UNL     1     -19.721 -21.648 -19.013  1.00  0.00    -0.247 OA
BRANCH  12  16
HETATM   16  N3  UNL     1     -20.796 -19.255 -20.099  1.00  0.00    -0.320 N 
ATOM     17  H32 UNL     1     -20.737 -19.218 -19.082  1.00  0.00     0.179 HD
ATOM     18  H31 UNL     1     -21.478 -18.694 -20.609  1.00  0.00     0.179 HD
ENDBRANCH  12  16
ENDBRANCH  10  12
ENDBRANCH   1  10
TORSDOF 3
ENDMDL
