MODEL 1
REMARK VINA RESULT: -6.494613351      0.000      0.000
REMARK  0 active torsions:
REMARK  status: ('A' for Active; 'I' for Inactive)
ROOT
HETATM    1  O1  UNL     1     -18.400 -22.060 -21.037  1.00  0.00    -0.246 OA
HETATM    2  C1  UNL     1     -18.940 -20.999 -20.603  1.00  0.00     0.337 C 
HETATM    3  N1  UNL     1     -20.359 -20.949 -20.444  1.00  0.00    -0.249 N 
ATOM      4  H1  UNL     1     -20.953 -21.746 -20.671  1.00  0.00     0.192 HD
HETATM    5  N2  UNL     1     -20.893 -19.741 -19.959  1.00  0.00    -0.262 N 
ATOM      6  H2  UNL     1     -21.900 -19.650 -19.826  1.00  0.00     0.190 HD
HETATM    7  C2  UNL     1     -20.038 -18.645 -19.652  1.00  0.00     0.293 C 
HETATM    8  O2  UNL     1     -20.452 -17.784 -18.834  1.00  0.00    -0.267 OA
HETATM    9  C3  UNL     1     -18.730 -18.595 -20.313  1.00  0.00     0.290 C 
HETATM   10  N3  UNL     1     -17.888 -17.476 -19.990  1.00  0.00    -0.085 NA
HETATM   11  N4  UNL     1     -17.484 -17.437 -21.328  1.00  0.00    -0.267 N 
ATOM     12  H4  UNL     1     -16.659 -17.121 -21.838  1.00  0.00     0.185 HD
HETATM   13  C4  UNL     1     -18.729 -18.030 -21.663  1.00  0.00     0.290 C 
HETATM   14  O3  UNL     1     -19.431 -18.018 -22.681  1.00  0.00    -0.267 OA
HETATM   15  N5  UNL     1     -18.101 -19.891 -20.292  1.00  0.00    -0.301 N 
ATOM     16  H5  UNL     1     -17.113 -20.008 -20.067  1.00  0.00     0.167 HD
ENDROOT
TORSDOF 0
ENDMDL
MODEL 2
REMARK VINA RESULT: -6.470263642      2.069      2.240
REMARK  0 active torsions:
REMARK  status: ('A' for Active; 'I' for Inactive)
ROOT
HETATM    1  O1  UNL     1     -20.361 -22.657 -20.828  1.00  0.00    -0.246 OA
HETATM    2  C1  UNL     1     -20.165 -21.405 -20.811  1.00  0.00     0.337 C 
HETATM    3  N1  UNL     1     -20.876 -20.597 -19.871  1.00  0.00    -0.249 N 
ATOM      4  H1  UNL     1     -21.540 -21.001 -19.211  1.00  0.00     0.192 HD
HETATM    5  N2  UNL     1     -20.611 -19.216 -19.906  1.00  0.00    -0.262 N 
ATOM      6  H2  UNL     1     -21.091 -18.593 -19.257  1.00  0.00     0.190 HD
HETATM    7  C2  UNL     1     -19.679 -18.682 -20.841  1.00  0.00     0.293 C 
HETATM    8  O2  UNL     1     -19.139 -17.579 -20.571  1.00  0.00    -0.267 OA
HETATM    9  C3  UNL     1     -19.412 -19.458 -22.056  1.00  0.00     0.290 C 
HETATM   10  N3  UNL     1     -18.471 -18.896 -22.985  1.00  0.00    -0.085 NA
HETATM   11  N4  UNL     1     -19.277 -19.360 -24.029  1.00  0.00    -0.267 N 
ATOM     12  H4  UNL     1     -19.135 -19.634 -25.001  1.00  0.00     0.185 HD
HETATM   13  C4  UNL     1     -20.379 -19.281 -23.139  1.00  0.00     0.290 C 
HETATM   14  O3  UNL     1     -21.596 -19.128 -23.303  1.00  0.00    -0.267 OA
HETATM   15  N5  UNL     1     -19.237 -20.853 -21.739  1.00  0.00    -0.301 N 
ATOM     16  H5  UNL     1     -18.492 -21.412 -22.155  1.00  0.00     0.167 HD
ENDROOT
TORSDOF 0
ENDMDL
MODEL 3
REMARK VINA RESULT: -6.432164516      2.205      3.712
REMARK  0 active torsions:
REMARK  status: ('A' for Active; 'I' for Inactive)
ROOT
HETATM    1  O1  UNL     1     -21.774 -19.644 -24.452  1.00  0.00    -0.246 OA
HETATM    2  C1  UNL     1     -20.870 -19.218 -23.673  1.00  0.00     0.337 C 
HETATM    3  N1  UNL     1     -19.585 -18.889 -24.203  1.00  0.00    -0.249 N 
ATOM      4  H1  UNL     1     -19.373 -18.989 -25.196  1.00  0.00     0.192 HD
HETATM    5  N2  UNL     1     -18.628 -18.422 -23.284  1.00  0.00    -0.262 N 
ATOM      6  H2  UNL     1     -17.694 -18.173 -23.608  1.00  0.00     0.190 HD
HETATM    7  C2  UNL     1     -18.954 -18.294 -21.904  1.00  0.00     0.293 C 
HETATM    8  O2  UNL     1     -18.282 -17.489 -21.210  1.00  0.00    -0.267 OA
HETATM    9  C3  UNL     1     -20.055 -19.112 -21.385  1.00  0.00     0.290 C 
HETATM   10  N3  UNL     1     -20.362 -18.968 -19.988  1.00  0.00    -0.085 NA
HETATM   11  N4  UNL     1     -20.597 -20.345 -19.933  1.00  0.00    -0.267 N 
ATOM     12  H4  UNL     1     -21.162 -20.972 -19.360  1.00  0.00     0.185 HD
HETATM   13  C4  UNL     1     -19.702 -20.486 -21.025  1.00  0.00     0.290 C 
HETATM   14  O3  UNL     1     -18.981 -21.409 -21.421  1.00  0.00    -0.267 OA
HETATM   15  N5  UNL     1     -21.178 -19.084 -22.289  1.00  0.00    -0.301 N 
ATOM     16  H5  UNL     1     -22.136 -18.974 -21.956  1.00  0.00     0.167 HD
ENDROOT
TORSDOF 0
ENDMDL
MODEL 4
REMARK VINA RESULT: -6.409189518      1.552      3.131
REMARK  0 active torsions:
REMARK  status: ('A' for Active; 'I' for Inactive)
ROOT
HETATM    1  O1  UNL     1     -20.527 -17.710 -24.011  1.00  0.00    -0.246 OA
HETATM    2  C1  UNL     1     -20.149 -18.622 -23.217  1.00  0.00     0.337 C 
HETATM    3  N1  UNL     1     -21.014 -19.728 -22.957  1.00  0.00    -0.249 N 
ATOM      4  H1  UNL     1     -21.932 -19.807 -23.395  1.00  0.00     0.192 HD
HETATM    5  N2  UNL     1     -20.532 -20.705 -22.066  1.00  0.00    -0.262 N 
ATOM      6  H2  UNL     1     -21.109 -21.516 -21.845  1.00  0.00     0.190 HD
HETATM    7  C2  UNL     1     -19.247 -20.568 -21.470  1.00  0.00     0.293 C 
HETATM    8  O2  UNL     1     -18.671 -21.608 -21.061  1.00  0.00    -0.267 OA
HETATM    9  C3  UNL     1     -18.681 -19.219 -21.374  1.00  0.00     0.290 C 
HETATM   10  N3  UNL     1     -17.384 -19.106 -20.764  1.00  0.00    -0.085 NA
HETATM   11  N4  UNL     1     -17.810 -17.923 -20.155  1.00  0.00    -0.267 N 
ATOM     12  H4  UNL     1     -17.365 -17.073 -19.809  1.00  0.00     0.185 HD
HETATM   13  C4  UNL     1     -19.135 -18.426 -20.231  1.00  0.00     0.290 C 
HETATM   14  O3  UNL     1     -20.161 -18.223 -19.572  1.00  0.00    -0.267 OA
HETATM   15  N5  UNL     1     -18.866 -18.501 -22.610  1.00  0.00    -0.301 N 
ATOM     16  H5  UNL     1     -18.123 -17.941 -23.026  1.00  0.00     0.167 HD
ENDROOT
TORSDOF 0
ENDMDL
MODEL 5
REMARK VINA RESULT: -6.322472322      3.287      4.538
REMARK  0 active torsions:
REMARK  status: ('A' for Active; 'I' for Inactive)
ROOT
HETATM    1  O1  UNL     1     -22.621 -19.183 -24.872  1.00  0.00    -0.246 OA
HETATM    2  C1  UNL     1     -21.439 -18.769 -24.677  1.00  0.00     0.337 C 
HETATM    3  N1  UNL     1     -20.506 -18.777 -25.759  1.00  0.00    -0.249 N 
ATOM      4  H1  UNL     1     -20.765 -19.108 -26.689  1.00  0.00     0.192 HD
HETATM    5  N2  UNL     1     -19.212 -18.304 -25.474  1.00  0.00    -0.262 N 
ATOM      6  H2  UNL     1     -18.507 -18.287 -26.210  1.00  0.00     0.190 HD
HETATM    7  C2  UNL     1     -18.881 -17.849 -24.167  1.00  0.00     0.293 C 
HETATM    8  O2  UNL     1     -17.920 -17.047 -24.046  1.00  0.00    -0.267 OA
HETATM    9  C3  UNL     1     -19.686 -18.347 -23.047  1.00  0.00     0.290 C 
HETATM   10  N3  UNL     1     -19.328 -17.877 -21.737  1.00  0.00    -0.085 NA
HETATM   11  N4  UNL     1     -19.603 -19.154 -21.240  1.00  0.00    -0.267 N 
ATOM     12  H4  UNL     1     -19.893 -19.549 -20.346  1.00  0.00     0.185 HD
HETATM   13  C4  UNL     1     -19.299 -19.661 -22.531  1.00  0.00     0.290 C 
HETATM   14  O3  UNL     1     -18.890 -20.753 -22.942  1.00  0.00    -0.267 OA
HETATM   15  N5  UNL     1     -21.089 -18.311 -23.375  1.00  0.00    -0.301 N 
ATOM     16  H5  UNL     1     -21.789 -17.976 -22.714  1.00  0.00     0.167 HD
ENDROOT
TORSDOF 0
ENDMDL
