MODEL 1
REMARK VINA RESULT: -7.384289702      0.000      0.000
REMARK  1 active torsions:
REMARK  status: ('A' for Active; 'I' for Inactive)
REMARK    1  A    between atoms: N3_4  and  C2_6 
ROOT
HETATM    1  C2  UNL     1      20.197 -19.109  22.591  1.00  0.00     0.108 C 
HETATM    2  C3  UNL     1      21.229 -19.583  23.361  1.00  0.00     0.109 C 
HETATM    3  C4  UNL     1      21.437 -19.387  24.720  1.00  0.00     0.251 C 
HETATM    4  O1  UNL     1      22.482 -19.887  25.212  1.00  0.00    -0.268 OA
HETATM    5  N4  UNL     1      20.635 -18.709  25.594  1.00  0.00    -0.275 N 
ATOM      6  H4  UNL     1      20.828 -18.840  26.587  1.00  0.00     0.173 HD
HETATM    7  C5  UNL     1      19.612 -17.882  25.280  1.00  0.00     0.330 C 
HETATM    8  O2  UNL     1      19.306 -17.033  26.166  1.00  0.00    -0.246 OA
HETATM    9  N5  UNL     1      18.837 -17.781  24.185  1.00  0.00    -0.274 N 
ATOM     10  H5  UNL     1      18.036 -17.151  24.222  1.00  0.00     0.173 HD
HETATM   11  C6  UNL     1      19.057 -18.472  23.025  1.00  0.00     0.276 C 
HETATM   12  O3  UNL     1      18.041 -18.499  22.284  1.00  0.00    -0.266 OA
ENDROOT
BRANCH   1  13
HETATM   13  N3  UNL     1      20.326 -19.294  21.221  1.00  0.00    -0.328 N 
HETATM   14  C1  UNL     1      19.985 -20.319  20.524  1.00  0.00     0.201 C 
HETATM   15  N1  UNL     1      19.391 -21.490  21.059  1.00  0.00    -0.066 NA
HETATM   16  N2  UNL     1      20.226 -20.257  19.123  1.00  0.00    -0.066 NA
ATOM     17  H3  UNL     1      20.743 -18.520  20.703  1.00  0.00     0.168 HD
ENDBRANCH   1  13
TORSDOF 1
ENDMDL
MODEL 2
REMARK VINA RESULT: -7.289481206      1.701      3.246
REMARK  1 active torsions:
REMARK  status: ('A' for Active; 'I' for Inactive)
REMARK    1  A    between atoms: N3_4  and  C2_6 
ROOT
HETATM    1  C2  UNL     1      18.918 -19.918  21.890  1.00  0.00     0.108 C 
HETATM    2  C3  UNL     1      18.173 -18.921  21.316  1.00  0.00     0.109 C 
HETATM    3  C4  UNL     1      17.797 -17.708  21.878  1.00  0.00     0.251 C 
HETATM    4  O1  UNL     1      17.073 -16.957  21.174  1.00  0.00    -0.268 OA
HETATM    5  N4  UNL     1      18.121 -17.230  23.116  1.00  0.00    -0.275 N 
ATOM      6  H4  UNL     1      17.938 -16.241  23.286  1.00  0.00     0.173 HD
HETATM    7  C5  UNL     1      18.660 -17.931  24.139  1.00  0.00     0.330 C 
HETATM    8  O2  UNL     1      18.466 -17.447  25.292  1.00  0.00    -0.246 OA
HETATM    9  N5  UNL     1      19.377 -19.068  24.175  1.00  0.00    -0.274 N 
ATOM     10  H5  UNL     1      19.786 -19.348  25.066  1.00  0.00     0.173 HD
HETATM   11  C6  UNL     1      19.593 -19.872  23.089  1.00  0.00     0.276 C 
HETATM   12  O3  UNL     1      20.556 -20.661  23.262  1.00  0.00    -0.266 OA
ENDROOT
BRANCH   1  13
HETATM   13  N3  UNL     1      18.994 -21.108  21.178  1.00  0.00    -0.328 N 
HETATM   14  C1  UNL     1      19.645 -21.344  20.095  1.00  0.00     0.201 C 
HETATM   15  N1  UNL     1      20.435 -20.386  19.411  1.00  0.00    -0.066 NA
HETATM   16  N2  UNL     1      19.558 -22.660  19.561  1.00  0.00    -0.066 NA
ATOM     17  H3  UNL     1      18.468 -21.893  21.562  1.00  0.00     0.168 HD
ENDBRANCH   1  13
TORSDOF 1
ENDMDL
MODEL 3
REMARK VINA RESULT: -7.245793933      1.959      5.026
REMARK  1 active torsions:
REMARK  status: ('A' for Active; 'I' for Inactive)
REMARK    1  A    between atoms: N3_4  and  C2_6 
ROOT
HETATM    1  C2  UNL     1      19.691 -18.993  23.676  1.00  0.00     0.108 C 
HETATM    2  C3  UNL     1      18.585 -18.226  23.414  1.00  0.00     0.109 C 
HETATM    3  C4  UNL     1      18.021 -17.938  22.178  1.00  0.00     0.251 C 
HETATM    4  O1  UNL     1      17.023 -17.172  22.174  1.00  0.00    -0.268 OA
HETATM    5  N4  UNL     1      18.427 -18.392  20.955  1.00  0.00    -0.275 N 
ATOM      6  H4  UNL     1      17.779 -18.254  20.179  1.00  0.00     0.173 HD
HETATM    7  C5  UNL     1      19.597 -19.004  20.665  1.00  0.00     0.330 C 
HETATM    8  O2  UNL     1      19.964 -18.935  19.457  1.00  0.00    -0.246 OA
HETATM    9  N5  UNL     1      20.469 -19.690  21.426  1.00  0.00    -0.274 N 
ATOM     10  H5  UNL     1      21.236 -20.173  20.958  1.00  0.00     0.173 HD
HETATM   11  C6  UNL     1      20.391 -19.779  22.789  1.00  0.00     0.276 C 
HETATM   12  O3  UNL     1      21.073 -20.731  23.247  1.00  0.00    -0.266 OA
ENDROOT
BRANCH   1  13
HETATM   13  N3  UNL     1      20.154 -18.967  24.986  1.00  0.00    -0.328 N 
HETATM   14  C1  UNL     1      21.098 -18.248  25.479  1.00  0.00     0.201 C 
HETATM   15  N1  UNL     1      21.864 -17.314  24.737  1.00  0.00    -0.066 NA
HETATM   16  N2  UNL     1      21.379 -18.412  26.864  1.00  0.00    -0.066 NA
ATOM     17  H3  UNL     1      19.685 -19.597  25.637  1.00  0.00     0.168 HD
ENDBRANCH   1  13
TORSDOF 1
ENDMDL
MODEL 4
REMARK VINA RESULT: -7.179982114      1.288      2.927
REMARK  1 active torsions:
REMARK  status: ('A' for Active; 'I' for Inactive)
REMARK    1  A    between atoms: N3_4  and  C2_6 
ROOT
HETATM    1  C2  UNL     1      19.892 -19.180  22.087  1.00  0.00     0.108 C 
HETATM    2  C3  UNL     1      18.749 -18.541  21.679  1.00  0.00     0.109 C 
HETATM    3  C4  UNL     1      17.910 -17.732  22.434  1.00  0.00     0.251 C 
HETATM    4  O1  UNL     1      16.888 -17.280  21.857  1.00  0.00    -0.268 OA
HETATM    5  N4  UNL     1      18.066 -17.365  23.741  1.00  0.00    -0.275 N 
ATOM      6  H4  UNL     1      17.475 -16.603  24.075  1.00  0.00     0.173 HD
HETATM    7  C5  UNL     1      18.920 -17.907  24.638  1.00  0.00     0.330 C 
HETATM    8  O2  UNL     1      18.605 -17.752  25.853  1.00  0.00    -0.246 OA
HETATM    9  N5  UNL     1      20.068 -18.594  24.491  1.00  0.00    -0.274 N 
ATOM     10  H5  UNL     1      20.612 -18.802  25.328  1.00  0.00     0.173 HD
HETATM   11  C6  UNL     1      20.549 -19.031  23.287  1.00  0.00     0.276 C 
HETATM   12  O3  UNL     1      21.770 -19.325  23.338  1.00  0.00    -0.266 OA
ENDROOT
BRANCH   1  13
HETATM   13  N3  UNL     1      20.442 -20.080  21.183  1.00  0.00    -0.328 N 
HETATM   14  C1  UNL     1      19.917 -21.156  20.716  1.00  0.00     0.201 C 
HETATM   15  N1  UNL     1      18.625 -21.630  21.059  1.00  0.00    -0.066 NA
HETATM   16  N2  UNL     1      20.696 -21.909  19.794  1.00  0.00    -0.066 NA
ATOM     17  H3  UNL     1      21.380 -19.859  20.847  1.00  0.00     0.168 HD
ENDBRANCH   1  13
TORSDOF 1
ENDMDL
MODEL 5
REMARK VINA RESULT: -7.152654701      2.208      4.551
REMARK  1 active torsions:
REMARK  status: ('A' for Active; 'I' for Inactive)
REMARK    1  A    between atoms: N3_4  and  C2_6 
ROOT
HETATM    1  C2  UNL     1      19.792 -19.745  22.699  1.00  0.00     0.108 C 
HETATM    2  C3  UNL     1      18.973 -18.828  23.307  1.00  0.00     0.109 C 
HETATM    3  C4  UNL     1      18.047 -17.984  22.708  1.00  0.00     0.251 C 
HETATM    4  O1  UNL     1      17.431 -17.189  23.465  1.00  0.00    -0.268 OA
HETATM    5  N4  UNL     1      17.724 -17.912  21.382  1.00  0.00    -0.275 N 
ATOM      6  H4  UNL     1      16.881 -17.390  21.145  1.00  0.00     0.173 HD
HETATM    7  C5  UNL     1      18.406 -18.462  20.352  1.00  0.00     0.330 C 
HETATM    8  O2  UNL     1      18.216 -17.923  19.224  1.00  0.00    -0.246 OA
HETATM    9  N5  UNL     1      19.267 -19.494  20.288  1.00  0.00    -0.274 N 
ATOM     10  H5  UNL     1      19.569 -19.809  19.366  1.00  0.00     0.173 HD
HETATM   11  C6  UNL     1      19.763 -20.147  21.383  1.00  0.00     0.276 C 
HETATM   12  O3  UNL     1      20.250 -21.269  21.092  1.00  0.00    -0.266 OA
ENDROOT
BRANCH   1  13
HETATM   13  N3  UNL     1      20.758 -20.329  23.508  1.00  0.00    -0.328 N 
HETATM   14  C1  UNL     1      21.662 -19.745  24.210  1.00  0.00     0.201 C 
HETATM   15  N1  UNL     1      21.835 -18.339  24.284  1.00  0.00    -0.066 NA
HETATM   16  N2  UNL     1      22.539 -20.578  24.959  1.00  0.00    -0.066 NA
ATOM     17  H3  UNL     1      20.749 -21.348  23.551  1.00  0.00     0.168 HD
ENDBRANCH   1  13
TORSDOF 1
ENDMDL
