MODEL 1
REMARK VINA RESULT: -7.212772096      0.000      0.000
REMARK  2 active torsions:
REMARK  status: ('A' for Active; 'I' for Inactive)
REMARK    1  A    between atoms: N2_3  and  C2_5 
REMARK    2  A    between atoms: C3_12  and  N6_13 
REMARK       I    between atoms: N6_13  and  C4_15 
REMARK       I    between atoms: C4_15  and  N7_16 
REMARK       I    between atoms: C4_15  and  N8_20 
ROOT
HETATM    1  N1  UNL     1      21.956 -18.184  26.112  1.00  0.00    -0.172 NA
HETATM    2  C1  UNL     1      20.797 -18.211  25.997  1.00  0.00     0.183 C 
HETATM    3  N2  UNL     1      19.402 -18.227  25.877  1.00  0.00    -0.275 N 
ATOM      4  H2  UNL     1      18.822 -18.349  26.707  1.00  0.00     0.180 HD
ENDROOT
BRANCH   3   5
HETATM    5  C2  UNL     1      18.848 -18.088  24.716  1.00  0.00     0.176 A 
HETATM    6  N3  UNL     1      18.099 -17.051  24.321  1.00  0.00    -0.267 N 
HETATM    7  N4  UNL     1      17.695 -17.237  23.076  1.00  0.00    -0.239 N 
ATOM      8  H3  UNL     1      17.873 -16.239  24.895  1.00  0.00     0.190 HD
HETATM    9  N5  UNL     1      18.190 -18.390  22.681  1.00  0.00    -0.268 N 
ATOM     10  H4  UNL     1      17.111 -16.606  22.526  1.00  0.00     0.208 HD
HETATM   11  C3  UNL     1      18.913 -18.966  23.653  1.00  0.00     0.167 A 
ATOM     12  H5  UNL     1      18.043 -18.794  21.756  1.00  0.00     0.190 HD
BRANCH  11  13
HETATM   13  N6  UNL     1      19.554 -20.059  23.700  1.00  0.00    -0.323 N 
HETATM   14  C4  UNL     1      20.780 -20.372  23.033  1.00  0.00     0.481 C 
HETATM   15  N7  UNL     1      20.505 -20.593  21.626  1.00  0.00    -0.033 N 
HETATM   16  N8  UNL     1      21.800 -19.359  23.183  1.00  0.00    -0.033 N 
ATOM     17  H73 UNL     1      19.788 -21.302  21.476  1.00  0.00     0.278 HD
ATOM     18  H72 UNL     1      20.018 -19.806  21.196  1.00  0.00     0.278 HD
ATOM     19  H71 UNL     1      21.380 -20.815  21.152  1.00  0.00     0.278 HD
ATOM     20  H83 UNL     1      21.450 -18.449  22.883  1.00  0.00     0.278 HD
ATOM     21  H82 UNL     1      21.968 -19.160  24.170  1.00  0.00     0.278 HD
ATOM     22  H81 UNL     1      22.675 -19.581  22.708  1.00  0.00     0.278 HD
ATOM     23  H6  UNL     1      19.149 -20.798  24.276  1.00  0.00     0.165 HD
ENDBRANCH  11  13
ENDBRANCH   3   5
TORSDOF 2
ENDMDL
MODEL 2
REMARK VINA RESULT: -6.887670727      1.035      1.206
REMARK  2 active torsions:
REMARK  status: ('A' for Active; 'I' for Inactive)
REMARK    1  A    between atoms: N2_3  and  C2_5 
REMARK    2  A    between atoms: C3_12  and  N6_13 
REMARK       I    between atoms: N6_13  and  C4_15 
REMARK       I    between atoms: C4_15  and  N7_16 
REMARK       I    between atoms: C4_15  and  N8_20 
ROOT
HETATM    1  N1  UNL     1      22.270 -18.114  25.715  1.00  0.00    -0.172 NA
HETATM    2  C1  UNL     1      21.165 -18.455  25.585  1.00  0.00     0.183 C 
HETATM    3  N2  UNL     1      19.831 -18.861  25.453  1.00  0.00    -0.275 N 
ATOM      4  H2  UNL     1      19.416 -19.480  26.148  1.00  0.00     0.180 HD
ENDROOT
BRANCH   3   5
HETATM    5  C2  UNL     1      19.123 -18.451  24.449  1.00  0.00     0.176 A 
HETATM    6  N3  UNL     1      18.356 -17.354  24.424  1.00  0.00    -0.267 N 
HETATM    7  N4  UNL     1      17.777 -17.238  23.241  1.00  0.00    -0.239 N 
ATOM      8  H3  UNL     1      18.236 -16.705  25.201  1.00  0.00     0.190 HD
HETATM    9  N5  UNL     1      18.178 -18.261  22.516  1.00  0.00    -0.268 N 
ATOM     10  H4  UNL     1      17.140 -16.498  22.947  1.00  0.00     0.208 HD
HETATM   11  C3  UNL     1      19.014 -19.048  23.209  1.00  0.00     0.167 A 
ATOM     12  H5  UNL     1      17.892 -18.431  21.553  1.00  0.00     0.190 HD
BRANCH  11  13
HETATM   13  N6  UNL     1      19.623 -20.117  22.903  1.00  0.00    -0.323 N 
HETATM   14  C4  UNL     1      19.915 -20.599  21.588  1.00  0.00     0.481 C 
HETATM   15  N7  UNL     1      18.698 -21.124  21.001  1.00  0.00    -0.033 N 
HETATM   16  N8  UNL     1      20.493 -19.601  20.716  1.00  0.00    -0.033 N 
ATOM     17  H73 UNL     1      18.256 -21.833  21.587  1.00  0.00     0.278 HD
ATOM     18  H72 UNL     1      17.938 -20.443  21.006  1.00  0.00     0.278 HD
ATOM     19  H71 UNL     1      18.906 -21.467  20.064  1.00  0.00     0.278 HD
ATOM     20  H83 UNL     1      19.897 -18.775  20.672  1.00  0.00     0.278 HD
ATOM     21  H82 UNL     1      21.324 -19.190  21.141  1.00  0.00     0.278 HD
ATOM     22  H81 UNL     1      20.701 -19.944  19.779  1.00  0.00     0.278 HD
ATOM     23  H6  UNL     1      19.940 -20.697  23.680  1.00  0.00     0.165 HD
ENDBRANCH  11  13
ENDBRANCH   3   5
TORSDOF 2
ENDMDL
MODEL 3
REMARK VINA RESULT: -6.876381644      1.480      3.363
REMARK  2 active torsions:
REMARK  status: ('A' for Active; 'I' for Inactive)
REMARK    1  A    between atoms: N2_3  and  C2_5 
REMARK    2  A    between atoms: C3_12  and  N6_13 
REMARK       I    between atoms: N6_13  and  C4_15 
REMARK       I    between atoms: C4_15  and  N7_16 
REMARK       I    between atoms: C4_15  and  N8_20 
ROOT
HETATM    1  N1  UNL     1      19.023 -21.114  21.088  1.00  0.00    -0.172 NA
HETATM    2  C1  UNL     1      19.200 -19.982  21.296  1.00  0.00     0.183 C 
HETATM    3  N2  UNL     1      19.403 -18.615  21.525  1.00  0.00    -0.275 N 
ATOM      4  H2  UNL     1      19.770 -18.023  20.780  1.00  0.00     0.180 HD
ENDROOT
BRANCH   3   5
HETATM    5  C2  UNL     1      19.124 -18.101  22.680  1.00  0.00     0.176 A 
HETATM    6  N3  UNL     1      17.936 -17.616  23.060  1.00  0.00    -0.267 N 
HETATM    7  N4  UNL     1      18.008 -17.171  24.303  1.00  0.00    -0.239 N 
ATOM      8  H3  UNL     1      17.100 -17.593  22.477  1.00  0.00     0.190 HD
HETATM    9  N5  UNL     1      19.242 -17.376  24.711  1.00  0.00    -0.268 N 
ATOM     10  H4  UNL     1      17.252 -16.749  24.841  1.00  0.00     0.208 HD
HETATM   11  C3  UNL     1      19.983 -17.949  23.751  1.00  0.00     0.167 A 
ATOM     12  H5  UNL     1      19.590 -17.131  25.638  1.00  0.00     0.190 HD
BRANCH  11  13
HETATM   13  N6  UNL     1      21.197 -18.313  23.719  1.00  0.00    -0.323 N 
HETATM   14  C4  UNL     1      21.741 -19.552  24.182  1.00  0.00     0.481 C 
HETATM   15  N7  UNL     1      21.784 -19.532  25.631  1.00  0.00    -0.033 N 
HETATM   16  N8  UNL     1      21.012 -20.715  23.727  1.00  0.00    -0.033 N 
ATOM     17  H73 UNL     1      22.290 -18.724  25.994  1.00  0.00     0.278 HD
ATOM     18  H72 UNL     1      20.875 -19.327  26.046  1.00  0.00     0.278 HD
ATOM     19  H71 UNL     1      22.172 -20.415  25.961  1.00  0.00     0.278 HD
ATOM     20  H83 UNL     1      20.026 -20.640  23.975  1.00  0.00     0.278 HD
ATOM     21  H82 UNL     1      20.933 -20.715  22.710  1.00  0.00     0.278 HD
ATOM     22  H81 UNL     1      21.399 -21.599  24.056  1.00  0.00     0.278 HD
ATOM     23  H6  UNL     1      21.859 -17.648  23.318  1.00  0.00     0.165 HD
ENDBRANCH  11  13
ENDBRANCH   3   5
TORSDOF 2
ENDMDL
MODEL 4
REMARK VINA RESULT: -6.857832385      1.279      3.305
REMARK  2 active torsions:
REMARK  status: ('A' for Active; 'I' for Inactive)
REMARK    1  A    between atoms: N2_3  and  C2_5 
REMARK    2  A    between atoms: C3_12  and  N6_13 
REMARK       I    between atoms: N6_13  and  C4_15 
REMARK       I    between atoms: C4_15  and  N7_16 
REMARK       I    between atoms: C4_15  and  N8_20 
ROOT
HETATM    1  N1  UNL     1      22.471 -19.676  25.192  1.00  0.00    -0.172 NA
HETATM    2  C1  UNL     1      21.851 -20.055  24.282  1.00  0.00     0.183 C 
HETATM    3  N2  UNL     1      21.098 -20.531  23.201  1.00  0.00    -0.275 N 
ATOM      4  H2  UNL     1      21.177 -21.507  22.916  1.00  0.00     0.180 HD
ENDROOT
BRANCH   3   5
HETATM    5  C2  UNL     1      20.302 -19.734  22.562  1.00  0.00     0.176 A 
HETATM    6  N3  UNL     1      20.337 -19.474  21.250  1.00  0.00    -0.267 N 
HETATM    7  N4  UNL     1      19.381 -18.616  20.936  1.00  0.00    -0.239 N 
ATOM      8  H3  UNL     1      21.002 -19.877  20.590  1.00  0.00     0.190 HD
HETATM    9  N5  UNL     1      18.739 -18.335  22.050  1.00  0.00    -0.268 N 
ATOM     10  H4  UNL     1      19.179 -18.244  20.008  1.00  0.00     0.208 HD
HETATM   11  C3  UNL     1      19.263 -18.996  23.093  1.00  0.00     0.167 A 
ATOM     12  H5  UNL     1      17.946 -17.697  22.112  1.00  0.00     0.190 HD
BRANCH  11  13
HETATM   13  N6  UNL     1      18.959 -19.018  24.323  1.00  0.00    -0.323 N 
HETATM   14  C4  UNL     1      18.837 -17.898  25.204  1.00  0.00     0.481 C 
HETATM   15  N7  UNL     1      20.164 -17.419  25.539  1.00  0.00    -0.033 N 
HETATM   16  N8  UNL     1      18.044 -16.816  24.664  1.00  0.00    -0.033 N 
ATOM     17  H73 UNL     1      20.758 -18.155  25.924  1.00  0.00     0.278 HD
ATOM     18  H72 UNL     1      20.722 -17.206  24.712  1.00  0.00     0.278 HD
ATOM     19  H71 UNL     1      20.077 -16.620  26.166  1.00  0.00     0.278 HD
ATOM     20  H83 UNL     1      18.407 -16.522  23.757  1.00  0.00     0.278 HD
ATOM     21  H82 UNL     1      17.124 -17.151  24.379  1.00  0.00     0.278 HD
ATOM     22  H81 UNL     1      17.957 -16.017  25.291  1.00  0.00     0.278 HD
ATOM     23  H6  UNL     1      18.783 -19.937  24.731  1.00  0.00     0.165 HD
ENDBRANCH  11  13
ENDBRANCH   3   5
TORSDOF 2
ENDMDL
MODEL 5
REMARK VINA RESULT: -6.807527854      1.572      3.650
REMARK  2 active torsions:
REMARK  status: ('A' for Active; 'I' for Inactive)
REMARK    1  A    between atoms: N2_3  and  C2_5 
REMARK    2  A    between atoms: C3_12  and  N6_13 
REMARK       I    between atoms: N6_13  and  C4_15 
REMARK       I    between atoms: C4_15  and  N7_16 
REMARK       I    between atoms: C4_15  and  N8_20 
ROOT
HETATM    1  N1  UNL     1      20.268 -20.838  19.386  1.00  0.00    -0.172 NA
HETATM    2  C1  UNL     1      19.764 -20.697  20.426  1.00  0.00     0.183 C 
HETATM    3  N2  UNL     1      19.176 -20.539  21.687  1.00  0.00    -0.275 N 
ATOM      4  H2  UNL     1      19.151 -21.322  22.339  1.00  0.00     0.180 HD
ENDROOT
BRANCH   3   5
HETATM    5  C2  UNL     1      18.664 -19.399  22.027  1.00  0.00     0.176 A 
HETATM    6  N3  UNL     1      17.830 -18.659  21.288  1.00  0.00    -0.267 N 
HETATM    7  N4  UNL     1      17.505 -17.557  21.942  1.00  0.00    -0.239 N 
ATOM      8  H3  UNL     1      17.494 -18.909  20.358  1.00  0.00     0.190 HD
HETATM    9  N5  UNL     1      18.133 -17.599  23.097  1.00  0.00    -0.268 N 
ATOM     10  H4  UNL     1      16.886 -16.816  21.613  1.00  0.00     0.208 HD
HETATM   11  C3  UNL     1      18.868 -18.716  23.210  1.00  0.00     0.167 A 
ATOM     12  H5  UNL     1      18.069 -16.877  23.814  1.00  0.00     0.190 HD
BRANCH  11  13
HETATM   13  N6  UNL     1      19.615 -19.150  24.137  1.00  0.00    -0.323 N 
HETATM   14  C4  UNL     1      20.928 -18.695  24.475  1.00  0.00     0.481 C 
HETATM   15  N7  UNL     1      21.865 -19.193  23.486  1.00  0.00    -0.033 N 
HETATM   16  N8  UNL     1      21.039 -17.257  24.577  1.00  0.00    -0.033 N 
ATOM     17  H73 UNL     1      21.819 -20.207  23.381  1.00  0.00     0.278 HD
ATOM     18  H72 UNL     1      21.598 -18.941  22.534  1.00  0.00     0.278 HD
ATOM     19  H71 UNL     1      22.801 -18.868  23.726  1.00  0.00     0.278 HD
ATOM     20  H83 UNL     1      20.712 -16.810  23.721  1.00  0.00     0.278 HD
ATOM     21  H82 UNL     1      20.351 -16.889  25.235  1.00  0.00     0.278 HD
ATOM     22  H81 UNL     1      21.975 -16.931  24.818  1.00  0.00     0.278 HD
ATOM     23  H6  UNL     1      19.238 -19.909  24.706  1.00  0.00     0.165 HD
ENDBRANCH  11  13
ENDBRANCH   3   5
TORSDOF 2
ENDMDL
