MODEL 1
REMARK VINA RESULT: -6.978509840      0.000      0.000
REMARK  2 active torsions:
REMARK  status: ('A' for Active; 'I' for Inactive)
REMARK       I    between atoms: N1_2  and  C2_4 
REMARK       I    between atoms: C2_4  and  N2_6 
REMARK    1  A    between atoms: N2_6  and  N3_8 
REMARK    2  A    between atoms: N3_8  and  C3_10 
ROOT
HETATM    1  C3  UNL     1      19.851 -19.188  23.848  1.00  0.00     0.207 A 
HETATM    2  N4  UNL     1      18.909 -18.344  24.291  1.00  0.00    -0.265 N 
ATOM      3  H4  UNL     1      17.903 -18.499  24.240  1.00  0.00     0.190 HD
HETATM    4  N5  UNL     1      19.498 -17.281  24.803  1.00  0.00    -0.238 N 
ATOM      5  H5  UNL     1      19.004 -16.487  25.210  1.00  0.00     0.208 HD
HETATM    6  N6  UNL     1      20.811 -17.381  24.719  1.00  0.00    -0.249 N 
ATOM      7  H6  UNL     1      21.499 -16.700  25.039  1.00  0.00     0.192 HD
HETATM    8  C4  UNL     1      21.061 -18.579  24.119  1.00  0.00     0.307 A 
HETATM    9  O2  UNL     1      22.227 -18.978  23.891  1.00  0.00    -0.262 OA
ENDROOT
BRANCH   1  10
HETATM   10  N3  UNL     1      19.752 -20.336  23.282  1.00  0.00    -0.276 N 
ATOM     11  H3  UNL     1      19.104 -21.005  23.697  1.00  0.00     0.189 HD
BRANCH  10  12
HETATM   12  N2  UNL     1      20.444 -20.743  22.165  1.00  0.00    -0.250 N 
HETATM   13  C2  UNL     1      19.887 -20.789  20.853  1.00  0.00     0.334 C 
HETATM   14  N1  UNL     1      20.599 -21.205  19.720  1.00  0.00    -0.346 N 
HETATM   15  O1  UNL     1      18.691 -20.434  20.724  1.00  0.00    -0.246 OA
HETATM   16  C1  UNL     1      19.971 -21.226  18.431  1.00  0.00     0.151 C 
ATOM     17  H1  UNL     1      21.573 -21.495  19.814  1.00  0.00     0.163 HD
ATOM     18  H2  UNL     1      21.416 -21.029  22.282  1.00  0.00     0.192 HD
ENDBRANCH  10  12
ENDBRANCH   1  10
TORSDOF 2
ENDMDL
MODEL 2
REMARK VINA RESULT: -6.960029839      1.328      1.367
REMARK  2 active torsions:
REMARK  status: ('A' for Active; 'I' for Inactive)
REMARK       I    between atoms: N1_2  and  C2_4 
REMARK       I    between atoms: C2_4  and  N2_6 
REMARK    1  A    between atoms: N2_6  and  N3_8 
REMARK    2  A    between atoms: N3_8  and  C3_10 
ROOT
HETATM    1  C3  UNL     1      20.510 -18.406  24.016  1.00  0.00     0.207 A 
HETATM    2  N4  UNL     1      19.281 -17.883  23.925  1.00  0.00    -0.265 N 
ATOM      3  H4  UNL     1      18.647 -17.991  23.133  1.00  0.00     0.190 HD
HETATM    4  N5  UNL     1      19.025 -17.204  25.026  1.00  0.00    -0.238 N 
ATOM      5  H5  UNL     1      18.153 -16.707  25.209  1.00  0.00     0.208 HD
HETATM    6  N6  UNL     1      20.046 -17.253  25.860  1.00  0.00    -0.249 N 
ATOM      7  H6  UNL     1      20.109 -16.815  26.778  1.00  0.00     0.192 HD
HETATM    8  C4  UNL     1      21.000 -18.008  25.245  1.00  0.00     0.307 A 
HETATM    9  O2  UNL     1      22.107 -18.248  25.782  1.00  0.00    -0.262 OA
ENDROOT
BRANCH   1  10
HETATM   10  N3  UNL     1      21.178 -19.133  23.195  1.00  0.00    -0.276 N 
ATOM     11  H3  UNL     1      22.120 -18.822  22.958  1.00  0.00     0.189 HD
BRANCH  10  12
HETATM   12  N2  UNL     1      20.735 -20.295  22.607  1.00  0.00    -0.250 N 
HETATM   13  C2  UNL     1      19.901 -20.337  21.451  1.00  0.00     0.334 C 
HETATM   14  N1  UNL     1      19.456 -21.526  20.858  1.00  0.00    -0.346 N 
HETATM   15  O1  UNL     1      19.557 -19.240  20.950  1.00  0.00    -0.246 OA
HETATM   16  C1  UNL     1      18.616 -21.491  19.695  1.00  0.00     0.151 C 
ATOM     17  H1  UNL     1      19.730 -22.424  21.256  1.00  0.00     0.163 HD
ATOM     18  H2  UNL     1      21.022 -21.181  23.022  1.00  0.00     0.192 HD
ENDBRANCH  10  12
ENDBRANCH   1  10
TORSDOF 2
ENDMDL
MODEL 3
REMARK VINA RESULT: -6.842876159      1.351      1.401
REMARK  2 active torsions:
REMARK  status: ('A' for Active; 'I' for Inactive)
REMARK       I    between atoms: N1_2  and  C2_4 
REMARK       I    between atoms: C2_4  and  N2_6 
REMARK    1  A    between atoms: N2_6  and  N3_8 
REMARK    2  A    between atoms: N3_8  and  C3_10 
ROOT
HETATM    1  C3  UNL     1      20.752 -19.270  23.305  1.00  0.00     0.207 A 
HETATM    2  N4  UNL     1      20.174 -18.062  23.290  1.00  0.00    -0.265 N 
ATOM      3  H4  UNL     1      19.466 -17.751  22.626  1.00  0.00     0.190 HD
HETATM    4  N5  UNL     1      20.671 -17.341  24.276  1.00  0.00    -0.238 N 
ATOM      5  H5  UNL     1      20.398 -16.380  24.484  1.00  0.00     0.208 HD
HETATM    6  N6  UNL     1      21.569 -18.026  24.958  1.00  0.00    -0.249 N 
ATOM      7  H6  UNL     1      22.103 -17.704  25.765  1.00  0.00     0.192 HD
HETATM    8  C4  UNL     1      21.639 -19.250  24.364  1.00  0.00     0.307 A 
HETATM    9  O2  UNL     1      22.411 -20.148  24.779  1.00  0.00    -0.262 OA
ENDROOT
BRANCH   1  10
HETATM   10  N3  UNL     1      20.586 -20.291  22.545  1.00  0.00    -0.276 N 
ATOM     11  H3  UNL     1      20.651 -21.211  22.982  1.00  0.00     0.189 HD
BRANCH  10  12
HETATM   12  N2  UNL     1      20.329 -20.255  21.195  1.00  0.00    -0.250 N 
HETATM   13  C2  UNL     1      20.354 -21.400  20.346  1.00  0.00     0.334 C 
HETATM   14  N1  UNL     1      20.089 -21.354  18.971  1.00  0.00    -0.346 N 
HETATM   15  O1  UNL     1      20.627 -22.504  20.877  1.00  0.00    -0.246 OA
HETATM   16  C1  UNL     1      20.133 -22.550  18.179  1.00  0.00     0.151 C 
ATOM     17  H1  UNL     1      19.865 -20.463  18.528  1.00  0.00     0.163 HD
ATOM     18  H2  UNL     1      20.107 -19.352  20.774  1.00  0.00     0.192 HD
ENDBRANCH  10  12
ENDBRANCH   1  10
TORSDOF 2
ENDMDL
MODEL 4
REMARK VINA RESULT: -6.762057761      1.716      1.917
REMARK  2 active torsions:
REMARK  status: ('A' for Active; 'I' for Inactive)
REMARK       I    between atoms: N1_2  and  C2_4 
REMARK       I    between atoms: C2_4  and  N2_6 
REMARK    1  A    between atoms: N2_6  and  N3_8 
REMARK    2  A    between atoms: N3_8  and  C3_10 
ROOT
HETATM    1  C3  UNL     1      19.112 -19.151  23.752  1.00  0.00     0.207 A 
HETATM    2  N4  UNL     1      19.216 -18.606  24.970  1.00  0.00    -0.265 N 
ATOM      3  H4  UNL     1      19.709 -19.015  25.764  1.00  0.00     0.190 HD
HETATM    4  N5  UNL     1      18.578 -17.452  24.974  1.00  0.00    -0.238 N 
ATOM      5  H5  UNL     1      18.506 -16.834  25.784  1.00  0.00     0.208 HD
HETATM    6  N6  UNL     1      18.044 -17.201  23.794  1.00  0.00    -0.249 N 
ATOM      7  H6  UNL     1      17.501 -16.380  23.529  1.00  0.00     0.192 HD
HETATM    8  C4  UNL     1      18.368 -18.261  23.002  1.00  0.00     0.307 A 
HETATM    9  O2  UNL     1      18.006 -18.331  21.803  1.00  0.00    -0.262 OA
ENDROOT
BRANCH   1  10
HETATM   10  N3  UNL     1      19.568 -20.256  23.283  1.00  0.00    -0.276 N 
ATOM     11  H3  UNL     1      19.347 -21.107  23.800  1.00  0.00     0.189 HD
BRANCH  10  12
HETATM   12  N2  UNL     1      20.328 -20.394  22.145  1.00  0.00    -0.250 N 
HETATM   13  C2  UNL     1      19.895 -21.081  20.974  1.00  0.00     0.334 C 
HETATM   14  N1  UNL     1      20.676 -21.216  19.818  1.00  0.00    -0.346 N 
HETATM   15  O1  UNL     1      18.747 -21.587  20.995  1.00  0.00    -0.246 OA
HETATM   16  C1  UNL     1      20.173 -21.923  18.676  1.00  0.00     0.151 C 
ATOM     17  H1  UNL     1      21.611 -20.808  19.788  1.00  0.00     0.163 HD
ATOM     18  H2  UNL     1      21.260 -19.978  22.138  1.00  0.00     0.192 HD
ENDBRANCH  10  12
ENDBRANCH   1  10
TORSDOF 2
ENDMDL
MODEL 5
REMARK VINA RESULT: -6.699813366      1.774      2.045
REMARK  2 active torsions:
REMARK  status: ('A' for Active; 'I' for Inactive)
REMARK       I    between atoms: N1_2  and  C2_4 
REMARK       I    between atoms: C2_4  and  N2_6 
REMARK    1  A    between atoms: N2_6  and  N3_8 
REMARK    2  A    between atoms: N3_8  and  C3_10 
ROOT
HETATM    1  C3  UNL     1      20.721 -19.488  23.082  1.00  0.00     0.207 A 
HETATM    2  N4  UNL     1      21.791 -19.167  23.821  1.00  0.00    -0.265 N 
ATOM      3  H4  UNL     1      22.637 -19.727  23.916  1.00  0.00     0.190 HD
HETATM    4  N5  UNL     1      21.570 -18.006  24.406  1.00  0.00    -0.238 N 
ATOM      5  H5  UNL     1      22.231 -17.536  25.026  1.00  0.00     0.208 HD
HETATM    6  N6  UNL     1      20.381 -17.532  24.085  1.00  0.00    -0.249 N 
ATOM      7  H6  UNL     1      19.965 -16.656  24.399  1.00  0.00     0.192 HD
HETATM    8  C4  UNL     1      19.823 -18.451  23.247  1.00  0.00     0.307 A 
HETATM    9  O2  UNL     1      18.679 -18.297  22.757  1.00  0.00    -0.262 OA
ENDROOT
BRANCH   1  10
HETATM   10  N3  UNL     1      20.485 -20.513  22.346  1.00  0.00    -0.276 N 
ATOM     11  H3  UNL     1      20.497 -21.425  22.801  1.00  0.00     0.189 HD
BRANCH  10  12
HETATM   12  N2  UNL     1      20.217 -20.489  20.997  1.00  0.00    -0.250 N 
HETATM   13  C2  UNL     1      20.291 -21.631  20.147  1.00  0.00     0.334 C 
HETATM   14  N1  UNL     1      20.016 -21.598  18.774  1.00  0.00    -0.346 N 
HETATM   15  O1  UNL     1      20.622 -22.720  20.675  1.00  0.00    -0.246 OA
HETATM   16  C1  UNL     1      20.112 -22.790  17.981  1.00  0.00     0.151 C 
ATOM     17  H1  UNL     1      19.745 -20.719  18.334  1.00  0.00     0.163 HD
ATOM     18  H2  UNL     1      19.948 -19.598  20.578  1.00  0.00     0.192 HD
ENDBRANCH  10  12
ENDBRANCH   1  10
TORSDOF 2
ENDMDL
