MODEL 1
REMARK VINA RESULT: -8.203833104      0.000      0.000
REMARK  1 active torsions:
REMARK  status: ('A' for Active; 'I' for Inactive)
REMARK    1  A    between atoms: N1_1  and  N2_4 
REMARK       I    between atoms: N2_4  and  C1_6 
ROOT
HETATM    1  N2  UNL     1      19.669 -20.744  21.554  1.00  0.00    -0.138 N 
ATOM      2  H2  UNL     1      18.815 -20.562  21.026  1.00  0.00     0.205 HD
HETATM    3  C1  UNL     1      19.906 -20.007  22.584  1.00  0.00     0.703 C 
HETATM    4  N3  UNL     1      18.965 -19.070  22.830  1.00  0.00    -0.140 N 
ATOM      5  H3  UNL     1      18.118 -19.154  22.269  1.00  0.00     0.189 HD
HETATM    6  C2  UNL     1      18.966 -18.039  23.701  1.00  0.00     0.341 C 
HETATM    7  O1  UNL     1      17.873 -17.453  23.905  1.00  0.00    -0.246 OA
HETATM    8  N4  UNL     1      20.020 -17.560  24.385  1.00  0.00    -0.270 N 
ATOM      9  H4  UNL     1      19.918 -16.616  24.758  1.00  0.00     0.174 HD
HETATM   10  C3  UNL     1      21.207 -18.179  24.640  1.00  0.00     0.318 C 
HETATM   11  O2  UNL     1      22.084 -17.538  25.231  1.00  0.00    -0.262 OA
HETATM   12  C4  UNL     1      21.564 -19.478  24.311  1.00  0.00     0.328 C 
HETATM   13  O3  UNL     1      22.466 -20.026  24.996  1.00  0.00    -0.261 OA
HETATM   14  N5  UNL     1      21.022 -20.219  23.301  1.00  0.00    -0.150 N 
ATOM     15  H5  UNL     1      21.542 -21.060  23.053  1.00  0.00     0.188 HD
ENDROOT
BRANCH   1  16
HETATM   16  N1  UNL     1      20.490 -21.760  21.117  1.00  0.00    -0.331 N 
ATOM     17  H12 UNL     1      21.216 -22.072  21.761  1.00  0.00     0.177 HD
ATOM     18  H11 UNL     1      20.416 -22.210  20.205  1.00  0.00     0.177 HD
ENDBRANCH   1  16
TORSDOF 1
ENDMDL
MODEL 2
REMARK VINA RESULT: -7.350558041      1.638      3.341
REMARK  1 active torsions:
REMARK  status: ('A' for Active; 'I' for Inactive)
REMARK    1  A    between atoms: N1_1  and  N2_4 
REMARK       I    between atoms: N2_4  and  C1_6 
ROOT
HETATM    1  N2  UNL     1      17.943 -17.521  23.632  1.00  0.00    -0.138 N 
ATOM      2  H2  UNL     1      17.203 -17.872  23.023  1.00  0.00     0.205 HD
HETATM    3  C1  UNL     1      19.072 -18.141  23.623  1.00  0.00     0.703 C 
HETATM    4  N3  UNL     1      19.122 -19.200  22.784  1.00  0.00    -0.140 N 
ATOM      5  H3  UNL     1      18.322 -19.289  22.158  1.00  0.00     0.189 HD
HETATM    6  C2  UNL     1      20.062 -20.158  22.644  1.00  0.00     0.341 C 
HETATM    7  O1  UNL     1      19.986 -20.898  21.630  1.00  0.00    -0.246 OA
HETATM    8  N4  UNL     1      21.085 -20.415  23.477  1.00  0.00    -0.270 N 
ATOM      9  H4  UNL     1      21.513 -21.337  23.387  1.00  0.00     0.174 HD
HETATM   10  C3  UNL     1      21.620 -19.598  24.427  1.00  0.00     0.318 C 
HETATM   11  O2  UNL     1      22.519 -20.049  25.146  1.00  0.00    -0.262 OA
HETATM   12  C4  UNL     1      21.272 -18.283  24.696  1.00  0.00     0.328 C 
HETATM   13  O3  UNL     1      22.133 -17.553  25.251  1.00  0.00    -0.261 OA
HETATM   14  N5  UNL     1      20.067 -17.706  24.412  1.00  0.00    -0.150 N 
ATOM     15  H5  UNL     1      19.897 -16.810  24.869  1.00  0.00     0.188 HD
ENDROOT
BRANCH   1  16
HETATM   16  N1  UNL     1      17.666 -16.416  24.407  1.00  0.00    -0.331 N 
ATOM     17  H12 UNL     1      18.357 -15.666  24.399  1.00  0.00     0.177 HD
ATOM     18  H11 UNL     1      16.828 -16.307  24.978  1.00  0.00     0.177 HD
ENDBRANCH   1  16
TORSDOF 1
ENDMDL
MODEL 3
REMARK VINA RESULT: -7.184890913      0.983      3.022
REMARK  1 active torsions:
REMARK  status: ('A' for Active; 'I' for Inactive)
REMARK    1  A    between atoms: N1_1  and  N2_4 
REMARK       I    between atoms: N2_4  and  C1_6 
ROOT
HETATM    1  N2  UNL     1      20.371 -20.921  21.949  1.00  0.00    -0.138 N 
ATOM      2  H2  UNL     1      21.199 -21.515  21.991  1.00  0.00     0.205 HD
HETATM    3  C1  UNL     1      20.256 -19.988  22.830  1.00  0.00     0.703 C 
HETATM    4  N3  UNL     1      21.277 -19.922  23.712  1.00  0.00    -0.140 N 
ATOM      5  H3  UNL     1      22.077 -20.514  23.487  1.00  0.00     0.189 HD
HETATM    6  C2  UNL     1      21.408 -19.199  24.843  1.00  0.00     0.341 C 
HETATM    7  O1  UNL     1      22.552 -19.137  25.361  1.00  0.00    -0.246 OA
HETATM    8  N4  UNL     1      20.439 -18.528  25.491  1.00  0.00    -0.270 N 
ATOM      9  H4  UNL     1      20.633 -18.291  26.463  1.00  0.00     0.174 HD
HETATM   10  C3  UNL     1      19.230 -18.127  25.008  1.00  0.00     0.318 C 
HETATM   11  O2  UNL     1      18.442 -17.579  25.788  1.00  0.00    -0.262 OA
HETATM   12  C4  UNL     1      18.758 -18.258  23.710  1.00  0.00     0.328 C 
HETATM   13  O3  UNL     1      17.866 -17.457  23.330  1.00  0.00    -0.261 OA
HETATM   14  N5  UNL     1      19.177 -19.188  22.804  1.00  0.00    -0.150 N 
ATOM     15  H5  UNL     1      18.582 -19.292  21.982  1.00  0.00     0.188 HD
ENDROOT
BRANCH   1  16
HETATM   16  N1  UNL     1      19.451 -21.172  20.954  1.00  0.00    -0.331 N 
ATOM     17  H12 UNL     1      18.755 -20.448  20.781  1.00  0.00     0.177 HD
ATOM     18  H11 UNL     1      19.426 -22.023  20.392  1.00  0.00     0.177 HD
ENDBRANCH   1  16
TORSDOF 1
ENDMDL
MODEL 4
REMARK VINA RESULT: -6.877303712      2.312      3.949
REMARK  1 active torsions:
REMARK  status: ('A' for Active; 'I' for Inactive)
REMARK    1  A    between atoms: N1_1  and  N2_4 
REMARK       I    between atoms: N2_4  and  C1_6 
ROOT
HETATM    1  N2  UNL     1      21.370 -20.413  23.822  1.00  0.00    -0.138 N 
ATOM      2  H2  UNL     1      21.900 -21.185  23.418  1.00  0.00     0.205 HD
HETATM    3  C1  UNL     1      20.356 -19.970  23.161  1.00  0.00     0.703 C 
HETATM    4  N3  UNL     1      20.128 -20.607  21.992  1.00  0.00    -0.140 N 
ATOM      5  H3  UNL     1      20.686 -21.448  21.846  1.00  0.00     0.189 HD
HETATM    6  C2  UNL     1      19.280 -20.309  20.986  1.00  0.00     0.341 C 
HETATM    7  O1  UNL     1      19.086 -21.191  20.112  1.00  0.00    -0.246 OA
HETATM    8  N4  UNL     1      18.608 -19.158  20.810  1.00  0.00    -0.270 N 
ATOM      9  H4  UNL     1      18.255 -18.987  19.868  1.00  0.00     0.174 HD
HETATM   10  C3  UNL     1      18.342 -18.191  21.733  1.00  0.00     0.318 C 
HETATM   11  O2  UNL     1      17.766 -17.165  21.353  1.00  0.00    -0.262 OA
HETATM   12  C4  UNL     1      18.644 -18.217  23.086  1.00  0.00     0.328 C 
HETATM   13  O3  UNL     1      17.949 -17.501  23.852  1.00  0.00    -0.261 OA
HETATM   14  N5  UNL     1      19.637 -18.953  23.664  1.00  0.00    -0.150 N 
ATOM     15  H5  UNL     1      19.868 -18.693  24.623  1.00  0.00     0.188 HD
ENDROOT
BRANCH   1  16
HETATM   16  N1  UNL     1      21.787 -19.915  25.037  1.00  0.00    -0.331 N 
ATOM     17  H12 UNL     1      21.987 -18.916  25.078  1.00  0.00     0.177 HD
ATOM     18  H11 UNL     1      21.905 -20.475  25.880  1.00  0.00     0.177 HD
ENDBRANCH   1  16
TORSDOF 1
ENDMDL
MODEL 5
REMARK VINA RESULT: -6.730292004      2.547      4.025
REMARK  1 active torsions:
REMARK  status: ('A' for Active; 'I' for Inactive)
REMARK    1  A    between atoms: N1_1  and  N2_4 
REMARK       I    between atoms: N2_4  and  C1_6 
ROOT
HETATM    1  N2  UNL     1      18.530 -17.099  24.854  1.00  0.00    -0.138 N 
ATOM      2  H2  UNL     1      17.941 -16.266  24.821  1.00  0.00     0.205 HD
HETATM    3  C1  UNL     1      18.660 -17.786  23.772  1.00  0.00     0.703 C 
HETATM    4  N3  UNL     1      17.980 -17.296  22.713  1.00  0.00    -0.140 N 
ATOM      5  H3  UNL     1      17.572 -16.372  22.855  1.00  0.00     0.189 HD
HETATM    6  C2  UNL     1      17.755 -17.834  21.496  1.00  0.00     0.341 C 
HETATM    7  O1  UNL     1      17.293 -17.076  20.606  1.00  0.00    -0.246 OA
HETATM    8  N4  UNL     1      17.969 -19.108  21.123  1.00  0.00    -0.270 N 
ATOM      9  H4  UNL     1      17.478 -19.416  20.284  1.00  0.00     0.174 HD
HETATM   10  C3  UNL     1      18.761 -20.038  21.728  1.00  0.00     0.318 C 
HETATM   11  O2  UNL     1      18.770 -21.185  21.267  1.00  0.00    -0.262 OA
HETATM   12  C4  UNL     1      19.584 -19.852  22.828  1.00  0.00     0.328 C 
HETATM   13  O3  UNL     1      20.558 -20.636  22.968  1.00  0.00    -0.261 OA
HETATM   14  N5  UNL     1      19.428 -18.888  23.782  1.00  0.00    -0.150 N 
ATOM     15  H5  UNL     1      19.978 -19.025  24.631  1.00  0.00     0.188 HD
ENDROOT
BRANCH   1  16
HETATM   16  N1  UNL     1      19.132 -17.410  26.054  1.00  0.00    -0.331 N 
ATOM     17  H12 UNL     1      19.352 -16.630  26.672  1.00  0.00     0.177 HD
ATOM     18  H11 UNL     1      19.367 -18.356  26.353  1.00  0.00     0.177 HD
ENDBRANCH   1  16
TORSDOF 1
ENDMDL
