MODEL 1
REMARK VINA RESULT: -6.626864256      0.000      0.000
REMARK  1 active torsions:
REMARK  status: ('A' for Active; 'I' for Inactive)
REMARK    1  A    between atoms: N1_1  and  N2_4 
REMARK       I    between atoms: C1_6  and  N4_8 
ROOT
HETATM    1  N2  UNL     1      19.491 -18.882  20.322  1.00  0.00    -0.280 N 
ATOM      2  H2  UNL     1      19.059 -17.973  20.155  1.00  0.00     0.189 HD
HETATM    3  C1  UNL     1      19.520 -19.352  21.503  1.00  0.00     0.208 C 
HETATM    4  N3  UNL     1      20.112 -20.604  21.744  1.00  0.00    -0.062 NA
HETATM    5  N4  UNL     1      18.963 -18.630  22.573  1.00  0.00    -0.311 N 
ATOM      6  H4  UNL     1      17.992 -18.325  22.508  1.00  0.00     0.170 HD
HETATM    7  C2  UNL     1      19.628 -18.342  23.623  1.00  0.00     0.181 A 
HETATM    8  N5  UNL     1      20.989 -18.686  23.878  1.00  0.00    -0.290 N 
ATOM      9  H5  UNL     1      21.617 -19.206  23.265  1.00  0.00     0.172 HD
HETATM   10  C3  UNL     1      21.289 -18.157  25.158  1.00  0.00     0.328 A 
HETATM   11  O1  UNL     1      22.408 -18.244  25.765  1.00  0.00    -0.247 OA
HETATM   12  N6  UNL     1      20.163 -17.496  25.709  1.00  0.00    -0.272 N 
ATOM     13  H6  UNL     1      20.122 -17.033  26.617  1.00  0.00     0.174 HD
HETATM   14  C4  UNL     1      19.101 -17.593  24.768  1.00  0.00     0.293 A 
HETATM   15  O2  UNL     1      17.922 -17.125  24.890  1.00  0.00    -0.264 OA
ENDROOT
BRANCH   1  16
HETATM   16  N1  UNL     1      20.040 -19.587  19.250  1.00  0.00    -0.343 N 
ATOM     17  H12 UNL     1      19.881 -20.593  19.199  1.00  0.00     0.176 HD
ATOM     18  H11 UNL     1      20.588 -19.115  18.532  1.00  0.00     0.176 HD
ENDBRANCH   1  16
TORSDOF 1
ENDMDL
MODEL 2
REMARK VINA RESULT: -6.621829086      1.360      2.661
REMARK  1 active torsions:
REMARK  status: ('A' for Active; 'I' for Inactive)
REMARK    1  A    between atoms: N1_1  and  N2_4 
REMARK       I    between atoms: C1_6  and  N4_8 
ROOT
HETATM    1  N2  UNL     1      19.450 -21.423  21.033  1.00  0.00    -0.280 N 
ATOM      2  H2  UNL     1      19.747 -22.275  21.508  1.00  0.00     0.189 HD
HETATM    3  C1  UNL     1      19.869 -20.297  21.449  1.00  0.00     0.208 C 
HETATM    4  N3  UNL     1      19.465 -19.116  20.802  1.00  0.00    -0.062 NA
HETATM    5  N4  UNL     1      20.735 -20.221  22.555  1.00  0.00    -0.311 N 
ATOM      6  H4  UNL     1      21.602 -20.758  22.537  1.00  0.00     0.170 HD
HETATM    7  C2  UNL     1      20.476 -19.507  23.579  1.00  0.00     0.181 A 
HETATM    8  N5  UNL     1      19.315 -18.699  23.769  1.00  0.00    -0.290 N 
ATOM      9  H5  UNL     1      18.536 -18.579  23.122  1.00  0.00     0.172 HD
HETATM   10  C3  UNL     1      19.467 -18.097  25.044  1.00  0.00     0.328 A 
HETATM   11  O1  UNL     1      18.645 -17.296  25.600  1.00  0.00    -0.247 OA
HETATM   12  N6  UNL     1      20.681 -18.502  25.653  1.00  0.00    -0.272 N 
ATOM     13  H6  UNL     1      21.021 -18.210  26.569  1.00  0.00     0.174 HD
HETATM   14  C4  UNL     1      21.339 -19.389  24.757  1.00  0.00     0.293 A 
HETATM   15  O2  UNL     1      22.459 -19.970  24.938  1.00  0.00    -0.264 OA
ENDROOT
BRANCH   1  16
HETATM   16  N1  UNL     1      18.590 -21.513  19.937  1.00  0.00    -0.343 N 
ATOM     17  H12 UNL     1      18.563 -22.387  19.412  1.00  0.00     0.176 HD
ATOM     18  H11 UNL     1      18.001 -20.727  19.662  1.00  0.00     0.176 HD
ENDBRANCH   1  16
TORSDOF 1
ENDMDL
MODEL 3
REMARK VINA RESULT: -6.567465748      2.886      4.833
REMARK  1 active torsions:
REMARK  status: ('A' for Active; 'I' for Inactive)
REMARK    1  A    between atoms: N1_1  and  N2_4 
REMARK       I    between atoms: C1_6  and  N4_8 
ROOT
HETATM    1  N2  UNL     1      19.446 -17.393  24.625  1.00  0.00    -0.280 N 
ATOM      2  H2  UNL     1      18.604 -16.827  24.520  1.00  0.00     0.189 HD
HETATM    3  C1  UNL     1      19.934 -17.979  23.608  1.00  0.00     0.208 C 
HETATM    4  N3  UNL     1      21.094 -18.763  23.741  1.00  0.00    -0.062 NA
HETATM    5  N4  UNL     1      19.324 -17.852  22.348  1.00  0.00    -0.311 N 
ATOM      6  H4  UNL     1      19.159 -16.918  21.974  1.00  0.00     0.170 HD
HETATM    7  C2  UNL     1      18.968 -18.862  21.655  1.00  0.00     0.181 A 
HETATM    8  N5  UNL     1      19.121 -20.232  22.024  1.00  0.00    -0.290 N 
ATOM      9  H5  UNL     1      19.532 -20.594  22.884  1.00  0.00     0.172 HD
HETATM   10  C3  UNL     1      18.584 -20.985  20.950  1.00  0.00     0.328 A 
HETATM   11  O1  UNL     1      18.525 -22.257  20.878  1.00  0.00    -0.247 OA
HETATM   12  N6  UNL     1      18.102 -20.132  19.925  1.00  0.00    -0.272 N 
ATOM     13  H6  UNL     1      17.671 -20.428  19.049  1.00  0.00     0.174 HD
HETATM   14  C4  UNL     1      18.329 -18.790  20.337  1.00  0.00     0.293 A 
HETATM   15  O2  UNL     1      18.036 -17.730  19.694  1.00  0.00    -0.264 OA
ENDROOT
BRANCH   1  16
HETATM   16  N1  UNL     1      20.041 -17.511  25.882  1.00  0.00    -0.343 N 
ATOM     17  H12 UNL     1      20.069 -16.689  26.484  1.00  0.00     0.176 HD
ATOM     18  H11 UNL     1      20.440 -18.395  26.197  1.00  0.00     0.176 HD
ENDBRANCH   1  16
TORSDOF 1
ENDMDL
MODEL 4
REMARK VINA RESULT: -6.504195930      3.510      5.452
REMARK  1 active torsions:
REMARK  status: ('A' for Active; 'I' for Inactive)
REMARK    1  A    between atoms: N1_1  and  N2_4 
REMARK       I    between atoms: C1_6  and  N4_8 
ROOT
HETATM    1  N2  UNL     1      21.315 -20.438  23.807  1.00  0.00    -0.280 N 
ATOM      2  H2  UNL     1      21.920 -21.226  23.576  1.00  0.00     0.189 HD
HETATM    3  C1  UNL     1      20.351 -20.144  23.033  1.00  0.00     0.208 C 
HETATM    4  N3  UNL     1      19.510 -19.060  23.341  1.00  0.00    -0.062 NA
HETATM    5  N4  UNL     1      20.115 -20.894  21.867  1.00  0.00    -0.311 N 
ATOM      6  H4  UNL     1      19.999 -21.904  21.948  1.00  0.00     0.170 HD
HETATM    7  C2  UNL     1      20.042 -20.359  20.712  1.00  0.00     0.181 A 
HETATM    8  N5  UNL     1      20.180 -18.969  20.418  1.00  0.00    -0.290 N 
ATOM      9  H5  UNL     1      20.356 -18.215  21.082  1.00  0.00     0.172 HD
HETATM   10  C3  UNL     1      20.025 -18.852  19.014  1.00  0.00     0.328 A 
HETATM   11  O1  UNL     1      20.078 -17.771  18.339  1.00  0.00    -0.247 OA
HETATM   12  N6  UNL     1      19.794 -20.120  18.424  1.00  0.00    -0.272 N 
ATOM     13  H6  UNL     1      19.650 -20.304  17.431  1.00  0.00     0.174 HD
HETATM   14  C4  UNL     1      19.799 -21.089  19.464  1.00  0.00     0.293 A 
HETATM   15  O2  UNL     1      19.626 -22.346  19.343  1.00  0.00    -0.264 OA
ENDROOT
BRANCH   1  16
HETATM   16  N1  UNL     1      21.560 -19.702  24.967  1.00  0.00    -0.343 N 
ATOM     17  H12 UNL     1      20.864 -19.019  25.265  1.00  0.00     0.176 HD
ATOM     18  H11 UNL     1      22.414 -19.838  25.508  1.00  0.00     0.176 HD
ENDBRANCH   1  16
TORSDOF 1
ENDMDL
MODEL 5
REMARK VINA RESULT: -6.438203382      1.174      1.236
REMARK  1 active torsions:
REMARK  status: ('A' for Active; 'I' for Inactive)
REMARK    1  A    between atoms: N1_1  and  N2_4 
REMARK       I    between atoms: C1_6  and  N4_8 
ROOT
HETATM    1  N2  UNL     1      19.587 -19.637  19.597  1.00  0.00    -0.280 N 
ATOM      2  H2  UNL     1      19.335 -18.657  19.464  1.00  0.00     0.189 HD
HETATM    3  C1  UNL     1      19.504 -20.150  20.757  1.00  0.00     0.208 C 
HETATM    4  N3  UNL     1      19.849 -21.499  20.952  1.00  0.00    -0.062 NA
HETATM    5  N4  UNL     1      19.068 -19.381  21.850  1.00  0.00    -0.311 N 
ATOM      6  H4  UNL     1      18.171 -18.899  21.785  1.00  0.00     0.170 HD
HETATM    7  C2  UNL     1      19.752 -19.263  22.920  1.00  0.00     0.181 A 
HETATM    8  N5  UNL     1      21.020 -19.865  23.178  1.00  0.00    -0.290 N 
ATOM      9  H5  UNL     1      21.554 -20.467  22.552  1.00  0.00     0.172 HD
HETATM   10  C3  UNL     1      21.386 -19.452  24.484  1.00  0.00     0.328 A 
HETATM   11  O1  UNL     1      22.456 -19.769  25.101  1.00  0.00    -0.247 OA
HETATM   12  N6  UNL     1      20.390 -18.615  25.048  1.00  0.00    -0.272 N 
ATOM     13  H6  UNL     1      20.416 -18.189  25.974  1.00  0.00     0.174 HD
HETATM   14  C4  UNL     1      19.349 -18.476  24.089  1.00  0.00     0.293 A 
HETATM   15  O2  UNL     1      18.275 -17.803  24.216  1.00  0.00    -0.264 OA
ENDROOT
BRANCH   1  16
HETATM   16  N1  UNL     1      20.018 -20.388  18.503  1.00  0.00    -0.343 N 
ATOM     17  H12 UNL     1      19.993 -21.405  18.573  1.00  0.00     0.176 HD
ATOM     18  H11 UNL     1      20.353 -19.938  17.652  1.00  0.00     0.176 HD
ENDBRANCH   1  16
TORSDOF 1
ENDMDL
