MODEL 1
REMARK VINA RESULT: -6.391253520      0.000      0.000
REMARK  2 active torsions:
REMARK  status: ('A' for Active; 'I' for Inactive)
REMARK       I    between atoms: N1_2  and  C2_3 
REMARK    1  A    between atoms: N1_2  and  C3_8 
REMARK    2  A    between atoms: C3_8  and  N4_9 
ROOT
HETATM    1  C3  UNL     1      19.865 -19.583  21.808  1.00  0.00     0.362 C 
HETATM    2  N5  UNL     1      20.764 -18.904  20.897  1.00  0.00    -0.285 N 
ATOM      3  H5  UNL     1      21.694 -18.554  21.126  1.00  0.00     0.169 HD
HETATM    4  C4  UNL     1      20.129 -18.809  19.624  1.00  0.00     0.326 C 
HETATM    5  O1  UNL     1      20.462 -18.019  18.678  1.00  0.00    -0.247 OA
HETATM    6  N6  UNL     1      19.073 -19.756  19.636  1.00  0.00    -0.274 N 
ATOM      7  H6  UNL     1      18.427 -19.931  18.866  1.00  0.00     0.173 HD
HETATM    8  C5  UNL     1      19.059 -20.419  20.885  1.00  0.00     0.305 C 
HETATM    9  O2  UNL     1      18.483 -21.509  21.181  1.00  0.00    -0.266 OA
ENDROOT
BRANCH   1  10
HETATM   10  N1  UNL     1      19.068 -18.649  22.547  1.00  0.00    -0.302 N 
HETATM   11  C1  UNL     1      17.825 -18.190  22.006  1.00  0.00     0.157 C 
HETATM   12  C2  UNL     1      19.519 -18.196  23.802  1.00  0.00     0.187 C 
HETATM   13  N2  UNL     1      20.299 -17.150  23.819  1.00  0.00    -0.374 N 
HETATM   14  N3  UNL     1      19.165 -18.819  25.016  1.00  0.00    -0.064 NA
ATOM     15  H22 UNL     1      20.556 -16.700  22.940  1.00  0.00     0.158 HD
ATOM     16  H21 UNL     1      20.627 -16.822  24.728  1.00  0.00     0.158 HD
ENDBRANCH   1  10
BRANCH   1  17
HETATM   17  N4  UNL     1      20.560 -20.465  22.712  1.00  0.00    -0.024 N 
ATOM     18  H43 UNL     1      21.421 -20.048  23.065  1.00  0.00     0.280 HD
ATOM     19  H42 UNL     1      20.068 -20.566  23.600  1.00  0.00     0.280 HD
ATOM     20  H41 UNL     1      20.727 -21.365  22.263  1.00  0.00     0.280 HD
ENDBRANCH   1  17
TORSDOF 2
ENDMDL
MODEL 2
REMARK VINA RESULT: -5.853908939      1.860      3.340
REMARK  2 active torsions:
REMARK  status: ('A' for Active; 'I' for Inactive)
REMARK       I    between atoms: N1_2  and  C2_3 
REMARK    1  A    between atoms: N1_2  and  C3_8 
REMARK    2  A    between atoms: C3_8  and  N4_9 
ROOT
HETATM    1  C3  UNL     1      18.475 -20.279  20.681  1.00  0.00     0.362 C 
HETATM    2  N5  UNL     1      18.316 -21.619  21.209  1.00  0.00    -0.285 N 
ATOM      3  H5  UNL     1      18.002 -21.856  22.150  1.00  0.00     0.169 HD
HETATM    4  C4  UNL     1      18.670 -22.550  20.190  1.00  0.00     0.326 C 
HETATM    5  O1  UNL     1      18.958 -23.781  20.367  1.00  0.00    -0.247 OA
HETATM    6  N6  UNL     1      18.638 -21.832  18.967  1.00  0.00    -0.274 N 
ATOM      7  H6  UNL     1      18.847 -22.220  18.047  1.00  0.00     0.173 HD
HETATM    8  C5  UNL     1      18.272 -20.491  19.227  1.00  0.00     0.305 C 
HETATM    9  O2  UNL     1      17.849 -19.626  18.402  1.00  0.00    -0.266 OA
ENDROOT
BRANCH   1  10
HETATM   10  N1  UNL     1      19.770 -19.748  20.987  1.00  0.00    -0.302 N 
HETATM   11  C1  UNL     1      20.675 -19.423  19.925  1.00  0.00     0.157 C 
HETATM   12  C2  UNL     1      20.137 -19.549  22.331  1.00  0.00     0.187 C 
HETATM   13  N2  UNL     1      20.684 -20.554  22.961  1.00  0.00    -0.374 N 
HETATM   14  N3  UNL     1      19.939 -18.329  23.010  1.00  0.00    -0.064 NA
ATOM     15  H22 UNL     1      20.827 -21.436  22.470  1.00  0.00     0.158 HD
ATOM     16  H21 UNL     1      20.949 -20.410  23.935  1.00  0.00     0.158 HD
ENDBRANCH   1  10
BRANCH   1  17
HETATM   17  N4  UNL     1      17.449 -19.379  21.145  1.00  0.00    -0.024 N 
ATOM     18  H43 UNL     1      16.837 -19.074  20.388  1.00  0.00     0.280 HD
ATOM     19  H42 UNL     1      16.752 -19.856  21.718  1.00  0.00     0.280 HD
ATOM     20  H41 UNL     1      17.872 -18.591  21.636  1.00  0.00     0.280 HD
ENDBRANCH   1  17
TORSDOF 2
ENDMDL
MODEL 3
REMARK VINA RESULT: -5.803222542      2.468      4.051
REMARK  2 active torsions:
REMARK  status: ('A' for Active; 'I' for Inactive)
REMARK       I    between atoms: N1_2  and  C2_3 
REMARK    1  A    between atoms: N1_2  and  C3_8 
REMARK    2  A    between atoms: C3_8  and  N4_9 
ROOT
HETATM    1  C3  UNL     1      18.726 -20.360  20.183  1.00  0.00     0.362 C 
HETATM    2  N5  UNL     1      18.741 -19.167  19.361  1.00  0.00    -0.285 N 
ATOM      3  H5  UNL     1      17.935 -18.758  18.889  1.00  0.00     0.169 HD
HETATM    4  C4  UNL     1      20.074 -18.662  19.324  1.00  0.00     0.326 C 
HETATM    5  O1  UNL     1      20.537 -17.833  18.471  1.00  0.00    -0.247 OA
HETATM    6  N6  UNL     1      20.757 -19.265  20.411  1.00  0.00    -0.274 N 
ATOM      7  H6  UNL     1      21.734 -19.107  20.656  1.00  0.00     0.173 HD
HETATM    8  C5  UNL     1      19.866 -20.120  21.101  1.00  0.00     0.305 C 
HETATM    9  O2  UNL     1      19.993 -20.597  22.269  1.00  0.00    -0.266 OA
ENDROOT
BRANCH   1  10
HETATM   10  N1  UNL     1      18.893 -21.543  19.391  1.00  0.00    -0.302 N 
HETATM   11  C1  UNL     1      18.649 -21.494  17.981  1.00  0.00     0.157 C 
HETATM   12  C2  UNL     1      19.296 -22.740  20.012  1.00  0.00     0.187 C 
HETATM   13  N2  UNL     1      18.362 -23.509  20.501  1.00  0.00    -0.374 N 
HETATM   14  N3  UNL     1      20.646 -23.131  20.123  1.00  0.00    -0.064 NA
ATOM     15  H22 UNL     1      17.385 -23.226  20.421  1.00  0.00     0.158 HD
ATOM     16  H21 UNL     1      18.654 -24.376  20.951  1.00  0.00     0.158 HD
ENDBRANCH   1  10
BRANCH   1  17
HETATM   17  N4  UNL     1      17.529 -20.464  20.981  1.00  0.00    -0.024 N 
ATOM     18  H43 UNL     1      16.807 -19.814  20.670  1.00  0.00     0.280 HD
ATOM     19  H42 UNL     1      17.030 -21.337  20.809  1.00  0.00     0.280 HD
ATOM     20  H41 UNL     1      17.756 -20.341  21.968  1.00  0.00     0.280 HD
ENDBRANCH   1  17
TORSDOF 2
ENDMDL
MODEL 4
REMARK VINA RESULT: -5.711615043      2.084      4.275
REMARK  2 active torsions:
REMARK  status: ('A' for Active; 'I' for Inactive)
REMARK       I    between atoms: N1_2  and  C2_3 
REMARK    1  A    between atoms: N1_2  and  C3_8 
REMARK    2  A    between atoms: C3_8  and  N4_9 
ROOT
HETATM    1  C3  UNL     1      19.733 -20.253  20.771  1.00  0.00     0.362 C 
HETATM    2  N5  UNL     1      19.869 -20.362  22.209  1.00  0.00    -0.285 N 
ATOM      3  H5  UNL     1      20.279 -21.149  22.712  1.00  0.00     0.169 HD
HETATM    4  C4  UNL     1      19.333 -19.182  22.803  1.00  0.00     0.326 C 
HETATM    5  O1  UNL     1      18.990 -19.048  24.025  1.00  0.00    -0.247 OA
HETATM    6  N6  UNL     1      19.262 -18.214  21.769  1.00  0.00    -0.274 N 
ATOM      7  H6  UNL     1      18.919 -17.259  21.874  1.00  0.00     0.173 HD
HETATM    8  C5  UNL     1      19.744 -18.784  20.567  1.00  0.00     0.305 C 
HETATM    9  O2  UNL     1      20.118 -18.182  19.516  1.00  0.00    -0.266 OA
ENDROOT
BRANCH   1  10
HETATM   10  N1  UNL     1      18.522 -20.866  20.312  1.00  0.00    -0.302 N 
HETATM   11  C1  UNL     1      17.302 -20.116  20.309  1.00  0.00     0.157 C 
HETATM   12  C2  UNL     1      18.548 -22.202  19.868  1.00  0.00     0.187 C 
HETATM   13  N2  UNL     1      18.379 -23.137  20.763  1.00  0.00    -0.374 N 
HETATM   14  N3  UNL     1      18.745 -22.559  18.519  1.00  0.00    -0.064 NA
ATOM     15  H22 UNL     1      18.237 -22.879  21.740  1.00  0.00     0.158 HD
ATOM     16  H21 UNL     1      18.399 -24.105  20.441  1.00  0.00     0.158 HD
ENDBRANCH   1  10
BRANCH   1  17
HETATM   17  N4  UNL     1      20.864 -20.806  20.068  1.00  0.00    -0.024 N 
ATOM     18  H43 UNL     1      21.683 -20.202  20.128  1.00  0.00     0.280 HD
ATOM     19  H42 UNL     1      21.247 -21.624  20.543  1.00  0.00     0.280 HD
ATOM     20  H41 UNL     1      20.610 -21.011  19.102  1.00  0.00     0.280 HD
ENDBRANCH   1  17
TORSDOF 2
ENDMDL
MODEL 5
REMARK VINA RESULT: -5.684960606      2.062      4.132
REMARK  2 active torsions:
REMARK  status: ('A' for Active; 'I' for Inactive)
REMARK       I    between atoms: N1_2  and  C2_3 
REMARK    1  A    between atoms: N1_2  and  C3_8 
REMARK    2  A    between atoms: C3_8  and  N4_9 
ROOT
HETATM    1  C3  UNL     1      19.859 -19.216  20.626  1.00  0.00     0.362 C 
HETATM    2  N5  UNL     1      20.808 -19.250  21.719  1.00  0.00    -0.285 N 
ATOM      3  H5  UNL     1      21.801 -19.470  21.640  1.00  0.00     0.169 HD
HETATM    4  C4  UNL     1      20.121 -18.922  22.924  1.00  0.00     0.326 C 
HETATM    5  O1  UNL     1      20.535 -19.153  24.109  1.00  0.00    -0.247 OA
HETATM    6  N6  UNL     1      18.907 -18.301  22.532  1.00  0.00    -0.274 N 
ATOM      7  H6  UNL     1      18.191 -17.950  23.167  1.00  0.00     0.173 HD
HETATM    8  C5  UNL     1      18.850 -18.248  21.120  1.00  0.00     0.305 C 
HETATM    9  O2  UNL     1      18.098 -17.525  20.399  1.00  0.00    -0.266 OA
ENDROOT
BRANCH   1  10
HETATM   10  N1  UNL     1      19.304 -20.514  20.375  1.00  0.00    -0.302 N 
HETATM   11  C1  UNL     1      17.914 -20.753  20.623  1.00  0.00     0.157 C 
HETATM   12  C2  UNL     1      20.136 -21.538  19.885  1.00  0.00     0.187 C 
HETATM   13  N2  UNL     1      20.776 -22.264  20.761  1.00  0.00    -0.374 N 
HETATM   14  N3  UNL     1      20.299 -21.804  18.510  1.00  0.00    -0.064 NA
ATOM     15  H22 UNL     1      20.659 -22.072  21.756  1.00  0.00     0.158 HD
ATOM     16  H21 UNL     1      21.379 -23.006  20.405  1.00  0.00     0.158 HD
ENDBRANCH   1  10
BRANCH   1  17
HETATM   17  N4  UNL     1      20.431 -18.681  19.416  1.00  0.00    -0.024 N 
ATOM     18  H43 UNL     1      20.143 -17.716  19.252  1.00  0.00     0.280 HD
ATOM     19  H42 UNL     1      21.435 -18.525  19.504  1.00  0.00     0.280 HD
ATOM     20  H41 UNL     1      20.207 -19.286  18.626  1.00  0.00     0.280 HD
ENDBRANCH   1  17
TORSDOF 2
ENDMDL
