MODEL 1
REMARK VINA RESULT: -7.420905121      0.000      0.000
REMARK  3 active torsions:
REMARK  status: ('A' for Active; 'I' for Inactive)
REMARK    1  A    between atoms: N1_1  and  N2_4 
REMARK       I    between atoms: N2_4  and  C1_6 
REMARK    2  A    between atoms: C1_6  and  C2_8 
REMARK       I    between atoms: C2_8  and  N3_10 
REMARK    3  A    between atoms: N3_10  and  C3_12 
ROOT
HETATM    1  C2  UNL     1      18.648 -18.827  21.787  1.00  0.00     0.329 C 
HETATM    2  O2  UNL     1      18.951 -17.784  21.167  1.00  0.00    -0.261 OA
HETATM    3  N3  UNL     1      18.740 -18.881  23.196  1.00  0.00    -0.150 N 
ATOM      4  H3  UNL     1      17.928 -19.199  23.725  1.00  0.00     0.188 HD
ENDROOT
BRANCH   3   5
HETATM    5  C3  UNL     1      19.805 -18.544  23.847  1.00  0.00     0.704 A 
HETATM    6  N4  UNL     1      20.187 -17.286  24.104  1.00  0.00    -0.128 N 
HETATM    7  N5  UNL     1      21.315 -17.392  24.783  1.00  0.00    -0.237 N 
ATOM      8  H4  UNL     1      19.707 -16.428  23.833  1.00  0.00     0.205 HD
HETATM    9  C4  UNL     1      21.647 -18.690  24.956  1.00  0.00     0.353 A 
ATOM     10  H5  UNL     1      21.861 -16.602  25.129  1.00  0.00     0.192 HD
HETATM   11  O3  UNL     1      22.648 -19.160  25.551  1.00  0.00    -0.245 OA
HETATM   12  N6  UNL     1      20.674 -19.421  24.353  1.00  0.00    -0.139 N 
ATOM     13  H6  UNL     1      20.619 -20.438  24.298  1.00  0.00     0.189 HD
ENDBRANCH   3   5
BRANCH   1  14
HETATM   14  C1  UNL     1      18.198 -19.989  21.075  1.00  0.00     0.328 C 
HETATM   15  N2  UNL     1      18.726 -21.261  21.383  1.00  0.00    -0.268 N 
ATOM     16  H2  UNL     1      19.430 -21.333  22.117  1.00  0.00     0.190 HD
HETATM   17  O1  UNL     1      17.338 -19.900  20.178  1.00  0.00    -0.261 OA
BRANCH  15  18
HETATM   18  N1  UNL     1      18.325 -22.427  20.723  1.00  0.00    -0.342 N 
ATOM     19  H12 UNL     1      17.324 -22.578  20.597  1.00  0.00     0.176 HD
ATOM     20  H11 UNL     1      18.988 -23.117  20.370  1.00  0.00     0.176 HD
ENDBRANCH  15  18
ENDBRANCH   1  14
TORSDOF 3
ENDMDL
MODEL 2
REMARK VINA RESULT: -7.366954646      1.910      2.482
REMARK  3 active torsions:
REMARK  status: ('A' for Active; 'I' for Inactive)
REMARK    1  A    between atoms: N1_1  and  N2_4 
REMARK       I    between atoms: N2_4  and  C1_6 
REMARK    2  A    between atoms: C1_6  and  C2_8 
REMARK       I    between atoms: C2_8  and  N3_10 
REMARK    3  A    between atoms: N3_10  and  C3_12 
ROOT
HETATM    1  C2  UNL     1      18.457 -18.349  22.540  1.00  0.00     0.329 C 
HETATM    2  O2  UNL     1      18.034 -17.760  23.558  1.00  0.00    -0.261 OA
HETATM    3  N3  UNL     1      19.240 -19.520  22.657  1.00  0.00    -0.150 N 
ATOM      4  H3  UNL     1      18.960 -20.347  22.130  1.00  0.00     0.188 HD
ENDROOT
BRANCH   3   5
HETATM    5  C3  UNL     1      20.294 -19.592  23.402  1.00  0.00     0.704 A 
HETATM    6  N4  UNL     1      21.104 -20.656  23.491  1.00  0.00    -0.128 N 
HETATM    7  N5  UNL     1      22.045 -20.310  24.352  1.00  0.00    -0.237 N 
ATOM      8  H4  UNL     1      21.013 -21.544  22.999  1.00  0.00     0.205 HD
HETATM    9  C4  UNL     1      21.840 -19.054  24.803  1.00  0.00     0.353 A 
ATOM     10  H5  UNL     1      22.819 -20.911  24.638  1.00  0.00     0.192 HD
HETATM   11  O3  UNL     1      22.533 -18.405  25.624  1.00  0.00    -0.245 OA
HETATM   12  N6  UNL     1      20.717 -18.600  24.189  1.00  0.00    -0.139 N 
ATOM     13  H6  UNL     1      20.283 -17.685  24.305  1.00  0.00     0.189 HD
ENDBRANCH   3   5
BRANCH   1  14
HETATM   14  C1  UNL     1      18.151 -17.846  21.231  1.00  0.00     0.328 C 
HETATM   15  N2  UNL     1      18.623 -18.517  20.083  1.00  0.00    -0.268 N 
ATOM     16  H2  UNL     1      19.182 -19.360  20.205  1.00  0.00     0.190 HD
HETATM   17  O1  UNL     1      17.467 -16.815  21.083  1.00  0.00    -0.261 OA
BRANCH  15  18
HETATM   18  N1  UNL     1      18.355 -18.072  18.784  1.00  0.00    -0.342 N 
ATOM     19  H12 UNL     1      18.808 -17.211  18.477  1.00  0.00     0.176 HD
ATOM     20  H11 UNL     1      17.736 -18.572  18.146  1.00  0.00     0.176 HD
ENDBRANCH  15  18
ENDBRANCH   1  14
TORSDOF 3
ENDMDL
MODEL 3
REMARK VINA RESULT: -7.265051147      1.001      1.001
REMARK  3 active torsions:
REMARK  status: ('A' for Active; 'I' for Inactive)
REMARK    1  A    between atoms: N1_1  and  N2_4 
REMARK       I    between atoms: N2_4  and  C1_6 
REMARK    2  A    between atoms: C1_6  and  C2_8 
REMARK       I    between atoms: C2_8  and  N3_10 
REMARK    3  A    between atoms: N3_10  and  C3_12 
ROOT
HETATM    1  C2  UNL     1      19.241 -19.277  21.527  1.00  0.00     0.329 C 
HETATM    2  O2  UNL     1      19.331 -18.189  20.919  1.00  0.00    -0.261 OA
HETATM    3  N3  UNL     1      19.130 -19.309  22.936  1.00  0.00    -0.150 N 
ATOM      4  H3  UNL     1      18.370 -19.846  23.352  1.00  0.00     0.188 HD
ENDROOT
BRANCH   3   5
HETATM    5  C3  UNL     1      19.947 -18.688  23.722  1.00  0.00     0.704 A 
HETATM    6  N4  UNL     1      20.019 -17.357  23.865  1.00  0.00    -0.128 N 
HETATM    7  N5  UNL     1      20.974 -17.150  24.754  1.00  0.00    -0.237 N 
ATOM      8  H4  UNL     1      19.455 -16.654  23.389  1.00  0.00     0.205 HD
HETATM    9  C4  UNL     1      21.501 -18.322  25.169  1.00  0.00     0.353 A 
ATOM     10  H5  UNL     1      21.273 -16.231  25.081  1.00  0.00     0.192 HD
HETATM   11  O3  UNL     1      22.421 -18.503  26.004  1.00  0.00    -0.245 OA
HETATM   12  N6  UNL     1      20.838 -19.302  24.503  1.00  0.00    -0.139 N 
ATOM     13  H6  UNL     1      20.989 -20.307  24.584  1.00  0.00     0.189 HD
ENDBRANCH   3   5
BRANCH   1  14
HETATM   14  C1  UNL     1      19.248 -20.516  20.803  1.00  0.00     0.328 C 
HETATM   15  N2  UNL     1      20.305 -21.436  20.976  1.00  0.00    -0.268 N 
ATOM     16  H2  UNL     1      21.057 -21.200  21.623  1.00  0.00     0.190 HD
HETATM   17  O1  UNL     1      18.329 -20.804  20.013  1.00  0.00    -0.261 OA
BRANCH  15  18
HETATM   18  N1  UNL     1      20.363 -22.657  20.298  1.00  0.00    -0.342 N 
ATOM     19  H12 UNL     1      19.484 -23.144  20.125  1.00  0.00     0.176 HD
ATOM     20  H11 UNL     1      21.240 -23.069  19.976  1.00  0.00     0.176 HD
ENDBRANCH  15  18
ENDBRANCH   1  14
TORSDOF 3
ENDMDL
MODEL 4
REMARK VINA RESULT: -7.151273807      1.869      2.312
REMARK  3 active torsions:
REMARK  status: ('A' for Active; 'I' for Inactive)
REMARK    1  A    between atoms: N1_1  and  N2_4 
REMARK       I    between atoms: N2_4  and  C1_6 
REMARK    2  A    between atoms: C1_6  and  C2_8 
REMARK       I    between atoms: C2_8  and  N3_10 
REMARK    3  A    between atoms: N3_10  and  C3_12 
ROOT
HETATM    1  C2  UNL     1      19.586 -18.680  21.339  1.00  0.00     0.329 C 
HETATM    2  O2  UNL     1      19.242 -17.583  21.829  1.00  0.00    -0.261 OA
HETATM    3  N3  UNL     1      19.860 -19.788  22.172  1.00  0.00    -0.150 N 
ATOM      4  H3  UNL     1      19.392 -20.673  21.975  1.00  0.00     0.188 HD
ENDROOT
BRANCH   3   5
HETATM    5  C3  UNL     1      20.677 -19.734  23.174  1.00  0.00     0.704 A 
HETATM    6  N4  UNL     1      21.428 -20.753  23.613  1.00  0.00    -0.128 N 
HETATM    7  N5  UNL     1      22.105 -20.273  24.641  1.00  0.00    -0.237 N 
ATOM      8  H4  UNL     1      21.469 -21.698  23.233  1.00  0.00     0.205 HD
HETATM    9  C4  UNL     1      21.793 -18.976  24.854  1.00  0.00     0.353 A 
ATOM     10  H5  UNL     1      22.772 -20.808  25.197  1.00  0.00     0.192 HD
HETATM   11  O3  UNL     1      22.243 -18.208  25.739  1.00  0.00    -0.245 OA
HETATM   12  N6  UNL     1      20.877 -18.639  23.909  1.00  0.00    -0.139 N 
ATOM     13  H6  UNL     1      20.431 -17.730  23.787  1.00  0.00     0.189 HD
ENDBRANCH   3   5
BRANCH   1  14
HETATM   14  C1  UNL     1      19.707 -18.833  19.917  1.00  0.00     0.328 C 
HETATM   15  N2  UNL     1      19.912 -20.111  19.354  1.00  0.00    -0.268 N 
ATOM     16  H2  UNL     1      19.971 -20.916  19.977  1.00  0.00     0.190 HD
HETATM   17  O1  UNL     1      19.635 -17.849  19.157  1.00  0.00    -0.261 OA
BRANCH  15  18
HETATM   18  N1  UNL     1      20.036 -20.320  17.976  1.00  0.00    -0.342 N 
ATOM     19  H12 UNL     1      19.911 -21.271  17.629  1.00  0.00     0.176 HD
ATOM     20  H11 UNL     1      20.244 -19.566  17.321  1.00  0.00     0.176 HD
ENDBRANCH  15  18
ENDBRANCH   1  14
TORSDOF 3
ENDMDL
MODEL 5
REMARK VINA RESULT: -7.107314895      1.402      1.544
REMARK  3 active torsions:
REMARK  status: ('A' for Active; 'I' for Inactive)
REMARK    1  A    between atoms: N1_1  and  N2_4 
REMARK       I    between atoms: N2_4  and  C1_6 
REMARK    2  A    between atoms: C1_6  and  C2_8 
REMARK       I    between atoms: C2_8  and  N3_10 
REMARK    3  A    between atoms: N3_10  and  C3_12 
ROOT
HETATM    1  C2  UNL     1      18.092 -18.340  22.105  1.00  0.00     0.329 C 
HETATM    2  O2  UNL     1      17.331 -17.552  22.707  1.00  0.00    -0.261 OA
HETATM    3  N3  UNL     1      19.046 -19.104  22.814  1.00  0.00    -0.150 N 
ATOM      4  H3  UNL     1      19.073 -20.112  22.662  1.00  0.00     0.188 HD
ENDROOT
BRANCH   3   5
HETATM    5  C3  UNL     1      19.888 -18.585  23.648  1.00  0.00     0.704 A 
HETATM    6  N4  UNL     1      20.025 -17.275  23.890  1.00  0.00    -0.128 N 
HETATM    7  N5  UNL     1      20.983 -17.182  24.796  1.00  0.00    -0.237 N 
ATOM      8  H4  UNL     1      19.500 -16.510  23.465  1.00  0.00     0.205 HD
HETATM    9  C4  UNL     1      21.447 -18.407  25.124  1.00  0.00     0.353 A 
ATOM     10  H5  UNL     1      21.325 -16.306  25.191  1.00  0.00     0.192 HD
HETATM   11  O3  UNL     1      22.351 -18.697  25.946  1.00  0.00    -0.245 OA
HETATM   12  N6  UNL     1      20.740 -19.300  24.384  1.00  0.00    -0.139 N 
ATOM     13  H6  UNL     1      20.840 -20.315  24.391  1.00  0.00     0.189 HD
ENDBRANCH   3   5
BRANCH   1  14
HETATM   14  C1  UNL     1      18.008 -18.482  20.679  1.00  0.00     0.328 C 
HETATM   15  N2  UNL     1      17.824 -19.757  20.102  1.00  0.00    -0.268 N 
ATOM     16  H2  UNL     1      17.754 -20.567  20.717  1.00  0.00     0.190 HD
HETATM   17  O1  UNL     1      18.094 -17.492  19.929  1.00  0.00    -0.261 OA
BRANCH  15  18
HETATM   18  N1  UNL     1      17.735 -19.955  18.720  1.00  0.00    -0.342 N 
ATOM     19  H12 UNL     1      17.340 -19.200  18.159  1.00  0.00     0.176 HD
ATOM     20  H11 UNL     1      18.046 -20.813  18.264  1.00  0.00     0.176 HD
ENDBRANCH  15  18
ENDBRANCH   1  14
TORSDOF 3
ENDMDL
